REMARK SMILES Cc1nc(-c2ccccc2Cl)nc2sc(C(=O)OCCOCCOC(=O)c3ccc(-c4c5nc(c(-c6c(F)cccc6F)c6ccc([nH]6)c(-c6c(F)cccc6F)c6nc(c(-c7c(F)cccc7F)c7ccc4[nH]7)C=C6)C=C5)cc3)c(N)c12
REMARK SMILES IDX 22 1 21 2 20 3 19 4 18 5 16 6 17 7 15 8 1 9 2 10 3 11 83 12
REMARK SMILES IDX 4 13 13 14 81 15 12 16 14 17 5 18 6 19 10 20 7 21 9 22 11 23
REMARK SMILES IDX 8 24 82 25 23 28 24 29 25 30 26 31 27 32 28 33 80 34 29 35
REMARK SMILES IDX 79 36 30 37 31 38 32 39 73 40 33 41 78 42 72 43 74 44 34 45
REMARK SMILES IDX 77 46 71 47 70 48 35 50 61 51 44 52 60 53 45 54 48 55 59 56
REMARK SMILES IDX 75 57 46 58 47 59 58 61 76 62 49 63 36 64 37 65 42 66 38 67
REMARK SMILES IDX 39 68 41 69 43 70 40 71 62 72 63 73 68 74 64 75 65 76 67 77
REMARK SMILES IDX 69 78 66 79 50 80 51 81 56 82 52 83 53 84 55 85 57 86 54 87
REMARK H PARENT 82 26 82 27 74 49 48 60
REMARK Flexibility Score: inf
ROOT
ATOM      1  C   UNL     1      -3.786   2.546  -4.982  1.00  0.00     0.202 C 
ENDROOT
BRANCH   1   2
ATOM      2  O   UNL     1      -3.777   3.109  -6.290  1.00  0.00    -0.374 OA
BRANCH   2   3
ATOM      3  C   UNL     1      -3.516   2.263  -7.410  1.00  0.00     0.202 C 
BRANCH   3   4
ATOM      4  C   UNL     1      -2.057   1.868  -7.642  1.00  0.00     0.261 C 
BRANCH   4   5
ATOM      5  O   UNL     1      -1.606   0.916  -6.666  1.00  0.00    -0.459 OA
BRANCH   5   6
ATOM      6  C   UNL     1      -0.789   1.412  -5.683  1.00  0.00     0.350 C 
ATOM      7  O   UNL     1      -0.397   2.558  -5.629  1.00  0.00    -0.245 OA
BRANCH   6   8
ATOM      8  C   UNL     1      -0.586   0.418  -4.640  1.00  0.00     0.138 A 
ATOM      9  C   UNL     1       0.785   0.092  -0.177  1.00  0.00     0.067 C 
ATOM     10  C   UNL     1       0.409  -0.878  -1.256  1.00  0.00     0.052 A 
ATOM     11  N   UNL     1       0.636  -2.188  -0.943  1.00  0.00    -0.233 NA
ATOM     12  C   UNL     1      -0.028  -0.562  -2.565  1.00  0.00     0.057 A 
ATOM     13  C   UNL     1       0.401  -3.146  -1.855  1.00  0.00     0.162 A 
ATOM     14  C   UNL     1      -0.211  -1.655  -3.401  1.00  0.00     0.130 A 
ATOM     15  C   UNL     1      -0.320   0.649  -3.298  1.00  0.00     0.069 A 
ATOM     16  N   UNL     1      -0.029  -2.945  -3.101  1.00  0.00    -0.217 NA
ATOM     17  S   UNL     1      -0.679  -1.248  -4.978  1.00  0.00    -0.106 S 
BRANCH  13  18
ATOM     18  C   UNL     1       0.783  -4.523  -1.542  1.00  0.00     0.038 A 
ATOM     19  C   UNL     1       1.689  -5.181  -2.404  1.00  0.00     0.013 A 
ATOM     20  C   UNL     1       0.261  -5.253  -0.464  1.00  0.00     0.052 A 
ATOM     21  C   UNL     1       2.050  -6.514  -2.209  1.00  0.00     0.001 A 
ATOM     22  C   UNL     1       0.623  -6.593  -0.269  1.00  0.00     0.021 A 
ATOM     23  Cl  UNL     1      -0.896  -4.582   0.636  1.00  0.00    -0.084 Cl
ATOM     24  C   UNL     1       1.512  -7.223  -1.142  1.00  0.00     0.002 A 
ENDBRANCH  13  18
BRANCH  15  25
ATOM     25  N   UNL     1      -0.334   1.898  -2.780  1.00  0.00    -0.397 N 
ATOM     26  H   UNL     1      -0.544   2.667  -3.357  1.00  0.00     0.156 HD
ATOM     27  H   UNL     1      -0.133   2.038  -1.826  1.00  0.00     0.156 HD
ENDBRANCH  15  25
ENDBRANCH   6   8
ENDBRANCH   5   6
ENDBRANCH   4   5
ENDBRANCH   3   4
ENDBRANCH   2   3
ENDBRANCH   1   2
BRANCH   1  28
ATOM     28  C   UNL     1      -4.994   1.717  -4.580  1.00  0.00     0.261 C 
BRANCH  28  29
ATOM     29  O   UNL     1      -5.109   0.528  -5.350  1.00  0.00    -0.460 OA
BRANCH  29  30
ATOM     30  C   UNL     1      -6.057   0.591  -6.310  1.00  0.00     0.338 C 
ATOM     31  O   UNL     1      -6.563   1.594  -6.783  1.00  0.00    -0.246 OA
BRANCH  30  32
ATOM     32  C   UNL     1      -6.547  -0.767  -6.560  1.00  0.00     0.060 A 
ATOM     33  C   UNL     1      -7.726  -0.855  -7.296  1.00  0.00     0.016 A 
ATOM     34  C   UNL     1      -6.016  -1.873  -5.872  1.00  0.00     0.016 A 
ATOM     35  C   UNL     1      -8.477  -1.999  -7.179  1.00  0.00     0.010 A 
ATOM     36  C   UNL     1      -6.769  -3.022  -5.761  1.00  0.00     0.010 A 
ATOM     37  C   UNL     1      -8.024  -3.042  -6.354  1.00  0.00    -0.014 A 
BRANCH  37  38
ATOM     38  C   UNL     1      -8.875  -4.210  -6.280  1.00  0.00     0.031 A 
ATOM     39  C   UNL     1      -8.960  -4.899  -7.580  1.00  0.00     0.074 A 
ATOM     40  C   UNL     1      -9.522  -4.619  -5.174  1.00  0.00     0.049 A 
ATOM     41  N   UNL     1      -9.943  -4.847  -8.412  1.00  0.00    -0.248 NA
ATOM     42  C   UNL     1      -7.748  -5.542  -8.111  1.00  0.00     0.031 C 
ATOM     43  C   UNL     1      -9.283  -4.198  -3.792  1.00  0.00     0.029 A 
ATOM     44  N   UNL     1     -10.494  -5.571  -5.047  1.00  0.00    -0.354 N 
ATOM     45  C   UNL     1      -9.577  -5.688  -9.453  1.00  0.00     0.074 A 
ATOM     46  C   UNL     1      -8.162  -5.909  -9.326  1.00  0.00     0.031 C 
ATOM     47  C   UNL     1      -9.913  -5.053  -2.953  1.00  0.00     0.029 A 
ATOM     48  C   UNL     1     -10.727  -5.968  -3.737  1.00  0.00     0.049 A 
ATOM     49  H   UNL     1     -10.984  -5.942  -5.816  1.00  0.00     0.167 HD
ATOM     50  C   UNL     1     -10.538  -6.405 -10.092  1.00  0.00     0.037 A 
ATOM     51  C   UNL     1     -11.506  -7.004  -3.341  1.00  0.00     0.037 A 
ATOM     52  C   UNL     1     -11.850  -5.867  -9.833  1.00  0.00     0.049 A 
ATOM     53  C   UNL     1     -12.492  -7.271  -4.413  1.00  0.00     0.074 A 
ATOM     54  C   UNL     1     -12.635  -4.834 -10.294  1.00  0.00     0.029 A 
ATOM     55  N   UNL     1     -12.375  -6.272  -8.638  1.00  0.00    -0.354 N 
ATOM     56  N   UNL     1     -13.456  -6.452  -4.727  1.00  0.00    -0.248 NA
ATOM     57  C   UNL     1     -12.235  -8.339  -5.376  1.00  0.00     0.031 C 
ATOM     58  C   UNL     1     -13.626  -4.596  -9.292  1.00  0.00     0.029 A 
ATOM     59  C   UNL     1     -13.439  -5.504  -8.255  1.00  0.00     0.049 A 
ATOM     60  H   UNL     1     -12.028  -7.029  -8.114  1.00  0.00     0.167 HD
ATOM     61  C   UNL     1     -13.627  -6.641  -6.081  1.00  0.00     0.074 A 
ATOM     62  C   UNL     1     -12.998  -7.918  -6.386  1.00  0.00     0.031 C 
ATOM     63  C   UNL     1     -13.930  -5.596  -6.900  1.00  0.00     0.037 A 
BRANCH  50  64
ATOM     64  C   UNL     1     -10.370  -7.860 -10.465  1.00  0.00     0.057 A 
ATOM     65  C   UNL     1     -11.370  -8.483 -11.230  1.00  0.00     0.134 A 
ATOM     66  C   UNL     1      -9.453  -8.740  -9.849  1.00  0.00     0.134 A 
ATOM     67  F   UNL     1     -12.325  -7.759 -11.833  1.00  0.00    -0.206 F 
ATOM     68  C   UNL     1     -11.473  -9.876 -11.338  1.00  0.00     0.040 A 
ATOM     69  C   UNL     1      -9.516 -10.127  -9.993  1.00  0.00     0.040 A 
ATOM     70  F   UNL     1      -8.517  -8.320  -8.990  1.00  0.00    -0.206 F 
ATOM     71  C   UNL     1     -10.544 -10.703 -10.718  1.00  0.00     0.006 A 
ENDBRANCH  50  64
BRANCH  51  72
ATOM     72  C   UNL     1     -11.288  -7.972  -2.242  1.00  0.00     0.057 A 
ATOM     73  C   UNL     1     -12.316  -8.840  -1.842  1.00  0.00     0.134 A 
ATOM     74  C   UNL     1      -9.996  -8.296  -1.797  1.00  0.00     0.134 A 
ATOM     75  F   UNL     1     -13.581  -8.625  -2.235  1.00  0.00    -0.206 F 
ATOM     76  C   UNL     1     -12.066 -10.001  -1.102  1.00  0.00     0.040 A 
ATOM     77  C   UNL     1      -9.734  -9.450  -1.050  1.00  0.00     0.040 A 
ATOM     78  F   UNL     1      -8.934  -7.562  -2.156  1.00  0.00    -0.206 F 
ATOM     79  C   UNL     1     -10.767 -10.320  -0.722  1.00  0.00     0.006 A 
ENDBRANCH  51  72
BRANCH  63  80
ATOM     80  C   UNL     1     -14.656  -4.432  -6.314  1.00  0.00     0.057 A 
ATOM     81  C   UNL     1     -14.111  -3.533  -5.389  1.00  0.00     0.134 A 
ATOM     82  C   UNL     1     -15.954  -4.176  -6.771  1.00  0.00     0.134 A 
ATOM     83  F   UNL     1     -12.854  -3.673  -4.943  1.00  0.00    -0.206 F 
ATOM     84  C   UNL     1     -14.842  -2.433  -4.927  1.00  0.00     0.040 A 
ATOM     85  C   UNL     1     -16.681  -3.068  -6.340  1.00  0.00     0.040 A 
ATOM     86  F   UNL     1     -16.523  -4.988  -7.676  1.00  0.00    -0.206 F 
ATOM     87  C   UNL     1     -16.127  -2.194  -5.410  1.00  0.00     0.006 A 
ENDBRANCH  63  80
ENDBRANCH  37  38
ENDBRANCH  30  32
ENDBRANCH  29  30
ENDBRANCH  28  29
ENDBRANCH   1  28
TORSDOF 16
