REMARK SMILES CC(C)N(CCCC(=O)OCCOCCOC(=O)c1ccc(-c2c3nc(c(-c4c(F)cccc4F)c4ccc([nH]4)c(-c4c(F)cccc4F)c4nc(c(-c5c(F)cccc5F)c5ccc2[nH]5)C=C4)C=C3)cc1)C(=O)Cc1c(F)cccc1F
REMARK SMILES IDX 11 1 10 2 8 3 9 4 7 5 6 6 5 7 4 8 2 9 1 10 3 11 73 12 74 13
REMARK SMILES IDX 75 14 76 15 77 16 82 17 78 18 79 19 81 20 83 21 80 22 12 23
REMARK SMILES IDX 13 24 14 25 15 26 16 27 17 28 18 29 19 30 20 31 72 32 21 33
REMARK SMILES IDX 71 34 22 35 23 36 24 37 65 38 25 39 70 40 64 41 66 42 26 43
REMARK SMILES IDX 69 44 63 45 62 46 27 48 53 49 36 50 52 51 37 52 40 53 51 54
REMARK SMILES IDX 67 55 38 56 39 57 50 59 68 60 41 61 28 62 29 63 34 64 30 65
REMARK SMILES IDX 31 66 33 67 35 68 32 69 54 70 55 71 60 72 56 73 57 74 59 75
REMARK SMILES IDX 61 76 58 77 42 78 43 79 48 80 44 81 45 82 47 83 49 84 46 85
REMARK H PARENT 66 47 40 58
REMARK Flexibility Score: inf
ROOT
ATOM      1  C   UNL     1      -5.649  -0.581   1.475  1.00  0.00     0.261 C 
ENDROOT
BRANCH   1   2
ATOM      2  O   UNL     1      -4.587   0.109   2.149  1.00  0.00    -0.463 OA
BRANCH   2   3
ATOM      3  C   UNL     1      -4.608   1.466   2.061  1.00  0.00     0.305 C 
ATOM      4  O   UNL     1      -5.537   2.126   1.615  1.00  0.00    -0.252 OA
BRANCH   3   5
ATOM      5  C   UNL     1      -3.323   2.113   2.546  1.00  0.00     0.124 C 
BRANCH   5   6
ATOM      6  C   UNL     1      -2.125   1.191   2.784  1.00  0.00     0.033 C 
BRANCH   6   7
ATOM      7  C   UNL     1      -1.702   0.315   1.595  1.00  0.00     0.120 C 
BRANCH   7   8
ATOM      8  N   UNL     1      -0.851   0.977   0.599  1.00  0.00    -0.340 N 
BRANCH   8   9
ATOM      9  C   UNL     1       0.598   1.002   0.906  1.00  0.00     0.078 C 
ATOM     10  C   UNL     1       1.409   0.092  -0.023  1.00  0.00     0.031 C 
ATOM     11  C   UNL     1       1.171   2.418   0.965  1.00  0.00     0.031 C 
ENDBRANCH   8   9
BRANCH   8  12
ATOM     12  C   UNL     1      -1.282   1.373  -0.674  1.00  0.00     0.227 C 
ATOM     13  O   UNL     1      -0.498   1.784  -1.535  1.00  0.00    -0.275 OA
BRANCH  12  14
ATOM     14  C   UNL     1      -2.764   1.377  -1.001  1.00  0.00     0.142 C 
BRANCH  14  15
ATOM     15  C   UNL     1      -3.427   0.100  -1.452  1.00  0.00     0.033 A 
ATOM     16  C   UNL     1      -4.769   0.175  -1.855  1.00  0.00     0.129 A 
ATOM     17  C   UNL     1      -2.847  -1.167  -1.423  1.00  0.00     0.129 A 
ATOM     18  F   UNL     1      -5.386   1.365  -1.872  1.00  0.00    -0.207 F 
ATOM     19  C   UNL     1      -5.515  -0.958  -2.181  1.00  0.00     0.040 A 
ATOM     20  C   UNL     1      -3.586  -2.311  -1.736  1.00  0.00     0.040 A 
ATOM     21  F   UNL     1      -1.576  -1.333  -1.039  1.00  0.00    -0.207 F 
ATOM     22  C   UNL     1      -4.923  -2.213  -2.111  1.00  0.00     0.006 A 
ENDBRANCH  14  15
ENDBRANCH  12  14
ENDBRANCH   8  12
ENDBRANCH   7   8
ENDBRANCH   6   7
ENDBRANCH   5   6
ENDBRANCH   3   5
ENDBRANCH   2   3
ENDBRANCH   1   2
BRANCH   1  23
ATOM     23  C   UNL     1      -6.278  -1.733   2.256  1.00  0.00     0.202 C 
BRANCH  23  24
ATOM     24  O   UNL     1      -6.673  -1.492   3.596  1.00  0.00    -0.374 OA
BRANCH  24  25
ATOM     25  C   UNL     1      -5.669  -1.097   4.523  1.00  0.00     0.202 C 
BRANCH  25  26
ATOM     26  C   UNL     1      -4.529  -2.080   4.842  1.00  0.00     0.261 C 
BRANCH  26  27
ATOM     27  O   UNL     1      -3.780  -2.587   3.718  1.00  0.00    -0.460 OA
BRANCH  27  28
ATOM     28  C   UNL     1      -3.985  -3.908   3.461  1.00  0.00     0.338 C 
ATOM     29  O   UNL     1      -4.799  -4.639   3.997  1.00  0.00    -0.246 OA
BRANCH  28  30
ATOM     30  C   UNL     1      -3.128  -4.397   2.361  1.00  0.00     0.060 A 
ATOM     31  C   UNL     1      -3.740  -5.054   1.285  1.00  0.00     0.016 A 
ATOM     32  C   UNL     1      -1.736  -4.392   2.479  1.00  0.00     0.016 A 
ATOM     33  C   UNL     1      -2.961  -5.739   0.346  1.00  0.00     0.010 A 
ATOM     34  C   UNL     1      -0.959  -5.088   1.543  1.00  0.00     0.010 A 
ATOM     35  C   UNL     1      -1.567  -5.791   0.488  1.00  0.00    -0.014 A 
BRANCH  35  36
ATOM     36  C   UNL     1      -0.755  -6.657  -0.408  1.00  0.00     0.031 A 
ATOM     37  C   UNL     1      -0.400  -8.055   0.016  1.00  0.00     0.074 A 
ATOM     38  C   UNL     1      -0.341  -6.207  -1.606  1.00  0.00     0.049 A 
ATOM     39  N   UNL     1       0.340  -8.943  -0.598  1.00  0.00    -0.248 NA
ATOM     40  C   UNL     1      -0.940  -8.506   1.307  1.00  0.00     0.031 C 
ATOM     41  C   UNL     1      -0.613  -4.877  -2.135  1.00  0.00     0.029 A 
ATOM     42  N   UNL     1       0.401  -6.814  -2.588  1.00  0.00    -0.354 N 
ATOM     43  C   UNL     1       0.360 -10.058   0.230  1.00  0.00     0.074 A 
ATOM     44  C   UNL     1      -0.428  -9.725   1.400  1.00  0.00     0.031 C 
ATOM     45  C   UNL     1      -0.070  -4.769  -3.357  1.00  0.00     0.029 A 
ATOM     46  C   UNL     1       0.652  -6.001  -3.667  1.00  0.00     0.049 A 
ATOM     47  H   UNL     1       0.723  -7.743  -2.526  1.00  0.00     0.167 HD
ATOM     48  C   UNL     1       0.979 -11.247   0.035  1.00  0.00     0.037 A 
ATOM     49  C   UNL     1       1.416  -6.203  -4.758  1.00  0.00     0.037 A 
ATOM     50  C   UNL     1       1.782 -11.574  -1.115  1.00  0.00     0.049 A 
ATOM     51  C   UNL     1       2.159  -7.502  -4.914  1.00  0.00     0.074 A 
ATOM     52  C   UNL     1       2.442 -12.758  -1.399  1.00  0.00     0.029 A 
ATOM     53  N   UNL     1       2.049 -10.708  -2.166  1.00  0.00    -0.354 N 
ATOM     54  N   UNL     1       2.157  -8.553  -4.132  1.00  0.00    -0.248 NA
ATOM     55  C   UNL     1       3.027  -7.633  -6.094  1.00  0.00     0.031 C 
ATOM     56  C   UNL     1       3.145 -12.592  -2.598  1.00  0.00     0.029 A 
ATOM     57  C   UNL     1       2.887 -11.321  -3.084  1.00  0.00     0.049 A 
ATOM     58  H   UNL     1       1.695  -9.793  -2.247  1.00  0.00     0.167 HD
ATOM     59  C   UNL     1       3.017  -9.470  -4.724  1.00  0.00     0.074 A 
ATOM     60  C   UNL     1       3.504  -8.861  -5.944  1.00  0.00     0.031 C 
ATOM     61  C   UNL     1       3.375 -10.704  -4.290  1.00  0.00     0.037 A 
BRANCH  48  62
ATOM     62  C   UNL     1       0.833 -12.280   1.114  1.00  0.00     0.057 A 
ATOM     63  C   UNL     1      -0.368 -12.971   1.315  1.00  0.00     0.134 A 
ATOM     64  C   UNL     1       1.914 -12.603   1.944  1.00  0.00     0.134 A 
ATOM     65  F   UNL     1      -1.444 -12.699   0.562  1.00  0.00    -0.206 F 
ATOM     66  C   UNL     1      -0.496 -13.931   2.321  1.00  0.00     0.040 A 
ATOM     67  C   UNL     1       1.805 -13.578   2.937  1.00  0.00     0.040 A 
ATOM     68  F   UNL     1       3.094 -11.982   1.799  1.00  0.00    -0.206 F 
ATOM     69  C   UNL     1       0.595 -14.240   3.132  1.00  0.00     0.006 A 
ENDBRANCH  48  62
BRANCH  49  70
ATOM     70  C   UNL     1       1.563  -5.124  -5.767  1.00  0.00     0.057 A 
ATOM     71  C   UNL     1       1.020  -5.249  -7.050  1.00  0.00     0.134 A 
ATOM     72  C   UNL     1       2.259  -3.945  -5.472  1.00  0.00     0.134 A 
ATOM     73  F   UNL     1       0.368  -6.367  -7.401  1.00  0.00    -0.206 F 
ATOM     74  C   UNL     1       1.168  -4.243  -8.006  1.00  0.00     0.040 A 
ATOM     75  C   UNL     1       2.390  -2.919  -6.408  1.00  0.00     0.040 A 
ATOM     76  F   UNL     1       2.807  -3.768  -4.261  1.00  0.00    -0.206 F 
ATOM     77  C   UNL     1       1.848  -3.070  -7.683  1.00  0.00     0.006 A 
ENDBRANCH  49  70
BRANCH  61  78
ATOM     78  C   UNL     1       4.334 -11.481  -5.144  1.00  0.00     0.057 A 
ATOM     79  C   UNL     1       5.696 -11.157  -5.202  1.00  0.00     0.134 A 
ATOM     80  C   UNL     1       3.900 -12.587  -5.885  1.00  0.00     0.134 A 
ATOM     81  F   UNL     1       6.172 -10.099  -4.528  1.00  0.00    -0.206 F 
ATOM     82  C   UNL     1       6.589 -11.896  -5.980  1.00  0.00     0.040 A 
ATOM     83  C   UNL     1       4.788 -13.348  -6.648  1.00  0.00     0.040 A 
ATOM     84  F   UNL     1       2.610 -12.955  -5.868  1.00  0.00    -0.206 F 
ATOM     85  C   UNL     1       6.136 -13.000  -6.700  1.00  0.00     0.006 A 
ENDBRANCH  61  78
ENDBRANCH  35  36
ENDBRANCH  28  30
ENDBRANCH  27  28
ENDBRANCH  26  27
ENDBRANCH  25  26
ENDBRANCH  24  25
ENDBRANCH  23  24
ENDBRANCH   1  23
TORSDOF 21
