REMARK SMILES [NH3+][C@@H](CC1=C[C@H](S)c2ccccc2C1)C(=O)OCCOCCOC(=O)c1ccc(-c2c3nc(c(-c4c(F)cccc4F)c4ccc([nH]4)c(-c4c(F)cccc4F)c4nc(c(-c5c(F)cccc5F)c5ccc2[nH]5)C=C4)C=C3)cc1
REMARK SMILES IDX 19 1 18 2 17 3 15 4 16 5 2 6 1 7 3 11 4 12 5 13 14 14 6 15
REMARK SMILES IDX 13 16 8 17 12 18 9 19 11 20 10 21 7 22 20 24 21 25 22 26
REMARK SMILES IDX 23 27 24 28 25 29 26 30 27 31 79 32 28 33 78 34 29 35 30 36
REMARK SMILES IDX 31 37 72 38 32 39 77 40 71 41 73 42 33 43 76 44 70 45 69 46
REMARK SMILES IDX 34 48 60 49 43 50 59 51 44 52 47 53 58 54 74 55 45 56 46 57
REMARK SMILES IDX 57 59 75 60 48 61 35 62 36 63 41 64 37 65 38 66 40 67 42 68
REMARK SMILES IDX 39 69 61 70 62 71 67 72 63 73 64 74 66 75 68 76 65 77 49 78
REMARK SMILES IDX 50 79 55 80 51 81 52 82 54 83 56 84 53 85
REMARK H PARENT 1 8 1 9 1 10 7 23 73 47 47 58
REMARK Flexibility Score: inf
ROOT
ATOM      1  C   UNL     1      -3.683  -0.033  -0.702  1.00  0.00     0.202 C 
ENDROOT
BRANCH   1   2
ATOM      2  C   UNL     1      -2.929  -1.164  -1.402  1.00  0.00     0.261 C 
BRANCH   2   3
ATOM      3  O   UNL     1      -1.525  -1.098  -1.109  1.00  0.00    -0.459 OA
BRANCH   3   4
ATOM      4  C   UNL     1      -0.694  -0.989  -2.184  1.00  0.00     0.365 C 
ATOM      5  O   UNL     1      -1.053  -1.040  -3.355  1.00  0.00    -0.245 OA
BRANCH   4   6
ATOM      6  C   UNL     1       0.773  -0.837  -1.770  1.00  0.00     0.295 C 
BRANCH   6   7
ATOM      7  N   UNL     1       1.019   0.232  -0.775  1.00  0.00    -0.346 N 
ATOM      8  H   UNL     1       2.014   0.269  -0.554  1.00  0.00     0.345 HD
ATOM      9  H   UNL     1       0.488   0.035   0.074  1.00  0.00     0.345 HD
ATOM     10  H   UNL     1       0.723   1.129  -1.160  1.00  0.00     0.345 HD
ENDBRANCH   6   7
BRANCH   6  11
ATOM     11  C   UNL     1       1.377  -2.210  -1.437  1.00  0.00     0.108 C 
BRANCH  11  12
ATOM     12  C   UNL     1       0.900  -3.061  -0.267  1.00  0.00    -0.062 C 
ATOM     13  C   UNL     1       0.271  -2.636   0.846  1.00  0.00    -0.009 C 
ATOM     14  C   UNL     1       1.211  -4.529  -0.462  1.00  0.00     0.066 C 
ATOM     15  C   UNL     1      -0.128  -3.510   2.010  1.00  0.00     0.096 C 
ATOM     16  C   UNL     1       0.801  -5.452   0.656  1.00  0.00    -0.039 A 
ATOM     17  C   UNL     1       0.178  -4.981   1.826  1.00  0.00    -0.028 A 
ATOM     18  C   UNL     1       1.052  -6.826   0.501  1.00  0.00     0.004 A 
ATOM     19  C   UNL     1      -0.184  -5.911   2.818  1.00  0.00     0.005 A 
ATOM     20  C   UNL     1       0.703  -7.729   1.500  1.00  0.00     0.000 A 
ATOM     21  C   UNL     1       0.090  -7.270   2.660  1.00  0.00     0.000 A 
BRANCH  15  22
ATOM     22  S   UNL     1       0.719  -2.820   3.484  1.00  0.00    -0.167 SA
ATOM     23  H   UNL     1       2.065  -2.870   3.298  1.00  0.00     0.103 HD
ENDBRANCH  15  22
ENDBRANCH  11  12
ENDBRANCH   6  11
ENDBRANCH   4   6
ENDBRANCH   3   4
ENDBRANCH   2   3
ENDBRANCH   1   2
BRANCH   1  24
ATOM     24  O   UNL     1      -3.391   1.298  -1.127  1.00  0.00    -0.374 OA
BRANCH  24  25
ATOM     25  C   UNL     1      -2.123   1.847  -0.775  1.00  0.00     0.202 C 
BRANCH  25  26
ATOM     26  C   UNL     1      -1.946   2.346   0.665  1.00  0.00     0.261 C 
BRANCH  26  27
ATOM     27  O   UNL     1      -2.143   1.322   1.655  1.00  0.00    -0.460 OA
BRANCH  27  28
ATOM     28  C   UNL     1      -3.344   1.372   2.283  1.00  0.00     0.338 C 
ATOM     29  O   UNL     1      -4.237   2.190   2.110  1.00  0.00    -0.246 OA
BRANCH  28  30
ATOM     30  C   UNL     1      -3.522   0.177   3.130  1.00  0.00     0.060 A 
ATOM     31  C   UNL     1      -2.531  -0.243   4.018  1.00  0.00     0.016 A 
ATOM     32  C   UNL     1      -4.749  -0.497   3.066  1.00  0.00     0.016 A 
ATOM     33  C   UNL     1      -2.792  -1.315   4.874  1.00  0.00     0.010 A 
ATOM     34  C   UNL     1      -5.011  -1.561   3.929  1.00  0.00     0.010 A 
ATOM     35  C   UNL     1      -4.043  -1.961   4.859  1.00  0.00    -0.014 A 
BRANCH  35  36
ATOM     36  C   UNL     1      -4.365  -2.959   5.909  1.00  0.00     0.031 A 
ATOM     37  C   UNL     1      -4.464  -4.423   5.604  1.00  0.00     0.074 A 
ATOM     38  C   UNL     1      -4.567  -2.521   7.167  1.00  0.00     0.049 A 
ATOM     39  N   UNL     1      -4.598  -5.428   6.432  1.00  0.00    -0.248 NA
ATOM     40  C   UNL     1      -4.420  -4.809   4.187  1.00  0.00     0.031 C 
ATOM     41  C   UNL     1      -4.570  -1.115   7.576  1.00  0.00     0.029 A 
ATOM     42  N   UNL     1      -4.792  -3.208   8.332  1.00  0.00    -0.354 N 
ATOM     43  C   UNL     1      -4.623  -6.570   5.644  1.00  0.00     0.074 A 
ATOM     44  C   UNL     1      -4.559  -6.126   4.265  1.00  0.00     0.031 C 
ATOM     45  C   UNL     1      -4.737  -1.046   8.906  1.00  0.00     0.029 A 
ATOM     46  C   UNL     1      -4.877  -2.397   9.438  1.00  0.00     0.049 A 
ATOM     47  H   UNL     1      -4.883  -4.187   8.373  1.00  0.00     0.167 HD
ATOM     48  C   UNL     1      -4.665  -7.868   6.035  1.00  0.00     0.037 A 
ATOM     49  C   UNL     1      -5.034  -2.710  10.738  1.00  0.00     0.037 A 
ATOM     50  C   UNL     1      -4.761  -8.303   7.406  1.00  0.00     0.049 A 
ATOM     51  C   UNL     1      -5.113  -4.156  11.139  1.00  0.00     0.074 A 
ATOM     52  C   UNL     1      -4.777  -9.595   7.905  1.00  0.00     0.029 A 
ATOM     53  N   UNL     1      -4.878  -7.456   8.499  1.00  0.00    -0.354 N 
ATOM     54  N   UNL     1      -5.025  -5.231  10.393  1.00  0.00    -0.248 NA
ATOM     55  C   UNL     1      -5.301  -4.432  12.570  1.00  0.00     0.031 C 
ATOM     56  C   UNL     1      -4.955  -9.530   9.292  1.00  0.00     0.029 A 
ATOM     57  C   UNL     1      -4.996  -8.197   9.666  1.00  0.00     0.049 A 
ATOM     58  H   UNL     1      -4.877  -6.473   8.453  1.00  0.00     0.167 HD
ATOM     59  C   UNL     1      -5.129  -6.308  11.264  1.00  0.00     0.074 A 
ATOM     60  C   UNL     1      -5.249  -5.755  12.597  1.00  0.00     0.031 C 
ATOM     61  C   UNL     1      -5.131  -7.635  10.987  1.00  0.00     0.037 A 
BRANCH  48  62
ATOM     62  C   UNL     1      -4.588  -8.909   4.955  1.00  0.00     0.057 A 
ATOM     63  C   UNL     1      -5.677  -9.736   4.658  1.00  0.00     0.134 A 
ATOM     64  C   UNL     1      -3.412  -9.104   4.219  1.00  0.00     0.134 A 
ATOM     65  F   UNL     1      -6.829  -9.618   5.335  1.00  0.00    -0.206 F 
ATOM     66  C   UNL     1      -5.601 -10.710   3.660  1.00  0.00     0.040 A 
ATOM     67  C   UNL     1      -3.333 -10.051   3.197  1.00  0.00     0.040 A 
ATOM     68  F   UNL     1      -2.331  -8.348   4.462  1.00  0.00    -0.206 F 
ATOM     69  C   UNL     1      -4.431 -10.861   2.918  1.00  0.00     0.006 A 
ENDBRANCH  48  62
BRANCH  49  70
ATOM     70  C   UNL     1      -5.105  -1.638  11.763  1.00  0.00     0.057 A 
ATOM     71  C   UNL     1      -6.203  -0.773  11.836  1.00  0.00     0.134 A 
ATOM     72  C   UNL     1      -4.096  -1.482  12.721  1.00  0.00     0.134 A 
ATOM     73  F   UNL     1      -7.199  -0.864  10.943  1.00  0.00    -0.206 F 
ATOM     74  C   UNL     1      -6.298   0.205  12.827  1.00  0.00     0.040 A 
ATOM     75  C   UNL     1      -4.192  -0.529  13.736  1.00  0.00     0.040 A 
ATOM     76  F   UNL     1      -3.027  -2.292  12.714  1.00  0.00    -0.206 F 
ATOM     77  C   UNL     1      -5.296   0.320  13.789  1.00  0.00     0.006 A 
ENDBRANCH  49  70
BRANCH  61  78
ATOM     78  C   UNL     1      -5.259  -8.570  12.157  1.00  0.00     0.057 A 
ATOM     79  C   UNL     1      -4.181  -9.371  12.556  1.00  0.00     0.134 A 
ATOM     80  C   UNL     1      -6.445  -8.670  12.899  1.00  0.00     0.134 A 
ATOM     81  F   UNL     1      -3.019  -9.334  11.887  1.00  0.00    -0.206 F 
ATOM     82  C   UNL     1      -4.275 -10.229  13.654  1.00  0.00     0.040 A 
ATOM     83  C   UNL     1      -6.539  -9.499  14.018  1.00  0.00     0.040 A 
ATOM     84  F   UNL     1      -7.511  -7.920  12.581  1.00  0.00    -0.206 F 
ATOM     85  C   UNL     1      -5.452 -10.284  14.396  1.00  0.00     0.006 A 
ENDBRANCH  61  78
ENDBRANCH  35  36
ENDBRANCH  28  30
ENDBRANCH  27  28
ENDBRANCH  26  27
ENDBRANCH  25  26
ENDBRANCH  24  25
ENDBRANCH   1  24
TORSDOF 18
