REMARK SMILES C=CC[N@@H+](CC(=O)OCCOCCOC(=O)c1ccc(-c2c3nc(c(-c4c(F)cccc4F)c4ccc([nH]4)c(-c4c(F)cccc4F)c4nc(c(-c5c(F)cccc5F)c5ccc2[nH]5)C=C4)C=C3)cc1)[C@@H]1CCC[C@H](C(C)(C)C)CC1
REMARK SMILES IDX 9 1 8 2 6 3 7 4 5 5 4 6 3 8 2 9 1 10 71 11 72 12 73 13 81 15
REMARK SMILES IDX 80 16 75 17 74 18 76 20 77 21 78 22 79 23 10 24 11 25 12 26
REMARK SMILES IDX 13 27 14 28 15 29 16 30 17 31 18 32 70 33 19 34 69 35 20 36
REMARK SMILES IDX 21 37 22 38 63 39 23 40 68 41 62 42 64 43 24 44 67 45 61 46
REMARK SMILES IDX 60 47 25 49 51 50 34 51 50 52 35 53 38 54 49 55 65 56 36 57
REMARK SMILES IDX 37 58 48 60 66 61 39 62 26 63 27 64 32 65 28 66 29 67 31 68
REMARK SMILES IDX 33 69 30 70 52 71 53 72 58 73 54 74 55 75 57 76 59 77 56 78
REMARK SMILES IDX 40 79 41 80 46 81 42 82 43 83 45 84 47 85 44 86
REMARK H PARENT 4 7 64 48 38 59
REMARK Flexibility Score: 90.00
ROOT
ATOM      1  C   UNL     1      -4.511   0.713  -0.384  1.00  0.00     0.261 C 
ENDROOT
BRANCH   1   2
ATOM      2  O   UNL     1      -3.488  -0.283  -0.166  1.00  0.00    -0.459 OA
BRANCH   2   3
ATOM      3  C   UNL     1      -3.905  -1.578  -0.199  1.00  0.00     0.361 C 
ATOM      4  O   UNL     1      -5.049  -1.909  -0.505  1.00  0.00    -0.245 OA
BRANCH   3   5
ATOM      5  C   UNL     1      -2.894  -2.625   0.284  1.00  0.00     0.387 C 
BRANCH   5   6
ATOM      6  N   UNL     1      -1.430  -2.345   0.255  1.00  0.00    -0.320 N 
ATOM      7  H   UNL     1      -0.916  -3.140   0.635  1.00  0.00     0.349 HD
BRANCH   6   8
ATOM      8  C   UNL     1      -1.065  -1.294   1.208  1.00  0.00     0.291 C 
BRANCH   8   9
ATOM      9  C   UNL     1       0.345  -1.372   1.710  1.00  0.00     0.025 C 
ATOM     10  C   UNL     1       1.133  -0.300   1.884  1.00  0.00     0.010 C 
ENDBRANCH   8   9
ENDBRANCH   6   8
BRANCH   6  11
ATOM     11  C   UNL     1      -0.842  -2.358  -1.105  1.00  0.00     0.184 C 
BRANCH  11  12
ATOM     12  C   UNL     1       0.390  -3.297  -1.231  1.00  0.00     0.065 C 
BRANCH  12  13
ATOM     13  C   UNL     1       1.079  -3.237  -2.618  1.00  0.00     0.006 CG0
ATOM     14  G   UNL     1       2.185  -2.169  -2.801  1.00  0.00     0.000 G0
ENDBRANCH  12  13
ENDBRANCH  11  12
BRANCH  11  15
ATOM     15  C   UNL     1      -0.555  -0.994  -1.720  1.00  0.00     0.065 C 
BRANCH  15  16
ATOM     16  C   UNL     1       0.858  -0.471  -1.524  1.00  0.00     0.010 C 
BRANCH  16  17
ATOM     17  C   UNL     1       1.754  -0.681  -2.748  1.00  0.00    -0.005 C 
BRANCH  17  18
ATOM     18  C   UNL     1       2.185  -2.169  -2.801  1.00  0.00     0.004 CG0
ATOM     19  G   UNL     1       1.079  -3.237  -2.618  1.00  0.00     0.000 G0
ENDBRANCH  17  18
BRANCH  17  20
ATOM     20  C   UNL     1       2.951   0.362  -2.751  1.00  0.00    -0.035 C 
ATOM     21  C   UNL     1       3.981   0.043  -3.848  1.00  0.00     0.011 C 
ATOM     22  C   UNL     1       2.427   1.788  -3.056  1.00  0.00     0.011 C 
ATOM     23  C   UNL     1       3.678   0.415  -1.390  1.00  0.00     0.011 C 
ENDBRANCH  17  20
ENDBRANCH  16  17
ENDBRANCH  15  16
ENDBRANCH  11  15
ENDBRANCH   6  11
ENDBRANCH   5   6
ENDBRANCH   3   5
ENDBRANCH   2   3
ENDBRANCH   1   2
BRANCH   1  24
ATOM     24  C   UNL     1      -4.459   1.392  -1.756  1.00  0.00     0.202 C 
BRANCH  24  25
ATOM     25  O   UNL     1      -4.692   0.554  -2.884  1.00  0.00    -0.374 OA
BRANCH  25  26
ATOM     26  C   UNL     1      -3.587  -0.215  -3.362  1.00  0.00     0.202 C 
BRANCH  26  27
ATOM     27  C   UNL     1      -2.489   0.605  -4.049  1.00  0.00     0.261 C 
BRANCH  27  28
ATOM     28  O   UNL     1      -1.780   1.402  -3.077  1.00  0.00    -0.460 OA
BRANCH  28  29
ATOM     29  C   UNL     1      -1.592   2.686  -3.434  1.00  0.00     0.338 C 
ATOM     30  O   UNL     1      -1.738   3.147  -4.562  1.00  0.00    -0.246 OA
BRANCH  29  31
ATOM     31  C   UNL     1      -1.283   3.556  -2.275  1.00  0.00     0.060 A 
ATOM     32  C   UNL     1      -1.730   4.874  -2.354  1.00  0.00     0.016 A 
ATOM     33  C   UNL     1      -0.479   3.170  -1.200  1.00  0.00     0.016 A 
ATOM     34  C   UNL     1      -1.218   5.832  -1.491  1.00  0.00     0.010 A 
ATOM     35  C   UNL     1       0.081   4.133  -0.358  1.00  0.00     0.010 A 
ATOM     36  C   UNL     1      -0.233   5.479  -0.560  1.00  0.00    -0.014 A 
BRANCH  36  37
ATOM     37  C   UNL     1       0.515   6.563   0.103  1.00  0.00     0.031 A 
ATOM     38  C   UNL     1       1.771   7.090  -0.531  1.00  0.00     0.074 A 
ATOM     39  C   UNL     1       0.008   7.130   1.206  1.00  0.00     0.049 A 
ATOM     40  N   UNL     1       2.436   8.183  -0.260  1.00  0.00    -0.248 NA
ATOM     41  C   UNL     1       2.356   6.281  -1.613  1.00  0.00     0.031 C 
ATOM     42  C   UNL     1      -1.188   6.673   1.909  1.00  0.00     0.029 A 
ATOM     43  N   UNL     1       0.424   8.227   1.909  1.00  0.00    -0.354 N 
ATOM     44  C   UNL     1       3.495   8.215  -1.159  1.00  0.00     0.074 A 
ATOM     45  C   UNL     1       3.419   7.002  -1.944  1.00  0.00     0.031 C 
ATOM     46  C   UNL     1      -1.422   7.497   2.942  1.00  0.00     0.029 A 
ATOM     47  C   UNL     1      -0.396   8.537   2.963  1.00  0.00     0.049 A 
ATOM     48  H   UNL     1       1.231   8.743   1.681  1.00  0.00     0.167 HD
ATOM     49  C   UNL     1       4.431   9.182  -1.320  1.00  0.00     0.037 A 
ATOM     50  C   UNL     1      -0.333   9.561   3.832  1.00  0.00     0.037 A 
ATOM     51  C   UNL     1       4.505  10.369  -0.504  1.00  0.00     0.049 A 
ATOM     52  C   UNL     1       0.728  10.610   3.647  1.00  0.00     0.074 A 
ATOM     53  C   UNL     1       5.384  11.433  -0.603  1.00  0.00     0.029 A 
ATOM     54  N   UNL     1       3.675  10.636   0.576  1.00  0.00    -0.354 N 
ATOM     55  N   UNL     1       1.662  10.692   2.730  1.00  0.00    -0.248 NA
ATOM     56  C   UNL     1       0.724  11.726   4.602  1.00  0.00     0.031 C 
ATOM     57  C   UNL     1       5.126  12.313   0.454  1.00  0.00     0.029 A 
ATOM     58  C   UNL     1       4.042  11.832   1.171  1.00  0.00     0.049 A 
ATOM     59  H   UNL     1       2.935  10.060   0.876  1.00  0.00     0.167 HD
ATOM     60  C   UNL     1       2.334  11.883   2.974  1.00  0.00     0.074 A 
ATOM     61  C   UNL     1       1.689  12.495   4.118  1.00  0.00     0.031 C 
ATOM     62  C   UNL     1       3.386  12.425   2.311  1.00  0.00     0.037 A 
BRANCH  49  63
ATOM     63  C   UNL     1       5.452   8.999  -2.408  1.00  0.00     0.057 A 
ATOM     64  C   UNL     1       5.107   9.075  -3.765  1.00  0.00     0.134 A 
ATOM     65  C   UNL     1       6.805   8.808  -2.100  1.00  0.00     0.134 A 
ATOM     66  F   UNL     1       3.830   9.253  -4.134  1.00  0.00    -0.206 F 
ATOM     67  C   UNL     1       6.066   8.947  -4.773  1.00  0.00     0.040 A 
ATOM     68  C   UNL     1       7.777   8.705  -3.098  1.00  0.00     0.040 A 
ATOM     69  F   UNL     1       7.209   8.734  -0.823  1.00  0.00    -0.206 F 
ATOM     70  C   UNL     1       7.407   8.770  -4.440  1.00  0.00     0.006 A 
ENDBRANCH  49  63
BRANCH  50  71
ATOM     71  C   UNL     1      -1.333   9.658   4.921  1.00  0.00     0.057 A 
ATOM     72  C   UNL     1      -2.309  10.661   4.929  1.00  0.00     0.134 A 
ATOM     73  C   UNL     1      -1.344   8.737   5.975  1.00  0.00     0.134 A 
ATOM     74  F   UNL     1      -2.344  11.576   3.949  1.00  0.00    -0.206 F 
ATOM     75  C   UNL     1      -3.244  10.760   5.959  1.00  0.00     0.040 A 
ATOM     76  C   UNL     1      -2.290   8.807   6.997  1.00  0.00     0.040 A 
ATOM     77  F   UNL     1      -0.445   7.742   6.014  1.00  0.00    -0.206 F 
ATOM     78  C   UNL     1      -3.239   9.827   6.995  1.00  0.00     0.006 A 
ENDBRANCH  50  71
BRANCH  62  79
ATOM     79  C   UNL     1       3.875  13.765   2.784  1.00  0.00     0.057 A 
ATOM     80  C   UNL     1       4.535  13.928   4.009  1.00  0.00     0.134 A 
ATOM     81  C   UNL     1       3.699  14.906   1.989  1.00  0.00     0.134 A 
ATOM     82  F   UNL     1       4.726  12.879   4.823  1.00  0.00    -0.206 F 
ATOM     83  C   UNL     1       4.970  15.182   4.442  1.00  0.00     0.040 A 
ATOM     84  C   UNL     1       4.159  16.159   2.397  1.00  0.00     0.040 A 
ATOM     85  F   UNL     1       3.086  14.820   0.799  1.00  0.00    -0.206 F 
ATOM     86  C   UNL     1       4.787  16.301   3.632  1.00  0.00     0.006 A 
ENDBRANCH  62  79
ENDBRANCH  36  37
ENDBRANCH  29  31
ENDBRANCH  28  29
ENDBRANCH  27  28
ENDBRANCH  26  27
ENDBRANCH  25  26
ENDBRANCH  24  25
ENDBRANCH   1  24
TORSDOF 19
