REMARK SMILES COc1cc2c(cc1OC)[C@H](C(=O)OCCOCCOC(=O)c1ccc(-c3c4nc(c(-c5c(F)cccc5F)c5ccc([nH]5)c(-c5c(F)cccc5F)c5nc(c(-c6c(F)cccc6F)c6ccc3[nH]6)C=C5)C=C4)cc1)[C@H](c1cccc(Cl)c1)N(C)C2=O
REMARK SMILES IDX 18 1 17 2 16 3 15 4 14 5 12 6 13 7 11 8 3 9 4 10 8 11 5 12
REMARK SMILES IDX 7 13 6 14 87 15 85 16 88 17 77 18 86 19 2 20 1 21 9 22 10 23
REMARK SMILES IDX 78 24 79 25 84 26 80 27 82 28 81 29 83 30 19 31 20 32 21 33
REMARK SMILES IDX 22 34 23 35 24 36 76 37 25 38 75 39 26 40 27 41 28 42 69 43
REMARK SMILES IDX 29 44 74 45 68 46 70 47 30 48 73 49 67 50 66 51 31 53 57 54
REMARK SMILES IDX 40 55 56 56 41 57 44 58 55 59 71 60 42 61 43 62 54 64 72 65
REMARK SMILES IDX 45 66 32 67 33 68 38 69 34 70 35 71 37 72 39 73 36 74 58 75
REMARK SMILES IDX 59 76 64 77 60 78 61 79 63 80 65 81 62 82 46 83 47 84 52 85
REMARK SMILES IDX 48 86 49 87 51 88 53 89 50 90
REMARK H PARENT 70 52 44 63
REMARK Flexibility Score: inf
ROOT
ATOM      1  C   UNL     1       0.842   0.589   9.739  1.00  0.00     0.202 C 
ENDROOT
BRANCH   1   2
ATOM      2  O   UNL     1       0.346   1.897  10.022  1.00  0.00    -0.374 OA
BRANCH   2   3
ATOM      3  C   UNL     1      -0.841   2.334   9.371  1.00  0.00     0.202 C 
BRANCH   3   4
ATOM      4  C   UNL     1      -0.784   2.758   7.897  1.00  0.00     0.261 C 
BRANCH   4   5
ATOM      5  O   UNL     1      -0.064   1.861   7.042  1.00  0.00    -0.463 OA
BRANCH   5   6
ATOM      6  C   UNL     1       1.267   2.148   6.982  1.00  0.00     0.316 C 
ATOM      7  O   UNL     1       1.773   2.972   7.730  1.00  0.00    -0.251 OA
BRANCH   6   8
ATOM      8  C   UNL     1       2.056   1.206   6.087  1.00  0.00     0.157 C 
ATOM      9  C   UNL     1       0.966   0.697   1.899  1.00  0.00     0.161 A 
ATOM     10  C   UNL     1       2.231   0.340   2.379  1.00  0.00     0.064 A 
ATOM     11  C   UNL     1      -0.013   1.115   2.809  1.00  0.00     0.161 A 
ATOM     12  C   UNL     1       2.538   0.450   3.744  1.00  0.00     0.048 A 
ATOM     13  C   UNL     1       0.319   1.248   4.169  1.00  0.00     0.056 A 
ATOM     14  C   UNL     1       1.607   0.989   4.650  1.00  0.00    -0.015 A 
ATOM     15  C   UNL     1       3.893   0.016   4.209  1.00  0.00     0.254 C 
ATOM     16  N   UNL     1       4.331   0.528   5.427  1.00  0.00    -0.333 N 
ATOM     17  O   UNL     1       4.558  -0.744   3.513  1.00  0.00    -0.269 OA
ATOM     18  C   UNL     1       3.578   1.591   6.114  1.00  0.00     0.134 C 
ATOM     19  C   UNL     1       5.637   0.153   5.939  1.00  0.00     0.147 C 
BRANCH   9  20
ATOM     20  O   UNL     1       0.696   0.742   0.558  1.00  0.00    -0.493 OA
ATOM     21  C   UNL     1       1.224  -0.328  -0.218  1.00  0.00     0.278 C 
ENDBRANCH   9  20
BRANCH  11  22
ATOM     22  O   UNL     1      -1.325   1.432   2.571  1.00  0.00    -0.493 OA
ATOM     23  C   UNL     1      -1.820   1.365   1.243  1.00  0.00     0.278 C 
ENDBRANCH  11  22
BRANCH  18  24
ATOM     24  C   UNL     1       3.920   2.997   5.580  1.00  0.00    -0.023 A 
ATOM     25  C   UNL     1       3.854   4.107   6.441  1.00  0.00     0.006 A 
ATOM     26  C   UNL     1       4.228   3.259   4.236  1.00  0.00     0.026 A 
ATOM     27  C   UNL     1       3.882   5.417   5.959  1.00  0.00     0.002 A 
ATOM     28  C   UNL     1       4.308   4.570   3.759  1.00  0.00     0.041 A 
ATOM     29  C   UNL     1       4.088   5.649   4.606  1.00  0.00     0.020 A 
ATOM     30  Cl  UNL     1       4.654   4.848   2.097  1.00  0.00    -0.084 Cl
ENDBRANCH  18  24
ENDBRANCH   6   8
ENDBRANCH   5   6
ENDBRANCH   4   5
ENDBRANCH   3   4
ENDBRANCH   2   3
ENDBRANCH   1   2
BRANCH   1  31
ATOM     31  C   UNL     1       0.044  -0.610  10.259  1.00  0.00     0.261 C 
BRANCH  31  32
ATOM     32  O   UNL     1      -1.214  -0.745   9.575  1.00  0.00    -0.460 OA
BRANCH  32  33
ATOM     33  C   UNL     1      -2.307  -0.548  10.350  1.00  0.00     0.338 C 
ATOM     34  O   UNL     1      -2.340  -0.356  11.556  1.00  0.00    -0.246 OA
BRANCH  33  35
ATOM     35  C   UNL     1      -3.486  -0.370   9.486  1.00  0.00     0.060 A 
ATOM     36  C   UNL     1      -4.217   0.820   9.617  1.00  0.00     0.016 A 
ATOM     37  C   UNL     1      -3.892  -1.366   8.598  1.00  0.00     0.016 A 
ATOM     38  C   UNL     1      -5.381   1.006   8.879  1.00  0.00     0.010 A 
ATOM     39  C   UNL     1      -5.074  -1.188   7.877  1.00  0.00     0.010 A 
ATOM     40  C   UNL     1      -5.835  -0.016   8.037  1.00  0.00    -0.014 A 
BRANCH  40  41
ATOM     41  C   UNL     1      -7.180   0.078   7.432  1.00  0.00     0.031 A 
ATOM     42  C   UNL     1      -8.326  -0.613   8.111  1.00  0.00     0.074 A 
ATOM     43  C   UNL     1      -7.371   0.773   6.298  1.00  0.00     0.049 A 
ATOM     44  N   UNL     1      -9.568  -0.738   7.721  1.00  0.00    -0.248 NA
ATOM     45  C   UNL     1      -8.031  -1.251   9.405  1.00  0.00     0.031 C 
ATOM     46  C   UNL     1      -6.340   1.522   5.583  1.00  0.00     0.029 A 
ATOM     47  N   UNL     1      -8.502   0.945   5.543  1.00  0.00    -0.354 N 
ATOM     48  C   UNL     1     -10.200  -1.474   8.715  1.00  0.00     0.074 A 
ATOM     49  C   UNL     1      -9.202  -1.787   9.714  1.00  0.00     0.031 C 
ATOM     50  C   UNL     1      -6.883   2.058   4.476  1.00  0.00     0.029 A 
ATOM     51  C   UNL     1      -8.285   1.657   4.389  1.00  0.00     0.049 A 
ATOM     52  H   UNL     1      -9.384   0.592   5.802  1.00  0.00     0.167 HD
ATOM     53  C   UNL     1     -11.498  -1.850   8.785  1.00  0.00     0.037 A 
ATOM     54  C   UNL     1      -9.119   1.921   3.366  1.00  0.00     0.037 A 
ATOM     55  C   UNL     1     -12.481  -1.538   7.782  1.00  0.00     0.049 A 
ATOM     56  C   UNL     1     -10.534   1.410   3.422  1.00  0.00     0.074 A 
ATOM     57  C   UNL     1     -13.829  -1.849   7.768  1.00  0.00     0.029 A 
ATOM     58  N   UNL     1     -12.215  -0.852   6.606  1.00  0.00    -0.354 N 
ATOM     59  N   UNL     1     -11.133   0.735   4.374  1.00  0.00    -0.248 NA
ATOM     60  C   UNL     1     -11.387   1.690   2.258  1.00  0.00     0.031 C 
ATOM     61  C   UNL     1     -14.367  -1.398   6.558  1.00  0.00     0.029 A 
ATOM     62  C   UNL     1     -13.365  -0.762   5.841  1.00  0.00     0.049 A 
ATOM     63  H   UNL     1     -11.338  -0.484   6.352  1.00  0.00     0.167 HD
ATOM     64  C   UNL     1     -12.434   0.526   3.935  1.00  0.00     0.074 A 
ATOM     65  C   UNL     1     -12.542   1.159   2.636  1.00  0.00     0.031 C 
ATOM     66  C   UNL     1     -13.449  -0.131   4.549  1.00  0.00     0.037 A 
BRANCH  53  67
ATOM     67  C   UNL     1     -11.918  -2.667   9.970  1.00  0.00     0.057 A 
ATOM     68  C   UNL     1     -12.030  -2.113  11.251  1.00  0.00     0.134 A 
ATOM     69  C   UNL     1     -12.241  -4.022   9.822  1.00  0.00     0.134 A 
ATOM     70  F   UNL     1     -11.721  -0.825  11.464  1.00  0.00    -0.206 F 
ATOM     71  C   UNL     1     -12.428  -2.882  12.347  1.00  0.00     0.040 A 
ATOM     72  C   UNL     1     -12.663  -4.795  10.904  1.00  0.00     0.040 A 
ATOM     73  F   UNL     1     -12.155  -4.615   8.621  1.00  0.00    -0.206 F 
ATOM     74  C   UNL     1     -12.753  -4.226  12.172  1.00  0.00     0.006 A 
ENDBRANCH  53  67
BRANCH  54  75
ATOM     75  C   UNL     1      -8.630   2.678   2.188  1.00  0.00     0.057 A 
ATOM     76  C   UNL     1      -9.090   3.971   1.916  1.00  0.00     0.134 A 
ATOM     77  C   UNL     1      -7.698   2.125   1.300  1.00  0.00     0.134 A 
ATOM     78  F   UNL     1     -10.000   4.546   2.715  1.00  0.00    -0.206 F 
ATOM     79  C   UNL     1      -8.650   4.683   0.798  1.00  0.00     0.040 A 
ATOM     80  C   UNL     1      -7.231   2.834   0.193  1.00  0.00     0.040 A 
ATOM     81  F   UNL     1      -7.219   0.889   1.505  1.00  0.00    -0.206 F 
ATOM     82  C   UNL     1      -7.713   4.116  -0.064  1.00  0.00     0.006 A 
ENDBRANCH  54  75
BRANCH  66  83
ATOM     83  C   UNL     1     -14.766  -0.185   3.832  1.00  0.00     0.057 A 
ATOM     84  C   UNL     1     -14.963  -1.009   2.717  1.00  0.00     0.134 A 
ATOM     85  C   UNL     1     -15.863   0.554   4.295  1.00  0.00     0.134 A 
ATOM     86  F   UNL     1     -13.949  -1.731   2.217  1.00  0.00    -0.206 F 
ATOM     87  C   UNL     1     -16.202  -1.084   2.078  1.00  0.00     0.040 A 
ATOM     88  C   UNL     1     -17.112   0.467   3.680  1.00  0.00     0.040 A 
ATOM     89  F   UNL     1     -15.742   1.355   5.364  1.00  0.00    -0.206 F 
ATOM     90  C   UNL     1     -17.283  -0.351   2.565  1.00  0.00     0.006 A 
ENDBRANCH  66  83
ENDBRANCH  40  41
ENDBRANCH  33  35
ENDBRANCH  32  33
ENDBRANCH  31  32
ENDBRANCH   1  31
TORSDOF 17
