REMARK SMILES CC[NH+]1CC[NH+]([C@@H]2CC(=O)N(c3ccc(C(=O)OCCOCCOC(=O)c4ccc(-c5c6nc(c(-c7c(F)cccc7F)c7ccc([nH]7)c(-c7c(F)cccc7F)c7nc(c(-c8c(F)cccc8F)c8ccc5[nH]8)C=C7)C=C6)cc4)cc3)C2=O)CC1
REMARK SMILES IDX 20 1 19 2 18 3 16 4 17 5 15 6 12 7 13 8 82 9 14 10 81 11
REMARK SMILES IDX 11 12 7 13 8 14 83 15 9 16 84 17 10 18 6 19 3 20 4 21 86 22
REMARK SMILES IDX 5 24 85 25 2 27 1 28 21 29 22 30 23 31 24 32 25 33 26 34
REMARK SMILES IDX 27 35 28 36 80 37 29 38 79 39 30 40 31 41 32 42 73 43 33 44
REMARK SMILES IDX 78 45 72 46 74 47 34 48 77 49 71 50 70 51 35 53 61 54 44 55
REMARK SMILES IDX 60 56 45 57 48 58 59 59 75 60 46 61 47 62 58 64 76 65 49 66
REMARK SMILES IDX 36 67 37 68 42 69 38 70 39 71 41 72 43 73 40 74 62 75 63 76
REMARK SMILES IDX 68 77 64 78 65 79 67 80 69 81 66 82 50 83 51 84 56 85 52 86
REMARK SMILES IDX 53 87 55 88 57 89 54 90
REMARK H PARENT 3 23 6 26 74 52 48 63
REMARK Flexibility Score: inf
ROOT
ATOM      1  C   UNL     1      13.331   4.785  -0.995  1.00  0.00     0.202 C 
ENDROOT
BRANCH   1   2
ATOM      2  C   UNL     1      12.524   4.041  -2.064  1.00  0.00     0.261 C 
BRANCH   2   3
ATOM      3  O   UNL     1      11.135   4.399  -2.015  1.00  0.00    -0.460 OA
BRANCH   3   4
ATOM      4  C   UNL     1      10.320   3.440  -1.516  1.00  0.00     0.338 C 
ATOM      5  O   UNL     1      10.621   2.290  -1.234  1.00  0.00    -0.246 OA
BRANCH   4   6
ATOM      6  C   UNL     1       9.002   4.022  -1.188  1.00  0.00     0.060 A 
ATOM      7  C   UNL     1       6.422   4.937  -0.543  1.00  0.00     0.052 A 
ATOM      8  C   UNL     1       7.090   4.039   0.301  1.00  0.00     0.028 A 
ATOM      9  C   UNL     1       7.102   5.429  -1.670  1.00  0.00     0.028 A 
ATOM     10  C   UNL     1       8.359   3.563  -0.034  1.00  0.00     0.018 A 
ATOM     11  C   UNL     1       8.393   4.991  -1.985  1.00  0.00     0.018 A 
BRANCH   7  12
ATOM     12  N   UNL     1       5.056   5.248  -0.314  1.00  0.00    -0.245 N 
ATOM     13  C   UNL     1       2.947   5.356   0.740  1.00  0.00     0.285 C 
ATOM     14  C   UNL     1       2.780   5.590  -0.752  1.00  0.00     0.176 C 
ATOM     15  C   UNL     1       4.460   5.281   0.928  1.00  0.00     0.292 C 
ATOM     16  C   UNL     1       4.152   5.447  -1.328  1.00  0.00     0.240 C 
ATOM     17  O   UNL     1       5.016   5.262   2.020  1.00  0.00    -0.267 OA
ATOM     18  O   UNL     1       4.348   5.460  -2.536  1.00  0.00    -0.274 OA
BRANCH  13  19
ATOM     19  N   UNL     1       2.255   4.226   1.394  1.00  0.00    -0.315 N 
ATOM     20  N   UNL     1       0.821   2.118  -0.233  1.00  0.00    -0.326 N 
ATOM     21  C   UNL     1       0.212   3.435   0.050  1.00  0.00     0.324 C 
ATOM     22  C   UNL     1       2.289   2.190  -0.112  1.00  0.00     0.324 C 
ATOM     23  H   UNL     1       0.619   1.859  -1.199  1.00  0.00     0.348 HD
ATOM     24  C   UNL     1       0.789   4.221   1.258  1.00  0.00     0.325 C 
ATOM     25  C   UNL     1       2.793   2.878   1.171  1.00  0.00     0.325 C 
ATOM     26  H   UNL     1       2.481   4.447   2.364  1.00  0.00     0.349 HD
BRANCH  20  27
ATOM     27  C   UNL     1       0.221   1.067   0.603  1.00  0.00     0.259 C 
ATOM     28  C   UNL     1       0.606  -0.339   0.147  1.00  0.00     0.071 C 
ENDBRANCH  20  27
ENDBRANCH  13  19
ENDBRANCH   7  12
ENDBRANCH   4   6
ENDBRANCH   3   4
ENDBRANCH   2   3
ENDBRANCH   1   2
BRANCH   1  29
ATOM     29  O   UNL     1      13.002   4.505   0.364  1.00  0.00    -0.374 OA
BRANCH  29  30
ATOM     30  C   UNL     1      11.876   5.185   0.922  1.00  0.00     0.202 C 
BRANCH  30  31
ATOM     31  C   UNL     1      12.090   6.645   1.341  1.00  0.00     0.261 C 
BRANCH  31  32
ATOM     32  O   UNL     1      12.264   7.512   0.206  1.00  0.00    -0.460 OA
BRANCH  32  33
ATOM     33  C   UNL     1      13.520   7.980   0.026  1.00  0.00     0.338 C 
ATOM     34  O   UNL     1      14.495   7.797   0.742  1.00  0.00    -0.246 OA
BRANCH  33  35
ATOM     35  C   UNL     1      13.613   8.626  -1.294  1.00  0.00     0.060 A 
ATOM     36  C   UNL     1      14.606   8.181  -2.178  1.00  0.00     0.016 A 
ATOM     37  C   UNL     1      12.777   9.688  -1.637  1.00  0.00     0.016 A 
ATOM     38  C   UNL     1      14.790   8.822  -3.401  1.00  0.00     0.010 A 
ATOM     39  C   UNL     1      12.969  10.337  -2.858  1.00  0.00     0.010 A 
ATOM     40  C   UNL     1      13.994   9.926  -3.731  1.00  0.00    -0.014 A 
BRANCH  40  41
ATOM     41  C   UNL     1      14.300  10.750  -4.922  1.00  0.00     0.031 A 
ATOM     42  C   UNL     1      15.002  12.063  -4.730  1.00  0.00     0.074 A 
ATOM     43  C   UNL     1      13.909  10.362  -6.146  1.00  0.00     0.049 A 
ATOM     44  N   UNL     1      15.221  13.022  -5.591  1.00  0.00    -0.248 NA
ATOM     45  C   UNL     1      15.512  12.335  -3.377  1.00  0.00     0.031 C 
ATOM     46  C   UNL     1      13.250   9.096  -6.460  1.00  0.00     0.029 A 
ATOM     47  N   UNL     1      13.979  11.017  -7.350  1.00  0.00    -0.354 N 
ATOM     48  C   UNL     1      15.866  14.025  -4.878  1.00  0.00     0.074 A 
ATOM     49  C   UNL     1      15.989  13.563  -3.512  1.00  0.00     0.031 C 
ATOM     50  C   UNL     1      12.939   9.082  -7.767  1.00  0.00     0.029 A 
ATOM     51  C   UNL     1      13.340  10.353  -8.367  1.00  0.00     0.049 A 
ATOM     52  H   UNL     1      14.441  11.878  -7.471  1.00  0.00     0.167 HD
ATOM     53  C   UNL     1      16.311  15.223  -5.325  1.00  0.00     0.037 A 
ATOM     54  C   UNL     1      13.070  10.746  -9.627  1.00  0.00     0.037 A 
ATOM     55  C   UNL     1      16.187  15.671  -6.687  1.00  0.00     0.049 A 
ATOM     56  C   UNL     1      13.527  12.102 -10.094  1.00  0.00     0.074 A 
ATOM     57  C   UNL     1      16.644  16.847  -7.254  1.00  0.00     0.029 A 
ATOM     58  N   UNL     1      15.545  14.964  -7.694  1.00  0.00    -0.354 N 
ATOM     59  N   UNL     1      14.164  13.034  -9.426  1.00  0.00    -0.248 NA
ATOM     60  C   UNL     1      13.230  12.460 -11.488  1.00  0.00     0.031 C 
ATOM     61  C   UNL     1      16.227  16.879  -8.588  1.00  0.00     0.029 A 
ATOM     62  C   UNL     1      15.565  15.695  -8.871  1.00  0.00     0.049 A 
ATOM     63  H   UNL     1      15.135  14.075  -7.588  1.00  0.00     0.167 HD
ATOM     64  C   UNL     1      14.370  14.075 -10.323  1.00  0.00     0.074 A 
ATOM     65  C   UNL     1      13.792  13.658 -11.584  1.00  0.00     0.031 C 
ATOM     66  C   UNL     1      14.991  15.264 -10.122  1.00  0.00     0.037 A 
BRANCH  53  67
ATOM     67  C   UNL     1      16.927  16.149  -4.316  1.00  0.00     0.057 A 
ATOM     68  C   UNL     1      18.167  15.888  -3.720  1.00  0.00     0.134 A 
ATOM     69  C   UNL     1      16.265  17.325  -3.939  1.00  0.00     0.134 A 
ATOM     70  F   UNL     1      18.848  14.773  -4.025  1.00  0.00    -0.206 F 
ATOM     71  C   UNL     1      18.710  16.744  -2.759  1.00  0.00     0.040 A 
ATOM     72  C   UNL     1      16.812  18.204  -3.003  1.00  0.00     0.040 A 
ATOM     73  F   UNL     1      15.076  17.640  -4.475  1.00  0.00    -0.206 F 
ATOM     74  C   UNL     1      18.033  17.909  -2.402  1.00  0.00     0.006 A 
ENDBRANCH  53  67
BRANCH  54  75
ATOM     75  C   UNL     1      12.303   9.845 -10.522  1.00  0.00     0.057 A 
ATOM     76  C   UNL     1      12.918   9.197 -11.599  1.00  0.00     0.134 A 
ATOM     77  C   UNL     1      10.943   9.589 -10.305  1.00  0.00     0.134 A 
ATOM     78  F   UNL     1      14.212   9.419 -11.870  1.00  0.00    -0.206 F 
ATOM     79  C   UNL     1      12.207   8.329 -12.430  1.00  0.00     0.040 A 
ATOM     80  C   UNL     1      10.227   8.706 -11.113  1.00  0.00     0.040 A 
ATOM     81  F   UNL     1      10.298  10.177  -9.286  1.00  0.00    -0.206 F 
ATOM     82  C   UNL     1      10.859   8.075 -12.182  1.00  0.00     0.006 A 
ENDBRANCH  54  75
BRANCH  66  83
ATOM     83  C   UNL     1      15.122  16.188 -11.298  1.00  0.00     0.057 A 
ATOM     84  C   UNL     1      14.031  16.900 -11.811  1.00  0.00     0.134 A 
ATOM     85  C   UNL     1      16.376  16.419 -11.880  1.00  0.00     0.134 A 
ATOM     86  F   UNL     1      12.801  16.717 -11.306  1.00  0.00    -0.206 F 
ATOM     87  C   UNL     1      14.180  17.799 -12.869  1.00  0.00     0.040 A 
ATOM     88  C   UNL     1      16.542  17.334 -12.920  1.00  0.00     0.040 A 
ATOM     89  F   UNL     1      17.464  15.776 -11.430  1.00  0.00    -0.206 F 
ATOM     90  C   UNL     1      15.441  18.025 -13.419  1.00  0.00     0.006 A 
ENDBRANCH  66  83
ENDBRANCH  40  41
ENDBRANCH  33  35
ENDBRANCH  32  33
ENDBRANCH  31  32
ENDBRANCH  30  31
ENDBRANCH  29  30
ENDBRANCH   1  29
TORSDOF 17
