REMARK SMILES O=C(Cc1c(F)cc(Cl)cc1F)OCCOCCOC(=O)c1ccc(-c2c3nc(c(-c4c(F)cccc4F)c4ccc([nH]4)c(-c4c(F)cccc4F)c4nc(c(-c5c(F)cccc5F)c5ccc2[nH]5)C=C4)C=C3)cc1
REMARK SMILES IDX 17 1 16 2 15 3 14 4 13 5 2 6 1 7 3 8 4 9 5 10 11 11 6 12
REMARK SMILES IDX 7 13 10 14 12 15 8 16 9 17 18 18 19 19 20 20 21 21 22 22
REMARK SMILES IDX 23 23 75 24 24 25 74 26 25 27 26 28 27 29 68 30 28 31 73 32
REMARK SMILES IDX 67 33 69 34 29 35 72 36 66 37 65 38 30 40 56 41 39 42 55 43
REMARK SMILES IDX 40 44 43 45 54 46 70 47 41 48 42 49 53 51 71 52 44 53 31 54
REMARK SMILES IDX 32 55 37 56 33 57 34 58 36 59 38 60 35 61 57 62 58 63 63 64
REMARK SMILES IDX 59 65 60 66 62 67 64 68 61 69 45 70 46 71 51 72 47 73 48 74
REMARK SMILES IDX 50 75 52 76 49 77
REMARK H PARENT 69 39 43 50
REMARK Flexibility Score: inf
ROOT
ATOM      1  C   UNL     1       2.751  -1.956  -1.091  1.00  0.00     0.202 C 
ENDROOT
BRANCH   1   2
ATOM      2  O   UNL     1       3.983  -1.266  -0.840  1.00  0.00    -0.374 OA
BRANCH   2   3
ATOM      3  C   UNL     1       4.307  -1.122   0.540  1.00  0.00     0.202 C 
BRANCH   3   4
ATOM      4  C   UNL     1       3.950   0.234   1.133  1.00  0.00     0.261 C 
BRANCH   4   5
ATOM      5  O   UNL     1       2.573   0.590   0.932  1.00  0.00    -0.463 OA
BRANCH   5   6
ATOM      6  C   UNL     1       2.069   1.214  -0.157  1.00  0.00     0.310 C 
ATOM      7  O   UNL     1       0.849   1.364  -0.240  1.00  0.00    -0.252 OA
BRANCH   6   8
ATOM      8  C   UNL     1       2.979   1.682  -1.273  1.00  0.00     0.164 C 
BRANCH   8   9
ATOM      9  C   UNL     1       3.878   2.837  -0.939  1.00  0.00     0.035 A 
ATOM     10  C   UNL     1       3.355   4.101  -0.674  1.00  0.00     0.131 A 
ATOM     11  C   UNL     1       5.265   2.679  -0.871  1.00  0.00     0.131 A 
ATOM     12  F   UNL     1       2.036   4.309  -0.780  1.00  0.00    -0.207 F 
ATOM     13  C   UNL     1       4.174   5.162  -0.301  1.00  0.00     0.060 A 
ATOM     14  C   UNL     1       6.100   3.713  -0.467  1.00  0.00     0.060 A 
ATOM     15  F   UNL     1       5.814   1.485  -1.136  1.00  0.00    -0.207 F 
ATOM     16  C   UNL     1       5.545   4.955  -0.178  1.00  0.00     0.046 A 
ATOM     17  Cl  UNL     1       6.562   6.239   0.342  1.00  0.00    -0.084 Cl
ENDBRANCH   8   9
ENDBRANCH   6   8
ENDBRANCH   5   6
ENDBRANCH   4   5
ENDBRANCH   3   4
ENDBRANCH   2   3
ENDBRANCH   1   2
BRANCH   1  18
ATOM     18  C   UNL     1       2.918  -3.476  -1.199  1.00  0.00     0.261 C 
BRANCH  18  19
ATOM     19  O   UNL     1       3.279  -4.032   0.077  1.00  0.00    -0.460 OA
BRANCH  19  20
ATOM     20  C   UNL     1       4.598  -4.296   0.244  1.00  0.00     0.338 C 
ATOM     21  O   UNL     1       5.467  -4.306  -0.611  1.00  0.00    -0.246 OA
BRANCH  20  22
ATOM     22  C   UNL     1       4.884  -4.349   1.694  1.00  0.00     0.060 A 
ATOM     23  C   UNL     1       6.056  -3.726   2.147  1.00  0.00     0.016 A 
ATOM     24  C   UNL     1       4.005  -4.947   2.602  1.00  0.00     0.016 A 
ATOM     25  C   UNL     1       6.368  -3.728   3.504  1.00  0.00     0.010 A 
ATOM     26  C   UNL     1       4.324  -4.959   3.961  1.00  0.00     0.010 A 
ATOM     27  C   UNL     1       5.522  -4.378   4.410  1.00  0.00    -0.014 A 
BRANCH  27  28
ATOM     28  C   UNL     1       5.995  -4.625   5.790  1.00  0.00     0.031 A 
ATOM     29  C   UNL     1       6.642  -5.947   6.089  1.00  0.00     0.074 A 
ATOM     30  C   UNL     1       5.878  -3.688   6.745  1.00  0.00     0.049 A 
ATOM     31  N   UNL     1       7.146  -6.388   7.211  1.00  0.00    -0.248 NA
ATOM     32  C   UNL     1       6.729  -6.900   4.971  1.00  0.00     0.031 C 
ATOM     33  C   UNL     1       5.288  -2.364   6.562  1.00  0.00     0.029 A 
ATOM     34  N   UNL     1       6.253  -3.713   8.065  1.00  0.00    -0.354 N 
ATOM     35  C   UNL     1       7.610  -7.667   6.933  1.00  0.00     0.074 A 
ATOM     36  C   UNL     1       7.294  -7.947   5.551  1.00  0.00     0.031 C 
ATOM     37  C   UNL     1       5.337  -1.702   7.732  1.00  0.00     0.029 A 
ATOM     38  C   UNL     1       5.942  -2.564   8.747  1.00  0.00     0.049 A 
ATOM     39  H   UNL     1       6.702  -4.484   8.483  1.00  0.00     0.167 HD
ATOM     40  C   UNL     1       8.256  -8.524   7.755  1.00  0.00     0.037 A 
ATOM     41  C   UNL     1       6.120  -2.250  10.046  1.00  0.00     0.037 A 
ATOM     42  C   UNL     1       8.568  -8.239   9.128  1.00  0.00     0.049 A 
ATOM     43  C   UNL     1       6.785  -3.244  10.960  1.00  0.00     0.074 A 
ATOM     44  C   UNL     1       9.252  -9.026  10.036  1.00  0.00     0.029 A 
ATOM     45  N   UNL     1       8.202  -7.079   9.794  1.00  0.00    -0.354 N 
ATOM     46  N   UNL     1       7.266  -4.431  10.678  1.00  0.00    -0.248 NA
ATOM     47  C   UNL     1       6.935  -2.858  12.371  1.00  0.00     0.031 C 
ATOM     48  C   UNL     1       9.253  -8.365  11.267  1.00  0.00     0.029 A 
ATOM     49  C   UNL     1       8.616  -7.144  11.113  1.00  0.00     0.049 A 
ATOM     50  H   UNL     1       7.720  -6.322   9.389  1.00  0.00     0.167 HD
ATOM     51  C   UNL     1       7.790  -4.926  11.866  1.00  0.00     0.074 A 
ATOM     52  C   UNL     1       7.578  -3.906  12.872  1.00  0.00     0.031 C 
ATOM     53  C   UNL     1       8.393  -6.117  12.101  1.00  0.00     0.037 A 
BRANCH  40  54
ATOM     54  C   UNL     1       8.650  -9.857   7.192  1.00  0.00     0.057 A 
ATOM     55  C   UNL     1       9.684  -9.986   6.254  1.00  0.00     0.134 A 
ATOM     56  C   UNL     1       8.007 -11.027   7.612  1.00  0.00     0.134 A 
ATOM     57  F   UNL     1      10.327  -8.902   5.797  1.00  0.00    -0.206 F 
ATOM     58  C   UNL     1      10.050 -11.232   5.741  1.00  0.00     0.040 A 
ATOM     59  C   UNL     1       8.381 -12.280   7.126  1.00  0.00     0.040 A 
ATOM     60  F   UNL     1       7.009 -10.972   8.508  1.00  0.00    -0.206 F 
ATOM     61  C   UNL     1       9.402 -12.384   6.183  1.00  0.00     0.006 A 
ENDBRANCH  40  54
BRANCH  41  62
ATOM     62  C   UNL     1       5.667  -0.928  10.546  1.00  0.00     0.057 A 
ATOM     63  C   UNL     1       6.585   0.070  10.887  1.00  0.00     0.134 A 
ATOM     64  C   UNL     1       4.306  -0.619  10.658  1.00  0.00     0.134 A 
ATOM     65  F   UNL     1       7.902  -0.172  10.820  1.00  0.00    -0.206 F 
ATOM     66  C   UNL     1       6.168   1.331  11.319  1.00  0.00     0.040 A 
ATOM     67  C   UNL     1       3.874   0.644  11.068  1.00  0.00     0.040 A 
ATOM     68  F   UNL     1       3.376  -1.533  10.346  1.00  0.00    -0.206 F 
ATOM     69  C   UNL     1       4.807   1.623  11.400  1.00  0.00     0.006 A 
ENDBRANCH  41  62
BRANCH  53  70
ATOM     70  C   UNL     1       8.877  -6.397  13.493  1.00  0.00     0.057 A 
ATOM     71  C   UNL     1       7.989  -6.725  14.525  1.00  0.00     0.134 A 
ATOM     72  C   UNL     1      10.248  -6.449  13.776  1.00  0.00     0.134 A 
ATOM     73  F   UNL     1       6.664  -6.687  14.320  1.00  0.00    -0.206 F 
ATOM     74  C   UNL     1       8.449  -7.094  15.790  1.00  0.00     0.040 A 
ATOM     75  C   UNL     1      10.720  -6.840  15.030  1.00  0.00     0.040 A 
ATOM     76  F   UNL     1      11.151  -6.159  12.827  1.00  0.00    -0.206 F 
ATOM     77  C   UNL     1       9.818  -7.165  16.041  1.00  0.00     0.006 A 
ENDBRANCH  53  70
ENDBRANCH  27  28
ENDBRANCH  20  22
ENDBRANCH  19  20
ENDBRANCH  18  19
ENDBRANCH   1  18
TORSDOF 15
