REMARK SMILES COc1ccc([C@@H](CC(=O)OCCOCCOC(=O)c2ccc(-c3c4nc(c(-c5c(F)cccc5F)c5ccc([nH]5)c(-c5c(F)cccc5F)c5nc(c(-c6c(F)cccc6F)c6ccc3[nH]6)C=C5)C=C4)cc2)NC(=O)c2ccc(Cl)c([N+](=O)[O-])c2)cc1
REMARK SMILES IDX 13 1 12 2 11 3 9 4 10 5 8 6 7 7 6 8 3 9 4 10 88 11 5 12
REMARK SMILES IDX 87 13 2 14 1 15 74 16 75 17 76 19 77 20 78 21 86 22 79 23
REMARK SMILES IDX 82 24 80 25 81 26 83 27 84 28 85 29 14 30 15 31 16 32 17 33
REMARK SMILES IDX 18 34 19 35 20 36 21 37 73 38 22 39 72 40 23 41 24 42 25 43
REMARK SMILES IDX 66 44 26 45 71 46 65 47 67 48 27 49 70 50 64 51 63 52 28 54
REMARK SMILES IDX 54 55 37 56 53 57 38 58 41 59 52 60 68 61 39 62 40 63 51 65
REMARK SMILES IDX 69 66 42 67 29 68 30 69 35 70 31 71 32 72 34 73 36 74 33 75
REMARK SMILES IDX 55 76 56 77 61 78 57 79 58 80 60 81 62 82 59 83 43 84 44 85
REMARK SMILES IDX 49 86 45 87 46 88 48 89 50 90 47 91
REMARK H PARENT 74 18 67 53 41 64
REMARK Flexibility Score: inf
ROOT
ATOM      1  C   UNL     1      -2.132   3.935  -6.185  1.00  0.00     0.202 C 
ENDROOT
BRANCH   1   2
ATOM      2  C   UNL     1      -1.025   3.208  -6.958  1.00  0.00     0.261 C 
BRANCH   2   3
ATOM      3  O   UNL     1       0.236   3.281  -6.256  1.00  0.00    -0.463 OA
BRANCH   3   4
ATOM      4  C   UNL     1       1.166   4.139  -6.722  1.00  0.00     0.308 C 
ATOM      5  O   UNL     1       1.042   4.797  -7.749  1.00  0.00    -0.252 OA
BRANCH   4   6
ATOM      6  C   UNL     1       2.430   4.173  -5.892  1.00  0.00     0.152 C 
BRANCH   6   7
ATOM      7  C   UNL     1       2.421   4.307  -4.351  1.00  0.00     0.123 C 
BRANCH   7   8
ATOM      8  C   UNL     1       1.997   3.088  -3.547  1.00  0.00    -0.025 A 
ATOM      9  C   UNL     1       1.271   0.825  -2.032  1.00  0.00     0.118 A 
ATOM     10  C   UNL     1       0.329   1.474  -2.814  1.00  0.00     0.047 A 
ATOM     11  C   UNL     1       2.584   1.281  -2.009  1.00  0.00     0.047 A 
ATOM     12  C   UNL     1       0.676   2.632  -3.509  1.00  0.00     0.010 A 
ATOM     13  C   UNL     1       2.946   2.398  -2.771  1.00  0.00     0.010 A 
BRANCH   9  14
ATOM     14  O   UNL     1       0.854  -0.284  -1.354  1.00  0.00    -0.497 OA
ATOM     15  C   UNL     1       1.065  -0.165   0.051  1.00  0.00     0.278 C 
ENDBRANCH   9  14
ENDBRANCH   7   8
BRANCH   7  16
ATOM     16  N   UNL     1       1.768   5.509  -3.831  1.00  0.00    -0.345 N 
ATOM     17  C   UNL     1       2.283   6.623  -3.211  1.00  0.00     0.252 C 
ATOM     18  H   UNL     1       0.790   5.523  -3.944  1.00  0.00     0.164 HD
ATOM     19  O   UNL     1       1.521   7.418  -2.667  1.00  0.00    -0.269 OA
BRANCH  17  20
ATOM     20  C   UNL     1       3.742   6.863  -3.123  1.00  0.00     0.046 A 
ATOM     21  C   UNL     1       4.279   7.275  -1.899  1.00  0.00     0.016 A 
ATOM     22  C   UNL     1       4.585   6.714  -4.223  1.00  0.00     0.101 A 
ATOM     23  C   UNL     1       5.661   7.445  -1.758  1.00  0.00     0.028 A 
ATOM     24  C   UNL     1       5.980   6.841  -4.069  1.00  0.00     0.288 A 
ATOM     25  C   UNL     1       6.528   7.197  -2.832  1.00  0.00     0.118 A 
ATOM     26  Cl  UNL     1       8.215   7.311  -2.486  1.00  0.00    -0.077 Cl
BRANCH  24  27
ATOM     27  N   UNL     1       6.801   6.519  -5.237  1.00  0.00     0.064 N 
ATOM     28  O   UNL     1       7.896   7.073  -5.373  1.00  0.00    -0.258 OA
ATOM     29  O   UNL     1       6.318   5.712  -6.047  1.00  0.00    -0.258 OA
ENDBRANCH  24  27
ENDBRANCH  17  20
ENDBRANCH   7  16
ENDBRANCH   6   7
ENDBRANCH   4   6
ENDBRANCH   3   4
ENDBRANCH   2   3
ENDBRANCH   1   2
BRANCH   1  30
ATOM     30  O   UNL     1      -2.152   5.355  -6.332  1.00  0.00    -0.374 OA
BRANCH  30  31
ATOM     31  C   UNL     1      -1.244   6.105  -5.528  1.00  0.00     0.202 C 
BRANCH  31  32
ATOM     32  C   UNL     1      -1.729   6.409  -4.106  1.00  0.00     0.261 C 
BRANCH  32  33
ATOM     33  O   UNL     1      -1.821   5.200  -3.322  1.00  0.00    -0.460 OA
BRANCH  33  34
ATOM     34  C   UNL     1      -3.088   4.835  -3.019  1.00  0.00     0.338 C 
ATOM     35  O   UNL     1      -4.112   5.471  -3.240  1.00  0.00    -0.246 OA
BRANCH  34  36
ATOM     36  C   UNL     1      -3.143   3.445  -2.528  1.00  0.00     0.060 A 
ATOM     37  C   UNL     1      -4.079   2.601  -3.138  1.00  0.00     0.016 A 
ATOM     38  C   UNL     1      -2.393   2.994  -1.441  1.00  0.00     0.016 A 
ATOM     39  C   UNL     1      -4.340   1.341  -2.605  1.00  0.00     0.010 A 
ATOM     40  C   UNL     1      -2.642   1.714  -0.920  1.00  0.00     0.010 A 
ATOM     41  C   UNL     1      -3.665   0.907  -1.457  1.00  0.00    -0.014 A 
BRANCH  41  42
ATOM     42  C   UNL     1      -4.206  -0.266  -0.713  1.00  0.00     0.031 A 
ATOM     43  C   UNL     1      -4.955  -0.024   0.575  1.00  0.00     0.074 A 
ATOM     44  C   UNL     1      -4.147  -1.514  -1.214  1.00  0.00     0.049 A 
ATOM     45  N   UNL     1      -5.594  -0.872   1.343  1.00  0.00    -0.248 NA
ATOM     46  C   UNL     1      -4.983   1.362   1.065  1.00  0.00     0.031 C 
ATOM     47  C   UNL     1      -3.495  -1.895  -2.465  1.00  0.00     0.029 A 
ATOM     48  N   UNL     1      -4.672  -2.691  -0.736  1.00  0.00    -0.354 N 
ATOM     49  C   UNL     1      -6.088  -0.122   2.404  1.00  0.00     0.074 A 
ATOM     50  C   UNL     1      -5.620   1.232   2.216  1.00  0.00     0.031 C 
ATOM     51  C   UNL     1      -3.688  -3.210  -2.673  1.00  0.00     0.029 A 
ATOM     52  C   UNL     1      -4.451  -3.769  -1.558  1.00  0.00     0.049 A 
ATOM     53  H   UNL     1      -5.160  -2.755   0.117  1.00  0.00     0.167 HD
ATOM     54  C   UNL     1      -6.881  -0.509   3.433  1.00  0.00     0.037 A 
ATOM     55  C   UNL     1      -4.828  -5.057  -1.431  1.00  0.00     0.037 A 
ATOM     56  C   UNL     1      -7.360  -1.852   3.628  1.00  0.00     0.049 A 
ATOM     57  C   UNL     1      -5.645  -5.486  -0.239  1.00  0.00     0.074 A 
ATOM     58  C   UNL     1      -8.179  -2.338   4.632  1.00  0.00     0.029 A 
ATOM     59  N   UNL     1      -7.057  -2.926   2.805  1.00  0.00    -0.354 N 
ATOM     60  N   UNL     1      -6.127  -4.763   0.743  1.00  0.00    -0.248 NA
ATOM     61  C   UNL     1      -5.978  -6.916  -0.147  1.00  0.00     0.031 C 
ATOM     62  C   UNL     1      -8.322  -3.718   4.450  1.00  0.00     0.029 A 
ATOM     63  C   UNL     1      -7.650  -4.079   3.294  1.00  0.00     0.049 A 
ATOM     64  H   UNL     1      -6.503  -2.876   1.992  1.00  0.00     0.167 HD
ATOM     65  C   UNL     1      -6.856  -5.638   1.541  1.00  0.00     0.074 A 
ATOM     66  C   UNL     1      -6.753  -6.946   0.927  1.00  0.00     0.031 C 
ATOM     67  C   UNL     1      -7.556  -5.378   2.674  1.00  0.00     0.037 A 
BRANCH  54  68
ATOM     68  C   UNL     1      -7.242   0.544   4.443  1.00  0.00     0.057 A 
ATOM     69  C   UNL     1      -8.071   1.630   4.126  1.00  0.00     0.134 A 
ATOM     70  C   UNL     1      -6.725   0.489   5.743  1.00  0.00     0.134 A 
ATOM     71  F   UNL     1      -8.588   1.754   2.894  1.00  0.00    -0.206 F 
ATOM     72  C   UNL     1      -8.326   2.649   5.047  1.00  0.00     0.040 A 
ATOM     73  C   UNL     1      -7.003   1.482   6.684  1.00  0.00     0.040 A 
ATOM     74  F   UNL     1      -5.931  -0.526   6.119  1.00  0.00    -0.206 F 
ATOM     75  C   UNL     1      -7.792   2.574   6.331  1.00  0.00     0.006 A 
ENDBRANCH  54  68
BRANCH  55  76
ATOM     76  C   UNL     1      -4.466  -6.044  -2.482  1.00  0.00     0.057 A 
ATOM     77  C   UNL     1      -5.444  -6.606  -3.312  1.00  0.00     0.134 A 
ATOM     78  C   UNL     1      -3.144  -6.463  -2.669  1.00  0.00     0.134 A 
ATOM     79  F   UNL     1      -6.733  -6.265  -3.163  1.00  0.00    -0.206 F 
ATOM     80  C   UNL     1      -5.122  -7.557  -4.282  1.00  0.00     0.040 A 
ATOM     81  C   UNL     1      -2.804  -7.395  -3.651  1.00  0.00     0.040 A 
ATOM     82  F   UNL     1      -2.162  -5.967  -1.903  1.00  0.00    -0.206 F 
ATOM     83  C   UNL     1      -3.797  -7.949  -4.457  1.00  0.00     0.006 A 
ENDBRANCH  55  76
BRANCH  67  84
ATOM     84  C   UNL     1      -8.323  -6.513   3.295  1.00  0.00     0.057 A 
ATOM     85  C   UNL     1      -7.691  -7.594   3.922  1.00  0.00     0.134 A 
ATOM     86  C   UNL     1      -9.726  -6.504   3.290  1.00  0.00     0.134 A 
ATOM     87  F   UNL     1      -6.352  -7.672   3.957  1.00  0.00    -0.206 F 
ATOM     88  C   UNL     1      -8.423  -8.640   4.490  1.00  0.00     0.040 A 
ATOM     89  C   UNL     1     -10.468  -7.527   3.883  1.00  0.00     0.040 A 
ATOM     90  F   UNL     1     -10.399  -5.495   2.719  1.00  0.00    -0.206 F 
ATOM     91  C   UNL     1      -9.816  -8.604   4.478  1.00  0.00     0.006 A 
ENDBRANCH  67  84
ENDBRANCH  41  42
ENDBRANCH  34  36
ENDBRANCH  33  34
ENDBRANCH  32  33
ENDBRANCH  31  32
ENDBRANCH  30  31
ENDBRANCH   1  30
TORSDOF 20
