REMARK SMILES COc1ccc(N2C(=O)/C(=C/c3c(C(=O)OCCOCCOC(=O)c4ccc(-c5c6nc(c(-c7c(F)cccc7F)c7ccc([nH]7)c(-c7c(F)cccc7F)c7nc(c(-c8c(F)cccc8F)c8ccc5[nH]8)C=C7)C=C6)cc4)[nH]c4cc(OC)ccc34)SC2=S)cc1
REMARK SMILES IDX 18 1 17 2 16 3 14 4 15 5 13 6 12 7 87 8 79 9 80 10 86 11
REMARK SMILES IDX 81 13 85 14 82 15 11 16 7 17 8 18 89 19 9 20 10 21 88 22
REMARK SMILES IDX 90 23 6 24 3 25 4 26 92 27 5 28 91 29 2 30 1 31 83 32 84 33
REMARK SMILES IDX 19 34 20 35 21 36 22 37 23 38 24 39 25 40 26 41 78 42 27 43
REMARK SMILES IDX 77 44 28 45 29 46 30 47 71 48 31 49 76 50 70 51 72 52 32 53
REMARK SMILES IDX 75 54 69 55 68 56 33 58 59 59 42 60 58 61 43 62 46 63 57 64
REMARK SMILES IDX 73 65 44 66 45 67 56 69 74 70 47 71 34 72 35 73 40 74 36 75
REMARK SMILES IDX 37 76 39 77 41 78 38 79 60 80 61 81 66 82 62 83 63 84 65 85
REMARK SMILES IDX 67 86 64 87 48 88 49 89 54 90 50 91 51 92 53 93 55 94 52 95
REMARK H PARENT 79 12 72 57 46 68
REMARK Flexibility Score: inf
ROOT
ATOM      1  C   UNL     1       3.601  -8.819   2.513  1.00  0.00     0.202 C 
ENDROOT
BRANCH   1   2
ATOM      2  C   UNL     1       4.291  -8.588   1.163  1.00  0.00     0.261 C 
BRANCH   2   3
ATOM      3  O   UNL     1       3.656  -9.298   0.090  1.00  0.00    -0.459 OA
BRANCH   3   4
ATOM      4  C   UNL     1       4.334 -10.398  -0.347  1.00  0.00     0.355 C 
ATOM      5  O   UNL     1       5.442 -10.745   0.039  1.00  0.00    -0.244 OA
BRANCH   4   6
ATOM      6  C   UNL     1       3.510 -11.215  -1.209  1.00  0.00     0.133 A 
ATOM      7  C   UNL     1       2.462 -10.978  -2.099  1.00  0.00     0.016 A 
ATOM      8  C   UNL     1       2.022 -12.258  -2.600  1.00  0.00     0.008 A 
ATOM      9  N   UNL     1       3.697 -12.575  -1.170  1.00  0.00    -0.348 N 
ATOM     10  C   UNL     1       2.755 -13.225  -1.913  1.00  0.00     0.050 A 
ATOM     11  C   UNL     1       1.062 -12.729  -3.527  1.00  0.00     0.015 A 
ATOM     12  H   UNL     1       4.418 -13.023  -0.671  1.00  0.00     0.167 HD
ATOM     13  C   UNL     1       2.519 -14.598  -2.011  1.00  0.00     0.073 A 
ATOM     14  C   UNL     1       0.856 -14.122  -3.689  1.00  0.00     0.047 A 
ATOM     15  C   UNL     1       1.557 -15.043  -2.913  1.00  0.00     0.120 A 
BRANCH   7  16
ATOM     16  C   UNL     1       1.876  -9.677  -2.302  1.00  0.00     0.032 C 
ATOM     17  N   UNL     1       3.110  -6.328  -1.967  1.00  0.00    -0.261 N 
ATOM     18  C   UNL     1       2.028  -7.201  -2.172  1.00  0.00     0.270 C 
ATOM     19  C   UNL     1       4.357  -6.837  -2.330  1.00  0.00     0.152 C 
ATOM     20  O   UNL     1       0.835  -6.982  -1.999  1.00  0.00    -0.268 OA
ATOM     21  C   UNL     1       2.539  -8.543  -2.596  1.00  0.00     0.081 C 
ATOM     22  S   UNL     1       4.158  -8.391  -3.137  1.00  0.00    -0.054 SA
ATOM     23  S   UNL     1       5.905  -6.295  -1.992  1.00  0.00    -0.051 S 
BRANCH  17  24
ATOM     24  C   UNL     1       2.927  -5.060  -1.306  1.00  0.00     0.051 A 
ATOM     25  C   UNL     1       2.699  -2.641   0.156  1.00  0.00     0.119 A 
ATOM     26  C   UNL     1       1.922  -3.741   0.475  1.00  0.00     0.048 A 
ATOM     27  C   UNL     1       3.594  -2.727  -0.896  1.00  0.00     0.048 A 
ATOM     28  C   UNL     1       2.009  -4.932  -0.257  1.00  0.00     0.030 A 
ATOM     29  C   UNL     1       3.695  -3.924  -1.626  1.00  0.00     0.030 A 
BRANCH  25  30
ATOM     30  O   UNL     1       2.590  -1.550   0.968  1.00  0.00    -0.497 OA
ATOM     31  C   UNL     1       2.184  -0.373   0.273  1.00  0.00     0.278 C 
ENDBRANCH  25  30
ENDBRANCH  17  24
ENDBRANCH   7  16
BRANCH  15  32
ATOM     32  O   UNL     1       1.374 -16.399  -2.890  1.00  0.00    -0.497 OA
ATOM     33  C   UNL     1       0.899 -17.008  -4.080  1.00  0.00     0.278 C 
ENDBRANCH  15  32
ENDBRANCH   4   6
ENDBRANCH   3   4
ENDBRANCH   2   3
ENDBRANCH   1   2
BRANCH   1  34
ATOM     34  O   UNL     1       3.484 -10.170   2.948  1.00  0.00    -0.374 OA
BRANCH  34  35
ATOM     35  C   UNL     1       2.456 -10.975   2.373  1.00  0.00     0.202 C 
BRANCH  35  36
ATOM     36  C   UNL     1       1.008 -10.687   2.783  1.00  0.00     0.261 C 
BRANCH  36  37
ATOM     37  O   UNL     1       0.503  -9.431   2.289  1.00  0.00    -0.460 OA
BRANCH  37  38
ATOM     38  C   UNL     1       0.245  -8.513   3.253  1.00  0.00     0.338 C 
ATOM     39  O   UNL     1       0.483  -8.622   4.446  1.00  0.00    -0.246 OA
BRANCH  38  40
ATOM     40  C   UNL     1      -0.293  -7.260   2.681  1.00  0.00     0.060 A 
ATOM     41  C   UNL     1       0.164  -6.061   3.233  1.00  0.00     0.016 A 
ATOM     42  C   UNL     1      -1.305  -7.243   1.714  1.00  0.00     0.016 A 
ATOM     43  C   UNL     1      -0.407  -4.853   2.840  1.00  0.00     0.010 A 
ATOM     44  C   UNL     1      -1.881  -6.022   1.323  1.00  0.00     0.010 A 
ATOM     45  C   UNL     1      -1.441  -4.816   1.886  1.00  0.00    -0.014 A 
BRANCH  45  46
ATOM     46  C   UNL     1      -2.066  -3.497   1.580  1.00  0.00     0.031 A 
ATOM     47  C   UNL     1      -2.865  -2.810   2.652  1.00  0.00     0.074 A 
ATOM     48  C   UNL     1      -1.831  -2.857   0.418  1.00  0.00     0.049 A 
ATOM     49  N   UNL     1      -3.335  -1.589   2.687  1.00  0.00    -0.248 NA
ATOM     50  C   UNL     1      -3.189  -3.618   3.838  1.00  0.00     0.031 C 
ATOM     51  C   UNL     1      -1.087  -3.405  -0.710  1.00  0.00     0.029 A 
ATOM     52  N   UNL     1      -2.117  -1.567   0.028  1.00  0.00    -0.354 N 
ATOM     53  C   UNL     1      -4.048  -1.497   3.874  1.00  0.00     0.074 A 
ATOM     54  C   UNL     1      -3.898  -2.763   4.560  1.00  0.00     0.031 C 
ATOM     55  C   UNL     1      -0.835  -2.421  -1.590  1.00  0.00     0.029 A 
ATOM     56  C   UNL     1      -1.461  -1.187  -1.123  1.00  0.00     0.049 A 
ATOM     57  H   UNL     1      -2.730  -0.976   0.523  1.00  0.00     0.167 HD
ATOM     58  C   UNL     1      -4.813  -0.473   4.325  1.00  0.00     0.037 A 
ATOM     59  C   UNL     1      -1.350   0.024  -1.707  1.00  0.00     0.037 A 
ATOM     60  C   UNL     1      -5.008   0.767   3.624  1.00  0.00     0.049 A 
ATOM     61  C   UNL     1      -2.132   1.181  -1.140  1.00  0.00     0.074 A 
ATOM     62  C   UNL     1      -5.849   1.818   3.941  1.00  0.00     0.029 A 
ATOM     63  N   UNL     1      -4.351   1.118   2.455  1.00  0.00    -0.354 N 
ATOM     64  N   UNL     1      -2.823   1.251  -0.029  1.00  0.00    -0.248 NA
ATOM     65  C   UNL     1      -2.155   2.416  -1.940  1.00  0.00     0.031 C 
ATOM     66  C   UNL     1      -5.729   2.792   2.942  1.00  0.00     0.029 A 
ATOM     67  C   UNL     1      -4.779   2.364   2.028  1.00  0.00     0.049 A 
ATOM     68  H   UNL     1      -3.680   0.563   1.995  1.00  0.00     0.167 HD
ATOM     69  C   UNL     1      -3.394   2.517  -0.018  1.00  0.00     0.074 A 
ATOM     70  C   UNL     1      -2.903   3.212  -1.189  1.00  0.00     0.031 C 
ATOM     71  C   UNL     1      -4.288   3.040   0.857  1.00  0.00     0.037 A 
BRANCH  58  72
ATOM     72  C   UNL     1      -5.595  -0.728   5.576  1.00  0.00     0.057 A 
ATOM     73  C   UNL     1      -5.002  -0.727   6.844  1.00  0.00     0.134 A 
ATOM     74  C   UNL     1      -6.960  -1.032   5.497  1.00  0.00     0.134 A 
ATOM     75  F   UNL     1      -3.692  -0.473   6.981  1.00  0.00    -0.206 F 
ATOM     76  C   UNL     1      -5.736  -1.048   7.988  1.00  0.00     0.040 A 
ATOM     77  C   UNL     1      -7.708  -1.334   6.634  1.00  0.00     0.040 A 
ATOM     78  F   UNL     1      -7.583  -1.056   4.309  1.00  0.00    -0.206 F 
ATOM     79  C   UNL     1      -7.093  -1.352   7.884  1.00  0.00     0.006 A 
ENDBRANCH  58  72
BRANCH  59  80
ATOM     80  C   UNL     1      -0.447   0.247  -2.871  1.00  0.00     0.057 A 
ATOM     81  C   UNL     1       0.645   1.121  -2.759  1.00  0.00     0.134 A 
ATOM     82  C   UNL     1      -0.656  -0.351  -4.117  1.00  0.00     0.134 A 
ATOM     83  F   UNL     1       0.891   1.748  -1.599  1.00  0.00    -0.206 F 
ATOM     84  C   UNL     1       1.487   1.396  -3.838  1.00  0.00     0.040 A 
ATOM     85  C   UNL     1       0.194  -0.106  -5.200  1.00  0.00     0.040 A 
ATOM     86  F   UNL     1      -1.690  -1.184  -4.306  1.00  0.00    -0.206 F 
ATOM     87  C   UNL     1       1.265   0.775  -5.064  1.00  0.00     0.006 A 
ENDBRANCH  59  80
BRANCH  71  88
ATOM     88  C   UNL     1      -4.828   4.406   0.553  1.00  0.00     0.057 A 
ATOM     89  C   UNL     1      -5.739   4.609  -0.493  1.00  0.00     0.134 A 
ATOM     90  C   UNL     1      -4.484   5.513   1.336  1.00  0.00     0.134 A 
ATOM     91  F   UNL     1      -6.103   3.590  -1.286  1.00  0.00    -0.206 F 
ATOM     92  C   UNL     1      -6.275   5.870  -0.760  1.00  0.00     0.040 A 
ATOM     93  C   UNL     1      -5.030   6.775   1.092  1.00  0.00     0.040 A 
ATOM     94  F   UNL     1      -3.624   5.385   2.357  1.00  0.00    -0.206 F 
ATOM     95  C   UNL     1      -5.926   6.956   0.039  1.00  0.00     0.006 A 
ENDBRANCH  71  88
ENDBRANCH  45  46
ENDBRANCH  38  40
ENDBRANCH  37  38
ENDBRANCH  36  37
ENDBRANCH  35  36
ENDBRANCH  34  35
ENDBRANCH   1  34
TORSDOF 18
