REMARK SMILES O=C(OCCOCCOC(=O)c1ccc(-c2c3nc(c(-c4c(F)cccc4F)c4ccc([nH]4)c(-c4c(F)cccc4F)c4nc(c(-c5c(F)cccc5F)c5ccc2[nH]5)C=C4)C=C3)cc1)c1ccc(CNC(=O)c2ccccc2I)cc1
REMARK SMILES IDX 5 1 4 2 3 3 2 4 1 5 66 6 67 7 82 8 68 9 81 10 69 11 70 12
REMARK SMILES IDX 71 13 72 14 73 16 74 17 75 18 79 19 76 20 78 21 80 22 77 23
REMARK SMILES IDX 6 24 7 25 8 26 9 27 10 28 11 29 12 30 13 31 65 32 14 33
REMARK SMILES IDX 64 34 15 35 16 36 17 37 58 38 18 39 63 40 57 41 59 42 19 43
REMARK SMILES IDX 62 44 56 45 55 46 20 48 46 49 29 50 45 51 30 52 33 53 44 54
REMARK SMILES IDX 60 55 31 56 32 57 43 59 61 60 34 61 21 62 22 63 27 64 23 65
REMARK SMILES IDX 24 66 26 67 28 68 25 69 47 70 48 71 53 72 49 73 50 74 52 75
REMARK SMILES IDX 54 76 51 77 35 78 36 79 41 80 37 81 38 82 40 83 42 84 39 85
REMARK H PARENT 71 15 59 47 33 58
REMARK Flexibility Score: inf
ROOT
ATOM      1  C   UNL     1       4.332  -1.436  -0.475  1.00  0.00     0.202 C 
ENDROOT
BRANCH   1   2
ATOM      2  C   UNL     1       4.059  -0.627   0.792  1.00  0.00     0.261 C 
BRANCH   2   3
ATOM      3  O   UNL     1       2.669  -0.255   0.841  1.00  0.00    -0.460 OA
BRANCH   3   4
ATOM      4  C   UNL     1       2.176   1.002   0.745  1.00  0.00     0.338 C 
ATOM      5  O   UNL     1       0.969   1.206   0.834  1.00  0.00    -0.246 OA
BRANCH   4   6
ATOM      6  C   UNL     1       3.079   2.165   0.575  1.00  0.00     0.060 A 
ATOM      7  C   UNL     1       3.999   2.262  -0.472  1.00  0.00     0.016 A 
ATOM      8  C   UNL     1       2.903   3.257   1.430  1.00  0.00     0.016 A 
ATOM      9  C   UNL     1       4.780   3.404  -0.629  1.00  0.00     0.006 A 
ATOM     10  C   UNL     1       3.668   4.415   1.258  1.00  0.00     0.006 A 
ATOM     11  C   UNL     1       4.617   4.495   0.229  1.00  0.00    -0.029 A 
BRANCH  11  12
ATOM     12  C   UNL     1       5.388   5.760  -0.029  1.00  0.00     0.152 C 
BRANCH  12  13
ATOM     13  N   UNL     1       6.818   5.565   0.102  1.00  0.00    -0.348 N 
ATOM     14  C   UNL     1       7.815   5.641  -0.835  1.00  0.00     0.252 C 
ATOM     15  H   UNL     1       7.122   5.341   1.011  1.00  0.00     0.164 HD
ATOM     16  O   UNL     1       8.973   5.385  -0.514  1.00  0.00    -0.269 OA
BRANCH  14  17
ATOM     17  C   UNL     1       7.516   5.924  -2.255  1.00  0.00     0.053 A 
ATOM     18  C   UNL     1       7.881   4.913  -3.163  1.00  0.00     0.015 A 
ATOM     19  C   UNL     1       6.988   7.126  -2.744  1.00  0.00     0.026 A 
ATOM     20  C   UNL     1       7.660   5.071  -4.531  1.00  0.00     0.001 A 
ATOM     21  C   UNL     1       6.730   7.261  -4.116  1.00  0.00     0.015 A 
ATOM     22  I   UNL     1       6.675   8.834  -1.562  1.00  0.00    -0.043 I 
ATOM     23  C   UNL     1       7.063   6.235  -5.004  1.00  0.00     0.001 A 
ENDBRANCH  14  17
ENDBRANCH  12  13
ENDBRANCH  11  12
ENDBRANCH   4   6
ENDBRANCH   3   4
ENDBRANCH   2   3
ENDBRANCH   1   2
BRANCH   1  24
ATOM     24  O   UNL     1       4.050  -0.715  -1.674  1.00  0.00    -0.374 OA
BRANCH  24  25
ATOM     25  C   UNL     1       2.687  -0.775  -2.121  1.00  0.00     0.202 C 
BRANCH  25  26
ATOM     26  C   UNL     1       2.666  -0.941  -3.643  1.00  0.00     0.261 C 
BRANCH  26  27
ATOM     27  O   UNL     1       3.200  -2.238  -3.946  1.00  0.00    -0.460 OA
BRANCH  27  28
ATOM     28  C   UNL     1       4.554  -2.281  -3.993  1.00  0.00     0.338 C 
ATOM     29  O   UNL     1       5.311  -1.380  -4.316  1.00  0.00    -0.246 OA
BRANCH  28  30
ATOM     30  C   UNL     1       4.994  -3.555  -3.380  1.00  0.00     0.060 A 
ATOM     31  C   UNL     1       6.229  -3.582  -2.719  1.00  0.00     0.016 A 
ATOM     32  C   UNL     1       4.184  -4.697  -3.410  1.00  0.00     0.016 A 
ATOM     33  C   UNL     1       6.682  -4.763  -2.132  1.00  0.00     0.010 A 
ATOM     34  C   UNL     1       4.633  -5.875  -2.821  1.00  0.00     0.010 A 
ATOM     35  C   UNL     1       5.900  -5.921  -2.218  1.00  0.00    -0.014 A 
BRANCH  35  36
ATOM     36  C   UNL     1       6.476  -7.240  -1.884  1.00  0.00     0.031 A 
ATOM     37  C   UNL     1       7.019  -8.069  -3.013  1.00  0.00     0.074 A 
ATOM     38  C   UNL     1       6.477  -7.700  -0.623  1.00  0.00     0.049 A 
ATOM     39  N   UNL     1       7.480  -9.291  -3.001  1.00  0.00    -0.248 NA
ATOM     40  C   UNL     1       7.024  -7.435  -4.343  1.00  0.00     0.031 C 
ATOM     41  C   UNL     1       5.985  -6.973   0.546  1.00  0.00     0.029 A 
ATOM     42  N   UNL     1       6.890  -8.907  -0.123  1.00  0.00    -0.354 N 
ATOM     43  C   UNL     1       7.822  -9.573  -4.317  1.00  0.00     0.074 A 
ATOM     44  C   UNL     1       7.484  -8.412  -5.108  1.00  0.00     0.031 C 
ATOM     45  C   UNL     1       6.110  -7.759   1.630  1.00  0.00     0.029 A 
ATOM     46  C   UNL     1       6.663  -9.050   1.224  1.00  0.00     0.049 A 
ATOM     47  H   UNL     1       7.310  -9.605  -0.676  1.00  0.00     0.167 HD
ATOM     48  C   UNL     1       8.378 -10.700  -4.819  1.00  0.00     0.037 A 
ATOM     49  C   UNL     1       6.863 -10.114   2.024  1.00  0.00     0.037 A 
ATOM     50  C   UNL     1       8.706 -11.851  -4.024  1.00  0.00     0.049 A 
ATOM     51  C   UNL     1       7.441 -11.374   1.434  1.00  0.00     0.074 A 
ATOM     52  C   UNL     1       9.291 -13.038  -4.424  1.00  0.00     0.029 A 
ATOM     53  N   UNL     1       8.467 -11.957  -2.662  1.00  0.00    -0.354 N 
ATOM     54  N   UNL     1       7.796 -11.621   0.196  1.00  0.00    -0.248 NA
ATOM     55  C   UNL     1       7.647 -12.502   2.353  1.00  0.00     0.031 C 
ATOM     56  C   UNL     1       9.371 -13.879  -3.308  1.00  0.00     0.029 A 
ATOM     57  C   UNL     1       8.877 -13.197  -2.207  1.00  0.00     0.049 A 
ATOM     58  H   UNL     1       8.066 -11.253  -2.102  1.00  0.00     0.167 HD
ATOM     59  C   UNL     1       8.293 -12.919   0.192  1.00  0.00     0.074 A 
ATOM     60  C   UNL     1       8.203 -13.402   1.555  1.00  0.00     0.031 C 
ATOM     61  C   UNL     1       8.783 -13.647  -0.842  1.00  0.00     0.037 A 
BRANCH  48  62
ATOM     62  C   UNL     1       8.645 -10.736  -6.293  1.00  0.00     0.057 A 
ATOM     63  C   UNL     1       9.665  -9.974  -6.878  1.00  0.00     0.134 A 
ATOM     64  C   UNL     1       7.877 -11.545  -7.139  1.00  0.00     0.134 A 
ATOM     65  F   UNL     1      10.423  -9.161  -6.125  1.00  0.00    -0.206 F 
ATOM     66  C   UNL     1       9.898  -9.999  -8.254  1.00  0.00     0.040 A 
ATOM     67  C   UNL     1       8.115 -11.597  -8.513  1.00  0.00     0.040 A 
ATOM     68  F   UNL     1       6.881 -12.296  -6.644  1.00  0.00    -0.206 F 
ATOM     69  C   UNL     1       9.125 -10.818  -9.075  1.00  0.00     0.006 A 
ENDBRANCH  48  62
BRANCH  49  70
ATOM     70  C   UNL     1       6.517 -10.040   3.465  1.00  0.00     0.057 A 
ATOM     71  C   UNL     1       7.513 -10.028   4.449  1.00  0.00     0.134 A 
ATOM     72  C   UNL     1       5.185  -9.996   3.896  1.00  0.00     0.134 A 
ATOM     73  F   UNL     1       8.806 -10.090   4.100  1.00  0.00    -0.206 F 
ATOM     74  C   UNL     1       7.198  -9.993   5.809  1.00  0.00     0.040 A 
ATOM     75  C   UNL     1       4.856  -9.937   5.251  1.00  0.00     0.040 A 
ATOM     76  F   UNL     1       4.184 -10.002   3.003  1.00  0.00    -0.206 F 
ATOM     77  C   UNL     1       5.865  -9.943   6.213  1.00  0.00     0.006 A 
ENDBRANCH  49  70
BRANCH  61  78
ATOM     78  C   UNL     1       9.289 -15.023  -0.531  1.00  0.00     0.057 A 
ATOM     79  C   UNL     1       8.420 -16.086  -0.259  1.00  0.00     0.134 A 
ATOM     80  C   UNL     1      10.663 -15.296  -0.553  1.00  0.00     0.134 A 
ATOM     81  F   UNL     1       7.094 -15.886  -0.212  1.00  0.00    -0.206 F 
ATOM     82  C   UNL     1       8.901 -17.370   0.001  1.00  0.00     0.040 A 
ATOM     83  C   UNL     1      11.154 -16.581  -0.320  1.00  0.00     0.040 A 
ATOM     84  F   UNL     1      11.547 -14.323  -0.819  1.00  0.00    -0.206 F 
ATOM     85  C   UNL     1      10.272 -17.621  -0.036  1.00  0.00     0.006 A 
ENDBRANCH  61  78
ENDBRANCH  35  36
ENDBRANCH  28  30
ENDBRANCH  27  28
ENDBRANCH  26  27
ENDBRANCH  25  26
ENDBRANCH  24  25
ENDBRANCH   1  24
TORSDOF 17
