REMARK SMILES O=C(N[C@@H](Cc1ccccc1)C(=O)N[C@@H](CS)C(=O)N[C@@H](CO)C(=O)OCCOCCOC(=O)c1ccc(-c2c3nc(c(-c4c(F)cccc4F)c4ccc([nH]4)c(-c4c(F)cccc4F)c4nc(c(-c5c(F)cccc5F)c5ccc2[nH]5)C=C4)C=C3)cc1)c1ccc(F)cc1
REMARK SMILES IDX 27 1 26 2 24 3 25 4 21 5 20 6 18 7 19 8 15 10 14 11 12 12
REMARK SMILES IDX 13 13 4 15 3 16 1 17 2 18 89 20 90 21 95 22 91 23 94 24
REMARK SMILES IDX 92 25 93 26 5 27 6 28 7 29 11 30 8 31 10 32 9 33 16 34 17 35
REMARK SMILES IDX 22 37 23 38 28 40 29 41 30 42 31 43 32 44 33 45 34 46 35 47
REMARK SMILES IDX 36 48 88 49 37 50 87 51 38 52 39 53 40 54 81 55 41 56 86 57
REMARK SMILES IDX 80 58 82 59 42 60 85 61 79 62 78 63 43 65 69 66 52 67 68 68
REMARK SMILES IDX 53 69 56 70 67 71 83 72 54 73 55 74 66 76 84 77 57 78 44 79
REMARK SMILES IDX 45 80 50 81 46 82 47 83 49 84 51 85 48 86 70 87 71 88 76 89
REMARK SMILES IDX 72 90 73 91 75 92 77 93 74 94 58 95 59 96 64 97 60 98 61 99
REMARK SMILES IDX 63 100 65 101 62 102
REMARK H PARENT 20 9 14 14 3 19 17 36 23 39 82 64 56 75
REMARK Flexibility Score: inf
ROOT
ATOM      1  C   UNL     1       3.516   6.304   8.218  1.00  0.00     0.261 C 
ENDROOT
BRANCH   1   2
ATOM      2  O   UNL     1       4.269   5.756   7.127  1.00  0.00    -0.462 OA
BRANCH   2   3
ATOM      3  C   UNL     1       4.797   4.518   7.344  1.00  0.00     0.331 C 
ATOM      4  O   UNL     1       4.839   3.956   8.432  1.00  0.00    -0.250 OA
BRANCH   3   5
ATOM      5  C   UNL     1       5.364   3.901   6.060  1.00  0.00     0.218 C 
BRANCH   5   6
ATOM      6  N   UNL     1       5.000   4.632   4.837  1.00  0.00    -0.339 N 
ATOM      7  C   UNL     1       4.994   4.090   3.593  1.00  0.00     0.244 C 
ATOM      8  O   UNL     1       5.843   4.519   2.807  1.00  0.00    -0.273 OA
ATOM      9  H   UNL     1       4.744   5.578   4.927  1.00  0.00     0.164 HD
BRANCH   7  10
ATOM     10  C   UNL     1       4.067   2.908   3.209  1.00  0.00     0.181 C 
BRANCH  10  11
ATOM     11  N   UNL     1       4.829   1.686   3.026  1.00  0.00    -0.342 N 
ATOM     12  C   UNL     1       5.239   1.124   1.850  1.00  0.00     0.243 C 
ATOM     13  O   UNL     1       6.215   0.368   1.921  1.00  0.00    -0.273 OA
ATOM     14  H   UNL     1       5.081   1.205   3.848  1.00  0.00     0.164 HD
BRANCH  12  15
ATOM     15  C   UNL     1       4.516   1.335   0.486  1.00  0.00     0.176 C 
BRANCH  15  16
ATOM     16  N   UNL     1       3.093   0.995   0.565  1.00  0.00    -0.340 N 
ATOM     17  O   UNL     1       1.200  -0.115   0.077  1.00  0.00    -0.269 OA
ATOM     18  C   UNL     1       2.426  -0.078   0.025  1.00  0.00     0.251 C 
ATOM     19  H   UNL     1       2.536   1.623   1.079  1.00  0.00     0.164 HD
BRANCH  18  20
ATOM     20  C   UNL     1       3.162  -1.173  -0.645  1.00  0.00     0.040 A 
ATOM     21  C   UNL     1       4.167  -1.884   0.025  1.00  0.00     0.017 A 
ATOM     22  C   UNL     1       2.806  -1.523  -1.954  1.00  0.00     0.017 A 
ATOM     23  C   UNL     1       4.859  -2.899  -0.638  1.00  0.00     0.040 A 
ATOM     24  C   UNL     1       3.495  -2.547  -2.609  1.00  0.00     0.040 A 
ATOM     25  C   UNL     1       4.521  -3.217  -1.949  1.00  0.00     0.123 A 
ATOM     26  F   UNL     1       5.189  -4.189  -2.584  1.00  0.00    -0.207 F 
ENDBRANCH  18  20
ENDBRANCH  15  16
BRANCH  15  27
ATOM     27  C   UNL     1       4.853   2.571  -0.387  1.00  0.00     0.070 C 
BRANCH  27  28
ATOM     28  C   UNL     1       4.344   3.969  -0.105  1.00  0.00    -0.045 A 
ATOM     29  C   UNL     1       5.246   5.042  -0.223  1.00  0.00     0.004 A 
ATOM     30  C   UNL     1       3.011   4.273   0.205  1.00  0.00     0.004 A 
ATOM     31  C   UNL     1       4.863   6.349   0.085  1.00  0.00     0.000 A 
ATOM     32  C   UNL     1       2.637   5.574   0.561  1.00  0.00     0.000 A 
ATOM     33  C   UNL     1       3.567   6.610   0.515  1.00  0.00     0.000 A 
ENDBRANCH  27  28
ENDBRANCH  15  27
ENDBRANCH  12  15
ENDBRANCH  10  11
BRANCH  10  34
ATOM     34  C   UNL     1       2.691   2.759   3.868  1.00  0.00     0.101 C 
BRANCH  34  35
ATOM     35  S   UNL     1       2.583   1.952   5.489  1.00  0.00    -0.177 SA
ATOM     36  H   UNL     1       2.954   0.648   5.371  1.00  0.00     0.102 HD
ENDBRANCH  34  35
ENDBRANCH  10  34
ENDBRANCH   7  10
ENDBRANCH   5   6
BRANCH   5  37
ATOM     37  C   UNL     1       6.891   3.821   6.199  1.00  0.00     0.193 C 
BRANCH  37  38
ATOM     38  O   UNL     1       7.481   5.113   6.052  1.00  0.00    -0.394 OA
ATOM     39  H   UNL     1       7.273   5.465   5.173  1.00  0.00     0.210 HD
ENDBRANCH  37  38
ENDBRANCH   5  37
ENDBRANCH   3   5
ENDBRANCH   2   3
ENDBRANCH   1   2
BRANCH   1  40
ATOM     40  C   UNL     1       2.317   7.113   7.714  1.00  0.00     0.202 C 
BRANCH  40  41
ATOM     41  O   UNL     1       1.342   6.421   6.936  1.00  0.00    -0.374 OA
BRANCH  41  42
ATOM     42  C   UNL     1       1.727   5.955   5.647  1.00  0.00     0.202 C 
BRANCH  42  43
ATOM     43  C   UNL     1       1.898   6.992   4.527  1.00  0.00     0.261 C 
BRANCH  43  44
ATOM     44  O   UNL     1       2.835   8.034   4.837  1.00  0.00    -0.460 OA
BRANCH  44  45
ATOM     45  C   UNL     1       2.272   9.249   5.043  1.00  0.00     0.338 C 
ATOM     46  O   UNL     1       1.090   9.550   4.940  1.00  0.00    -0.246 OA
BRANCH  45  47
ATOM     47  C   UNL     1       3.272  10.185   5.578  1.00  0.00     0.060 A 
ATOM     48  C   UNL     1       3.036  10.740   6.842  1.00  0.00     0.016 A 
ATOM     49  C   UNL     1       4.366  10.592   4.812  1.00  0.00     0.016 A 
ATOM     50  C   UNL     1       3.876  11.736   7.332  1.00  0.00     0.010 A 
ATOM     51  C   UNL     1       5.200  11.602   5.300  1.00  0.00     0.010 A 
ATOM     52  C   UNL     1       4.938  12.201   6.546  1.00  0.00    -0.014 A 
BRANCH  52  53
ATOM     53  C   UNL     1       5.659  13.428   6.957  1.00  0.00     0.031 A 
ATOM     54  C   UNL     1       5.262  14.741   6.338  1.00  0.00     0.074 A 
ATOM     55  C   UNL     1       6.617  13.382   7.899  1.00  0.00     0.049 A 
ATOM     56  N   UNL     1       5.764  15.934   6.525  1.00  0.00    -0.248 NA
ATOM     57  C   UNL     1       4.144  14.702   5.380  1.00  0.00     0.031 C 
ATOM     58  C   UNL     1       7.052  12.177   8.603  1.00  0.00     0.029 A 
ATOM     59  N   UNL     1       7.397  14.380   8.425  1.00  0.00    -0.354 N 
ATOM     60  C   UNL     1       5.025  16.786   5.714  1.00  0.00     0.074 A 
ATOM     61  C   UNL     1       4.064  15.970   5.005  1.00  0.00     0.031 C 
ATOM     62  C   UNL     1       8.028  12.506   9.468  1.00  0.00     0.029 A 
ATOM     63  C   UNL     1       8.305  13.936   9.355  1.00  0.00     0.049 A 
ATOM     64  H   UNL     1       7.314  15.325   8.161  1.00  0.00     0.167 HD
ATOM     65  C   UNL     1       5.129  18.129   5.583  1.00  0.00     0.037 A 
ATOM     66  C   UNL     1       9.261  14.610  10.023  1.00  0.00     0.037 A 
ATOM     67  C   UNL     1       6.089  18.937   6.286  1.00  0.00     0.049 A 
ATOM     68  C   UNL     1       9.409  16.092   9.795  1.00  0.00     0.074 A 
ATOM     69  C   UNL     1       6.288  20.304   6.212  1.00  0.00     0.029 A 
ATOM     70  N   UNL     1       7.013  18.446   7.197  1.00  0.00    -0.354 N 
ATOM     71  N   UNL     1       8.701  16.889   9.030  1.00  0.00    -0.248 NA
ATOM     72  C   UNL     1      10.488  16.770  10.529  1.00  0.00     0.031 C 
ATOM     73  C   UNL     1       7.358  20.636   7.050  1.00  0.00     0.029 A 
ATOM     74  C   UNL     1       7.792  19.482   7.682  1.00  0.00     0.049 A 
ATOM     75  H   UNL     1       7.101  17.501   7.459  1.00  0.00     0.167 HD
ATOM     76  C   UNL     1       9.222  18.163   9.221  1.00  0.00     0.074 A 
ATOM     77  C   UNL     1      10.299  18.035  10.180  1.00  0.00     0.031 C 
ATOM     78  C   UNL     1       8.843  19.336   8.656  1.00  0.00     0.037 A 
BRANCH  65  79
ATOM     79  C   UNL     1       4.186  18.807   4.632  1.00  0.00     0.057 A 
ATOM     80  C   UNL     1       2.826  18.961   4.928  1.00  0.00     0.134 A 
ATOM     81  C   UNL     1       4.650  19.343   3.424  1.00  0.00     0.134 A 
ATOM     82  F   UNL     1       2.315  18.456   6.061  1.00  0.00    -0.206 F 
ATOM     83  C   UNL     1       1.957  19.610   4.049  1.00  0.00     0.040 A 
ATOM     84  C   UNL     1       3.796  20.015   2.549  1.00  0.00     0.040 A 
ATOM     85  F   UNL     1       5.942  19.232   3.080  1.00  0.00    -0.206 F 
ATOM     86  C   UNL     1       2.443  20.147   2.859  1.00  0.00     0.006 A 
ENDBRANCH  65  79
BRANCH  66  87
ATOM     87  C   UNL     1      10.165  13.901  10.964  1.00  0.00     0.057 A 
ATOM     88  C   UNL     1      10.124  14.154  12.341  1.00  0.00     0.134 A 
ATOM     89  C   UNL     1      11.124  12.990  10.506  1.00  0.00     0.134 A 
ATOM     90  F   UNL     1       9.244  15.035  12.839  1.00  0.00    -0.206 F 
ATOM     91  C   UNL     1      11.022  13.550  13.223  1.00  0.00     0.040 A 
ATOM     92  C   UNL     1      12.009  12.357  11.380  1.00  0.00     0.040 A 
ATOM     93  F   UNL     1      11.216  12.702   9.199  1.00  0.00    -0.206 F 
ATOM     94  C   UNL     1      11.967  12.646  12.743  1.00  0.00     0.006 A 
ENDBRANCH  66  87
BRANCH  78  95
ATOM     95  C   UNL     1       9.556  20.578   9.104  1.00  0.00     0.057 A 
ATOM     96  C   UNL     1      10.874  20.856   8.726  1.00  0.00     0.134 A 
ATOM     97  C   UNL     1       8.894  21.527   9.895  1.00  0.00     0.134 A 
ATOM     98  F   UNL     1      11.566  19.983   7.979  1.00  0.00    -0.206 F 
ATOM     99  C   UNL     1      11.520  22.023   9.140  1.00  0.00     0.040 A 
ATOM    100  C   UNL     1       9.519  22.709  10.292  1.00  0.00     0.040 A 
ATOM    101  F   UNL     1       7.626  21.326  10.283  1.00  0.00    -0.206 F 
ATOM    102  C   UNL     1      10.839  22.956   9.919  1.00  0.00     0.006 A 
ENDBRANCH  78  95
ENDBRANCH  52  53
ENDBRANCH  45  47
ENDBRANCH  44  45
ENDBRANCH  43  44
ENDBRANCH  42  43
ENDBRANCH  41  42
ENDBRANCH  40  41
ENDBRANCH   1  40
TORSDOF 26
