REMARK SMILES C[C@@H](Sc1nncn1C)[C@@H](C)C(=O)OCCOCCOC(=O)c1ccc(-c2c3nc(c(-c4c(F)cccc4F)c4ccc([nH]4)c(-c4c(F)cccc4F)c4nc(c(-c5c(F)cccc5F)c5ccc2[nH]5)C=C4)C=C3)cc1
REMARK SMILES IDX 16 1 15 2 14 3 12 4 13 5 10 6 11 7 2 8 1 9 3 10 4 11 5 12
REMARK SMILES IDX 8 13 6 14 7 15 9 16 17 17 18 18 19 19 20 20 21 21 22 22
REMARK SMILES IDX 23 23 24 24 76 25 25 26 75 27 26 28 27 29 28 30 69 31 29 32
REMARK SMILES IDX 74 33 68 34 70 35 30 36 73 37 67 38 66 39 31 41 57 42 40 43
REMARK SMILES IDX 56 44 41 45 44 46 55 47 71 48 42 49 43 50 54 52 72 53 45 54
REMARK SMILES IDX 32 55 33 56 38 57 34 58 35 59 37 60 39 61 36 62 58 63 59 64
REMARK SMILES IDX 64 65 60 66 61 67 63 68 65 69 62 70 46 71 47 72 52 73 48 74
REMARK SMILES IDX 49 75 51 76 53 77 50 78
REMARK H PARENT 70 40 44 51
REMARK Flexibility Score: inf
ROOT
ATOM      1  C   UNL     1      -1.967  -2.897  -4.736  1.00  0.00     0.202 C 
ENDROOT
BRANCH   1   2
ATOM      2  C   UNL     1      -2.307  -1.495  -4.218  1.00  0.00     0.261 C 
BRANCH   2   3
ATOM      3  O   UNL     1      -1.453  -0.991  -3.172  1.00  0.00    -0.463 OA
BRANCH   3   4
ATOM      4  C   UNL     1      -2.010  -1.037  -1.930  1.00  0.00     0.309 C 
ATOM      5  O   UNL     1      -3.073  -1.590  -1.666  1.00  0.00    -0.252 OA
BRANCH   4   6
ATOM      6  C   UNL     1      -1.293  -0.175  -0.908  1.00  0.00     0.109 C 
ATOM      7  C   UNL     1      -1.839   1.248  -1.107  1.00  0.00     0.021 C 
BRANCH   6   8
ATOM      8  C   UNL     1       0.260  -0.208  -0.868  1.00  0.00     0.065 C 
ATOM      9  C   UNL     1       0.737   0.756   0.232  1.00  0.00     0.021 C 
BRANCH   8  10
ATOM     10  S   UNL     1       0.887  -1.846  -0.408  1.00  0.00    -0.082 SA
BRANCH  10  11
ATOM     11  C   UNL     1       2.513  -2.071  -0.972  1.00  0.00     0.191 A 
ATOM     12  N   UNL     1       3.012  -3.291  -1.055  1.00  0.00    -0.124 NA
ATOM     13  N   UNL     1       3.509  -1.180  -1.278  1.00  0.00    -0.312 N 
ATOM     14  N   UNL     1       4.338  -3.210  -1.391  1.00  0.00    -0.138 NA
ATOM     15  C   UNL     1       4.629  -1.940  -1.501  1.00  0.00     0.226 A 
ATOM     16  C   UNL     1       3.545   0.251  -1.365  1.00  0.00     0.153 C 
ENDBRANCH  10  11
ENDBRANCH   8  10
ENDBRANCH   6   8
ENDBRANCH   4   6
ENDBRANCH   3   4
ENDBRANCH   2   3
ENDBRANCH   1   2
BRANCH   1  17
ATOM     17  O   UNL     1      -1.984  -3.975  -3.809  1.00  0.00    -0.374 OA
BRANCH  17  18
ATOM     18  C   UNL     1      -0.902  -4.067  -2.882  1.00  0.00     0.202 C 
BRANCH  18  19
ATOM     19  C   UNL     1       0.463  -4.479  -3.446  1.00  0.00     0.261 C 
BRANCH  19  20
ATOM     20  O   UNL     1       1.007  -3.480  -4.331  1.00  0.00    -0.460 OA
BRANCH  20  21
ATOM     21  C   UNL     1       1.208  -3.900  -5.600  1.00  0.00     0.338 C 
ATOM     22  O   UNL     1       1.039  -5.027  -6.052  1.00  0.00    -0.246 OA
BRANCH  21  23
ATOM     23  C   UNL     1       1.492  -2.752  -6.477  1.00  0.00     0.060 A 
ATOM     24  C   UNL     1       0.690  -2.592  -7.616  1.00  0.00     0.016 A 
ATOM     25  C   UNL     1       2.587  -1.915  -6.254  1.00  0.00     0.016 A 
ATOM     26  C   UNL     1       1.014  -1.631  -8.571  1.00  0.00     0.010 A 
ATOM     27  C   UNL     1       2.917  -0.959  -7.219  1.00  0.00     0.010 A 
ATOM     28  C   UNL     1       2.157  -0.842  -8.399  1.00  0.00    -0.014 A 
BRANCH  28  29
ATOM     29  C   UNL     1       2.669  -0.027  -9.526  1.00  0.00     0.031 A 
ATOM     30  C   UNL     1       3.792  -0.578 -10.361  1.00  0.00     0.074 A 
ATOM     31  C   UNL     1       2.142   1.177  -9.809  1.00  0.00     0.049 A 
ATOM     32  N   UNL     1       4.482  -0.002 -11.310  1.00  0.00    -0.248 NA
ATOM     33  C   UNL     1       4.191  -1.968 -10.082  1.00  0.00     0.031 C 
ATOM     34  C   UNL     1       1.008   1.788  -9.120  1.00  0.00     0.029 A 
ATOM     35  N   UNL     1       2.509   2.108 -10.748  1.00  0.00    -0.354 N 
ATOM     36  C   UNL     1       5.406  -0.951 -11.731  1.00  0.00     0.074 A 
ATOM     37  C   UNL     1       5.203  -2.132 -10.922  1.00  0.00     0.031 C 
ATOM     38  C   UNL     1       0.784   3.005  -9.645  1.00  0.00     0.029 A 
ATOM     39  C   UNL     1       1.784   3.273 -10.677  1.00  0.00     0.049 A 
ATOM     40  H   UNL     1       3.223   1.956 -11.409  1.00  0.00     0.167 HD
ATOM     41  C   UNL     1       6.339  -0.846 -12.707  1.00  0.00     0.037 A 
ATOM     42  C   UNL     1       1.936   4.432 -11.346  1.00  0.00     0.037 A 
ATOM     43  C   UNL     1       6.534   0.329 -13.512  1.00  0.00     0.049 A 
ATOM     44  C   UNL     1       3.037   4.557 -12.367  1.00  0.00     0.074 A 
ATOM     45  C   UNL     1       7.453   0.539 -14.525  1.00  0.00     0.029 A 
ATOM     46  N   UNL     1       5.795   1.496 -13.393  1.00  0.00    -0.354 N 
ATOM     47  N   UNL     1       3.913   3.660 -12.752  1.00  0.00    -0.248 NA
ATOM     48  C   UNL     1       3.175   5.856 -13.043  1.00  0.00     0.031 C 
ATOM     49  C   UNL     1       7.298   1.848 -14.991  1.00  0.00     0.029 A 
ATOM     50  C   UNL     1       6.250   2.437 -14.300  1.00  0.00     0.049 A 
ATOM     51  H   UNL     1       5.056   1.635 -12.757  1.00  0.00     0.167 HD
ATOM     52  C   UNL     1       4.678   4.272 -13.737  1.00  0.00     0.074 A 
ATOM     53  C   UNL     1       4.167   5.617 -13.890  1.00  0.00     0.031 C 
ATOM     54  C   UNL     1       5.709   3.763 -14.455  1.00  0.00     0.037 A 
BRANCH  41  55
ATOM     55  C   UNL     1       7.239  -2.024 -12.934  1.00  0.00     0.057 A 
ATOM     56  C   UNL     1       6.781  -3.200 -13.541  1.00  0.00     0.134 A 
ATOM     57  C   UNL     1       8.589  -1.970 -12.565  1.00  0.00     0.134 A 
ATOM     58  F   UNL     1       5.495  -3.321 -13.904  1.00  0.00    -0.206 F 
ATOM     59  C   UNL     1       7.629  -4.289 -13.753  1.00  0.00     0.040 A 
ATOM     60  C   UNL     1       9.452  -3.042 -12.795  1.00  0.00     0.040 A 
ATOM     61  F   UNL     1       9.092  -0.871 -11.982  1.00  0.00    -0.206 F 
ATOM     62  C   UNL     1       8.971  -4.209 -13.386  1.00  0.00     0.006 A 
ENDBRANCH  41  55
BRANCH  42  63
ATOM     63  C   UNL     1       1.041   5.580 -11.057  1.00  0.00     0.057 A 
ATOM     64  C   UNL     1       0.106   6.026 -11.998  1.00  0.00     0.134 A 
ATOM     65  C   UNL     1       1.111   6.271  -9.841  1.00  0.00     0.134 A 
ATOM     66  F   UNL     1       0.008   5.420 -13.190  1.00  0.00    -0.206 F 
ATOM     67  C   UNL     1      -0.717   7.125 -11.747  1.00  0.00     0.040 A 
ATOM     68  C   UNL     1       0.278   7.357  -9.567  1.00  0.00     0.040 A 
ATOM     69  F   UNL     1       1.986   5.894  -8.896  1.00  0.00    -0.206 F 
ATOM     70  C   UNL     1      -0.635   7.791 -10.525  1.00  0.00     0.006 A 
ENDBRANCH  42  63
BRANCH  54  71
ATOM     71  C   UNL     1       6.319   4.635 -15.511  1.00  0.00     0.057 A 
ATOM     72  C   UNL     1       7.179   5.692 -15.194  1.00  0.00     0.134 A 
ATOM     73  C   UNL     1       6.103   4.358 -16.868  1.00  0.00     0.134 A 
ATOM     74  F   UNL     1       7.418   6.014 -13.914  1.00  0.00    -0.206 F 
ATOM     75  C   UNL     1       7.797   6.451 -16.190  1.00  0.00     0.040 A 
ATOM     76  C   UNL     1       6.732   5.094 -17.872  1.00  0.00     0.040 A 
ATOM     77  F   UNL     1       5.296   3.351 -17.237  1.00  0.00    -0.206 F 
ATOM     78  C   UNL     1       7.581   6.145 -17.533  1.00  0.00     0.006 A 
ENDBRANCH  54  71
ENDBRANCH  28  29
ENDBRANCH  21  23
ENDBRANCH  20  21
ENDBRANCH  19  20
ENDBRANCH  18  19
ENDBRANCH  17  18
ENDBRANCH   1  17
TORSDOF 17
