REMARK SMILES O=C(OCCOCCOC(=O)[C@H]1[C@H]2CC[C@H](CC2)[C@@H]1C(=O)Nc1sc2c(c1C(=O)N1CCCCC1)CCCC2)c1ccc(-c2c3nc(c(-c4c(F)cccc4F)c4ccc([nH]4)c(-c4c(F)cccc4F)c4nc(c(-c5c(F)cccc5F)c5ccc2[nH]5)C=C4)C=C3)cc1
REMARK SMILES IDX 7 1 6 2 5 3 4 4 3 5 2 6 1 7 40 8 41 9 93 10 42 11 92 12
REMARK SMILES IDX 43 13 44 14 45 15 86 16 46 17 91 18 85 19 87 20 47 21 90 22
REMARK SMILES IDX 84 23 83 24 48 26 74 27 57 28 73 29 58 30 61 31 72 32 88 33
REMARK SMILES IDX 59 34 60 35 71 37 89 38 62 39 49 40 50 41 55 42 51 43 52 44
REMARK SMILES IDX 54 45 56 46 53 47 75 48 76 49 81 50 77 51 78 52 80 53 82 54
REMARK SMILES IDX 79 55 63 56 64 57 69 58 65 59 66 60 68 61 70 62 67 63 8 64
REMARK SMILES IDX 9 65 10 66 11 67 12 68 13 69 19 70 18 71 14 72 16 73 17 74
REMARK SMILES IDX 15 75 20 76 21 77 22 78 23 80 24 81 27 82 25 83 26 84 39 85
REMARK SMILES IDX 36 86 38 87 37 88 28 89 29 90 30 91 31 92 35 93 32 94 34 95
REMARK SMILES IDX 33 96
REMARK H PARENT 87 25 61 36 22 79
REMARK Flexibility Score: inf
ROOT
ATOM      1  C   UNL     1       2.051  -1.347   0.821  1.00  0.00     0.202 C 
ENDROOT
BRANCH   1   2
ATOM      2  O   UNL     1       3.285  -0.782   0.420  1.00  0.00    -0.374 OA
BRANCH   2   3
ATOM      3  C   UNL     1       3.811   0.354   1.093  1.00  0.00     0.202 C 
BRANCH   3   4
ATOM      4  C   UNL     1       3.772   1.590   0.202  1.00  0.00     0.261 C 
BRANCH   4   5
ATOM      5  O   UNL     1       2.426   1.820  -0.242  1.00  0.00    -0.460 OA
BRANCH   5   6
ATOM      6  C   UNL     1       1.839   1.101  -1.231  1.00  0.00     0.338 C 
ATOM      7  O   UNL     1       0.618   0.983  -1.278  1.00  0.00    -0.246 OA
BRANCH   6   8
ATOM      8  C   UNL     1       2.650   0.601  -2.372  1.00  0.00     0.060 A 
ATOM      9  C   UNL     1       3.770  -0.226  -2.248  1.00  0.00     0.016 A 
ATOM     10  C   UNL     1       2.201   0.941  -3.652  1.00  0.00     0.016 A 
ATOM     11  C   UNL     1       4.469  -0.664  -3.343  1.00  0.00     0.010 A 
ATOM     12  C   UNL     1       2.880   0.471  -4.774  1.00  0.00     0.010 A 
ATOM     13  C   UNL     1       4.015  -0.330  -4.607  1.00  0.00    -0.014 A 
BRANCH  13  14
ATOM     14  C   UNL     1       4.868  -0.747  -5.716  1.00  0.00     0.031 A 
ATOM     15  C   UNL     1       5.714   0.297  -6.358  1.00  0.00     0.074 A 
ATOM     16  C   UNL     1       4.995  -2.059  -5.976  1.00  0.00     0.049 A 
ATOM     17  N   UNL     1       6.447   0.215  -7.429  1.00  0.00    -0.248 NA
ATOM     18  C   UNL     1       5.744   1.616  -5.697  1.00  0.00     0.031 C 
ATOM     19  C   UNL     1       4.337  -3.138  -5.227  1.00  0.00     0.029 A 
ATOM     20  N   UNL     1       5.748  -2.712  -6.905  1.00  0.00    -0.354 N 
ATOM     21  C   UNL     1       6.972   1.486  -7.610  1.00  0.00     0.074 A 
ATOM     22  C   UNL     1       6.497   2.316  -6.529  1.00  0.00     0.031 C 
ATOM     23  C   UNL     1       4.735  -4.320  -5.720  1.00  0.00     0.029 A 
ATOM     24  C   UNL     1       5.580  -4.074  -6.878  1.00  0.00     0.049 A 
ATOM     25  H   UNL     1       6.352  -2.253  -7.533  1.00  0.00     0.167 HD
ATOM     26  C   UNL     1       7.762   1.902  -8.623  1.00  0.00     0.037 A 
ATOM     27  C   UNL     1       6.015  -4.997  -7.752  1.00  0.00     0.037 A 
ATOM     28  C   UNL     1       8.206   1.012  -9.659  1.00  0.00     0.049 A 
ATOM     29  C   UNL     1       6.798  -4.494  -8.931  1.00  0.00     0.074 A 
ATOM     30  C   UNL     1       8.935   1.291 -10.796  1.00  0.00     0.029 A 
ATOM     31  N   UNL     1       7.953  -0.358  -9.663  1.00  0.00    -0.354 N 
ATOM     32  N   UNL     1       7.194  -3.268  -9.194  1.00  0.00    -0.248 NA
ATOM     33  C   UNL     1       7.165  -5.480  -9.950  1.00  0.00     0.031 C 
ATOM     34  C   UNL     1       9.085   0.096 -11.510  1.00  0.00     0.029 A 
ATOM     35  C   UNL     1       8.497  -0.937 -10.792  1.00  0.00     0.049 A 
ATOM     36  H   UNL     1       7.459  -0.842  -8.963  1.00  0.00     0.167 HD
ATOM     37  C   UNL     1       7.866  -3.333 -10.403  1.00  0.00     0.074 A 
ATOM     38  C   UNL     1       7.841  -4.728 -10.808  1.00  0.00     0.031 C 
ATOM     39  C   UNL     1       8.445  -2.341 -11.125  1.00  0.00     0.037 A 
BRANCH  26  40
ATOM     40  C   UNL     1       8.069   3.367  -8.686  1.00  0.00     0.057 A 
ATOM     41  C   UNL     1       8.920   4.000  -7.771  1.00  0.00     0.134 A 
ATOM     42  C   UNL     1       7.434   4.174  -9.639  1.00  0.00     0.134 A 
ATOM     43  F   UNL     1       9.527   3.293  -6.806  1.00  0.00    -0.206 F 
ATOM     44  C   UNL     1       9.106   5.385  -7.784  1.00  0.00     0.040 A 
ATOM     45  C   UNL     1       7.630   5.555  -9.678  1.00  0.00     0.040 A 
ATOM     46  F   UNL     1       6.591   3.636 -10.533  1.00  0.00    -0.206 F 
ATOM     47  C   UNL     1       8.461   6.166  -8.742  1.00  0.00     0.006 A 
ENDBRANCH  26  40
BRANCH  27  48
ATOM     48  C   UNL     1       5.640  -6.426  -7.594  1.00  0.00     0.057 A 
ATOM     49  C   UNL     1       6.605  -7.415  -7.378  1.00  0.00     0.134 A 
ATOM     50  C   UNL     1       4.302  -6.843  -7.654  1.00  0.00     0.134 A 
ATOM     51  F   UNL     1       7.904  -7.088  -7.322  1.00  0.00    -0.206 F 
ATOM     52  C   UNL     1       6.258  -8.762  -7.246  1.00  0.00     0.040 A 
ATOM     53  C   UNL     1       3.937  -8.180  -7.494  1.00  0.00     0.040 A 
ATOM     54  F   UNL     1       3.320  -5.950  -7.853  1.00  0.00    -0.206 F 
ATOM     55  C   UNL     1       4.920  -9.147  -7.298  1.00  0.00     0.006 A 
ENDBRANCH  27  48
BRANCH  39  56
ATOM     56  C   UNL     1       9.123  -2.754 -12.393  1.00  0.00     0.057 A 
ATOM     57  C   UNL     1       8.397  -3.099 -13.537  1.00  0.00     0.134 A 
ATOM     58  C   UNL     1      10.520  -2.744 -12.477  1.00  0.00     0.134 A 
ATOM     59  F   UNL     1       7.057  -3.141 -13.507  1.00  0.00    -0.206 F 
ATOM     60  C   UNL     1       9.042  -3.438 -14.725  1.00  0.00     0.040 A 
ATOM     61  C   UNL     1      11.175  -3.052 -13.666  1.00  0.00     0.040 A 
ATOM     62  F   UNL     1      11.265  -2.412 -11.411  1.00  0.00    -0.206 F 
ATOM     63  C   UNL     1      10.435  -3.405 -14.794  1.00  0.00     0.006 A 
ENDBRANCH  39  56
ENDBRANCH  13  14
ENDBRANCH   6   8
ENDBRANCH   5   6
ENDBRANCH   4   5
ENDBRANCH   3   4
ENDBRANCH   2   3
ENDBRANCH   1   2
BRANCH   1  64
ATOM     64  C   UNL     1       2.298  -2.787   1.265  1.00  0.00     0.261 C 
BRANCH  64  65
ATOM     65  O   UNL     1       3.014  -2.810   2.502  1.00  0.00    -0.463 OA
BRANCH  65  66
ATOM     66  C   UNL     1       4.332  -2.481   2.478  1.00  0.00     0.310 C 
ATOM     67  O   UNL     1       5.013  -2.289   1.476  1.00  0.00    -0.252 OA
BRANCH  66  68
ATOM     68  C   UNL     1       4.870  -2.280   3.873  1.00  0.00     0.115 C 
ATOM     69  C   UNL     1       4.488  -0.855   4.365  1.00  0.00     0.004 C 
ATOM     70  C   UNL     1       4.355  -3.375   4.822  1.00  0.00     0.096 C 
ATOM     71  C   UNL     1       2.962  -0.700   4.536  1.00  0.00     0.005 C 
ATOM     72  C   UNL     1       5.106  -0.642   5.752  1.00  0.00     0.005 C 
ATOM     73  C   UNL     1       3.592  -2.657   5.997  1.00  0.00     0.002 C 
ATOM     74  C   UNL     1       2.415  -1.845   5.396  1.00  0.00     0.005 C 
ATOM     75  C   UNL     1       4.475  -1.626   6.741  1.00  0.00     0.005 C 
BRANCH  70  76
ATOM     76  C   UNL     1       5.477  -4.328   5.279  1.00  0.00     0.229 C 
ATOM     77  O   UNL     1       5.966  -4.213   6.408  1.00  0.00    -0.274 OA
ATOM     78  N   UNL     1       5.920  -5.389   4.523  1.00  0.00    -0.317 N 
ATOM     79  H   UNL     1       6.591  -5.958   4.965  1.00  0.00     0.170 HD
BRANCH  78  80
ATOM     80  C   UNL     1       5.578  -5.788   3.243  1.00  0.00     0.108 A 
ATOM     81  S   UNL     1       6.216  -4.885   1.951  1.00  0.00    -0.122 S 
ATOM     82  C   UNL     1       5.139  -7.030   2.776  1.00  0.00     0.078 A 
ATOM     83  C   UNL     1       5.239  -5.709   0.834  1.00  0.00     0.011 A 
ATOM     84  C   UNL     1       4.804  -6.913   1.356  1.00  0.00    -0.019 A 
ATOM     85  C   UNL     1       4.989  -5.213  -0.563  1.00  0.00     0.047 C 
ATOM     86  C   UNL     1       4.043  -7.871   0.487  1.00  0.00     0.037 C 
ATOM     87  C   UNL     1       3.829  -5.993  -1.206  1.00  0.00     0.006 C 
ATOM     88  C   UNL     1       4.015  -7.493  -1.000  1.00  0.00     0.005 C 
BRANCH  82  89
ATOM     89  C   UNL     1       4.901  -8.141   3.712  1.00  0.00     0.257 C 
ATOM     90  O   UNL     1       4.926  -7.957   4.930  1.00  0.00    -0.269 OA
ATOM     91  N   UNL     1       4.564  -9.391   3.197  1.00  0.00    -0.339 N 
ATOM     92  C   UNL     1       3.623 -10.173   3.976  1.00  0.00     0.120 C 
ATOM     93  C   UNL     1       5.497 -10.185   2.397  1.00  0.00     0.120 C 
ATOM     94  C   UNL     1       2.754 -10.981   3.029  1.00  0.00     0.022 C 
ATOM     95  C   UNL     1       4.781 -11.219   1.510  1.00  0.00     0.022 C 
ATOM     96  C   UNL     1       3.613 -11.930   2.197  1.00  0.00     0.004 C 
ENDBRANCH  82  89
ENDBRANCH  78  80
ENDBRANCH  70  76
ENDBRANCH  66  68
ENDBRANCH  65  66
ENDBRANCH  64  65
ENDBRANCH   1  64
TORSDOF 17
