REMARK SMILES O=C(OCCOCCOC(=O)c1ccc(-c2c3nc(c(-c4c(F)cccc4F)c4ccc([nH]4)c(-c4c(F)cccc4F)c4nc(c(-c5c(F)cccc5F)c5ccc2[nH]5)C=C4)C=C3)cc1)C1=Cc2cc(Cl)cc(-c3ccc(O)cc3)c2O[C@@H]1C(F)(F)F
REMARK SMILES IDX 6 1 5 2 4 3 3 4 2 5 1 6 66 7 67 8 83 9 68 10 82 11 69 12
REMARK SMILES IDX 81 13 70 14 73 15 71 16 72 17 84 18 85 19 86 20 87 21 74 22
REMARK SMILES IDX 75 23 80 24 76 25 79 26 77 27 78 28 7 30 8 31 9 32 10 33
REMARK SMILES IDX 11 34 12 35 13 36 65 37 14 38 64 39 15 40 16 41 17 42 58 43
REMARK SMILES IDX 18 44 63 45 57 46 59 47 19 48 62 49 56 50 55 51 20 53 46 54
REMARK SMILES IDX 29 55 45 56 30 57 33 58 44 59 60 60 31 61 32 62 43 64 61 65
REMARK SMILES IDX 34 66 21 67 22 68 27 69 23 70 24 71 26 72 28 73 25 74 47 75
REMARK SMILES IDX 48 76 53 77 49 78 50 79 52 80 54 81 51 82 35 83 36 84 41 85
REMARK SMILES IDX 37 86 38 87 40 88 42 89 39 90
REMARK H PARENT 78 29 59 52 33 63
REMARK Flexibility Score: inf
ROOT
ATOM      1  O   UNL     1       3.856   2.574  -0.363  1.00  0.00    -0.374 OA
ENDROOT
BRANCH   1   2
ATOM      2  C   UNL     1       4.347   1.179   0.241  1.00  0.00     0.202 C 
BRANCH   2   3
ATOM      3  C   UNL     1       3.374  -0.760   0.413  1.00  0.00     0.261 C 
BRANCH   3   4
ATOM      4  O   UNL     1       2.433  -1.216   1.593  1.00  0.00    -0.460 OA
BRANCH   4   5
ATOM      5  C   UNL     1       2.622  -0.533   2.727  1.00  0.00     0.338 C 
ATOM      6  O   UNL     1       2.094  -0.609   3.805  1.00  0.00    -0.246 OA
BRANCH   5   7
ATOM      7  C   UNL     1       3.504   0.431   2.132  1.00  0.00     0.087 C 
ATOM      8  C   UNL     1       4.843  -0.176   2.011  1.00  0.00     0.027 C 
ATOM      9  C   UNL     1       2.395   0.970   0.638  1.00  0.00     0.316 C 
ATOM     10  C   UNL     1       5.579  -0.636   0.423  1.00  0.00     0.019 A 
ATOM     11  O   UNL     1       3.182   0.479  -1.073  1.00  0.00    -0.475 OA
ATOM     12  C   UNL     1       6.698  -1.418   0.539  1.00  0.00     0.032 A 
ATOM     13  C   UNL     1       4.766  -0.430  -1.129  1.00  0.00     0.135 A 
ATOM     14  C   UNL     1       7.062  -2.064  -0.629  1.00  0.00     0.042 A 
ATOM     15  C   UNL     1       5.290  -1.045  -2.285  1.00  0.00     0.026 A 
ATOM     16  Cl  UNL     1       8.415  -3.144  -0.560  1.00  0.00    -0.084 Cl
ATOM     17  C   UNL     1       6.391  -1.908  -1.900  1.00  0.00     0.033 A 
BRANCH   9  18
ATOM     18  C   UNL     1       1.855   2.333   1.252  1.00  0.00     0.430 C 
ATOM     19  F   UNL     1       0.898   2.930   0.515  1.00  0.00    -0.167 F 
ATOM     20  F   UNL     1       1.236   2.030   2.436  1.00  0.00    -0.167 F 
ATOM     21  F   UNL     1       2.794   3.239   1.601  1.00  0.00    -0.167 F 
ENDBRANCH   9  18
BRANCH  15  22
ATOM     22  C   UNL     1       5.035  -1.022  -3.887  1.00  0.00    -0.014 A 
ATOM     23  C   UNL     1       4.121  -2.538  -4.299  1.00  0.00     0.012 A 
ATOM     24  C   UNL     1       5.607   0.111  -5.472  1.00  0.00     0.012 A 
ATOM     25  C   UNL     1       3.808  -2.929  -6.006  1.00  0.00     0.047 A 
ATOM     26  C   UNL     1       5.190  -0.390  -7.144  1.00  0.00     0.047 A 
ATOM     27  C   UNL     1       4.323  -1.887  -7.347  1.00  0.00     0.115 A 
BRANCH  27  28
ATOM     28  O   UNL     1       3.971  -2.261  -8.614  1.00  0.00    -0.508 OA
ATOM     29  H   UNL     1       3.504  -3.061  -8.754  1.00  0.00     0.293 HD
ENDBRANCH  27  28
ENDBRANCH  15  22
ENDBRANCH   5   7
ENDBRANCH   4   5
ENDBRANCH   3   4
ENDBRANCH   2   3
ENDBRANCH   1   2
BRANCH   1  30
ATOM     30  C   UNL     1       2.831   2.991  -1.285  1.00  0.00     0.202 C 
BRANCH  30  31
ATOM     31  C   UNL     1       3.244   3.814  -2.501  1.00  0.00     0.261 C 
BRANCH  31  32
ATOM     32  O   UNL     1       3.936   3.022  -3.436  1.00  0.00    -0.460 OA
BRANCH  32  33
ATOM     33  C   UNL     1       5.145   2.588  -3.040  1.00  0.00     0.338 C 
ATOM     34  O   UNL     1       5.958   3.121  -2.316  1.00  0.00    -0.246 OA
BRANCH  33  35
ATOM     35  C   UNL     1       5.253   1.272  -3.660  1.00  0.00     0.060 A 
ATOM     36  C   UNL     1       6.837   0.463  -3.689  1.00  0.00     0.016 A 
ATOM     37  C   UNL     1       3.821   0.670  -4.495  1.00  0.00     0.016 A 
ATOM     38  C   UNL     1       7.132  -1.032  -4.591  1.00  0.00     0.010 A 
ATOM     39  C   UNL     1       3.990  -0.821  -5.458  1.00  0.00     0.010 A 
ATOM     40  C   UNL     1       5.775  -1.784  -5.524  1.00  0.00    -0.014 A 
BRANCH  40  41
ATOM     41  C   UNL     1       6.459  -3.079  -6.279  1.00  0.00     0.031 A 
ATOM     42  C   UNL     1       7.163  -2.920  -7.628  1.00  0.00     0.074 A 
ATOM     43  C   UNL     1       6.431  -4.351  -5.804  1.00  0.00     0.049 A 
ATOM     44  N   UNL     1       7.310  -3.787  -8.607  1.00  0.00    -0.248 NA
ATOM     45  C   UNL     1       7.770  -1.614  -7.917  1.00  0.00     0.031 C 
ATOM     46  C   UNL     1       6.043  -4.779  -4.468  1.00  0.00     0.029 A 
ATOM     47  N   UNL     1       6.603  -5.553  -6.476  1.00  0.00    -0.354 N 
ATOM     48  C   UNL     1       7.914  -3.098  -9.657  1.00  0.00     0.074 A 
ATOM     49  C   UNL     1       8.105  -1.739  -9.196  1.00  0.00     0.031 C 
ATOM     50  C   UNL     1       5.799  -6.097  -4.463  1.00  0.00     0.029 A 
ATOM     51  C   UNL     1       6.058  -6.626  -5.795  1.00  0.00     0.049 A 
ATOM     52  H   UNL     1       7.063  -5.634  -7.343  1.00  0.00     0.167 HD
ATOM     53  C   UNL     1       8.291  -3.551 -10.881  1.00  0.00     0.037 A 
ATOM     54  C   UNL     1       5.740  -7.877  -6.184  1.00  0.00     0.037 A 
ATOM     55  C   UNL     1       8.266  -4.935 -11.291  1.00  0.00     0.049 A 
ATOM     56  C   UNL     1       6.103  -8.362  -7.559  1.00  0.00     0.074 A 
ATOM     57  C   UNL     1       8.777  -5.496 -12.453  1.00  0.00     0.029 A 
ATOM     58  N   UNL     1       7.734  -5.976 -10.552  1.00  0.00    -0.354 N 
ATOM     59  N   UNL     1       6.656  -7.704  -8.545  1.00  0.00    -0.248 NA
ATOM     60  C   UNL     1       5.843  -9.780  -7.859  1.00  0.00     0.031 C 
ATOM     61  C   UNL     1       8.509  -6.867 -12.440  1.00  0.00     0.029 A 
ATOM     62  C   UNL     1       7.880  -7.169 -11.246  1.00  0.00     0.049 A 
ATOM     63  H   UNL     1       7.315  -5.885  -9.666  1.00  0.00     0.167 HD
ATOM     64  C   UNL     1       6.865  -8.637  -9.552  1.00  0.00     0.074 A 
ATOM     65  C   UNL     1       6.380  -9.907  -9.064  1.00  0.00     0.031 C 
ATOM     66  C   UNL     1       7.426  -8.448 -10.769  1.00  0.00     0.037 A 
BRANCH  53  67
ATOM     67  C   UNL     1       8.789  -2.561 -11.904  1.00  0.00     0.057 A 
ATOM     68  C   UNL     1      10.024  -1.913 -11.789  1.00  0.00     0.134 A 
ATOM     69  C   UNL     1       8.067  -2.355 -13.091  1.00  0.00     0.134 A 
ATOM     70  F   UNL     1      10.774  -2.069 -10.688  1.00  0.00    -0.206 F 
ATOM     71  C   UNL     1      10.512  -1.081 -12.801  1.00  0.00     0.040 A 
ATOM     72  C   UNL     1       8.560  -1.556 -14.125  1.00  0.00     0.040 A 
ATOM     73  F   UNL     1       6.885  -2.962 -13.285  1.00  0.00    -0.206 F 
ATOM     74  C   UNL     1       9.785  -0.911 -13.978  1.00  0.00     0.006 A 
ENDBRANCH  53  67
BRANCH  54  75
ATOM     75  C   UNL     1       5.012  -8.790  -5.259  1.00  0.00     0.057 A 
ATOM     76  C   UNL     1       5.645  -9.900  -4.691  1.00  0.00     0.134 A 
ATOM     77  C   UNL     1       3.649  -8.613  -4.984  1.00  0.00     0.134 A 
ATOM     78  F   UNL     1       6.941 -10.136  -4.940  1.00  0.00    -0.206 F 
ATOM     79  C   UNL     1       4.943 -10.827  -3.917  1.00  0.00     0.040 A 
ATOM     80  C   UNL     1       2.941  -9.519  -4.190  1.00  0.00     0.040 A 
ATOM     81  F   UNL     1       2.983  -7.566  -5.493  1.00  0.00    -0.206 F 
ATOM     82  C   UNL     1       3.586 -10.637  -3.666  1.00  0.00     0.006 A 
ENDBRANCH  54  75
BRANCH  66  83
ATOM     83  C   UNL     1       7.612  -9.649 -11.652  1.00  0.00     0.057 A 
ATOM     84  C   UNL     1       6.531 -10.292 -12.267  1.00  0.00     0.134 A 
ATOM     85  C   UNL     1       8.895 -10.143 -11.924  1.00  0.00     0.134 A 
ATOM     86  F   UNL     1       5.275  -9.883 -12.036  1.00  0.00    -0.206 F 
ATOM     87  C   UNL     1       6.718 -11.392 -13.108  1.00  0.00     0.040 A 
ATOM     88  C   UNL     1       9.097 -11.222 -12.786  1.00  0.00     0.040 A 
ATOM     89  F   UNL     1       9.977  -9.572 -11.372  1.00  0.00    -0.206 F 
ATOM     90  C   UNL     1       8.005 -11.853 -13.377  1.00  0.00     0.006 A 
ENDBRANCH  66  83
ENDBRANCH  40  41
ENDBRANCH  33  35
ENDBRANCH  32  33
ENDBRANCH  31  32
ENDBRANCH  30  31
ENDBRANCH   1  30
TORSDOF 17
