REMARK SMILES COc1cc(/C=C2\[NH+]=C(S)N(c3ccc(Br)cc3)C2=O)ccc1OCC(=O)OCCOCCOC(=O)c1ccc(-c2c3nc(c(-c4c(F)cccc4F)c4ccc([nH]4)c(-c4c(F)cccc4F)c4nc(c(-c5c(F)cccc5F)c5ccc2[nH]5)C=C4)C=C3)cc1
REMARK SMILES IDX 30 1 29 2 28 3 26 4 27 5 25 6 24 7 23 8 3 9 4 10 5 11 22 12
REMARK SMILES IDX 21 13 2 14 1 15 6 16 7 17 8 18 19 19 9 20 11 22 20 23 10 24
REMARK SMILES IDX 12 26 13 27 18 28 14 29 17 30 15 31 16 32 31 33 32 34 33 35
REMARK SMILES IDX 34 36 35 37 36 38 37 39 38 40 90 41 39 42 89 43 40 44 41 45
REMARK SMILES IDX 42 46 83 47 43 48 88 49 82 50 84 51 44 52 87 53 81 54 80 55
REMARK SMILES IDX 45 57 71 58 54 59 70 60 55 61 58 62 69 63 85 64 56 65 57 66
REMARK SMILES IDX 68 68 86 69 59 70 46 71 47 72 52 73 48 74 49 75 51 76 53 77
REMARK SMILES IDX 50 78 72 79 73 80 78 81 74 82 75 83 77 84 79 85 76 86 60 87
REMARK SMILES IDX 61 88 66 89 62 90 63 91 65 92 67 93 64 94
REMARK H PARENT 8 21 10 25 84 56 58 67
REMARK Flexibility Score: inf
ROOT
ATOM      1  C   UNL     1      -0.324  -2.788   1.643  1.00  0.00     0.202 C 
ENDROOT
BRANCH   1   2
ATOM      2  C   UNL     1       0.843  -2.837   0.651  1.00  0.00     0.261 C 
BRANCH   2   3
ATOM      3  O   UNL     1       1.819  -1.810   0.933  1.00  0.00    -0.461 OA
BRANCH   3   4
ATOM      4  C   UNL     1       2.356  -1.188  -0.153  1.00  0.00     0.344 C 
ATOM      5  O   UNL     1       2.093  -1.476  -1.317  1.00  0.00    -0.248 OA
BRANCH   4   6
ATOM      6  C   UNL     1       3.405  -0.135   0.218  1.00  0.00     0.352 C 
BRANCH   6   7
ATOM      7  O   UNL     1       3.420   0.452   1.503  1.00  0.00    -0.478 OA
BRANCH   7   8
ATOM      8  C   UNL     1       2.495   1.388   1.868  1.00  0.00     0.162 A 
ATOM      9  C   UNL     1       1.562   2.067   1.074  1.00  0.00     0.161 A 
ATOM     10  C   UNL     1       0.629   2.932   1.677  1.00  0.00     0.058 A 
ATOM     11  C   UNL     1       0.630   3.141   3.068  1.00  0.00    -0.017 A 
ATOM     12  C   UNL     1       2.530   1.655   3.244  1.00  0.00     0.051 A 
ATOM     13  C   UNL     1       1.621   2.530   3.838  1.00  0.00     0.012 A 
BRANCH   9  14
ATOM     14  O   UNL     1       1.657   2.005  -0.290  1.00  0.00    -0.493 OA
ATOM     15  C   UNL     1       0.489   1.526  -0.953  1.00  0.00     0.278 C 
ENDBRANCH   9  14
BRANCH  11  16
ATOM     16  C   UNL     1      -0.317   4.035   3.747  1.00  0.00     0.068 C 
ATOM     17  C   UNL     1      -1.636   4.102   3.532  1.00  0.00     0.217 C 
ATOM     18  N   UNL     1      -2.403   3.379   2.656  1.00  0.00    -0.228 N 
ATOM     19  C   UNL     1      -2.446   5.199   4.126  1.00  0.00     0.386 C 
ATOM     20  C   UNL     1      -3.518   4.047   2.596  1.00  0.00     0.321 C 
ATOM     21  H   UNL     1      -2.166   2.548   2.184  1.00  0.00     0.313 HD
ATOM     22  N   UNL     1      -3.603   5.165   3.385  1.00  0.00    -0.149 N 
ATOM     23  O   UNL     1      -2.098   5.934   5.035  1.00  0.00    -0.236 OA
BRANCH  20  24
ATOM     24  S   UNL     1      -4.725   3.551   1.457  1.00  0.00    -0.055 SA
ATOM     25  H   UNL     1      -4.327   2.404   0.845  1.00  0.00     0.116 HD
ENDBRANCH  20  24
BRANCH  22  26
ATOM     26  C   UNL     1      -4.532   6.238   3.360  1.00  0.00     0.137 A 
ATOM     27  C   UNL     1      -5.902   6.071   3.129  1.00  0.00     0.053 A 
ATOM     28  C   UNL     1      -4.041   7.552   3.477  1.00  0.00     0.053 A 
ATOM     29  C   UNL     1      -6.736   7.181   2.929  1.00  0.00     0.020 A 
ATOM     30  C   UNL     1      -4.865   8.661   3.272  1.00  0.00     0.020 A 
ATOM     31  C   UNL     1      -6.208   8.469   2.977  1.00  0.00     0.018 A 
ATOM     32  Br  UNL     1      -7.310   9.961   2.623  1.00  0.00    -0.051 Br
ENDBRANCH  22  26
ENDBRANCH  11  16
ENDBRANCH   7   8
ENDBRANCH   6   7
ENDBRANCH   4   6
ENDBRANCH   3   4
ENDBRANCH   2   3
ENDBRANCH   1   2
BRANCH   1  33
ATOM     33  O   UNL     1      -1.251  -1.721   1.421  1.00  0.00    -0.374 OA
BRANCH  33  34
ATOM     34  C   UNL     1      -0.821  -0.423   1.839  1.00  0.00     0.202 C 
BRANCH  34  35
ATOM     35  C   UNL     1      -1.095  -0.103   3.303  1.00  0.00     0.261 C 
BRANCH  35  36
ATOM     36  O   UNL     1      -0.295  -0.943   4.144  1.00  0.00    -0.460 OA
BRANCH  36  37
ATOM     37  C   UNL     1      -1.019  -1.707   4.986  1.00  0.00     0.338 C 
ATOM     38  O   UNL     1      -2.205  -1.614   5.251  1.00  0.00    -0.246 OA
BRANCH  37  39
ATOM     39  C   UNL     1      -0.200  -2.841   5.433  1.00  0.00     0.060 A 
ATOM     40  C   UNL     1      -0.790  -4.103   5.326  1.00  0.00     0.016 A 
ATOM     41  C   UNL     1       1.066  -2.678   6.005  1.00  0.00     0.016 A 
ATOM     42  C   UNL     1      -0.166  -5.197   5.897  1.00  0.00     0.010 A 
ATOM     43  C   UNL     1       1.698  -3.784   6.575  1.00  0.00     0.010 A 
ATOM     44  C   UNL     1       1.048  -5.029   6.579  1.00  0.00    -0.014 A 
BRANCH  44  45
ATOM     45  C   UNL     1       1.487  -6.138   7.450  1.00  0.00     0.031 A 
ATOM     46  C   UNL     1       1.125  -6.089   8.907  1.00  0.00     0.074 A 
ATOM     47  C   UNL     1       2.041  -7.232   6.904  1.00  0.00     0.049 A 
ATOM     48  N   UNL     1       1.191  -7.032   9.810  1.00  0.00    -0.248 NA
ATOM     49  C   UNL     1       0.602  -4.808   9.411  1.00  0.00     0.031 C 
ATOM     50  C   UNL     1       2.388  -7.380   5.492  1.00  0.00     0.029 A 
ATOM     51  N   UNL     1       2.361  -8.440   7.463  1.00  0.00    -0.354 N 
ATOM     52  C   UNL     1       0.706  -6.463  10.982  1.00  0.00     0.074 A 
ATOM     53  C   UNL     1       0.395  -5.082  10.689  1.00  0.00     0.031 C 
ATOM     54  C   UNL     1       2.834  -8.629   5.284  1.00  0.00     0.029 A 
ATOM     55  C   UNL     1       2.814  -9.358   6.550  1.00  0.00     0.049 A 
ATOM     56  H   UNL     1       2.274  -8.631   8.425  1.00  0.00     0.167 HD
ATOM     57  C   UNL     1       0.520  -7.048  12.188  1.00  0.00     0.037 A 
ATOM     58  C   UNL     1       3.149 -10.650   6.720  1.00  0.00     0.037 A 
ATOM     59  C   UNL     1       0.849  -8.421  12.464  1.00  0.00     0.049 A 
ATOM     60  C   UNL     1       2.984 -11.265   8.081  1.00  0.00     0.074 A 
ATOM     61  C   UNL     1       0.721  -9.123  13.648  1.00  0.00     0.029 A 
ATOM     62  N   UNL     1       1.385  -9.300  11.531  1.00  0.00    -0.354 N 
ATOM     63  N   UNL     1       2.505 -10.729   9.178  1.00  0.00    -0.248 NA
ATOM     64  C   UNL     1       3.395 -12.667   8.224  1.00  0.00     0.031 C 
ATOM     65  C   UNL     1       1.223 -10.414  13.443  1.00  0.00     0.029 A 
ATOM     66  C   UNL     1       1.615 -10.532  12.118  1.00  0.00     0.049 A 
ATOM     67  H   UNL     1       1.573  -9.079  10.590  1.00  0.00     0.167 HD
ATOM     68  C   UNL     1       2.533 -11.732  10.138  1.00  0.00     0.074 A 
ATOM     69  C   UNL     1       3.065 -12.913   9.485  1.00  0.00     0.031 C 
ATOM     70  C   UNL     1       2.153 -11.686  11.440  1.00  0.00     0.037 A 
BRANCH  57  71
ATOM     71  C   UNL     1      -0.024  -6.184  13.290  1.00  0.00     0.057 A 
ATOM     72  C   UNL     1      -1.346  -5.716  13.286  1.00  0.00     0.134 A 
ATOM     73  C   UNL     1       0.794  -5.789  14.356  1.00  0.00     0.134 A 
ATOM     74  F   UNL     1      -2.178  -6.039  12.284  1.00  0.00    -0.206 F 
ATOM     75  C   UNL     1      -1.823  -4.859  14.281  1.00  0.00     0.040 A 
ATOM     76  C   UNL     1       0.321  -4.954  15.371  1.00  0.00     0.040 A 
ATOM     77  F   UNL     1       2.069  -6.198  14.425  1.00  0.00    -0.206 F 
ATOM     78  C   UNL     1      -0.988  -4.478  15.329  1.00  0.00     0.006 A 
ENDBRANCH  57  71
BRANCH  58  79
ATOM     79  C   UNL     1       3.622 -11.443   5.558  1.00  0.00     0.057 A 
ATOM     80  C   UNL     1       2.833 -12.453   4.997  1.00  0.00     0.134 A 
ATOM     81  C   UNL     1       4.860 -11.183   4.957  1.00  0.00     0.134 A 
ATOM     82  F   UNL     1       1.644 -12.759   5.535  1.00  0.00    -0.206 F 
ATOM     83  C   UNL     1       3.257 -13.177   3.881  1.00  0.00     0.040 A 
ATOM     84  C   UNL     1       5.287 -11.883   3.828  1.00  0.00     0.040 A 
ATOM     85  F   UNL     1       5.660 -10.223   5.444  1.00  0.00    -0.206 F 
ATOM     86  C   UNL     1       4.485 -12.886   3.288  1.00  0.00     0.006 A 
ENDBRANCH  58  79
BRANCH  70  87
ATOM     87  C   UNL     1       2.280 -12.957  12.226  1.00  0.00     0.057 A 
ATOM     88  C   UNL     1       3.526 -13.459  12.623  1.00  0.00     0.134 A 
ATOM     89  C   UNL     1       1.139 -13.672  12.612  1.00  0.00     0.134 A 
ATOM     90  F   UNL     1       4.656 -12.826  12.275  1.00  0.00    -0.206 F 
ATOM     91  C   UNL     1       3.634 -14.645  13.350  1.00  0.00     0.040 A 
ATOM     92  C   UNL     1       1.233 -14.844  13.362  1.00  0.00     0.040 A 
ATOM     93  F   UNL     1      -0.084 -13.238  12.273  1.00  0.00    -0.206 F 
ATOM     94  C   UNL     1       2.484 -15.338  13.726  1.00  0.00     0.006 A 
ENDBRANCH  70  87
ENDBRANCH  44  45
ENDBRANCH  37  39
ENDBRANCH  36  37
ENDBRANCH  35  36
ENDBRANCH  34  35
ENDBRANCH  33  34
ENDBRANCH   1  33
TORSDOF 20
