REMARK SMILES O=C(OCCOCCOC(=O)c1ccc(-c2c3nc(c(-c4c(F)cccc4F)c4ccc([nH]4)c(-c4c(F)cccc4F)c4nc(c(-c5c(F)cccc5F)c5ccc2[nH]5)C=C4)C=C3)cc1)C1=Cc2cc(Cl)cc(-c3ccc(Cl)cc3)c2O[C@@H]1C(F)(F)F
REMARK SMILES IDX 7 1 6 2 5 3 4 4 3 5 2 6 1 7 66 8 67 9 83 10 68 11 82 12
REMARK SMILES IDX 69 13 81 14 70 15 73 16 71 17 72 18 84 19 85 20 86 21 87 22
REMARK SMILES IDX 74 23 75 24 80 25 76 26 79 27 77 28 78 29 8 30 9 31 10 32
REMARK SMILES IDX 11 33 12 34 13 35 65 36 14 37 64 38 15 39 16 40 17 41 58 42
REMARK SMILES IDX 18 43 63 44 57 45 59 46 19 47 62 48 56 49 55 50 20 52 46 53
REMARK SMILES IDX 29 54 45 55 30 56 33 57 44 58 60 59 31 60 32 61 43 63 61 64
REMARK SMILES IDX 34 65 21 66 22 67 27 68 23 69 24 70 26 71 28 72 25 73 47 74
REMARK SMILES IDX 48 75 53 76 49 77 50 78 52 79 54 80 51 81 35 82 36 83 41 84
REMARK SMILES IDX 37 85 38 86 40 87 42 88 39 89
REMARK H PARENT 59 51 33 62
REMARK Flexibility Score: inf
ROOT
ATOM      1  C   UNL     1       2.362  -2.644   1.484  1.00  0.00     0.202 C 
ENDROOT
BRANCH   1   2
ATOM      2  O   UNL     1       3.701  -2.572   0.783  1.00  0.00    -0.374 OA
BRANCH   2   3
ATOM      3  C   UNL     1       4.413  -1.344  -0.244  1.00  0.00     0.202 C 
BRANCH   3   4
ATOM      4  C   UNL     1       3.594   0.664  -0.484  1.00  0.00     0.261 C 
BRANCH   4   5
ATOM      5  O   UNL     1       2.378   1.059  -1.212  1.00  0.00    -0.460 OA
BRANCH   5   6
ATOM      6  C   UNL     1       2.330   0.416  -2.382  1.00  0.00     0.338 C 
ATOM      7  O   UNL     1       1.367   0.373  -3.114  1.00  0.00    -0.246 OA
BRANCH   6   8
ATOM      8  C   UNL     1       3.417  -0.586  -2.209  1.00  0.00     0.087 C 
ATOM      9  C   UNL     1       4.795  -0.124  -2.235  1.00  0.00     0.027 C 
ATOM     10  C   UNL     1       2.527  -1.122  -0.630  1.00  0.00     0.316 C 
ATOM     11  C   UNL     1       5.775   0.304  -0.794  1.00  0.00     0.019 A 
ATOM     12  O   UNL     1       3.422  -0.458   0.987  1.00  0.00    -0.475 OA
ATOM     13  C   UNL     1       7.045   0.790  -0.973  1.00  0.00     0.032 A 
ATOM     14  C   UNL     1       5.126   0.269   0.795  1.00  0.00     0.135 A 
ATOM     15  C   UNL     1       7.678   1.254   0.190  1.00  0.00     0.042 A 
ATOM     16  C   UNL     1       5.853   0.659   1.869  1.00  0.00     0.026 A 
ATOM     17  Cl  UNL     1       9.264   1.933   0.014  1.00  0.00    -0.084 Cl
ATOM     18  C   UNL     1       7.115   1.208   1.522  1.00  0.00     0.033 A 
BRANCH  10  19
ATOM     19  C   UNL     1       2.417  -2.713  -1.309  1.00  0.00     0.430 C 
ATOM     20  F   UNL     1       1.752  -3.658  -0.630  1.00  0.00    -0.167 F 
ATOM     21  F   UNL     1       1.707  -2.589  -2.476  1.00  0.00    -0.167 F 
ATOM     22  F   UNL     1       3.591  -3.268  -1.719  1.00  0.00    -0.167 F 
ENDBRANCH  10  19
BRANCH  16  23
ATOM     23  C   UNL     1       5.394   0.516   3.204  1.00  0.00    -0.015 A 
ATOM     24  C   UNL     1       4.220   1.927   3.994  1.00  0.00     0.010 A 
ATOM     25  C   UNL     1       5.930  -1.024   4.460  1.00  0.00     0.010 A 
ATOM     26  C   UNL     1       3.269   2.041   5.755  1.00  0.00     0.021 A 
ATOM     27  C   UNL     1       5.110  -0.801   6.278  1.00  0.00     0.021 A 
ATOM     28  C   UNL     1       3.796   0.520   7.001  1.00  0.00     0.041 A 
ATOM     29  Cl  UNL     1       3.166   0.403   8.594  1.00  0.00    -0.084 Cl
ENDBRANCH  16  23
ENDBRANCH   6   8
ENDBRANCH   5   6
ENDBRANCH   4   5
ENDBRANCH   3   4
ENDBRANCH   2   3
ENDBRANCH   1   2
BRANCH   1  30
ATOM     30  C   UNL     1       2.050  -2.491   2.989  1.00  0.00     0.261 C 
BRANCH  30  31
ATOM     31  O   UNL     1       2.484  -1.269   3.547  1.00  0.00    -0.460 OA
BRANCH  31  32
ATOM     32  C   UNL     1       3.821  -1.386   3.696  1.00  0.00     0.338 C 
ATOM     33  O   UNL     1       4.446  -2.368   3.312  1.00  0.00    -0.246 OA
BRANCH  32  34
ATOM     34  C   UNL     1       4.444  -0.119   4.536  1.00  0.00     0.060 A 
ATOM     35  C   UNL     1       6.248   0.739   4.858  1.00  0.00     0.016 A 
ATOM     36  C   UNL     1       3.811   0.453   5.231  1.00  0.00     0.016 A 
ATOM     37  C   UNL     1       7.163   1.619   5.417  1.00  0.00     0.010 A 
ATOM     38  C   UNL     1       5.086   1.675   6.150  1.00  0.00     0.010 A 
ATOM     39  C   UNL     1       6.403   2.175   6.273  1.00  0.00    -0.014 A 
BRANCH  39  40
ATOM     40  C   UNL     1       6.913   3.018   7.290  1.00  0.00     0.031 A 
ATOM     41  C   UNL     1       7.265   2.368   8.563  1.00  0.00     0.074 A 
ATOM     42  C   UNL     1       7.097   4.283   6.924  1.00  0.00     0.049 A 
ATOM     43  N   UNL     1       7.844   2.887   9.595  1.00  0.00    -0.248 NA
ATOM     44  C   UNL     1       6.914   0.945   8.710  1.00  0.00     0.031 C 
ATOM     45  C   UNL     1       6.745   4.855   5.618  1.00  0.00     0.029 A 
ATOM     46  N   UNL     1       7.663   5.295   7.611  1.00  0.00    -0.354 N 
ATOM     47  C   UNL     1       7.921   1.852  10.507  1.00  0.00     0.074 A 
ATOM     48  C   UNL     1       7.247   0.706   9.963  1.00  0.00     0.031 C 
ATOM     49  C   UNL     1       7.146   6.132   5.592  1.00  0.00     0.029 A 
ATOM     50  C   UNL     1       7.743   6.444   6.881  1.00  0.00     0.049 A 
ATOM     51  H   UNL     1       7.983   5.213   8.538  1.00  0.00     0.167 HD
ATOM     52  C   UNL     1       8.561   1.884  11.686  1.00  0.00     0.037 A 
ATOM     53  C   UNL     1       8.268   7.609   7.268  1.00  0.00     0.037 A 
ATOM     54  C   UNL     1       9.197   3.079  12.147  1.00  0.00     0.049 A 
ATOM     55  C   UNL     1       8.887   7.634   8.633  1.00  0.00     0.074 A 
ATOM     56  C   UNL     1       9.871   3.293  13.326  1.00  0.00     0.029 A 
ATOM     57  N   UNL     1       9.205   4.276  11.437  1.00  0.00    -0.354 N 
ATOM     58  N   UNL     1       9.002   6.661   9.511  1.00  0.00    -0.248 NA
ATOM     59  C   UNL     1       9.464   8.906   9.056  1.00  0.00     0.031 C 
ATOM     60  C   UNL     1      10.192   4.651  13.377  1.00  0.00     0.029 A 
ATOM     61  C   UNL     1       9.834   5.253  12.175  1.00  0.00     0.049 A 
ATOM     62  H   UNL     1       8.818   4.405  10.540  1.00  0.00     0.167 HD
ATOM     63  C   UNL     1       9.705   7.189  10.579  1.00  0.00     0.074 A 
ATOM     64  C   UNL     1      10.000   8.566  10.218  1.00  0.00     0.031 C 
ATOM     65  C   UNL     1      10.085   6.608  11.747  1.00  0.00     0.037 A 
BRANCH  52  66
ATOM     66  C   UNL     1       8.509   0.652  12.521  1.00  0.00     0.057 A 
ATOM     67  C   UNL     1       9.095  -0.559  12.125  1.00  0.00     0.134 A 
ATOM     68  C   UNL     1       7.802   0.668  13.726  1.00  0.00     0.134 A 
ATOM     69  F   UNL     1       9.748  -0.654  10.955  1.00  0.00    -0.206 F 
ATOM     70  C   UNL     1       8.955  -1.718  12.888  1.00  0.00     0.040 A 
ATOM     71  C   UNL     1       7.693  -0.471  14.519  1.00  0.00     0.040 A 
ATOM     72  F   UNL     1       7.191   1.787  14.143  1.00  0.00    -0.206 F 
ATOM     73  C   UNL     1       8.262  -1.671  14.096  1.00  0.00     0.006 A 
ENDBRANCH  52  66
BRANCH  53  74
ATOM     74  C   UNL     1       8.236   8.771   6.363  1.00  0.00     0.057 A 
ATOM     75  C   UNL     1       9.414   9.344   5.879  1.00  0.00     0.134 A 
ATOM     76  C   UNL     1       7.021   9.338   5.958  1.00  0.00     0.134 A 
ATOM     77  F   UNL     1      10.605   8.823   6.209  1.00  0.00    -0.206 F 
ATOM     78  C   UNL     1       9.389  10.485   5.080  1.00  0.00     0.040 A 
ATOM     79  C   UNL     1       6.979  10.453   5.127  1.00  0.00     0.040 A 
ATOM     80  F   UNL     1       5.855   8.803   6.353  1.00  0.00    -0.206 F 
ATOM     81  C   UNL     1       8.168  11.044   4.705  1.00  0.00     0.006 A 
ENDBRANCH  53  74
BRANCH  65  82
ATOM     82  C   UNL     1      10.918   7.449  12.661  1.00  0.00     0.057 A 
ATOM     83  C   UNL     1      10.422   8.601  13.281  1.00  0.00     0.134 A 
ATOM     84  C   UNL     1      12.241   7.076  12.934  1.00  0.00     0.134 A 
ATOM     85  F   UNL     1       9.159   9.003  13.065  1.00  0.00    -0.206 F 
ATOM     86  C   UNL     1      11.239   9.398  14.077  1.00  0.00     0.040 A 
ATOM     87  C   UNL     1      13.045   7.829  13.782  1.00  0.00     0.040 A 
ATOM     88  F   UNL     1      12.765   5.963  12.397  1.00  0.00    -0.206 F 
ATOM     89  C   UNL     1      12.552   9.008  14.335  1.00  0.00     0.006 A 
ENDBRANCH  65  82
ENDBRANCH  39  40
ENDBRANCH  32  34
ENDBRANCH  31  32
ENDBRANCH  30  31
ENDBRANCH   1  30
TORSDOF 16
