REMARK SMILES CC(=O)N[C@@H](C)C(=O)N1CCC[C@H]1C(=O)OCCOCCOC(=O)c1ccc(-c2c3nc(c(-c4c(F)cccc4F)c4ccc([nH]4)c(-c4c(F)cccc4F)c4nc(c(-c5c(F)cccc5F)c5ccc2[nH]5)C=C4)C=C3)cc1
REMARK SMILES IDX 18 1 17 2 16 3 14 4 15 5 13 6 9 7 10 8 11 9 12 10 7 11 8 12
REMARK SMILES IDX 5 13 6 14 4 15 1 16 2 17 3 18 19 20 20 21 21 22 22 23 23 24
REMARK SMILES IDX 24 25 25 26 26 27 78 28 27 29 77 30 28 31 29 32 30 33 71 34
REMARK SMILES IDX 31 35 76 36 70 37 72 38 32 39 75 40 69 41 68 42 33 44 59 45
REMARK SMILES IDX 42 46 58 47 43 48 46 49 57 50 73 51 44 52 45 53 56 55 74 56
REMARK SMILES IDX 47 57 34 58 35 59 40 60 36 61 37 62 39 63 41 64 38 65 60 66
REMARK SMILES IDX 61 67 66 68 62 69 63 70 65 71 67 72 64 73 48 74 49 75 54 76
REMARK SMILES IDX 50 77 51 78 53 79 55 80 52 81
REMARK H PARENT 4 19 72 43 46 54
REMARK Flexibility Score: inf
ROOT
ATOM      1  C   UNL     1      -2.026  -6.311   6.408  1.00  0.00     0.202 C 
ENDROOT
BRANCH   1   2
ATOM      2  C   UNL     1      -1.399  -5.831   5.093  1.00  0.00     0.261 C 
BRANCH   2   3
ATOM      3  O   UNL     1      -0.318  -4.909   5.331  1.00  0.00    -0.462 OA
BRANCH   3   4
ATOM      4  C   UNL     1      -0.540  -3.610   4.974  1.00  0.00     0.328 C 
ATOM      5  O   UNL     1      -1.586  -3.175   4.508  1.00  0.00    -0.250 OA
BRANCH   4   6
ATOM      6  C   UNL     1       0.656  -2.737   5.381  1.00  0.00     0.195 C 
ATOM      7  N   UNL     1       0.833  -1.631   4.438  1.00  0.00    -0.327 N 
ATOM      8  C   UNL     1       0.361  -0.393   5.027  1.00  0.00     0.120 C 
ATOM      9  C   UNL     1       0.670  -0.573   6.499  1.00  0.00     0.024 C 
ATOM     10  C   UNL     1       0.413  -2.055   6.736  1.00  0.00     0.039 C 
BRANCH   7  11
ATOM     11  C   UNL     1       1.405  -1.880   3.213  1.00  0.00     0.245 C 
ATOM     12  O   UNL     1       1.646  -3.046   2.875  1.00  0.00    -0.272 OA
BRANCH  11  13
ATOM     13  C   UNL     1       1.998  -0.724   2.380  1.00  0.00     0.168 C 
ATOM     14  C   UNL     1       3.267  -0.240   3.081  1.00  0.00     0.041 C 
BRANCH  13  15
ATOM     15  N   UNL     1       1.112   0.399   2.087  1.00  0.00    -0.345 N 
ATOM     16  C   UNL     1       0.807  -0.110  -0.307  1.00  0.00     0.114 C 
ATOM     17  C   UNL     1       0.511   0.719   0.909  1.00  0.00     0.217 C 
ATOM     18  O   UNL     1      -0.237   1.694   0.870  1.00  0.00    -0.275 OA
ATOM     19  H   UNL     1       0.926   1.004   2.841  1.00  0.00     0.164 HD
ENDBRANCH  13  15
ENDBRANCH  11  13
ENDBRANCH   7  11
ENDBRANCH   4   6
ENDBRANCH   3   4
ENDBRANCH   2   3
ENDBRANCH   1   2
BRANCH   1  20
ATOM     20  O   UNL     1      -2.865  -5.367   7.078  1.00  0.00    -0.374 OA
BRANCH  20  21
ATOM     21  C   UNL     1      -2.191  -4.341   7.801  1.00  0.00     0.202 C 
BRANCH  21  22
ATOM     22  C   UNL     1      -1.893  -4.650   9.269  1.00  0.00     0.261 C 
BRANCH  22  23
ATOM     23  O   UNL     1      -0.953  -5.734   9.368  1.00  0.00    -0.460 OA
BRANCH  23  24
ATOM     24  C   UNL     1      -1.506  -6.915   9.720  1.00  0.00     0.338 C 
ATOM     25  O   UNL     1      -2.651  -7.113  10.104  1.00  0.00    -0.246 OA
BRANCH  24  26
ATOM     26  C   UNL     1      -0.575  -8.014   9.417  1.00  0.00     0.060 A 
ATOM     27  C   UNL     1      -1.099  -9.116   8.730  1.00  0.00     0.016 A 
ATOM     28  C   UNL     1       0.756  -8.003   9.841  1.00  0.00     0.016 A 
ATOM     29  C   UNL     1      -0.313 -10.245   8.527  1.00  0.00     0.010 A 
ATOM     30  C   UNL     1       1.543  -9.142   9.642  1.00  0.00     0.010 A 
ATOM     31  C   UNL     1       0.994 -10.281   9.027  1.00  0.00    -0.014 A 
BRANCH  31  32
ATOM     32  C   UNL     1       1.710 -11.577   9.063  1.00  0.00     0.031 A 
ATOM     33  C   UNL     1       1.692 -12.373  10.338  1.00  0.00     0.074 A 
ATOM     34  C   UNL     1       2.314 -12.061   7.966  1.00  0.00     0.049 A 
ATOM     35  N   UNL     1       2.236 -13.533  10.601  1.00  0.00    -0.248 NA
ATOM     36  C   UNL     1       0.960 -11.780  11.470  1.00  0.00     0.031 C 
ATOM     37  C   UNL     1       2.358 -11.399   6.664  1.00  0.00     0.029 A 
ATOM     38  N   UNL     1       3.005 -13.230   7.777  1.00  0.00    -0.354 N 
ATOM     39  C   UNL     1       1.916 -13.807  11.925  1.00  0.00     0.074 A 
ATOM     40  C   UNL     1       1.160 -12.679  12.422  1.00  0.00     0.031 C 
ATOM     41  C   UNL     1       3.047 -12.173   5.807  1.00  0.00     0.029 A 
ATOM     42  C   UNL     1       3.511 -13.368   6.508  1.00  0.00     0.049 A 
ATOM     43  H   UNL     1       3.127 -13.905   8.483  1.00  0.00     0.167 HD
ATOM     44  C   UNL     1       2.216 -14.906  12.657  1.00  0.00     0.037 A 
ATOM     45  C   UNL     1       4.273 -14.345   5.982  1.00  0.00     0.037 A 
ATOM     46  C   UNL     1       2.967 -16.026  12.159  1.00  0.00     0.049 A 
ATOM     47  C   UNL     1       4.655 -15.524   6.836  1.00  0.00     0.074 A 
ATOM     48  C   UNL     1       3.309 -17.197  12.812  1.00  0.00     0.029 A 
ATOM     49  N   UNL     1       3.502 -16.110  10.881  1.00  0.00    -0.354 N 
ATOM     50  N   UNL     1       4.328 -15.786   8.079  1.00  0.00    -0.248 NA
ATOM     51  C   UNL     1       5.510 -16.544   6.213  1.00  0.00     0.031 C 
ATOM     52  C   UNL     1       4.090 -17.968  11.945  1.00  0.00     0.029 A 
ATOM     53  C   UNL     1       4.195 -17.300  10.736  1.00  0.00     0.049 A 
ATOM     54  H   UNL     1       3.403 -15.424  10.182  1.00  0.00     0.167 HD
ATOM     55  C   UNL     1       4.915 -17.009   8.378  1.00  0.00     0.074 A 
ATOM     56  C   UNL     1       5.610 -17.442   7.183  1.00  0.00     0.031 C 
ATOM     57  C   UNL     1       4.880 -17.713   9.537  1.00  0.00     0.037 A 
BRANCH  44  58
ATOM     58  C   UNL     1       1.753 -14.927  14.084  1.00  0.00     0.057 A 
ATOM     59  C   UNL     1       0.403 -15.083  14.423  1.00  0.00     0.134 A 
ATOM     60  C   UNL     1       2.672 -14.796  15.132  1.00  0.00     0.134 A 
ATOM     61  F   UNL     1      -0.530 -15.196  13.466  1.00  0.00    -0.206 F 
ATOM     62  C   UNL     1      -0.020 -15.082  15.754  1.00  0.00     0.040 A 
ATOM     63  C   UNL     1       2.265 -14.819  16.467  1.00  0.00     0.040 A 
ATOM     64  F   UNL     1       3.980 -14.645  14.877  1.00  0.00    -0.206 F 
ATOM     65  C   UNL     1       0.914 -14.955  16.781  1.00  0.00     0.006 A 
ENDBRANCH  44  58
BRANCH  45  66
ATOM     66  C   UNL     1       4.729 -14.247   4.574  1.00  0.00     0.057 A 
ATOM     67  C   UNL     1       4.223 -15.099   3.586  1.00  0.00     0.134 A 
ATOM     68  C   UNL     1       5.685 -13.301   4.184  1.00  0.00     0.134 A 
ATOM     69  F   UNL     1       3.322 -16.040   3.903  1.00  0.00    -0.206 F 
ATOM     70  C   UNL     1       4.657 -15.020   2.261  1.00  0.00     0.040 A 
ATOM     71  C   UNL     1       6.112 -13.196   2.859  1.00  0.00     0.040 A 
ATOM     72  F   UNL     1       6.209 -12.456   5.084  1.00  0.00    -0.206 F 
ATOM     73  C   UNL     1       5.600 -14.062   1.894  1.00  0.00     0.006 A 
ENDBRANCH  45  66
BRANCH  57  74
ATOM     74  C   UNL     1       5.590 -19.034   9.559  1.00  0.00     0.057 A 
ATOM     75  C   UNL     1       6.988 -19.121   9.595  1.00  0.00     0.134 A 
ATOM     76  C   UNL     1       4.866 -20.232   9.589  1.00  0.00     0.134 A 
ATOM     77  F   UNL     1       7.739 -18.010   9.556  1.00  0.00    -0.206 F 
ATOM     78  C   UNL     1       7.640 -20.354   9.637  1.00  0.00     0.040 A 
ATOM     79  C   UNL     1       5.506 -21.470   9.657  1.00  0.00     0.040 A 
ATOM     80  F   UNL     1       3.524 -20.218   9.567  1.00  0.00    -0.206 F 
ATOM     81  C   UNL     1       6.897 -21.533   9.676  1.00  0.00     0.006 A 
ENDBRANCH  57  74
ENDBRANCH  31  32
ENDBRANCH  24  26
ENDBRANCH  23  24
ENDBRANCH  22  23
ENDBRANCH  21  22
ENDBRANCH  20  21
ENDBRANCH   1  20
TORSDOF 17
