REMARK SMILES CC(=O)O[C@@H]1[C@H](O)C(C)=C(CC[C@@H](C)CC(=O)OCCOCCOC(=O)c2ccc(-c3c4nc(c(-c5c(F)cccc5F)c5ccc([nH]5)c(-c5c(F)cccc5F)c5nc(c(-c6c(F)cccc6F)c6ccc3[nH]6)C=C5)C=C4)cc2)[C@@]2(C)CCCC(C)(C)[C@H]12
REMARK SMILES IDX 19 1 18 2 16 3 17 4 15 5 13 6 14 7 12 8 11 9 10 10 5 11 6 12
REMARK SMILES IDX 89 13 8 14 81 15 86 16 9 17 83 18 82 19 85 20 87 21 88 22
REMARK SMILES IDX 84 23 4 24 2 25 1 26 3 27 7 28 20 30 21 31 22 32 23 33 24 34
REMARK SMILES IDX 25 35 26 36 27 37 28 38 80 39 29 40 79 41 30 42 31 43 32 44
REMARK SMILES IDX 73 45 33 46 78 47 72 48 74 49 34 50 77 51 71 52 70 53 35 55
REMARK SMILES IDX 61 56 44 57 60 58 45 59 48 60 59 61 75 62 46 63 47 64 58 66
REMARK SMILES IDX 76 67 49 68 36 69 37 70 42 71 38 72 39 73 41 74 43 75 40 76
REMARK SMILES IDX 62 77 63 78 68 79 64 80 65 81 67 82 69 83 66 84 50 85 51 86
REMARK SMILES IDX 56 87 52 88 53 89 55 90 57 91 54 92
REMARK H PARENT 7 29 74 54 48 65
REMARK Flexibility Score: inf
ROOT
ATOM      1  C   UNL     1       1.527  -9.621  -2.100  1.00  0.00     0.261 C 
ENDROOT
BRANCH   1   2
ATOM      2  O   UNL     1       0.795  -8.575  -1.446  1.00  0.00    -0.463 OA
BRANCH   2   3
ATOM      3  C   UNL     1      -0.355  -8.976  -0.843  1.00  0.00     0.306 C 
ATOM      4  O   UNL     1      -0.754 -10.135  -0.805  1.00  0.00    -0.252 OA
BRANCH   3   5
ATOM      5  C   UNL     1      -1.195  -7.831  -0.320  1.00  0.00     0.126 C 
BRANCH   5   6
ATOM      6  C   UNL     1      -0.516  -6.659   0.420  1.00  0.00    -0.003 C 
ATOM      7  C   UNL     1      -1.607  -5.959   1.253  1.00  0.00     0.008 C 
BRANCH   6   8
ATOM      8  C   UNL     1       0.168  -5.677  -0.561  1.00  0.00     0.008 C 
BRANCH   8   9
ATOM      9  C   UNL     1       0.638  -4.354   0.060  1.00  0.00     0.032 C 
BRANCH   9  10
ATOM     10  C   UNL     1       1.904  -4.483   0.942  1.00  0.00    -0.062 C 
ATOM     11  C   UNL     1       2.445  -1.960   2.430  1.00  0.00     0.213 C 
ATOM     12  C   UNL     1       1.271  -2.963   2.714  1.00  0.00     0.181 C 
ATOM     13  C   UNL     1       2.920  -2.146   0.925  1.00  0.00     0.049 C 
ATOM     14  C   UNL     1       1.672  -4.362   2.278  1.00  0.00    -0.042 C 
ATOM     15  C   UNL     1       3.147  -3.640   0.424  1.00  0.00    -0.004 C 
ATOM     16  C   UNL     1       3.741  -1.014   0.189  1.00  0.00    -0.028 C 
ATOM     17  C   UNL     1       2.388  -5.202   3.307  1.00  0.00     0.042 C 
ATOM     18  C   UNL     1       3.294  -3.731  -1.137  1.00  0.00     0.011 C 
ATOM     19  C   UNL     1       4.436  -4.274   0.993  1.00  0.00     0.016 C 
ATOM     20  C   UNL     1       3.450  -1.197  -1.328  1.00  0.00     0.007 C 
ATOM     21  C   UNL     1       5.271  -0.963   0.340  1.00  0.00     0.011 C 
ATOM     22  C   UNL     1       3.225   0.376   0.622  1.00  0.00     0.011 C 
ATOM     23  C   UNL     1       3.948  -2.544  -1.842  1.00  0.00     0.001 C 
BRANCH  11  24
ATOM     24  O   UNL     1       3.237  -2.085   3.656  1.00  0.00    -0.459 OA
BRANCH  24  25
ATOM     25  C   UNL     1       4.428  -2.074   4.235  1.00  0.00     0.303 C 
ATOM     26  C   UNL     1       5.640  -1.962   3.407  1.00  0.00     0.139 C 
ATOM     27  O   UNL     1       4.507  -2.162   5.458  1.00  0.00    -0.253 OA
ENDBRANCH  24  25
ENDBRANCH  11  24
BRANCH  12  28
ATOM     28  O   UNL     1       0.848  -2.960   4.073  1.00  0.00    -0.385 OA
ATOM     29  H   UNL     1       1.579  -3.253   4.640  1.00  0.00     0.211 HD
ENDBRANCH  12  28
ENDBRANCH   9  10
ENDBRANCH   8   9
ENDBRANCH   6   8
ENDBRANCH   5   6
ENDBRANCH   3   5
ENDBRANCH   2   3
ENDBRANCH   1   2
BRANCH   1  30
ATOM     30  C   UNL     1       2.750 -10.158  -1.341  1.00  0.00     0.202 C 
BRANCH  30  31
ATOM     31  O   UNL     1       2.647 -10.344   0.064  1.00  0.00    -0.374 OA
BRANCH  31  32
ATOM     32  C   UNL     1       2.603  -9.175   0.880  1.00  0.00     0.202 C 
BRANCH  32  33
ATOM     33  C   UNL     1       3.845  -8.282   0.885  1.00  0.00     0.261 C 
BRANCH  33  34
ATOM     34  O   UNL     1       4.162  -7.757  -0.414  1.00  0.00    -0.460 OA
BRANCH  34  35
ATOM     35  C   UNL     1       5.487  -7.727  -0.701  1.00  0.00     0.338 C 
ATOM     36  O   UNL     1       6.418  -8.042   0.015  1.00  0.00    -0.246 OA
BRANCH  35  37
ATOM     37  C   UNL     1       5.673  -7.146  -2.038  1.00  0.00     0.060 A 
ATOM     38  C   UNL     1       5.598  -7.926  -3.192  1.00  0.00     0.016 A 
ATOM     39  C   UNL     1       6.009  -5.798  -2.117  1.00  0.00     0.016 A 
ATOM     40  C   UNL     1       5.889  -7.345  -4.432  1.00  0.00     0.010 A 
ATOM     41  C   UNL     1       6.192  -5.200  -3.361  1.00  0.00     0.010 A 
ATOM     42  C   UNL     1       6.193  -5.975  -4.531  1.00  0.00    -0.014 A 
BRANCH  42  43
ATOM     43  C   UNL     1       6.631  -5.354  -5.815  1.00  0.00     0.031 A 
ATOM     44  C   UNL     1       7.982  -4.678  -5.891  1.00  0.00     0.074 A 
ATOM     45  C   UNL     1       5.825  -5.345  -6.895  1.00  0.00     0.049 A 
ATOM     46  N   UNL     1       8.501  -3.957  -6.854  1.00  0.00    -0.248 NA
ATOM     47  C   UNL     1       8.845  -4.784  -4.702  1.00  0.00     0.031 C 
ATOM     48  C   UNL     1       4.479  -5.916  -6.958  1.00  0.00     0.029 A 
ATOM     49  N   UNL     1       6.024  -4.829  -8.153  1.00  0.00    -0.354 N 
ATOM     50  C   UNL     1       9.713  -3.482  -6.362  1.00  0.00     0.074 A 
ATOM     51  C   UNL     1       9.826  -3.946  -4.998  1.00  0.00     0.031 C 
ATOM     52  C   UNL     1       3.989  -5.751  -8.198  1.00  0.00     0.029 A 
ATOM     53  C   UNL     1       4.966  -5.027  -9.007  1.00  0.00     0.049 A 
ATOM     54  H   UNL     1       6.849  -4.361  -8.418  1.00  0.00     0.167 HD
ATOM     55  C   UNL     1      10.666  -2.756  -6.995  1.00  0.00     0.037 A 
ATOM     56  C   UNL     1       4.801  -4.663 -10.294  1.00  0.00     0.037 A 
ATOM     57  C   UNL     1      10.604  -2.382  -8.382  1.00  0.00     0.049 A 
ATOM     58  C   UNL     1       5.902  -3.918 -10.998  1.00  0.00     0.074 A 
ATOM     59  C   UNL     1      11.557  -1.727  -9.141  1.00  0.00     0.029 A 
ATOM     60  N   UNL     1       9.538  -2.656  -9.223  1.00  0.00    -0.354 N 
ATOM     61  N   UNL     1       7.058  -3.512 -10.530  1.00  0.00    -0.248 NA
ATOM     62  C   UNL     1       5.680  -3.585 -12.413  1.00  0.00     0.031 C 
ATOM     63  C   UNL     1      11.056  -1.582 -10.439  1.00  0.00     0.029 A 
ATOM     64  C   UNL     1       9.809  -2.182 -10.495  1.00  0.00     0.049 A 
ATOM     65  H   UNL     1       8.711  -3.120  -8.957  1.00  0.00     0.167 HD
ATOM     66  C   UNL     1       7.710  -2.905 -11.596  1.00  0.00     0.074 A 
ATOM     67  C   UNL     1       6.828  -3.007 -12.739  1.00  0.00     0.031 C 
ATOM     68  C   UNL     1       8.928  -2.314 -11.626  1.00  0.00     0.037 A 
BRANCH  55  69
ATOM     69  C   UNL     1      11.871  -2.340  -6.199  1.00  0.00     0.057 A 
ATOM     70  C   UNL     1      12.828  -3.265  -5.759  1.00  0.00     0.134 A 
ATOM     71  C   UNL     1      12.095  -0.990  -5.896  1.00  0.00     0.134 A 
ATOM     72  F   UNL     1      12.671  -4.574  -6.005  1.00  0.00    -0.206 F 
ATOM     73  C   UNL     1      13.942  -2.868  -5.017  1.00  0.00     0.040 A 
ATOM     74  C   UNL     1      13.222  -0.578  -5.183  1.00  0.00     0.040 A 
ATOM     75  F   UNL     1      11.226  -0.049  -6.294  1.00  0.00    -0.206 F 
ATOM     76  C   UNL     1      14.146  -1.519  -4.734  1.00  0.00     0.006 A 
ENDBRANCH  55  69
BRANCH  56  77
ATOM     77  C   UNL     1       3.555  -5.027 -11.018  1.00  0.00     0.057 A 
ATOM     78  C   UNL     1       3.567  -5.991 -12.033  1.00  0.00     0.134 A 
ATOM     79  C   UNL     1       2.331  -4.414 -10.726  1.00  0.00     0.134 A 
ATOM     80  F   UNL     1       4.714  -6.599 -12.371  1.00  0.00    -0.206 F 
ATOM     81  C   UNL     1       2.414  -6.318 -12.747  1.00  0.00     0.040 A 
ATOM     82  C   UNL     1       1.164  -4.750 -11.415  1.00  0.00     0.040 A 
ATOM     83  F   UNL     1       2.250  -3.488  -9.760  1.00  0.00    -0.206 F 
ATOM     84  C   UNL     1       1.205  -5.699 -12.435  1.00  0.00     0.006 A 
ENDBRANCH  56  77
BRANCH  68  85
ATOM     85  C   UNL     1       9.402  -1.774 -12.943  1.00  0.00     0.057 A 
ATOM     86  C   UNL     1       8.875  -0.600 -13.493  1.00  0.00     0.134 A 
ATOM     87  C   UNL     1      10.438  -2.410 -13.639  1.00  0.00     0.134 A 
ATOM     88  F   UNL     1       7.875   0.050 -12.879  1.00  0.00    -0.206 F 
ATOM     89  C   UNL     1       9.348  -0.087 -14.702  1.00  0.00     0.040 A 
ATOM     90  C   UNL     1      10.936  -1.894 -14.836  1.00  0.00     0.040 A 
ATOM     91  F   UNL     1      10.993  -3.533 -13.159  1.00  0.00    -0.206 F 
ATOM     92  C   UNL     1      10.387  -0.731 -15.373  1.00  0.00     0.006 A 
ENDBRANCH  68  85
ENDBRANCH  42  43
ENDBRANCH  35  37
ENDBRANCH  34  35
ENDBRANCH  33  34
ENDBRANCH  32  33
ENDBRANCH  31  32
ENDBRANCH  30  31
ENDBRANCH   1  30
TORSDOF 21
