REMARK SMILES COC(=O)c1cncc(N2CC[C@H](C(=O)OCCOCCOC(=O)c3ccc(-c4c5nc(c(-c6c(F)cccc6F)c6ccc([nH]6)c(-c6c(F)cccc6F)c6nc(c(-c7c(F)cccc7F)c7ccc4[nH]7)C=C6)C=C5)cc3)C2)n1
REMARK SMILES IDX 18 1 17 2 16 3 14 4 15 5 13 6 10 7 11 8 79 9 12 10 9 11 5 12
REMARK SMILES IDX 6 13 80 14 7 15 8 16 3 17 4 18 2 19 1 20 19 21 20 22 21 23
REMARK SMILES IDX 22 24 23 25 24 26 25 27 26 28 78 29 27 30 77 31 28 32 29 33
REMARK SMILES IDX 30 34 71 35 31 36 76 37 70 38 72 39 32 40 75 41 69 42 68 43
REMARK SMILES IDX 33 45 59 46 42 47 58 48 43 49 46 50 57 51 73 52 44 53 45 54
REMARK SMILES IDX 56 56 74 57 47 58 34 59 35 60 40 61 36 62 37 63 39 64 41 65
REMARK SMILES IDX 38 66 60 67 61 68 66 69 62 70 63 71 65 72 67 73 64 74 48 75
REMARK SMILES IDX 49 76 54 77 50 78 51 79 53 80 55 81 52 82
REMARK H PARENT 72 44 46 55
REMARK Flexibility Score: inf
ROOT
ATOM      1  C   UNL     1       4.260  10.939   2.543  1.00  0.00     0.202 C 
ENDROOT
BRANCH   1   2
ATOM      2  C   UNL     1       2.772  10.600   2.422  1.00  0.00     0.261 C 
BRANCH   2   3
ATOM      3  O   UNL     1       2.580   9.659   1.353  1.00  0.00    -0.463 OA
BRANCH   3   4
ATOM      4  C   UNL     1       1.621   9.958   0.444  1.00  0.00     0.310 C 
ATOM      5  O   UNL     1       0.792  10.851   0.562  1.00  0.00    -0.252 OA
BRANCH   4   6
ATOM      6  C   UNL     1       1.676   9.061  -0.767  1.00  0.00     0.120 C 
ATOM      7  N   UNL     1       0.879   6.984  -1.533  1.00  0.00    -0.354 N 
ATOM      8  C   UNL     1       2.315   6.989  -1.786  1.00  0.00     0.119 C 
ATOM      9  C   UNL     1       0.462   8.143  -0.746  1.00  0.00     0.133 C 
ATOM     10  C   UNL     1       2.850   8.088  -0.875  1.00  0.00     0.038 C 
BRANCH   7  11
ATOM     11  C   UNL     1       0.207   5.799  -1.321  1.00  0.00     0.148 A 
ATOM     12  C   UNL     1       0.193   3.584  -0.660  1.00  0.00     0.169 A 
ATOM     13  C   UNL     1      -1.183   3.526  -0.822  1.00  0.00     0.147 A 
ATOM     14  N   UNL     1       0.902   4.716  -0.918  1.00  0.00    -0.221 NA
ATOM     15  N   UNL     1      -1.909   4.589  -1.238  1.00  0.00    -0.258 NA
ATOM     16  C   UNL     1      -1.182   5.711  -1.474  1.00  0.00     0.157 A 
BRANCH  12  17
ATOM     17  C   UNL     1       0.961   2.430  -0.127  1.00  0.00     0.358 C 
ATOM     18  O   UNL     1       2.048   2.517   0.430  1.00  0.00    -0.244 OA
BRANCH  17  19
ATOM     19  O   UNL     1       0.282   1.277  -0.355  1.00  0.00    -0.464 OA
ATOM     20  C   UNL     1       0.947   0.096   0.100  1.00  0.00     0.282 C 
ENDBRANCH  17  19
ENDBRANCH  12  17
ENDBRANCH   7  11
ENDBRANCH   4   6
ENDBRANCH   3   4
ENDBRANCH   2   3
ENDBRANCH   1   2
BRANCH   1  21
ATOM     21  O   UNL     1       4.791  11.729   1.476  1.00  0.00    -0.374 OA
BRANCH  21  22
ATOM     22  C   UNL     1       5.027  11.076   0.230  1.00  0.00     0.202 C 
BRANCH  22  23
ATOM     23  C   UNL     1       6.320  10.259   0.133  1.00  0.00     0.261 C 
BRANCH  23  24
ATOM     24  O   UNL     1       6.345   9.159   1.060  1.00  0.00    -0.460 OA
BRANCH  24  25
ATOM     25  C   UNL     1       7.256   9.285   2.053  1.00  0.00     0.338 C 
ATOM     26  O   UNL     1       8.089  10.175   2.182  1.00  0.00    -0.246 OA
BRANCH  25  27
ATOM     27  C   UNL     1       7.044   8.269   3.100  1.00  0.00     0.060 A 
ATOM     28  C   UNL     1       7.005   8.722   4.424  1.00  0.00     0.016 A 
ATOM     29  C   UNL     1       6.989   6.902   2.819  1.00  0.00     0.016 A 
ATOM     30  C   UNL     1       6.978   7.809   5.474  1.00  0.00     0.010 A 
ATOM     31  C   UNL     1       6.964   5.983   3.877  1.00  0.00     0.010 A 
ATOM     32  C   UNL     1       7.003   6.432   5.209  1.00  0.00    -0.014 A 
BRANCH  32  33
ATOM     33  C   UNL     1       7.212   5.497   6.343  1.00  0.00     0.031 A 
ATOM     34  C   UNL     1       8.598   4.991   6.635  1.00  0.00     0.074 A 
ATOM     35  C   UNL     1       6.193   5.173   7.159  1.00  0.00     0.049 A 
ATOM     36  N   UNL     1       9.022   4.263   7.638  1.00  0.00    -0.248 NA
ATOM     37  C   UNL     1       9.648   5.358   5.673  1.00  0.00     0.031 C 
ATOM     38  C   UNL     1       4.808   5.610   6.996  1.00  0.00     0.029 A 
ATOM     39  N   UNL     1       6.176   4.411   8.300  1.00  0.00    -0.354 N 
ATOM     40  C   UNL     1      10.385   4.093   7.433  1.00  0.00     0.074 A 
ATOM     41  C   UNL     1      10.712   4.761   6.191  1.00  0.00     0.031 C 
ATOM     42  C   UNL     1       4.074   5.115   8.007  1.00  0.00     0.029 A 
ATOM     43  C   UNL     1       4.935   4.320   8.881  1.00  0.00     0.049 A 
ATOM     44  H   UNL     1       6.976   3.971   8.667  1.00  0.00     0.167 HD
ATOM     45  C   UNL     1      11.288   3.453   8.214  1.00  0.00     0.037 A 
ATOM     46  C   UNL     1       4.542   3.675   9.995  1.00  0.00     0.037 A 
ATOM     47  C   UNL     1      10.969   2.785   9.448  1.00  0.00     0.049 A 
ATOM     48  C   UNL     1       5.557   2.943  10.829  1.00  0.00     0.074 A 
ATOM     49  C   UNL     1      11.819   2.120  10.316  1.00  0.00     0.029 A 
ATOM     50  N   UNL     1       9.695   2.693   9.989  1.00  0.00    -0.354 N 
ATOM     51  N   UNL     1       6.850   2.826  10.647  1.00  0.00    -0.248 NA
ATOM     52  C   UNL     1       5.058   2.265  12.035  1.00  0.00     0.031 C 
ATOM     53  C   UNL     1      11.053   1.594  11.363  1.00  0.00     0.029 A 
ATOM     54  C   UNL     1       9.734   1.968  11.169  1.00  0.00     0.049 A 
ATOM     55  H   UNL     1       8.884   3.085   9.592  1.00  0.00     0.167 HD
ATOM     56  C   UNL     1       7.322   2.087  11.725  1.00  0.00     0.074 A 
ATOM     57  C   UNL     1       6.179   1.795  12.564  1.00  0.00     0.031 C 
ATOM     58  C   UNL     1       8.589   1.689  11.997  1.00  0.00     0.037 A 
BRANCH  45  59
ATOM     59  C   UNL     1      12.712   3.437   7.745  1.00  0.00     0.057 A 
ATOM     60  C   UNL     1      13.521   4.579   7.810  1.00  0.00     0.134 A 
ATOM     61  C   UNL     1      13.290   2.262   7.250  1.00  0.00     0.134 A 
ATOM     62  F   UNL     1      13.024   5.740   8.262  1.00  0.00    -0.206 F 
ATOM     63  C   UNL     1      14.849   4.558   7.380  1.00  0.00     0.040 A 
ATOM     64  C   UNL     1      14.622   2.222   6.837  1.00  0.00     0.040 A 
ATOM     65  F   UNL     1      12.570   1.133   7.165  1.00  0.00    -0.206 F 
ATOM     66  C   UNL     1      15.405   3.374   6.896  1.00  0.00     0.006 A 
ENDBRANCH  45  59
BRANCH  46  67
ATOM     67  C   UNL     1       3.116   3.706  10.403  1.00  0.00     0.057 A 
ATOM     68  C   UNL     1       2.697   4.430  11.525  1.00  0.00     0.134 A 
ATOM     69  C   UNL     1       2.143   2.995   9.692  1.00  0.00     0.134 A 
ATOM     70  F   UNL     1       3.588   5.112  12.260  1.00  0.00    -0.206 F 
ATOM     71  C   UNL     1       1.363   4.434  11.935  1.00  0.00     0.040 A 
ATOM     72  C   UNL     1       0.802   3.007  10.078  1.00  0.00     0.040 A 
ATOM     73  F   UNL     1       2.482   2.281   8.608  1.00  0.00    -0.206 F 
ATOM     74  C   UNL     1       0.410   3.723  11.207  1.00  0.00     0.006 A 
ENDBRANCH  46  67
BRANCH  58  75
ATOM     75  C   UNL     1       8.807   0.922  13.268  1.00  0.00     0.057 A 
ATOM     76  C   UNL     1       8.389  -0.407  13.412  1.00  0.00     0.134 A 
ATOM     77  C   UNL     1       9.458   1.517  14.356  1.00  0.00     0.134 A 
ATOM     78  F   UNL     1       7.748  -1.030  12.411  1.00  0.00    -0.206 F 
ATOM     79  C   UNL     1       8.585  -1.108  14.603  1.00  0.00     0.040 A 
ATOM     80  C   UNL     1       9.682   0.819  15.543  1.00  0.00     0.040 A 
ATOM     81  F   UNL     1       9.892   2.784  14.281  1.00  0.00    -0.206 F 
ATOM     82  C   UNL     1       9.238  -0.496  15.672  1.00  0.00     0.006 A 
ENDBRANCH  58  75
ENDBRANCH  32  33
ENDBRANCH  25  27
ENDBRANCH  24  25
ENDBRANCH  23  24
ENDBRANCH  22  23
ENDBRANCH  21  22
ENDBRANCH   1  21
TORSDOF 17
