REMARK SMILES Cc1ccc([C@@H](C)[N@@H+]2CCO[C@H](CC(=O)OCCOCCOC(=O)c3ccc(-c4c5nc(c(-c6c(F)cccc6F)c6ccc([nH]6)c(-c6c(F)cccc6F)c6nc(c(-c7c(F)cccc7F)c7ccc4[nH]7)C=C6)C=C5)cc3)C2)o1
REMARK SMILES IDX 18 1 17 2 16 3 14 4 15 5 13 6 12 7 8 8 9 9 79 10 10 12 11 13
REMARK SMILES IDX 6 14 7 15 5 16 1 17 2 18 3 19 80 20 4 21 19 22 20 23 21 24
REMARK SMILES IDX 22 25 23 26 24 27 25 28 26 29 78 30 27 31 77 32 28 33 29 34
REMARK SMILES IDX 30 35 71 36 31 37 76 38 70 39 72 40 32 41 75 42 69 43 68 44
REMARK SMILES IDX 33 46 59 47 42 48 58 49 43 50 46 51 57 52 73 53 44 54 45 55
REMARK SMILES IDX 56 57 74 58 47 59 34 60 35 61 40 62 36 63 37 64 39 65 41 66
REMARK SMILES IDX 38 67 60 68 61 69 66 70 62 71 63 72 65 73 67 74 64 75 48 76
REMARK SMILES IDX 49 77 54 78 50 79 51 80 53 81 55 82 52 83
REMARK H PARENT 8 11 72 45 46 56
REMARK Flexibility Score: inf
ROOT
ATOM      1  C   UNL     1       3.289  -1.262  -1.461  1.00  0.00     0.202 C 
ENDROOT
BRANCH   1   2
ATOM      2  C   UNL     1       1.767  -1.140  -1.379  1.00  0.00     0.261 C 
BRANCH   2   3
ATOM      3  O   UNL     1       1.275   0.204  -1.487  1.00  0.00    -0.463 OA
BRANCH   3   4
ATOM      4  C   UNL     1       1.261   0.934  -0.350  1.00  0.00     0.308 C 
ATOM      5  O   UNL     1       1.775   0.592   0.711  1.00  0.00    -0.252 OA
BRANCH   4   6
ATOM      6  C   UNL     1       0.670   2.307  -0.491  1.00  0.00     0.160 C 
BRANCH   6   7
ATOM      7  C   UNL     1      -0.314   2.713  -1.593  1.00  0.00     0.184 C 
ATOM      8  N   UNL     1      -2.699   2.097  -0.926  1.00  0.00    -0.322 N 
ATOM      9  C   UNL     1      -2.765   1.328  -2.170  1.00  0.00     0.291 C 
ATOM     10  C   UNL     1      -1.694   3.148  -1.047  1.00  0.00     0.295 C 
ATOM     11  H   UNL     1      -3.575   2.605  -0.803  1.00  0.00     0.348 HD
ATOM     12  C   UNL     1      -1.392   0.842  -2.655  1.00  0.00     0.222 C 
ATOM     13  O   UNL     1      -0.419   1.889  -2.757  1.00  0.00    -0.366 OA
BRANCH   8  14
ATOM     14  C   UNL     1      -2.884   1.367   0.340  1.00  0.00     0.248 C 
ATOM     15  C   UNL     1      -2.757   2.257   1.587  1.00  0.00     0.084 C 
BRANCH  14  16
ATOM     16  C   UNL     1      -2.138   0.069   0.513  1.00  0.00     0.161 A 
ATOM     17  C   UNL     1       0.496  -1.536   2.356  1.00  0.00     0.087 C 
ATOM     18  C   UNL     1      -0.650  -1.256   1.459  1.00  0.00     0.101 A 
ATOM     19  C   UNL     1      -1.410  -2.056   0.636  1.00  0.00     0.046 A 
ATOM     20  O   UNL     1      -1.078   0.039   1.377  1.00  0.00    -0.460 OA
ATOM     21  C   UNL     1      -2.381  -1.212   0.050  1.00  0.00     0.052 A 
ENDBRANCH  14  16
ENDBRANCH   8  14
ENDBRANCH   6   7
ENDBRANCH   4   6
ENDBRANCH   3   4
ENDBRANCH   2   3
ENDBRANCH   1   2
BRANCH   1  22
ATOM     22  O   UNL     1       3.933  -0.211  -0.770  1.00  0.00    -0.374 OA
BRANCH  22  23
ATOM     23  C   UNL     1       4.490   0.862  -1.520  1.00  0.00     0.202 C 
BRANCH  23  24
ATOM     24  C   UNL     1       3.747   1.535  -2.695  1.00  0.00     0.261 C 
BRANCH  24  25
ATOM     25  O   UNL     1       3.012   0.696  -3.596  1.00  0.00    -0.460 OA
BRANCH  25  26
ATOM     26  C   UNL     1       3.722  -0.005  -4.501  1.00  0.00     0.338 C 
ATOM     27  O   UNL     1       4.932  -0.049  -4.615  1.00  0.00    -0.246 OA
BRANCH  26  28
ATOM     28  C   UNL     1       2.780  -0.855  -5.258  1.00  0.00     0.060 A 
ATOM     29  C   UNL     1       2.965  -2.242  -5.239  1.00  0.00     0.016 A 
ATOM     30  C   UNL     1       1.775  -0.283  -6.043  1.00  0.00     0.016 A 
ATOM     31  C   UNL     1       2.192  -3.057  -6.065  1.00  0.00     0.010 A 
ATOM     32  C   UNL     1       1.009  -1.099  -6.880  1.00  0.00     0.010 A 
ATOM     33  C   UNL     1       1.251  -2.483  -6.932  1.00  0.00    -0.014 A 
BRANCH  33  34
ATOM     34  C   UNL     1       0.680  -3.300  -8.030  1.00  0.00     0.031 A 
ATOM     35  C   UNL     1       1.310  -3.210  -9.393  1.00  0.00     0.074 A 
ATOM     36  C   UNL     1      -0.358  -4.124  -7.819  1.00  0.00     0.049 A 
ATOM     37  N   UNL     1       0.976  -3.811 -10.506  1.00  0.00    -0.248 NA
ATOM     38  C   UNL     1       2.473  -2.317  -9.517  1.00  0.00     0.031 C 
ATOM     39  C   UNL     1      -1.035  -4.319  -6.539  1.00  0.00     0.029 A 
ATOM     40  N   UNL     1      -1.030  -4.946  -8.689  1.00  0.00    -0.354 N 
ATOM     41  C   UNL     1       1.879  -3.361 -11.462  1.00  0.00     0.074 A 
ATOM     42  C   UNL     1       2.756  -2.417 -10.806  1.00  0.00     0.031 C 
ATOM     43  C   UNL     1      -2.042  -5.194  -6.711  1.00  0.00     0.029 A 
ATOM     44  C   UNL     1      -2.093  -5.597  -8.116  1.00  0.00     0.049 A 
ATOM     45  H   UNL     1      -0.774  -5.057  -9.633  1.00  0.00     0.167 HD
ATOM     46  C   UNL     1       1.973  -3.708 -12.768  1.00  0.00     0.037 A 
ATOM     47  C   UNL     1      -3.015  -6.409  -8.668  1.00  0.00     0.037 A 
ATOM     48  C   UNL     1       1.101  -4.650 -13.417  1.00  0.00     0.049 A 
ATOM     49  C   UNL     1      -2.924  -6.747 -10.132  1.00  0.00     0.074 A 
ATOM     50  C   UNL     1       1.139  -5.102 -14.724  1.00  0.00     0.029 A 
ATOM     51  N   UNL     1       0.023  -5.275 -12.808  1.00  0.00    -0.354 N 
ATOM     52  N   UNL     1      -2.042  -6.350 -11.018  1.00  0.00    -0.248 NA
ATOM     53  C   UNL     1      -3.951  -7.649 -10.671  1.00  0.00     0.031 C 
ATOM     54  C   UNL     1       0.050  -5.960 -14.920  1.00  0.00     0.029 A 
ATOM     55  C   UNL     1      -0.634  -6.083 -13.721  1.00  0.00     0.049 A 
ATOM     56  H   UNL     1      -0.237  -5.160 -11.865  1.00  0.00     0.167 HD
ATOM     57  C   UNL     1      -2.395  -6.967 -12.213  1.00  0.00     0.074 A 
ATOM     58  C   UNL     1      -3.565  -7.775 -11.934  1.00  0.00     0.031 C 
ATOM     59  C   UNL     1      -1.802  -6.876 -13.429  1.00  0.00     0.037 A 
BRANCH  46  60
ATOM     60  C   UNL     1       3.036  -3.030 -13.582  1.00  0.00     0.057 A 
ATOM     61  C   UNL     1       4.399  -3.305 -13.408  1.00  0.00     0.134 A 
ATOM     62  C   UNL     1       2.688  -2.085 -14.556  1.00  0.00     0.134 A 
ATOM     63  F   UNL     1       4.801  -4.188 -12.481  1.00  0.00    -0.206 F 
ATOM     64  C   UNL     1       5.378  -2.640 -14.148  1.00  0.00     0.040 A 
ATOM     65  C   UNL     1       3.657  -1.433 -15.321  1.00  0.00     0.040 A 
ATOM     66  F   UNL     1       1.401  -1.776 -14.777  1.00  0.00    -0.206 F 
ATOM     67  C   UNL     1       5.007  -1.704 -15.111  1.00  0.00     0.006 A 
ENDBRANCH  46  60
BRANCH  47  68
ATOM     68  C   UNL     1      -4.114  -6.944  -7.827  1.00  0.00     0.057 A 
ATOM     69  C   UNL     1      -4.160  -8.292  -7.458  1.00  0.00     0.134 A 
ATOM     70  C   UNL     1      -5.134  -6.109  -7.353  1.00  0.00     0.134 A 
ATOM     71  F   UNL     1      -3.224  -9.145  -7.899  1.00  0.00    -0.206 F 
ATOM     72  C   UNL     1      -5.183  -8.793  -6.650  1.00  0.00     0.040 A 
ATOM     73  C   UNL     1      -6.149  -6.591  -6.527  1.00  0.00     0.040 A 
ATOM     74  F   UNL     1      -5.143  -4.806  -7.671  1.00  0.00    -0.206 F 
ATOM     75  C   UNL     1      -6.176  -7.939  -6.175  1.00  0.00     0.006 A 
ENDBRANCH  47  68
BRANCH  59  76
ATOM     76  C   UNL     1      -2.394  -7.683 -14.547  1.00  0.00     0.057 A 
ATOM     77  C   UNL     1      -3.607  -7.330 -15.151  1.00  0.00     0.134 A 
ATOM     78  C   UNL     1      -1.719  -8.800 -15.056  1.00  0.00     0.134 A 
ATOM     79  F   UNL     1      -4.309  -6.278 -14.704  1.00  0.00    -0.206 F 
ATOM     80  C   UNL     1      -4.137  -8.071 -16.210  1.00  0.00     0.040 A 
ATOM     81  C   UNL     1      -2.226  -9.533 -16.130  1.00  0.00     0.040 A 
ATOM     82  F   UNL     1      -0.547  -9.187 -14.529  1.00  0.00    -0.206 F 
ATOM     83  C   UNL     1      -3.442  -9.172 -16.706  1.00  0.00     0.006 A 
ENDBRANCH  59  76
ENDBRANCH  33  34
ENDBRANCH  26  28
ENDBRANCH  25  26
ENDBRANCH  24  25
ENDBRANCH  23  24
ENDBRANCH  22  23
ENDBRANCH   1  22
TORSDOF 17
