REMARK SMILES Cc1ccc(S(=O)(=O)Nc2ccccn2)cc1C(=O)OCCOCCOC(=O)c1ccc(-c2c3nc(c(-c4c(F)cccc4F)c4ccc([nH]4)c(-c4c(F)cccc4F)c4nc(c(-c5c(F)cccc5F)c5ccc2[nH]5)C=C4)C=C3)cc1
REMARK SMILES IDX 22 1 21 2 20 3 18 4 19 5 17 6 1 7 2 8 3 9 4 10 16 11 5 12
REMARK SMILES IDX 6 13 7 14 8 15 9 16 10 18 11 19 15 20 12 21 14 22 13 23
REMARK SMILES IDX 23 24 24 25 25 26 26 27 27 28 28 29 29 30 30 31 82 32 31 33
REMARK SMILES IDX 81 34 32 35 33 36 34 37 75 38 35 39 80 40 74 41 76 42 36 43
REMARK SMILES IDX 79 44 73 45 72 46 37 48 63 49 46 50 62 51 47 52 50 53 61 54
REMARK SMILES IDX 77 55 48 56 49 57 60 59 78 60 51 61 38 62 39 63 44 64 40 65
REMARK SMILES IDX 41 66 43 67 45 68 42 69 64 70 65 71 70 72 66 73 67 74 69 75
REMARK SMILES IDX 71 76 68 77 52 78 53 79 58 80 54 81 55 82 57 83 59 84 56 85
REMARK H PARENT 9 17 76 47 50 58
REMARK Flexibility Score: inf
ROOT
ATOM      1  C   UNL     1       2.576   2.182  -2.331  1.00  0.00     0.202 C 
ENDROOT
BRANCH   1   2
ATOM      2  C   UNL     1       2.957   2.146  -0.891  1.00  0.00     0.261 C 
BRANCH   2   3
ATOM      3  O   UNL     1       2.142   1.196  -0.176  1.00  0.00    -0.460 OA
BRANCH   3   4
ATOM      4  C   UNL     1       0.902   1.524   0.251  1.00  0.00     0.338 C 
ATOM      5  O   UNL     1       0.478   2.646   0.445  1.00  0.00    -0.246 OA
BRANCH   4   6
ATOM      6  C   UNL     1       0.046   0.303   0.282  1.00  0.00     0.064 A 
ATOM      7  C   UNL     1       1.902  -1.493  -0.089  1.00  0.00     0.045 C 
ATOM      8  C   UNL     1       0.473  -1.011  -0.020  1.00  0.00    -0.036 A 
ATOM      9  C   UNL     1      -0.514  -1.989  -0.232  1.00  0.00     0.006 A 
ATOM     10  C   UNL     1      -1.870  -1.662  -0.234  1.00  0.00     0.022 A 
ATOM     11  C   UNL     1      -1.329   0.589   0.418  1.00  0.00     0.038 A 
ATOM     12  C   UNL     1      -2.278  -0.362   0.067  1.00  0.00     0.088 A 
BRANCH  12  13
ATOM     13  S   UNL     1      -3.989   0.031  -0.233  1.00  0.00     0.263 S 
ATOM     14  O   UNL     1      -4.143   0.014  -1.676  1.00  0.00    -0.201 OA
ATOM     15  O   UNL     1      -4.756  -0.866   0.603  1.00  0.00    -0.201 OA
BRANCH  13  16
ATOM     16  N   UNL     1      -4.318   1.554   0.319  1.00  0.00    -0.263 N 
ATOM     17  H   UNL     1      -5.040   1.646   0.983  1.00  0.00     0.182 HD
BRANCH  16  18
ATOM     18  C   UNL     1      -3.659   2.722  -0.077  1.00  0.00     0.139 A 
ATOM     19  C   UNL     1      -3.178   3.007  -1.343  1.00  0.00     0.048 A 
ATOM     20  N   UNL     1      -3.559   3.560   0.972  1.00  0.00    -0.239 NA
ATOM     21  C   UNL     1      -2.511   4.219  -1.523  1.00  0.00     0.005 A 
ATOM     22  C   UNL     1      -2.893   4.716   0.771  1.00  0.00     0.113 A 
ATOM     23  C   UNL     1      -2.354   5.086  -0.447  1.00  0.00     0.020 A 
ENDBRANCH  16  18
ENDBRANCH  13  16
ENDBRANCH  12  13
ENDBRANCH   4   6
ENDBRANCH   3   4
ENDBRANCH   2   3
ENDBRANCH   1   2
BRANCH   1  24
ATOM     24  O   UNL     1       1.367   2.913  -2.301  1.00  0.00    -0.374 OA
BRANCH  24  25
ATOM     25  C   UNL     1       0.629   2.873  -3.473  1.00  0.00     0.202 C 
BRANCH  25  26
ATOM     26  C   UNL     1       1.154   3.765  -4.586  1.00  0.00     0.261 C 
BRANCH  26  27
ATOM     27  O   UNL     1       2.386   4.552  -4.513  1.00  0.00    -0.460 OA
BRANCH  27  28
ATOM     28  C   UNL     1       3.147   5.352  -3.743  1.00  0.00     0.338 C 
ATOM     29  O   UNL     1       4.151   5.866  -4.234  1.00  0.00    -0.246 OA
BRANCH  28  30
ATOM     30  C   UNL     1       2.942   5.550  -2.292  1.00  0.00     0.060 A 
ATOM     31  C   UNL     1       4.088   5.591  -1.456  1.00  0.00     0.016 A 
ATOM     32  C   UNL     1       1.682   5.642  -1.728  1.00  0.00     0.016 A 
ATOM     33  C   UNL     1       3.971   5.540  -0.060  1.00  0.00     0.010 A 
ATOM     34  C   UNL     1       1.570   5.547  -0.344  1.00  0.00     0.010 A 
ATOM     35  C   UNL     1       2.702   5.436   0.495  1.00  0.00    -0.014 A 
BRANCH  35  36
ATOM     36  C   UNL     1       2.418   5.062   1.890  1.00  0.00     0.031 A 
ATOM     37  C   UNL     1       1.649   5.996   2.737  1.00  0.00     0.074 A 
ATOM     38  C   UNL     1       2.578   3.780   2.312  1.00  0.00     0.049 A 
ATOM     39  N   UNL     1       1.391   5.772   3.976  1.00  0.00    -0.248 NA
ATOM     40  C   UNL     1       1.135   7.289   2.289  1.00  0.00     0.031 C 
ATOM     41  C   UNL     1       1.844   3.064   3.361  1.00  0.00     0.029 A 
ATOM     42  N   UNL     1       3.433   2.786   1.828  1.00  0.00    -0.354 N 
ATOM     43  C   UNL     1       0.415   6.647   4.372  1.00  0.00     0.074 A 
ATOM     44  C   UNL     1       0.407   7.662   3.350  1.00  0.00     0.031 C 
ATOM     45  C   UNL     1       2.450   1.892   3.627  1.00  0.00     0.029 A 
ATOM     46  C   UNL     1       3.672   1.855   2.844  1.00  0.00     0.049 A 
ATOM     47  H   UNL     1       3.806   2.748   0.918  1.00  0.00     0.167 HD
ATOM     48  C   UNL     1      -0.338   6.306   5.455  1.00  0.00     0.037 A 
ATOM     49  C   UNL     1       4.935   1.587   3.260  1.00  0.00     0.037 A 
ATOM     50  C   UNL     1       0.236   5.127   6.129  1.00  0.00     0.049 A 
ATOM     51  C   UNL     1       5.015   2.049   4.681  1.00  0.00     0.074 A 
ATOM     52  C   UNL     1      -0.161   3.807   6.262  1.00  0.00     0.029 A 
ATOM     53  N   UNL     1       1.572   5.170   6.544  1.00  0.00    -0.354 N 
ATOM     54  N   UNL     1       4.242   2.999   5.139  1.00  0.00    -0.248 NA
ATOM     55  C   UNL     1       5.791   1.391   5.724  1.00  0.00     0.031 C 
ATOM     56  C   UNL     1       0.984   3.047   6.655  1.00  0.00     0.029 A 
ATOM     57  C   UNL     1       2.066   3.906   6.803  1.00  0.00     0.049 A 
ATOM     58  H   UNL     1       2.095   5.999   6.639  1.00  0.00     0.167 HD
ATOM     59  C   UNL     1       4.282   2.980   6.495  1.00  0.00     0.074 A 
ATOM     60  C   UNL     1       5.319   2.013   6.820  1.00  0.00     0.031 C 
ATOM     61  C   UNL     1       3.439   3.713   7.271  1.00  0.00     0.037 A 
BRANCH  48  62
ATOM     62  C   UNL     1      -1.668   6.928   5.836  1.00  0.00     0.057 A 
ATOM     63  C   UNL     1      -2.311   6.550   7.032  1.00  0.00     0.134 A 
ATOM     64  C   UNL     1      -2.412   7.837   5.053  1.00  0.00     0.134 A 
ATOM     65  F   UNL     1      -1.758   5.662   7.870  1.00  0.00    -0.206 F 
ATOM     66  C   UNL     1      -3.564   7.050   7.423  1.00  0.00     0.040 A 
ATOM     67  C   UNL     1      -3.639   8.385   5.458  1.00  0.00     0.040 A 
ATOM     68  F   UNL     1      -2.035   8.204   3.824  1.00  0.00    -0.206 F 
ATOM     69  C   UNL     1      -4.225   7.988   6.646  1.00  0.00     0.006 A 
ENDBRANCH  48  62
BRANCH  49  70
ATOM     70  C   UNL     1       5.923   1.664   2.144  1.00  0.00     0.057 A 
ATOM     71  C   UNL     1       5.901   0.613   1.200  1.00  0.00     0.134 A 
ATOM     72  C   UNL     1       6.469   2.877   1.706  1.00  0.00     0.134 A 
ATOM     73  F   UNL     1       5.351  -0.570   1.524  1.00  0.00    -0.206 F 
ATOM     74  C   UNL     1       6.292   0.790  -0.135  1.00  0.00     0.040 A 
ATOM     75  C   UNL     1       6.842   3.072   0.364  1.00  0.00     0.040 A 
ATOM     76  F   UNL     1       6.510   3.938   2.523  1.00  0.00    -0.206 F 
ATOM     77  C   UNL     1       6.722   2.040  -0.568  1.00  0.00     0.006 A 
ENDBRANCH  49  70
BRANCH  61  78
ATOM     78  C   UNL     1       3.891   4.272   8.585  1.00  0.00     0.057 A 
ATOM     79  C   UNL     1       5.247   4.479   8.896  1.00  0.00     0.134 A 
ATOM     80  C   UNL     1       2.968   4.819   9.495  1.00  0.00     0.134 A 
ATOM     81  F   UNL     1       6.231   4.124   8.057  1.00  0.00    -0.206 F 
ATOM     82  C   UNL     1       5.657   5.120  10.064  1.00  0.00     0.040 A 
ATOM     83  C   UNL     1       3.368   5.517  10.634  1.00  0.00     0.040 A 
ATOM     84  F   UNL     1       1.644   4.738   9.296  1.00  0.00    -0.206 F 
ATOM     85  C   UNL     1       4.715   5.653  10.932  1.00  0.00     0.006 A 
ENDBRANCH  61  78
ENDBRANCH  35  36
ENDBRANCH  28  30
ENDBRANCH  27  28
ENDBRANCH  26  27
ENDBRANCH  25  26
ENDBRANCH  24  25
ENDBRANCH   1  24
TORSDOF 17
