REMARK SMILES CN1C(=O)C[C@@H](C(=O)OCCOCCOC(=O)c2ccc(-c3c4nc(c(-c5c(F)cccc5F)c5ccc([nH]5)c(-c5c(F)cccc5F)c5nc(c(-c6c(F)cccc6F)c6ccc3[nH]6)C=C5)C=C4)cc2)C12CCN(S(=O)(=O)c1ccccc1F)CC2
REMARK SMILES IDX 12 1 11 2 10 3 9 4 7 5 8 6 6 7 1 8 2 9 3 10 72 11 4 12 5 13
REMARK SMILES IDX 73 14 87 15 74 16 86 17 75 18 76 19 77 20 78 21 79 22 80 23
REMARK SMILES IDX 84 24 81 25 83 26 85 27 82 28 13 29 14 30 15 31 16 32 17 33
REMARK SMILES IDX 18 34 19 35 71 36 20 37 70 38 21 39 22 40 23 41 64 42 24 43
REMARK SMILES IDX 69 44 63 45 65 46 25 47 68 48 62 49 61 50 26 52 52 53 35 54
REMARK SMILES IDX 51 55 36 56 39 57 50 58 66 59 37 60 38 61 49 63 67 64 40 65
REMARK SMILES IDX 27 66 28 67 33 68 29 69 30 70 32 71 34 72 31 73 53 74 54 75
REMARK SMILES IDX 59 76 55 77 56 78 58 79 60 80 57 81 41 82 42 83 47 84 43 85
REMARK SMILES IDX 44 86 46 87 48 88 45 89
REMARK H PARENT 65 51 39 62
REMARK Flexibility Score: inf
ROOT
ATOM      1  O   UNL     1       2.098  -2.180  -7.099  1.00  0.00    -0.374 OA
ENDROOT
BRANCH   1   2
ATOM      2  C   UNL     1       2.803  -1.067  -6.559  1.00  0.00     0.202 C 
BRANCH   2   3
ATOM      3  C   UNL     1       1.985   0.011  -5.832  1.00  0.00     0.261 C 
BRANCH   3   4
ATOM      4  O   UNL     1       1.338  -0.390  -4.602  1.00  0.00    -0.463 OA
BRANCH   4   5
ATOM      5  C   UNL     1      -0.009  -0.519  -4.670  1.00  0.00     0.311 C 
ATOM      6  O   UNL     1      -0.641  -0.529  -5.723  1.00  0.00    -0.252 OA
BRANCH   5   7
ATOM      7  C   UNL     1      -0.747  -0.531  -3.340  1.00  0.00     0.134 C 
ATOM      8  C   UNL     1       1.171   0.162  -0.175  1.00  0.00     0.147 C 
ATOM      9  N   UNL     1       0.341   0.153  -1.371  1.00  0.00    -0.339 N 
ATOM     10  C   UNL     1      -0.163   1.313  -1.930  1.00  0.00     0.223 C 
ATOM     11  C   UNL     1      -0.158  -1.075  -2.010  1.00  0.00     0.059 C 
ATOM     12  O   UNL     1       0.062   2.457  -1.572  1.00  0.00    -0.275 OA
ATOM     13  C   UNL     1      -1.102   0.932  -3.038  1.00  0.00     0.118 C 
ATOM     14  C   UNL     1       0.949  -2.128  -2.147  1.00  0.00     0.046 C 
ATOM     15  C   UNL     1      -1.317  -1.658  -1.127  1.00  0.00     0.046 C 
ATOM     16  C   UNL     1       0.410  -3.485  -2.553  1.00  0.00     0.105 C 
ATOM     17  C   UNL     1      -1.727  -3.098  -1.461  1.00  0.00     0.105 C 
ATOM     18  N   UNL     1      -0.547  -4.003  -1.558  1.00  0.00    -0.198 NA
BRANCH  18  19
ATOM     19  S   UNL     1       0.029  -4.599  -0.050  1.00  0.00     0.245 S 
ATOM     20  O   UNL     1       0.620  -3.502   0.688  1.00  0.00    -0.207 OA
ATOM     21  O   UNL     1      -1.070  -5.341   0.533  1.00  0.00    -0.207 OA
BRANCH  19  22
ATOM     22  C   UNL     1       1.311  -5.761  -0.423  1.00  0.00     0.118 A 
ATOM     23  C   UNL     1       1.094  -7.132  -0.245  1.00  0.00     0.025 A 
ATOM     24  C   UNL     1       2.577  -5.310  -0.785  1.00  0.00     0.143 A 
ATOM     25  C   UNL     1       2.136  -8.036  -0.479  1.00  0.00     0.002 A 
ATOM     26  C   UNL     1       3.605  -6.210  -1.054  1.00  0.00     0.041 A 
ATOM     27  F   UNL     1       2.849  -4.007  -0.924  1.00  0.00    -0.206 F 
ATOM     28  C   UNL     1       3.386  -7.576  -0.898  1.00  0.00     0.003 A 
ENDBRANCH  19  22
ENDBRANCH  18  19
ENDBRANCH   5   7
ENDBRANCH   4   5
ENDBRANCH   3   4
ENDBRANCH   2   3
ENDBRANCH   1   2
BRANCH   1  29
ATOM     29  C   UNL     1       1.578  -3.147  -6.190  1.00  0.00     0.202 C 
BRANCH  29  30
ATOM     30  C   UNL     1       2.619  -3.946  -5.401  1.00  0.00     0.261 C 
BRANCH  30  31
ATOM     31  O   UNL     1       3.373  -3.076  -4.541  1.00  0.00    -0.460 OA
BRANCH  31  32
ATOM     32  C   UNL     1       4.575  -3.578  -4.180  1.00  0.00     0.338 C 
ATOM     33  O   UNL     1       4.934  -4.741  -4.238  1.00  0.00    -0.246 OA
BRANCH  32  34
ATOM     34  C   UNL     1       5.484  -2.471  -3.835  1.00  0.00     0.060 A 
ATOM     35  C   UNL     1       6.283  -1.925  -4.847  1.00  0.00     0.016 A 
ATOM     36  C   UNL     1       5.654  -2.082  -2.507  1.00  0.00     0.016 A 
ATOM     37  C   UNL     1       7.303  -1.029  -4.519  1.00  0.00     0.010 A 
ATOM     38  C   UNL     1       6.671  -1.176  -2.182  1.00  0.00     0.010 A 
ATOM     39  C   UNL     1       7.532  -0.681  -3.179  1.00  0.00    -0.014 A 
BRANCH  39  40
ATOM     40  C   UNL     1       8.763   0.072  -2.819  1.00  0.00     0.031 A 
ATOM     41  C   UNL     1       9.949  -0.676  -2.268  1.00  0.00     0.074 A 
ATOM     42  C   UNL     1       8.849   1.398  -3.031  1.00  0.00     0.049 A 
ATOM     43  N   UNL     1      11.133  -0.228  -1.933  1.00  0.00    -0.248 NA
ATOM     44  C   UNL     1       9.777  -2.124  -2.071  1.00  0.00     0.031 C 
ATOM     45  C   UNL     1       7.787   2.234  -3.586  1.00  0.00     0.029 A 
ATOM     46  N   UNL     1       9.886   2.271  -2.810  1.00  0.00    -0.354 N 
ATOM     47  C   UNL     1      11.848  -1.336  -1.493  1.00  0.00     0.074 A 
ATOM     48  C   UNL     1      10.951  -2.470  -1.563  1.00  0.00     0.031 C 
ATOM     49  C   UNL     1       8.231   3.500  -3.674  1.00  0.00     0.029 A 
ATOM     50  C   UNL     1       9.598   3.568  -3.159  1.00  0.00     0.049 A 
ATOM     51  H   UNL     1      10.754   1.994  -2.437  1.00  0.00     0.167 HD
ATOM     52  C   UNL     1      13.137  -1.410  -1.083  1.00  0.00     0.037 A 
ATOM     53  C   UNL     1      10.350   4.683  -3.069  1.00  0.00     0.037 A 
ATOM     54  C   UNL     1      14.030  -0.283  -1.003  1.00  0.00     0.049 A 
ATOM     55  C   UNL     1      11.755   4.590  -2.535  1.00  0.00     0.074 A 
ATOM     56  C   UNL     1      15.356  -0.257  -0.607  1.00  0.00     0.029 A 
ATOM     57  N   UNL     1      13.682   1.022  -1.316  1.00  0.00    -0.354 N 
ATOM     58  N   UNL     1      12.428   3.531  -2.155  1.00  0.00    -0.248 NA
ATOM     59  C   UNL     1      12.505   5.849  -2.422  1.00  0.00     0.031 C 
ATOM     60  C   UNL     1      15.797   1.071  -0.636  1.00  0.00     0.029 A 
ATOM     61  C   UNL     1      14.760   1.865  -1.098  1.00  0.00     0.049 A 
ATOM     62  H   UNL     1      12.799   1.308  -1.644  1.00  0.00     0.167 HD
ATOM     63  C   UNL     1      13.688   3.991  -1.789  1.00  0.00     0.074 A 
ATOM     64  C   UNL     1      13.688   5.423  -2.001  1.00  0.00     0.031 C 
ATOM     65  C   UNL     1      14.749   3.289  -1.321  1.00  0.00     0.037 A 
BRANCH  52  66
ATOM     66  C   UNL     1      13.652  -2.759  -0.671  1.00  0.00     0.057 A 
ATOM     67  C   UNL     1      13.891  -3.776  -1.606  1.00  0.00     0.134 A 
ATOM     68  C   UNL     1      13.926  -3.042   0.673  1.00  0.00     0.134 A 
ATOM     69  F   UNL     1      13.637  -3.575  -2.908  1.00  0.00    -0.206 F 
ATOM     70  C   UNL     1      14.357  -5.033  -1.215  1.00  0.00     0.040 A 
ATOM     71  C   UNL     1      14.416  -4.286   1.073  1.00  0.00     0.040 A 
ATOM     72  F   UNL     1      13.726  -2.112   1.619  1.00  0.00    -0.206 F 
ATOM     73  C   UNL     1      14.625  -5.289   0.128  1.00  0.00     0.006 A 
ENDBRANCH  52  66
BRANCH  53  74
ATOM     74  C   UNL     1       9.796   5.990  -3.506  1.00  0.00     0.057 A 
ATOM     75  C   UNL     1      10.285   6.639  -4.645  1.00  0.00     0.134 A 
ATOM     76  C   UNL     1       8.778   6.628  -2.787  1.00  0.00     0.134 A 
ATOM     77  F   UNL     1      11.277   6.090  -5.361  1.00  0.00    -0.206 F 
ATOM     78  C   UNL     1       9.793   7.882  -5.047  1.00  0.00     0.040 A 
ATOM     79  C   UNL     1       8.259   7.859  -3.191  1.00  0.00     0.040 A 
ATOM     80  F   UNL     1       8.269   6.059  -1.685  1.00  0.00    -0.206 F 
ATOM     81  C   UNL     1       8.771   8.493  -4.321  1.00  0.00     0.006 A 
ENDBRANCH  53  74
BRANCH  65  82
ATOM     82  C   UNL     1      16.012   4.052  -1.042  1.00  0.00     0.057 A 
ATOM     83  C   UNL     1      16.132   4.909   0.059  1.00  0.00     0.134 A 
ATOM     84  C   UNL     1      17.134   3.898  -1.867  1.00  0.00     0.134 A 
ATOM     85  F   UNL     1      15.090   5.110   0.881  1.00  0.00    -0.206 F 
ATOM     86  C   UNL     1      17.316   5.603   0.318  1.00  0.00     0.040 A 
ATOM     87  C   UNL     1      18.331   4.567  -1.604  1.00  0.00     0.040 A 
ATOM     88  F   UNL     1      17.089   3.086  -2.934  1.00  0.00    -0.206 F 
ATOM     89  C   UNL     1      18.422   5.427  -0.512  1.00  0.00     0.006 A 
ENDBRANCH  65  82
ENDBRANCH  39  40
ENDBRANCH  32  34
ENDBRANCH  31  32
ENDBRANCH  30  31
ENDBRANCH  29  30
ENDBRANCH   1  29
TORSDOF 16
