REMARK SMILES CC[C@H]1CCCCN1S(=O)(=O)c1ccc2oc(C(=O)OCCOCCOC(=O)c3ccc(-c4c5nc(c(-c6c(F)cccc6F)c6ccc([nH]6)c(-c6c(F)cccc6F)c6nc(c(-c7c(F)cccc7F)c7ccc4[nH]7)C=C6)C=C5)cc3)c(C)c2c1
REMARK SMILES IDX 22 1 21 2 20 3 18 4 19 5 17 6 12 7 13 8 86 9 14 10 85 11
REMARK SMILES IDX 15 12 83 13 16 14 84 15 9 16 10 17 11 18 8 19 3 20 4 21 5 22
REMARK SMILES IDX 7 23 6 24 2 25 1 26 23 27 24 28 25 29 26 30 27 31 28 32
REMARK SMILES IDX 29 33 30 34 82 35 31 36 81 37 32 38 33 39 34 40 75 41 35 42
REMARK SMILES IDX 80 43 74 44 76 45 36 46 79 47 73 48 72 49 37 51 63 52 46 53
REMARK SMILES IDX 62 54 47 55 50 56 61 57 77 58 48 59 49 60 60 62 78 63 51 64
REMARK SMILES IDX 38 65 39 66 44 67 40 68 41 69 43 70 45 71 42 72 64 73 65 74
REMARK SMILES IDX 70 75 66 76 67 77 69 78 71 79 68 80 52 81 53 82 58 83 54 84
REMARK SMILES IDX 55 85 57 86 59 87 56 88
REMARK H PARENT 76 50 50 61
REMARK Flexibility Score: inf
ROOT
ATOM      1  C   UNL     1      -3.639  13.480   0.965  1.00  0.00     0.202 C 
ENDROOT
BRANCH   1   2
ATOM      2  C   UNL     1      -2.269  13.107   1.536  1.00  0.00     0.261 C 
BRANCH   2   3
ATOM      3  O   UNL     1      -1.985  11.727   1.256  1.00  0.00    -0.457 OA
BRANCH   3   4
ATOM      4  C   UNL     1      -2.013  10.888   2.328  1.00  0.00     0.374 C 
ATOM      5  O   UNL     1      -2.041  11.259   3.496  1.00  0.00    -0.242 OA
BRANCH   4   6
ATOM      6  C   UNL     1      -2.086   9.511   1.887  1.00  0.00     0.215 A 
ATOM      7  C   UNL     1      -1.948   5.061   0.915  1.00  0.00     0.083 A 
ATOM      8  C   UNL     1      -2.325   4.994   2.261  1.00  0.00     0.025 A 
ATOM      9  C   UNL     1      -1.940   6.278   0.212  1.00  0.00     0.034 A 
ATOM     10  C   UNL     1      -2.594   6.166   2.976  1.00  0.00     0.049 A 
ATOM     11  C   UNL     1      -2.075   7.462   0.951  1.00  0.00     0.025 A 
ATOM     12  C   UNL     1      -2.390   7.365   2.295  1.00  0.00     0.135 A 
ATOM     13  C   UNL     1      -1.902   8.855   0.669  1.00  0.00     0.010 A 
ATOM     14  O   UNL     1      -2.432   8.597   2.850  1.00  0.00    -0.449 OA
ATOM     15  C   UNL     1      -1.500   9.410  -0.652  1.00  0.00     0.049 C 
BRANCH   7  16
ATOM     16  S   UNL     1      -1.434   3.595   0.047  1.00  0.00     0.243 S 
ATOM     17  O   UNL     1      -1.912   3.723  -1.313  1.00  0.00    -0.207 OA
ATOM     18  O   UNL     1      -1.790   2.453   0.863  1.00  0.00    -0.207 OA
BRANCH  16  19
ATOM     19  N   UNL     1       0.294   3.710   0.026  1.00  0.00    -0.195 NA
ATOM     20  C   UNL     1       0.991   2.416  -0.343  1.00  0.00     0.073 C 
ATOM     21  C   UNL     1       2.499   2.579  -0.083  1.00  0.00     0.020 C 
ATOM     22  C   UNL     1       3.093   3.743  -0.865  1.00  0.00     0.003 C 
ATOM     23  C   UNL     1       0.856   4.897  -0.684  1.00  0.00     0.103 C 
ATOM     24  C   UNL     1       2.363   5.020  -0.492  1.00  0.00     0.017 C 
BRANCH  20  25
ATOM     25  C   UNL     1       0.646   1.962  -1.777  1.00  0.00     0.017 C 
ATOM     26  C   UNL     1       1.392   0.719  -2.240  1.00  0.00     0.005 C 
ENDBRANCH  20  25
ENDBRANCH  16  19
ENDBRANCH   7  16
ENDBRANCH   4   6
ENDBRANCH   3   4
ENDBRANCH   2   3
ENDBRANCH   1   2
BRANCH   1  27
ATOM     27  O   UNL     1      -4.747  12.892   1.646  1.00  0.00    -0.374 OA
BRANCH  27  28
ATOM     28  C   UNL     1      -5.144  11.586   1.224  1.00  0.00     0.202 C 
BRANCH  28  29
ATOM     29  C   UNL     1      -6.066  11.548   0.000  1.00  0.00     0.261 C 
BRANCH  29  30
ATOM     30  O   UNL     1      -5.346  11.881  -1.202  1.00  0.00    -0.460 OA
BRANCH  30  31
ATOM     31  C   UNL     1      -5.627  13.101  -1.720  1.00  0.00     0.338 C 
ATOM     32  O   UNL     1      -6.464  13.898  -1.332  1.00  0.00    -0.246 OA
BRANCH  31  33
ATOM     33  C   UNL     1      -4.630  13.435  -2.756  1.00  0.00     0.060 A 
ATOM     34  C   UNL     1      -4.010  14.689  -2.679  1.00  0.00     0.016 A 
ATOM     35  C   UNL     1      -4.345  12.566  -3.811  1.00  0.00     0.016 A 
ATOM     36  C   UNL     1      -3.130  15.097  -3.680  1.00  0.00     0.010 A 
ATOM     37  C   UNL     1      -3.470  12.980  -4.819  1.00  0.00     0.010 A 
ATOM     38  C   UNL     1      -2.883  14.258  -4.774  1.00  0.00    -0.014 A 
BRANCH  38  39
ATOM     39  C   UNL     1      -2.122  14.762  -5.941  1.00  0.00     0.031 A 
ATOM     40  C   UNL     1      -2.876  15.232  -7.153  1.00  0.00     0.074 A 
ATOM     41  C   UNL     1      -0.778  14.797  -5.926  1.00  0.00     0.049 A 
ATOM     42  N   UNL     1      -2.421  15.617  -8.317  1.00  0.00    -0.248 NA
ATOM     43  C   UNL     1      -4.343  15.268  -7.037  1.00  0.00     0.031 C 
ATOM     44  C   UNL     1       0.065  14.412  -4.795  1.00  0.00     0.029 A 
ATOM     45  N   UNL     1       0.113  15.162  -6.904  1.00  0.00    -0.354 N 
ATOM     46  C   UNL     1      -3.542  15.930  -9.075  1.00  0.00     0.074 A 
ATOM     47  C   UNL     1      -4.700  15.668  -8.248  1.00  0.00     0.031 C 
ATOM     48  C   UNL     1       1.355  14.543  -5.151  1.00  0.00     0.029 A 
ATOM     49  C   UNL     1       1.426  14.984  -6.543  1.00  0.00     0.049 A 
ATOM     50  H   UNL     1      -0.163  15.516  -7.780  1.00  0.00     0.167 HD
ATOM     51  C   UNL     1      -3.600  16.398 -10.344  1.00  0.00     0.037 A 
ATOM     52  C   UNL     1       2.553  15.133  -7.265  1.00  0.00     0.037 A 
ATOM     53  C   UNL     1      -2.447  16.660 -11.164  1.00  0.00     0.049 A 
ATOM     54  C   UNL     1       2.460  15.582  -8.700  1.00  0.00     0.074 A 
ATOM     55  C   UNL     1      -2.402  17.152 -12.457  1.00  0.00     0.029 A 
ATOM     56  N   UNL     1      -1.135  16.447 -10.771  1.00  0.00    -0.354 N 
ATOM     57  N   UNL     1       1.397  15.888  -9.403  1.00  0.00    -0.248 NA
ATOM     58  C   UNL     1       3.724  15.701  -9.442  1.00  0.00     0.031 C 
ATOM     59  C   UNL     1      -1.064  17.195 -12.862  1.00  0.00     0.029 A 
ATOM     60  C   UNL     1      -0.274  16.774 -11.804  1.00  0.00     0.049 A 
ATOM     61  H   UNL     1      -0.857  16.112  -9.887  1.00  0.00     0.167 HD
ATOM     62  C   UNL     1       1.864  16.265 -10.657  1.00  0.00     0.074 A 
ATOM     63  C   UNL     1       3.307  16.154 -10.617  1.00  0.00     0.031 C 
ATOM     64  C   UNL     1       1.162  16.670 -11.743  1.00  0.00     0.037 A 
BRANCH  51  65
ATOM     65  C   UNL     1      -4.959  16.632 -10.933  1.00  0.00     0.057 A 
ATOM     66  C   UNL     1      -5.763  17.707 -10.534  1.00  0.00     0.134 A 
ATOM     67  C   UNL     1      -5.456  15.789 -11.935  1.00  0.00     0.134 A 
ATOM     68  F   UNL     1      -5.350  18.543  -9.569  1.00  0.00    -0.206 F 
ATOM     69  C   UNL     1      -7.021  17.925 -11.097  1.00  0.00     0.040 A 
ATOM     70  C   UNL     1      -6.703  16.009 -12.522  1.00  0.00     0.040 A 
ATOM     71  F   UNL     1      -4.735  14.742 -12.364  1.00  0.00    -0.206 F 
ATOM     72  C   UNL     1      -7.491  17.077 -12.099  1.00  0.00     0.006 A 
ENDBRANCH  51  65
BRANCH  52  73
ATOM     73  C   UNL     1       3.872  14.835  -6.654  1.00  0.00     0.057 A 
ATOM     74  C   UNL     1       4.791  15.855  -6.382  1.00  0.00     0.134 A 
ATOM     75  C   UNL     1       4.254  13.523  -6.348  1.00  0.00     0.134 A 
ATOM     76  F   UNL     1       4.492  17.129  -6.676  1.00  0.00    -0.206 F 
ATOM     77  C   UNL     1       6.049  15.580  -5.843  1.00  0.00     0.040 A 
ATOM     78  C   UNL     1       5.499  13.236  -5.787  1.00  0.00     0.040 A 
ATOM     79  F   UNL     1       3.418  12.502  -6.584  1.00  0.00    -0.206 F 
ATOM     80  C   UNL     1       6.404  14.267  -5.539  1.00  0.00     0.006 A 
ENDBRANCH  52  73
BRANCH  64  81
ATOM     81  C   UNL     1       1.940  17.064 -12.963  1.00  0.00     0.057 A 
ATOM     82  C   UNL     1       2.551  16.113 -13.790  1.00  0.00     0.134 A 
ATOM     83  C   UNL     1       2.029  18.409 -13.346  1.00  0.00     0.134 A 
ATOM     84  F   UNL     1       2.512  14.810 -13.472  1.00  0.00    -0.206 F 
ATOM     85  C   UNL     1       3.236  16.488 -14.947  1.00  0.00     0.040 A 
ATOM     86  C   UNL     1       2.691  18.793 -14.512  1.00  0.00     0.040 A 
ATOM     87  F   UNL     1       1.458  19.368 -12.602  1.00  0.00    -0.206 F 
ATOM     88  C   UNL     1       3.300  17.831 -15.315  1.00  0.00     0.006 A 
ENDBRANCH  64  81
ENDBRANCH  38  39
ENDBRANCH  31  33
ENDBRANCH  30  31
ENDBRANCH  29  30
ENDBRANCH  28  29
ENDBRANCH  27  28
ENDBRANCH   1  27
TORSDOF 17
