REMARK SMILES O=C(OCCOCCOC(=O)c1ccnc(-c2ccnc(COc3ccccc3)n2)c1)c1ccc(-c2c3nc(c(-c4c(F)cccc4F)c4ccc([nH]4)c(-c4c(F)cccc4F)c4nc(c(-c5c(F)cccc5F)c5ccc2[nH]5)C=C4)C=C3)cc1
REMARK SMILES IDX 7 1 6 2 5 3 4 4 3 5 2 6 1 7 32 8 33 9 85 10 34 11 84 12
REMARK SMILES IDX 35 13 36 14 37 15 78 16 38 17 83 18 77 19 79 20 39 21 82 22
REMARK SMILES IDX 76 23 75 24 40 26 66 27 49 28 65 29 50 30 53 31 64 32 80 33
REMARK SMILES IDX 51 34 52 35 63 37 81 38 54 39 41 40 42 41 47 42 43 43 44 44
REMARK SMILES IDX 46 45 48 46 45 47 67 48 68 49 73 50 69 51 70 52 72 53 74 54
REMARK SMILES IDX 71 55 55 56 56 57 61 58 57 59 58 60 60 61 62 62 59 63 8 64
REMARK SMILES IDX 9 65 10 66 11 67 12 68 13 69 31 70 14 71 16 72 15 73 17 74
REMARK SMILES IDX 18 75 30 76 19 77 21 78 20 79 22 80 23 81 24 82 25 83 29 84
REMARK SMILES IDX 26 85 28 86 27 87
REMARK H PARENT 79 25 53 36
REMARK Flexibility Score: inf
ROOT
ATOM      1  C   UNL     1       2.717   1.052  -2.121  1.00  0.00     0.202 C 
ENDROOT
BRANCH   1   2
ATOM      2  O   UNL     1       4.041   0.664  -1.732  1.00  0.00    -0.374 OA
BRANCH   2   3
ATOM      3  C   UNL     1       4.271  -0.744  -1.662  1.00  0.00     0.202 C 
BRANCH   3   4
ATOM      4  C   UNL     1       3.949  -1.367  -0.300  1.00  0.00     0.261 C 
BRANCH   4   5
ATOM      5  O   UNL     1       2.573  -1.138   0.048  1.00  0.00    -0.460 OA
BRANCH   5   6
ATOM      6  C   UNL     1       2.045  -0.196   0.863  1.00  0.00     0.338 C 
ATOM      7  O   UNL     1       0.825  -0.179   1.021  1.00  0.00    -0.246 OA
BRANCH   6   8
ATOM      8  C   UNL     1       2.855   0.818   1.609  1.00  0.00     0.060 A 
ATOM      9  C   UNL     1       4.117   1.277   1.232  1.00  0.00     0.016 A 
ATOM     10  C   UNL     1       2.259   1.399   2.744  1.00  0.00     0.016 A 
ATOM     11  C   UNL     1       4.809   2.206   1.992  1.00  0.00     0.010 A 
ATOM     12  C   UNL     1       2.930   2.371   3.494  1.00  0.00     0.010 A 
ATOM     13  C   UNL     1       4.226   2.749   3.134  1.00  0.00    -0.014 A 
BRANCH  13  14
ATOM     14  C   UNL     1       5.078   3.596   3.985  1.00  0.00     0.031 A 
ATOM     15  C   UNL     1       5.680   2.984   5.213  1.00  0.00     0.074 A 
ATOM     16  C   UNL     1       5.441   4.816   3.552  1.00  0.00     0.049 A 
ATOM     17  N   UNL     1       6.519   3.499   6.070  1.00  0.00    -0.248 NA
ATOM     18  C   UNL     1       5.301   1.590   5.503  1.00  0.00     0.031 C 
ATOM     19  C   UNL     1       4.994   5.432   2.300  1.00  0.00     0.029 A 
ATOM     20  N   UNL     1       6.307   5.732   4.084  1.00  0.00    -0.354 N 
ATOM     21  C   UNL     1       6.752   2.503   7.008  1.00  0.00     0.074 A 
ATOM     22  C   UNL     1       5.963   1.356   6.624  1.00  0.00     0.031 C 
ATOM     23  C   UNL     1       5.620   6.609   2.143  1.00  0.00     0.029 A 
ATOM     24  C   UNL     1       6.466   6.853   3.306  1.00  0.00     0.049 A 
ATOM     25  H   UNL     1       6.772   5.601   4.942  1.00  0.00     0.167 HD
ATOM     26  C   UNL     1       7.553   2.552   8.097  1.00  0.00     0.037 A 
ATOM     27  C   UNL     1       7.206   7.955   3.527  1.00  0.00     0.037 A 
ATOM     28  C   UNL     1       8.326   3.709   8.456  1.00  0.00     0.049 A 
ATOM     29  C   UNL     1       8.022   8.015   4.790  1.00  0.00     0.074 A 
ATOM     30  C   UNL     1       9.120   3.911   9.568  1.00  0.00     0.029 A 
ATOM     31  N   UNL     1       8.397   4.867   7.692  1.00  0.00    -0.354 N 
ATOM     32  N   UNL     1       8.189   7.093   5.710  1.00  0.00    -0.248 NA
ATOM     33  C   UNL     1       8.741   9.266   5.052  1.00  0.00     0.031 C 
ATOM     34  C   UNL     1       9.639   5.210   9.498  1.00  0.00     0.029 A 
ATOM     35  C   UNL     1       9.209   5.796   8.316  1.00  0.00     0.049 A 
ATOM     36  H   UNL     1       7.936   5.006   6.833  1.00  0.00     0.167 HD
ATOM     37  C   UNL     1       9.050   7.643   6.649  1.00  0.00     0.074 A 
ATOM     38  C   UNL     1       9.383   8.973   6.175  1.00  0.00     0.031 C 
ATOM     39  C   UNL     1       9.523   7.105   7.800  1.00  0.00     0.037 A 
BRANCH  26  40
ATOM     40  C   UNL     1       7.551   1.350   8.994  1.00  0.00     0.057 A 
ATOM     41  C   UNL     1       8.159   0.141   8.630  1.00  0.00     0.134 A 
ATOM     42  C   UNL     1       6.880   1.391  10.223  1.00  0.00     0.134 A 
ATOM     43  F   UNL     1       8.789   0.025   7.451  1.00  0.00    -0.206 F 
ATOM     44  C   UNL     1       8.073  -0.992   9.442  1.00  0.00     0.040 A 
ATOM     45  C   UNL     1       6.807   0.271  11.053  1.00  0.00     0.040 A 
ATOM     46  F   UNL     1       6.269   2.514  10.628  1.00  0.00    -0.206 F 
ATOM     47  C   UNL     1       7.397  -0.928  10.659  1.00  0.00     0.006 A 
ENDBRANCH  26  40
BRANCH  27  48
ATOM     48  C   UNL     1       7.187   9.085   2.562  1.00  0.00     0.057 A 
ATOM     49  C   UNL     1       8.332   9.459   1.849  1.00  0.00     0.134 A 
ATOM     50  C   UNL     1       6.023   9.833   2.341  1.00  0.00     0.134 A 
ATOM     51  F   UNL     1       9.485   8.797   2.027  1.00  0.00    -0.206 F 
ATOM     52  C   UNL     1       8.326  10.543   0.968  1.00  0.00     0.040 A 
ATOM     53  C   UNL     1       5.995  10.902   1.443  1.00  0.00     0.040 A 
ATOM     54  F   UNL     1       4.889   9.530   2.990  1.00  0.00    -0.206 F 
ATOM     55  C   UNL     1       7.152  11.265   0.759  1.00  0.00     0.006 A 
ENDBRANCH  27  48
BRANCH  39  56
ATOM     56  C   UNL     1      10.480   7.944   8.592  1.00  0.00     0.057 A 
ATOM     57  C   UNL     1      10.055   9.058   9.326  1.00  0.00     0.134 A 
ATOM     58  C   UNL     1      11.837   7.605   8.648  1.00  0.00     0.134 A 
ATOM     59  F   UNL     1       8.769   9.439   9.300  1.00  0.00    -0.206 F 
ATOM     60  C   UNL     1      10.954   9.822  10.070  1.00  0.00     0.040 A 
ATOM     61  C   UNL     1      12.740   8.345   9.410  1.00  0.00     0.040 A 
ATOM     62  F   UNL     1      12.303   6.542   7.975  1.00  0.00    -0.206 F 
ATOM     63  C   UNL     1      12.299   9.461  10.118  1.00  0.00     0.006 A 
ENDBRANCH  39  56
ENDBRANCH  13  14
ENDBRANCH   6   8
ENDBRANCH   5   6
ENDBRANCH   4   5
ENDBRANCH   3   4
ENDBRANCH   2   3
ENDBRANCH   1   2
BRANCH   1  64
ATOM     64  C   UNL     1       2.769   1.876  -3.410  1.00  0.00     0.261 C 
BRANCH  64  65
ATOM     65  O   UNL     1       3.294   1.052  -4.462  1.00  0.00    -0.460 OA
BRANCH  65  66
ATOM     66  C   UNL     1       4.643   1.095  -4.608  1.00  0.00     0.338 C 
ATOM     67  O   UNL     1       5.410   1.943  -4.189  1.00  0.00    -0.246 OA
BRANCH  66  68
ATOM     68  C   UNL     1       5.069  -0.214  -5.142  1.00  0.00     0.063 A 
ATOM     69  C   UNL     1       4.287  -0.913  -6.058  1.00  0.00     0.036 A 
ATOM     70  C   UNL     1       6.217  -0.793  -4.602  1.00  0.00     0.046 A 
ATOM     71  C   UNL     1       4.664  -2.203  -6.361  1.00  0.00     0.112 A 
ATOM     72  C   UNL     1       6.502  -2.105  -4.942  1.00  0.00     0.090 A 
ATOM     73  N   UNL     1       5.723  -2.820  -5.798  1.00  0.00    -0.255 NA
BRANCH  72  74
ATOM     74  C   UNL     1       7.634  -2.828  -4.364  1.00  0.00     0.092 A 
ATOM     75  C   UNL     1       7.498  -3.606  -3.230  1.00  0.00     0.051 A 
ATOM     76  N   UNL     1       8.781  -2.768  -5.069  1.00  0.00    -0.228 NA
ATOM     77  C   UNL     1       8.607  -4.327  -2.858  1.00  0.00     0.115 A 
ATOM     78  C   UNL     1       9.781  -3.580  -4.681  1.00  0.00     0.166 A 
ATOM     79  N   UNL     1       9.751  -4.338  -3.563  1.00  0.00    -0.238 NA
BRANCH  78  80
ATOM     80  C   UNL     1      10.907  -3.822  -5.663  1.00  0.00     0.306 C 
BRANCH  80  81
ATOM     81  O   UNL     1      10.476  -4.014  -7.026  1.00  0.00    -0.486 OA
BRANCH  81  82
ATOM     82  C   UNL     1       9.998  -5.262  -7.326  1.00  0.00     0.119 A 
ATOM     83  C   UNL     1      10.533  -5.875  -8.458  1.00  0.00     0.046 A 
ATOM     84  C   UNL     1       8.946  -5.880  -6.649  1.00  0.00     0.046 A 
ATOM     85  C   UNL     1      10.052  -7.117  -8.880  1.00  0.00     0.004 A 
ATOM     86  C   UNL     1       8.468  -7.124  -7.066  1.00  0.00     0.004 A 
ATOM     87  C   UNL     1       9.024  -7.745  -8.180  1.00  0.00     0.000 A 
ENDBRANCH  81  82
ENDBRANCH  80  81
ENDBRANCH  78  80
ENDBRANCH  72  74
ENDBRANCH  66  68
ENDBRANCH  65  66
ENDBRANCH  64  65
ENDBRANCH   1  64
TORSDOF 18
