REMARK SMILES O=C(Cc1ccn(-c2ccccc2F)c1)OCCOCCOC(=O)c1ccc(-c2c3nc(c(-c4c(F)cccc4F)c4ccc([nH]4)c(-c4c(F)cccc4F)c4nc(c(-c5c(F)cccc5F)c5ccc2[nH]5)C=C4)C=C3)cc1
REMARK SMILES IDX 19 1 18 2 17 3 16 4 2 5 1 6 3 7 4 8 5 9 15 10 6 11 7 12 8 13
REMARK SMILES IDX 9 14 13 15 10 16 12 17 14 18 11 19 20 20 21 21 22 22 23 23
REMARK SMILES IDX 24 24 25 25 26 26 78 27 27 28 77 29 28 30 29 31 30 32 71 33
REMARK SMILES IDX 31 34 76 35 70 36 72 37 32 38 75 39 69 40 68 41 33 43 59 44
REMARK SMILES IDX 42 45 58 46 43 47 46 48 57 49 73 50 44 51 45 52 56 54 74 55
REMARK SMILES IDX 47 56 34 57 35 58 40 59 36 60 37 61 39 62 41 63 38 64 60 65
REMARK SMILES IDX 61 66 66 67 62 68 63 69 65 70 67 71 64 72 48 73 49 74 54 75
REMARK SMILES IDX 50 76 51 77 53 78 55 79 52 80
REMARK H PARENT 72 42 46 53
REMARK Flexibility Score: inf
ROOT
ATOM      1  O   UNL     1       4.274  -1.634   0.132  1.00  0.00    -0.374 OA
ENDROOT
BRANCH   1   2
ATOM      2  C   UNL     1       4.761  -0.390   0.633  1.00  0.00     0.202 C 
BRANCH   2   3
ATOM      3  C   UNL     1       4.339   0.821  -0.177  1.00  0.00     0.261 C 
BRANCH   3   4
ATOM      4  O   UNL     1       2.918   1.061  -0.122  1.00  0.00    -0.463 OA
BRANCH   4   5
ATOM      5  C   UNL     1       1.984   0.676  -1.021  1.00  0.00     0.310 C 
ATOM      6  O   UNL     1       0.812   1.015  -0.836  1.00  0.00    -0.252 OA
BRANCH   5   7
ATOM      7  C   UNL     1       2.329  -0.255  -2.160  1.00  0.00     0.159 C 
BRANCH   7   8
ATOM      8  C   UNL     1       3.423   0.179  -3.068  1.00  0.00    -0.019 A 
ATOM      9  C   UNL     1       3.810   1.500  -3.409  1.00  0.00     0.024 A 
ATOM     10  C   UNL     1       4.313  -0.667  -3.705  1.00  0.00     0.095 A 
ATOM     11  C   UNL     1       4.988   1.411  -4.117  1.00  0.00     0.091 A 
ATOM     12  N   UNL     1       5.261   0.081  -4.367  1.00  0.00    -0.321 N 
BRANCH  12  13
ATOM     13  C   UNL     1       6.317  -0.415  -5.165  1.00  0.00     0.081 A 
ATOM     14  C   UNL     1       7.516   0.303  -5.270  1.00  0.00     0.030 A 
ATOM     15  C   UNL     1       6.154  -1.594  -5.898  1.00  0.00     0.147 A 
ATOM     16  C   UNL     1       8.529  -0.156  -6.115  1.00  0.00     0.002 A 
ATOM     17  C   UNL     1       7.152  -2.031  -6.765  1.00  0.00     0.041 A 
ATOM     18  F   UNL     1       5.010  -2.292  -5.863  1.00  0.00    -0.205 F 
ATOM     19  C   UNL     1       8.341  -1.311  -6.875  1.00  0.00     0.003 A 
ENDBRANCH  12  13
ENDBRANCH   7   8
ENDBRANCH   5   7
ENDBRANCH   4   5
ENDBRANCH   3   4
ENDBRANCH   2   3
ENDBRANCH   1   2
BRANCH   1  20
ATOM     20  C   UNL     1       3.023  -2.088   0.652  1.00  0.00     0.202 C 
BRANCH  20  21
ATOM     21  C   UNL     1       3.084  -2.757   2.013  1.00  0.00     0.261 C 
BRANCH  21  22
ATOM     22  O   UNL     1       3.263  -1.788   3.037  1.00  0.00    -0.460 OA
BRANCH  22  23
ATOM     23  C   UNL     1       4.526  -1.650   3.476  1.00  0.00     0.338 C 
ATOM     24  O   UNL     1       5.551  -2.101   2.970  1.00  0.00    -0.246 OA
BRANCH  23  25
ATOM     25  C   UNL     1       4.498  -0.964   4.764  1.00  0.00     0.060 A 
ATOM     26  C   UNL     1       5.735  -0.711   5.362  1.00  0.00     0.016 A 
ATOM     27  C   UNL     1       3.289  -0.878   5.469  1.00  0.00     0.016 A 
ATOM     28  C   UNL     1       5.781  -0.574   6.729  1.00  0.00     0.010 A 
ATOM     29  C   UNL     1       3.337  -0.792   6.838  1.00  0.00     0.010 A 
ATOM     30  C   UNL     1       4.590  -0.699   7.451  1.00  0.00    -0.014 A 
BRANCH  30  31
ATOM     31  C   UNL     1       4.671  -0.695   8.908  1.00  0.00     0.031 A 
ATOM     32  C   UNL     1       4.603   0.711   9.457  1.00  0.00     0.074 A 
ATOM     33  C   UNL     1       4.833  -1.919   9.486  1.00  0.00     0.049 A 
ATOM     34  N   UNL     1       5.112   1.188  10.546  1.00  0.00    -0.248 NA
ATOM     35  C   UNL     1       3.956   1.771   8.634  1.00  0.00     0.031 C 
ATOM     36  C   UNL     1       4.886  -3.185   8.729  1.00  0.00     0.029 A 
ATOM     37  N   UNL     1       4.993  -2.360  10.781  1.00  0.00    -0.354 N 
ATOM     38  C   UNL     1       4.667   2.513  10.643  1.00  0.00     0.074 A 
ATOM     39  C   UNL     1       4.102   2.864   9.377  1.00  0.00     0.031 C 
ATOM     40  C   UNL     1       5.138  -4.220   9.551  1.00  0.00     0.029 A 
ATOM     41  C   UNL     1       5.246  -3.748  10.917  1.00  0.00     0.049 A 
ATOM     42  H   UNL     1       4.936  -1.755  11.556  1.00  0.00     0.167 HD
ATOM     43  C   UNL     1       4.622   3.191  11.819  1.00  0.00     0.037 A 
ATOM     44  C   UNL     1       5.560  -4.461  12.042  1.00  0.00     0.037 A 
ATOM     45  C   UNL     1       5.168   2.411  12.880  1.00  0.00     0.049 A 
ATOM     46  C   UNL     1       5.453  -3.507  13.165  1.00  0.00     0.074 A 
ATOM     47  C   UNL     1       6.444   2.015  13.188  1.00  0.00     0.029 A 
ATOM     48  N   UNL     1       4.284   1.643  13.598  1.00  0.00    -0.354 N 
ATOM     49  N   UNL     1       4.339  -3.015  13.625  1.00  0.00    -0.248 NA
ATOM     50  C   UNL     1       6.685  -2.967  13.754  1.00  0.00     0.031 C 
ATOM     51  C   UNL     1       6.286   0.757  13.814  1.00  0.00     0.029 A 
ATOM     52  C   UNL     1       4.922   0.475  13.944  1.00  0.00     0.049 A 
ATOM     53  H   UNL     1       3.357   1.886  13.824  1.00  0.00     0.167 HD
ATOM     54  C   UNL     1       4.758  -1.891  14.302  1.00  0.00     0.074 A 
ATOM     55  C   UNL     1       6.159  -2.082  14.595  1.00  0.00     0.031 C 
ATOM     56  C   UNL     1       4.111  -0.712  14.123  1.00  0.00     0.037 A 
BRANCH  43  57
ATOM     57  C   UNL     1       3.869   4.438  12.153  1.00  0.00     0.057 A 
ATOM     58  C   UNL     1       2.598   4.741  11.647  1.00  0.00     0.134 A 
ATOM     59  C   UNL     1       4.297   5.201  13.256  1.00  0.00     0.134 A 
ATOM     60  F   UNL     1       2.059   4.045  10.636  1.00  0.00    -0.206 F 
ATOM     61  C   UNL     1       1.784   5.716  12.231  1.00  0.00     0.040 A 
ATOM     62  C   UNL     1       3.474   6.141  13.876  1.00  0.00     0.040 A 
ATOM     63  F   UNL     1       5.506   5.000  13.805  1.00  0.00    -0.206 F 
ATOM     64  C   UNL     1       2.206   6.393  13.370  1.00  0.00     0.006 A 
ENDBRANCH  43  57
BRANCH  44  65
ATOM     65  C   UNL     1       6.061  -5.857  12.352  1.00  0.00     0.057 A 
ATOM     66  C   UNL     1       6.540  -6.172  13.652  1.00  0.00     0.134 A 
ATOM     67  C   UNL     1       6.180  -6.919  11.448  1.00  0.00     0.134 A 
ATOM     68  F   UNL     1       6.382  -5.334  14.686  1.00  0.00    -0.206 F 
ATOM     69  C   UNL     1       7.212  -7.357  13.977  1.00  0.00     0.040 A 
ATOM     70  C   UNL     1       6.830  -8.129  11.766  1.00  0.00     0.040 A 
ATOM     71  F   UNL     1       5.657  -6.869  10.221  1.00  0.00    -0.206 F 
ATOM     72  C   UNL     1       7.380  -8.338  13.022  1.00  0.00     0.006 A 
ENDBRANCH  44  65
BRANCH  56  73
ATOM     73  C   UNL     1       2.668  -0.864  13.694  1.00  0.00     0.057 A 
ATOM     74  C   UNL     1       2.215  -0.601  12.394  1.00  0.00     0.134 A 
ATOM     75  C   UNL     1       1.720  -1.402  14.571  1.00  0.00     0.134 A 
ATOM     76  F   UNL     1       3.039  -0.095  11.479  1.00  0.00    -0.206 F 
ATOM     77  C   UNL     1       0.904  -0.853  11.976  1.00  0.00     0.040 A 
ATOM     78  C   UNL     1       0.404  -1.669  14.170  1.00  0.00     0.040 A 
ATOM     79  F   UNL     1       2.058  -1.681  15.839  1.00  0.00    -0.206 F 
ATOM     80  C   UNL     1      -0.008  -1.399  12.867  1.00  0.00     0.006 A 
ENDBRANCH  56  73
ENDBRANCH  30  31
ENDBRANCH  23  25
ENDBRANCH  22  23
ENDBRANCH  21  22
ENDBRANCH  20  21
ENDBRANCH   1  20
TORSDOF 16
