REMARK SMILES CC(C)Cc1cc2c(cc1Cl)C=C(C(=O)OCCOCCOC(=O)c1ccc(-c3c4nc(c(-c5c(F)cccc5F)c5ccc([nH]5)c(-c5c(F)cccc5F)c5nc(c(-c6c(F)cccc6F)c6ccc3[nH]6)C=C5)C=C4)cc1)[C@@H](C(F)(F)F)O2
REMARK SMILES IDX 19 1 18 2 17 3 16 4 14 5 15 6 13 7 5 8 6 9 10 10 7 11 9 12
REMARK SMILES IDX 11 13 8 14 84 15 12 16 79 17 4 18 2 19 1 20 3 21 80 22 81 23
REMARK SMILES IDX 82 24 83 25 20 26 21 27 22 28 23 29 24 30 25 31 26 32 78 33
REMARK SMILES IDX 27 34 77 35 28 36 29 37 30 38 71 39 31 40 76 41 70 42 72 43
REMARK SMILES IDX 32 44 75 45 69 46 68 47 33 49 59 50 42 51 58 52 43 53 46 54
REMARK SMILES IDX 57 55 73 56 44 57 45 58 56 60 74 61 47 62 34 63 35 64 40 65
REMARK SMILES IDX 36 66 37 67 39 68 41 69 38 70 60 71 61 72 66 73 62 74 63 75
REMARK SMILES IDX 65 76 67 77 64 78 48 79 49 80 54 81 50 82 51 83 53 84 55 85
REMARK SMILES IDX 52 86
REMARK H PARENT 72 48 46 59
REMARK Flexibility Score: inf
ROOT
ATOM      1  O   UNL     1      -2.451   4.672   8.071  1.00  0.00    -0.374 OA
ENDROOT
BRANCH   1   2
ATOM      2  C   UNL     1      -3.467   3.883   8.683  1.00  0.00     0.202 C 
BRANCH   2   3
ATOM      3  C   UNL     1      -4.644   3.436   7.811  1.00  0.00     0.261 C 
BRANCH   3   4
ATOM      4  O   UNL     1      -4.211   2.677   6.671  1.00  0.00    -0.460 OA
BRANCH   4   5
ATOM      5  C   UNL     1      -4.397   3.303   5.485  1.00  0.00     0.338 C 
ATOM      6  O   UNL     1      -4.975   4.361   5.299  1.00  0.00    -0.246 OA
BRANCH   5   7
ATOM      7  C   UNL     1      -3.677   2.583   4.418  1.00  0.00     0.087 C 
ATOM      8  C   UNL     1      -1.457   1.495   0.053  1.00  0.00    -0.025 A 
ATOM      9  C   UNL     1      -1.984   0.726   1.109  1.00  0.00     0.052 A 
ATOM     10  C   UNL     1      -1.411   2.891   0.199  1.00  0.00     0.045 A 
ATOM     11  C   UNL     1      -2.478   1.334   2.263  1.00  0.00     0.128 A 
ATOM     12  C   UNL     1      -1.891   3.497   1.361  1.00  0.00     0.032 A 
ATOM     13  Cl  UNL     1      -0.807   3.930  -1.042  1.00  0.00    -0.084 Cl
ATOM     14  C   UNL     1      -2.443   2.721   2.383  1.00  0.00     0.019 A 
ATOM     15  O   UNL     1      -2.973   0.504   3.228  1.00  0.00    -0.475 OA
ATOM     16  C   UNL     1      -3.042   3.362   3.535  1.00  0.00     0.027 C 
ATOM     17  C   UNL     1      -3.717   1.082   4.340  1.00  0.00     0.316 C 
BRANCH   8  18
ATOM     18  C   UNL     1      -0.955   0.789  -1.186  1.00  0.00     0.040 C 
BRANCH  18  19
ATOM     19  C   UNL     1       0.581   0.693  -1.268  1.00  0.00    -0.013 C 
ATOM     20  C   UNL     1       1.165  -0.163  -0.141  1.00  0.00     0.008 C 
ATOM     21  C   UNL     1       0.991   0.119  -2.625  1.00  0.00     0.008 C 
ENDBRANCH  18  19
ENDBRANCH   8  18
BRANCH  17  22
ATOM     22  C   UNL     1      -5.152   0.536   4.306  1.00  0.00     0.430 C 
ATOM     23  F   UNL     1      -5.162  -0.813   4.182  1.00  0.00    -0.167 F 
ATOM     24  F   UNL     1      -5.825   0.823   5.445  1.00  0.00    -0.167 F 
ATOM     25  F   UNL     1      -5.864   1.045   3.275  1.00  0.00    -0.167 F 
ENDBRANCH  17  22
ENDBRANCH   5   7
ENDBRANCH   4   5
ENDBRANCH   3   4
ENDBRANCH   2   3
ENDBRANCH   1   2
BRANCH   1  26
ATOM     26  C   UNL     1      -1.526   4.035   7.192  1.00  0.00     0.202 C 
BRANCH  26  27
ATOM     27  C   UNL     1      -0.457   3.117   7.800  1.00  0.00     0.261 C 
BRANCH  27  28
ATOM     28  O   UNL     1      -1.009   1.977   8.477  1.00  0.00    -0.460 OA
BRANCH  28  29
ATOM     29  C   UNL     1      -0.941   2.034   9.830  1.00  0.00     0.338 C 
ATOM     30  O   UNL     1      -0.458   2.927  10.511  1.00  0.00    -0.246 OA
BRANCH  29  31
ATOM     31  C   UNL     1      -1.713   0.919  10.409  1.00  0.00     0.060 A 
ATOM     32  C   UNL     1      -1.510  -0.395   9.988  1.00  0.00     0.016 A 
ATOM     33  C   UNL     1      -2.634   1.207  11.425  1.00  0.00     0.016 A 
ATOM     34  C   UNL     1      -2.215  -1.427  10.610  1.00  0.00     0.010 A 
ATOM     35  C   UNL     1      -3.330   0.172  12.052  1.00  0.00     0.010 A 
ATOM     36  C   UNL     1      -3.112  -1.155  11.660  1.00  0.00    -0.014 A 
BRANCH  36  37
ATOM     37  C   UNL     1      -3.734  -2.282  12.399  1.00  0.00     0.031 A 
ATOM     38  C   UNL     1      -5.187  -2.614  12.245  1.00  0.00     0.074 A 
ATOM     39  C   UNL     1      -2.955  -3.026  13.208  1.00  0.00     0.049 A 
ATOM     40  N   UNL     1      -5.848  -3.648  12.702  1.00  0.00    -0.248 NA
ATOM     41  C   UNL     1      -6.008  -1.661  11.486  1.00  0.00     0.031 C 
ATOM     42  C   UNL     1      -1.540  -2.771  13.481  1.00  0.00     0.029 A 
ATOM     43  N   UNL     1      -3.236  -4.159  13.929  1.00  0.00    -0.354 N 
ATOM     44  C   UNL     1      -7.155  -3.488  12.264  1.00  0.00     0.074 A 
ATOM     45  C   UNL     1      -7.208  -2.222  11.560  1.00  0.00     0.031 C 
ATOM     46  C   UNL     1      -1.063  -3.747  14.270  1.00  0.00     0.029 A 
ATOM     47  C   UNL     1      -2.143  -4.678  14.579  1.00  0.00     0.049 A 
ATOM     48  H   UNL     1      -4.133  -4.560  13.976  1.00  0.00     0.167 HD
ATOM     49  C   UNL     1      -8.208  -4.330  12.413  1.00  0.00     0.037 A 
ATOM     50  C   UNL     1      -2.022  -5.790  15.328  1.00  0.00     0.037 A 
ATOM     51  C   UNL     1      -8.160  -5.571  13.146  1.00  0.00     0.049 A 
ATOM     52  C   UNL     1      -3.221  -6.678  15.520  1.00  0.00     0.074 A 
ATOM     53  C   UNL     1      -9.167  -6.501  13.338  1.00  0.00     0.029 A 
ATOM     54  N   UNL     1      -7.048  -6.045  13.827  1.00  0.00    -0.354 N 
ATOM     55  N   UNL     1      -4.428  -6.563  15.022  1.00  0.00    -0.248 NA
ATOM     56  C   UNL     1      -3.031  -7.862  16.369  1.00  0.00     0.031 C 
ATOM     57  C   UNL     1      -8.681  -7.509  14.180  1.00  0.00     0.029 A 
ATOM     58  C   UNL     1      -7.351  -7.241  14.460  1.00  0.00     0.049 A 
ATOM     59  H   UNL     1      -6.171  -5.598  13.856  1.00  0.00     0.167 HD
ATOM     60  C   UNL     1      -5.130  -7.676  15.468  1.00  0.00     0.074 A 
ATOM     61  C   UNL     1      -4.205  -8.463  16.257  1.00  0.00     0.031 C 
ATOM     62  C   UNL     1      -6.423  -8.018  15.244  1.00  0.00     0.037 A 
BRANCH  49  63
ATOM     63  C   UNL     1      -9.505  -3.926  11.769  1.00  0.00     0.057 A 
ATOM     64  C   UNL     1     -10.619  -3.581  12.543  1.00  0.00     0.134 A 
ATOM     65  C   UNL     1      -9.656  -3.899  10.375  1.00  0.00     0.134 A 
ATOM     66  F   UNL     1     -10.550  -3.596  13.883  1.00  0.00    -0.206 F 
ATOM     67  C   UNL     1     -11.833  -3.218  11.956  1.00  0.00     0.040 A 
ATOM     68  C   UNL     1     -10.855  -3.508   9.776  1.00  0.00     0.040 A 
ATOM     69  F   UNL     1      -8.627  -4.211   9.573  1.00  0.00    -0.206 F 
ATOM     70  C   UNL     1     -11.950  -3.171  10.569  1.00  0.00     0.006 A 
ENDBRANCH  49  63
BRANCH  50  71
ATOM     71  C   UNL     1      -0.716  -6.150  15.935  1.00  0.00     0.057 A 
ATOM     72  C   UNL     1      -0.159  -5.391  16.971  1.00  0.00     0.134 A 
ATOM     73  C   UNL     1      -0.017  -7.293  15.526  1.00  0.00     0.134 A 
ATOM     74  F   UNL     1      -0.773  -4.280  17.402  1.00  0.00    -0.206 F 
ATOM     75  C   UNL     1       1.040  -5.758  17.583  1.00  0.00     0.040 A 
ATOM     76  C   UNL     1       1.166  -7.689  16.150  1.00  0.00     0.040 A 
ATOM     77  F   UNL     1      -0.507  -8.070  14.548  1.00  0.00    -0.206 F 
ATOM     78  C   UNL     1       1.698  -6.919  17.182  1.00  0.00     0.006 A 
ENDBRANCH  50  71
BRANCH  62  79
ATOM     79  C   UNL     1      -6.893  -9.323  15.824  1.00  0.00     0.057 A 
ATOM     80  C   UNL     1      -7.202 -10.403  14.986  1.00  0.00     0.134 A 
ATOM     81  C   UNL     1      -7.032  -9.521  17.205  1.00  0.00     0.134 A 
ATOM     82  F   UNL     1      -7.101 -10.283  13.654  1.00  0.00    -0.206 F 
ATOM     83  C   UNL     1      -7.621 -11.632  15.499  1.00  0.00     0.040 A 
ATOM     84  C   UNL     1      -7.417 -10.756  17.732  1.00  0.00     0.040 A 
ATOM     85  F   UNL     1      -6.740  -8.535  18.066  1.00  0.00    -0.206 F 
ATOM     86  C   UNL     1      -7.716 -11.815  16.877  1.00  0.00     0.006 A 
ENDBRANCH  62  79
ENDBRANCH  36  37
ENDBRANCH  29  31
ENDBRANCH  28  29
ENDBRANCH  27  28
ENDBRANCH  26  27
ENDBRANCH   1  26
TORSDOF 17
