REMARK SMILES CCc1cc(N2CCC(O)(C(=O)OCCOCCOC(=O)c3ccc(-c4c5nc(c(-c6c(F)cccc6F)c6ccc([nH]6)c(-c6c(F)cccc6F)c6nc(c(-c7c(F)cccc7F)c7ccc4[nH]7)C=C6)C=C5)cc3)CC2)nc(N2CCOCC2)n1
REMARK SMILES IDX 16 1 15 2 14 3 13 4 11 5 12 6 9 7 6 8 7 9 77 10 8 11 76 12
REMARK SMILES IDX 5 13 3 14 4 15 86 16 79 17 78 18 2 19 1 20 80 21 81 22 85 23
REMARK SMILES IDX 82 24 84 25 83 26 10 27 17 29 18 30 19 31 20 32 21 33 22 34
REMARK SMILES IDX 23 35 75 36 24 37 74 38 25 39 26 40 27 41 68 42 28 43 73 44
REMARK SMILES IDX 67 45 69 46 29 47 72 48 66 49 65 50 30 52 56 53 39 54 55 55
REMARK SMILES IDX 40 56 43 57 54 58 70 59 41 60 42 61 53 63 71 64 44 65 31 66
REMARK SMILES IDX 32 67 37 68 33 69 34 70 36 71 38 72 35 73 57 74 58 75 63 76
REMARK SMILES IDX 59 77 60 78 62 79 64 80 61 81 45 82 46 83 51 84 47 85 48 86
REMARK SMILES IDX 50 87 52 88 49 89
REMARK H PARENT 10 28 69 51 43 62
REMARK Flexibility Score: inf
ROOT
ATOM      1  O   UNL     1       3.615  10.847  -1.965  1.00  0.00    -0.374 OA
ENDROOT
BRANCH   1   2
ATOM      2  C   UNL     1       3.368  11.789  -0.917  1.00  0.00     0.202 C 
BRANCH   2   3
ATOM      3  C   UNL     1       1.900  11.967  -0.514  1.00  0.00     0.261 C 
BRANCH   3   4
ATOM      4  O   UNL     1       1.407  10.760   0.092  1.00  0.00    -0.461 OA
BRANCH   4   5
ATOM      5  C   UNL     1       0.117  10.438  -0.179  1.00  0.00     0.338 C 
ATOM      6  O   UNL     1      -0.696  11.191  -0.707  1.00  0.00    -0.249 OA
BRANCH   5   7
ATOM      7  C   UNL     1      -0.223   8.968   0.154  1.00  0.00     0.165 C 
ATOM      8  N   UNL     1       0.471   6.228  -0.131  1.00  0.00    -0.356 N 
ATOM      9  C   UNL     1       0.521   6.781   1.210  1.00  0.00     0.121 C 
ATOM     10  C   UNL     1      -0.563   6.746  -1.016  1.00  0.00     0.121 C 
ATOM     11  C   UNL     1       0.791   8.282   1.087  1.00  0.00     0.069 C 
ATOM     12  C   UNL     1      -0.347   8.239  -1.196  1.00  0.00     0.069 C 
BRANCH   8  13
ATOM     13  C   UNL     1       0.872   4.943  -0.418  1.00  0.00     0.134 A 
ATOM     14  C   UNL     1       0.798   2.608  -0.169  1.00  0.00     0.048 A 
ATOM     15  C   UNL     1       0.462   3.856   0.320  1.00  0.00     0.071 A 
ATOM     16  N   UNL     1       1.490   2.456  -1.315  1.00  0.00    -0.218 NA
ATOM     17  C   UNL     1       1.923   3.562  -1.932  1.00  0.00     0.227 A 
ATOM     18  N   UNL     1       1.627   4.798  -1.518  1.00  0.00    -0.196 NA
BRANCH  14  19
ATOM     19  C   UNL     1       0.362   1.372   0.581  1.00  0.00     0.053 C 
ATOM     20  C   UNL     1       0.889   0.063   0.007  1.00  0.00     0.011 C 
ENDBRANCH  14  19
BRANCH  17  21
ATOM     21  N   UNL     1       2.703   3.431  -3.041  1.00  0.00    -0.336 N 
ATOM     22  C   UNL     1       3.859   4.286  -3.248  1.00  0.00     0.148 C 
ATOM     23  C   UNL     1       2.347   2.511  -4.105  1.00  0.00     0.148 C 
ATOM     24  C   UNL     1       3.775   4.959  -4.622  1.00  0.00     0.181 C 
ATOM     25  C   UNL     1       2.317   3.287  -5.437  1.00  0.00     0.181 C 
ATOM     26  O   UNL     1       3.547   3.998  -5.670  1.00  0.00    -0.378 OA
ENDBRANCH  17  21
ENDBRANCH   8  13
BRANCH   7  27
ATOM     27  O   UNL     1      -1.506   8.929   0.803  1.00  0.00    -0.378 OA
ATOM     28  H   UNL     1      -1.450   9.384   1.658  1.00  0.00     0.212 HD
ENDBRANCH   7  27
ENDBRANCH   5   7
ENDBRANCH   4   5
ENDBRANCH   3   4
ENDBRANCH   2   3
ENDBRANCH   1   2
BRANCH   1  29
ATOM     29  C   UNL     1       3.472   9.461  -1.653  1.00  0.00     0.202 C 
BRANCH  29  30
ATOM     30  C   UNL     1       4.620   8.812  -0.871  1.00  0.00     0.261 C 
BRANCH  30  31
ATOM     31  O   UNL     1       4.831   9.429   0.413  1.00  0.00    -0.460 OA
BRANCH  31  32
ATOM     32  C   UNL     1       6.010  10.083   0.530  1.00  0.00     0.338 C 
ATOM     33  O   UNL     1       6.926  10.109  -0.283  1.00  0.00    -0.246 OA
BRANCH  32  34
ATOM     34  C   UNL     1       6.028  10.934   1.734  1.00  0.00     0.060 A 
ATOM     35  C   UNL     1       6.412  12.270   1.559  1.00  0.00     0.016 A 
ATOM     36  C   UNL     1       5.800  10.425   3.015  1.00  0.00     0.016 A 
ATOM     37  C   UNL     1       6.655  13.077   2.666  1.00  0.00     0.010 A 
ATOM     38  C   UNL     1       6.049  11.239   4.129  1.00  0.00     0.010 A 
ATOM     39  C   UNL     1       6.532  12.549   3.958  1.00  0.00    -0.014 A 
BRANCH  39  40
ATOM     40  C   UNL     1       7.115  13.315   5.089  1.00  0.00     0.031 A 
ATOM     41  C   UNL     1       8.502  12.965   5.561  1.00  0.00     0.074 A 
ATOM     42  C   UNL     1       6.471  14.368   5.622  1.00  0.00     0.049 A 
ATOM     43  N   UNL     1       9.246  13.551   6.466  1.00  0.00    -0.248 NA
ATOM     44  C   UNL     1       9.139  11.801   4.924  1.00  0.00     0.031 C 
ATOM     45  C   UNL     1       5.142  14.834   5.232  1.00  0.00     0.029 A 
ATOM     46  N   UNL     1       6.864  15.247   6.601  1.00  0.00    -0.354 N 
ATOM     47  C   UNL     1      10.434  12.831   6.503  1.00  0.00     0.074 A 
ATOM     48  C   UNL     1      10.299  11.743   5.559  1.00  0.00     0.031 C 
ATOM     49  C   UNL     1       4.830  15.919   5.961  1.00  0.00     0.029 A 
ATOM     50  C   UNL     1       5.932  16.217   6.876  1.00  0.00     0.049 A 
ATOM     51  H   UNL     1       7.732  15.188   7.061  1.00  0.00     0.167 HD
ATOM     52  C   UNL     1      11.545  13.062   7.241  1.00  0.00     0.037 A 
ATOM     53  C   UNL     1       5.966  17.230   7.763  1.00  0.00     0.037 A 
ATOM     54  C   UNL     1      11.690  14.145   8.176  1.00  0.00     0.049 A 
ATOM     55  C   UNL     1       7.198  17.443   8.603  1.00  0.00     0.074 A 
ATOM     56  C   UNL     1      12.779  14.462   8.969  1.00  0.00     0.029 A 
ATOM     57  N   UNL     1      10.710  15.088   8.445  1.00  0.00    -0.354 N 
ATOM     58  N   UNL     1       8.323  16.770   8.609  1.00  0.00    -0.248 NA
ATOM     59  C   UNL     1       7.167  18.567   9.550  1.00  0.00     0.031 C 
ATOM     60  C   UNL     1      12.446  15.579   9.743  1.00  0.00     0.029 A 
ATOM     61  C   UNL     1      11.165  15.981   9.401  1.00  0.00     0.049 A 
ATOM     62  H   UNL     1       9.823  15.119   8.019  1.00  0.00     0.167 HD
ATOM     63  C   UNL     1       9.144  17.408   9.531  1.00  0.00     0.074 A 
ATOM     64  C   UNL     1       8.391  18.526  10.059  1.00  0.00     0.031 C 
ATOM     65  C   UNL     1      10.409  17.098   9.905  1.00  0.00     0.037 A 
BRANCH  52  66
ATOM     66  C   UNL     1      12.690  12.108   7.073  1.00  0.00     0.057 A 
ATOM     67  C   UNL     1      13.492  12.112   5.924  1.00  0.00     0.134 A 
ATOM     68  C   UNL     1      13.007  11.188   8.080  1.00  0.00     0.134 A 
ATOM     69  F   UNL     1      13.231  12.958   4.916  1.00  0.00    -0.206 F 
ATOM     70  C   UNL     1      14.555  11.220   5.773  1.00  0.00     0.040 A 
ATOM     71  C   UNL     1      14.081  10.306   7.951  1.00  0.00     0.040 A 
ATOM     72  F   UNL     1      12.280  11.133   9.206  1.00  0.00    -0.206 F 
ATOM     73  C   UNL     1      14.855  10.317   6.792  1.00  0.00     0.006 A 
ENDBRANCH  52  66
BRANCH  53  74
ATOM     74  C   UNL     1       4.799  18.137   7.899  1.00  0.00     0.057 A 
ATOM     75  C   UNL     1       4.858  19.468   7.470  1.00  0.00     0.134 A 
ATOM     76  C   UNL     1       3.607  17.700   8.486  1.00  0.00     0.134 A 
ATOM     77  F   UNL     1       5.983  19.951   6.922  1.00  0.00    -0.206 F 
ATOM     78  C   UNL     1       3.779  20.338   7.637  1.00  0.00     0.040 A 
ATOM     79  C   UNL     1       2.512  18.552   8.639  1.00  0.00     0.040 A 
ATOM     80  F   UNL     1       3.488  16.436   8.918  1.00  0.00    -0.206 F 
ATOM     81  C   UNL     1       2.600  19.878   8.220  1.00  0.00     0.006 A 
ENDBRANCH  53  74
BRANCH  65  82
ATOM     82  C   UNL     1      11.075  18.005  10.898  1.00  0.00     0.057 A 
ATOM     83  C   UNL     1      10.717  18.013  12.252  1.00  0.00     0.134 A 
ATOM     84  C   UNL     1      12.111  18.859  10.497  1.00  0.00     0.134 A 
ATOM     85  F   UNL     1       9.726  17.227  12.698  1.00  0.00    -0.206 F 
ATOM     86  C   UNL     1      11.347  18.859  13.167  1.00  0.00     0.040 A 
ATOM     87  C   UNL     1      12.764  19.691  11.407  1.00  0.00     0.040 A 
ATOM     88  F   UNL     1      12.509  18.892   9.217  1.00  0.00    -0.206 F 
ATOM     89  C   UNL     1      12.377  19.698  12.746  1.00  0.00     0.006 A 
ENDBRANCH  65  82
ENDBRANCH  39  40
ENDBRANCH  32  34
ENDBRANCH  31  32
ENDBRANCH  30  31
ENDBRANCH  29  30
ENDBRANCH   1  29
TORSDOF 18
