REMARK SMILES COc1cc(/C=C2\SC(=S)N([C@H](C)C(=O)OCCOCCOC(=O)c3ccc(-c4c5nc(c(-c6c(F)cccc6F)c6ccc([nH]6)c(-c6c(F)cccc6F)c6nc(c(-c7c(F)cccc7F)c7ccc4[nH]7)C=C6)C=C5)cc3)C2=O)ccc1OCc1ccc(Cl)cc1Cl
REMARK SMILES IDX 17 1 16 2 14 3 15 4 12 5 13 6 11 7 6 8 7 9 8 10 79 11 9 12
REMARK SMILES IDX 80 13 10 14 5 15 3 16 4 17 83 18 82 19 81 20 2 21 1 22 84 23
REMARK SMILES IDX 85 24 86 25 87 26 92 27 88 28 91 29 93 30 89 31 90 32 18 33
REMARK SMILES IDX 19 34 20 35 21 36 22 37 23 38 24 39 25 40 26 41 78 42 27 43
REMARK SMILES IDX 77 44 28 45 29 46 30 47 71 48 31 49 76 50 70 51 72 52 32 53
REMARK SMILES IDX 75 54 69 55 68 56 33 58 59 59 42 60 58 61 43 62 46 63 57 64
REMARK SMILES IDX 73 65 44 66 45 67 56 69 74 70 47 71 34 72 35 73 40 74 36 75
REMARK SMILES IDX 37 76 39 77 41 78 38 79 60 80 61 81 66 82 62 83 63 84 65 85
REMARK SMILES IDX 67 86 64 87 48 88 49 89 54 90 50 91 51 92 53 93 55 94 52 95
REMARK H PARENT 72 57 46 68
REMARK Flexibility Score: inf
ROOT
ATOM      1  C   UNL     1      -1.516   9.544  -8.059  1.00  0.00     0.261 C 
ENDROOT
BRANCH   1   2
ATOM      2  O   UNL     1      -1.221   8.163  -7.810  1.00  0.00    -0.462 OA
BRANCH   2   3
ATOM      3  C   UNL     1      -1.309   7.333  -8.880  1.00  0.00     0.329 C 
ATOM      4  O   UNL     1      -1.661   7.674 -10.006  1.00  0.00    -0.250 OA
BRANCH   3   5
ATOM      5  C   UNL     1      -1.020   5.868  -8.525  1.00  0.00     0.199 C 
ATOM      6  C   UNL     1      -0.463   5.536  -7.143  1.00  0.00     0.044 C 
BRANCH   5   7
ATOM      7  N   UNL     1      -2.267   5.158  -8.827  1.00  0.00    -0.279 N 
ATOM      8  C   UNL     1      -5.831   5.328  -8.422  1.00  0.00     0.029 C 
ATOM      9  C   UNL     1      -4.597   4.928  -8.751  1.00  0.00     0.081 C 
ATOM     10  S   UNL     1      -4.125   3.754  -9.911  1.00  0.00    -0.054 SA
ATOM     11  C   UNL     1      -3.408   5.554  -8.147  1.00  0.00     0.266 C 
ATOM     12  C   UNL     1      -2.425   4.184  -9.787  1.00  0.00     0.149 C 
ATOM     13  O   UNL     1      -3.457   6.337  -7.208  1.00  0.00    -0.268 OA
ATOM     14  S   UNL     1      -1.251   3.444 -10.709  1.00  0.00    -0.052 S 
BRANCH   8  15
ATOM     15  C   UNL     1      -7.027   4.729  -9.000  1.00  0.00    -0.020 A 
ATOM     16  C   UNL     1      -8.719   4.642 -10.741  1.00  0.00     0.161 A 
ATOM     17  C   UNL     1      -7.630   5.283 -10.134  1.00  0.00     0.058 A 
ATOM     18  C   UNL     1      -9.179   3.424 -10.216  1.00  0.00     0.161 A 
ATOM     19  C   UNL     1      -8.554   2.877  -9.087  1.00  0.00     0.051 A 
ATOM     20  C   UNL     1      -7.496   3.530  -8.469  1.00  0.00     0.012 A 
BRANCH  16  21
ATOM     21  O   UNL     1      -9.277   5.143 -11.888  1.00  0.00    -0.493 OA
ATOM     22  C   UNL     1      -9.502   6.552 -11.879  1.00  0.00     0.278 C 
ENDBRANCH  16  21
BRANCH  18  23
ATOM     23  O   UNL     1     -10.242   2.663 -10.622  1.00  0.00    -0.485 OA
BRANCH  23  24
ATOM     24  C   UNL     1     -11.267   3.237 -11.436  1.00  0.00     0.267 C 
BRANCH  24  25
ATOM     25  C   UNL     1     -12.068   4.360 -10.797  1.00  0.00     0.008 A 
ATOM     26  C   UNL     1     -11.987   4.624  -9.416  1.00  0.00     0.010 A 
ATOM     27  C   UNL     1     -12.911   5.172 -11.574  1.00  0.00     0.049 A 
ATOM     28  C   UNL     1     -12.645   5.716  -8.851  1.00  0.00     0.021 A 
ATOM     29  C   UNL     1     -13.588   6.256 -11.006  1.00  0.00     0.041 A 
ATOM     30  Cl  UNL     1     -13.150   4.883 -13.261  1.00  0.00    -0.084 Cl
ATOM     31  C   UNL     1     -13.435   6.533  -9.651  1.00  0.00     0.042 A 
ATOM     32  Cl  UNL     1     -14.228   7.893  -8.960  1.00  0.00    -0.084 Cl
ENDBRANCH  24  25
ENDBRANCH  23  24
ENDBRANCH  18  23
ENDBRANCH   8  15
ENDBRANCH   5   7
ENDBRANCH   3   5
ENDBRANCH   2   3
ENDBRANCH   1   2
BRANCH   1  33
ATOM     33  C   UNL     1      -0.425  10.450  -7.489  1.00  0.00     0.202 C 
BRANCH  33  34
ATOM     34  O   UNL     1       0.885  10.263  -8.019  1.00  0.00    -0.374 OA
BRANCH  34  35
ATOM     35  C   UNL     1       1.568   9.046  -7.717  1.00  0.00     0.202 C 
BRANCH  35  36
ATOM     36  C   UNL     1       1.976   8.817  -6.256  1.00  0.00     0.261 C 
BRANCH  36  37
ATOM     37  O   UNL     1       0.855   8.686  -5.358  1.00  0.00    -0.460 OA
BRANCH  37  38
ATOM     38  C   UNL     1       0.833   9.598  -4.353  1.00  0.00     0.338 C 
ATOM     39  O   UNL     1       1.652  10.474  -4.133  1.00  0.00    -0.246 OA
BRANCH  38  40
ATOM     40  C   UNL     1      -0.410   9.500  -3.565  1.00  0.00     0.060 A 
ATOM     41  C   UNL     1      -1.235  10.629  -3.512  1.00  0.00     0.016 A 
ATOM     42  C   UNL     1      -0.657   8.401  -2.740  1.00  0.00     0.016 A 
ATOM     43  C   UNL     1      -2.279  10.688  -2.589  1.00  0.00     0.010 A 
ATOM     44  C   UNL     1      -1.703   8.465  -1.809  1.00  0.00     0.010 A 
ATOM     45  C   UNL     1      -2.490   9.626  -1.699  1.00  0.00    -0.014 A 
BRANCH  45  46
ATOM     46  C   UNL     1      -3.431   9.800  -0.564  1.00  0.00     0.031 A 
ATOM     47  C   UNL     1      -2.891  10.176   0.791  1.00  0.00     0.074 A 
ATOM     48  C   UNL     1      -4.757   9.668  -0.741  1.00  0.00     0.049 A 
ATOM     49  N   UNL     1      -3.533  10.369   1.917  1.00  0.00    -0.248 NA
ATOM     50  C   UNL     1      -1.435  10.360   0.890  1.00  0.00     0.031 C 
ATOM     51  C   UNL     1      -5.412   9.346  -2.007  1.00  0.00     0.029 A 
ATOM     52  N   UNL     1      -5.791   9.789   0.154  1.00  0.00    -0.354 N 
ATOM     53  C   UNL     1      -2.561  10.694   2.855  1.00  0.00     0.074 A 
ATOM     54  C   UNL     1      -1.284  10.646   2.175  1.00  0.00     0.031 C 
ATOM     55  C   UNL     1      -6.740   9.287  -1.806  1.00  0.00     0.029 A 
ATOM     56  C   UNL     1      -7.025   9.543  -0.395  1.00  0.00     0.049 A 
ATOM     57  H   UNL     1      -5.660  10.030   1.100  1.00  0.00     0.167 HD
ATOM     58  C   UNL     1      -2.717  11.013   4.162  1.00  0.00     0.037 A 
ATOM     59  C   UNL     1      -8.243   9.512   0.178  1.00  0.00     0.037 A 
ATOM     60  C   UNL     1      -3.983  11.067   4.844  1.00  0.00     0.049 A 
ATOM     61  C   UNL     1      -8.384   9.807   1.647  1.00  0.00     0.074 A 
ATOM     62  C   UNL     1      -4.240  11.400   6.163  1.00  0.00     0.029 A 
ATOM     63  N   UNL     1      -5.206  10.777   4.260  1.00  0.00    -0.354 N 
ATOM     64  N   UNL     1      -7.461  10.132   2.518  1.00  0.00    -0.248 NA
ATOM     65  C   UNL     1      -9.741   9.730   2.212  1.00  0.00     0.031 C 
ATOM     66  C   UNL     1      -5.615  11.273   6.387  1.00  0.00     0.029 A 
ATOM     67  C   UNL     1      -6.218  10.900   5.197  1.00  0.00     0.049 A 
ATOM     68  H   UNL     1      -5.336  10.521   3.318  1.00  0.00     0.167 HD
ATOM     69  C   UNL     1      -8.124  10.323   3.724  1.00  0.00     0.074 A 
ATOM     70  C   UNL     1      -9.530  10.085   3.472  1.00  0.00     0.031 C 
ATOM     71  C   UNL     1      -7.614  10.666   4.932  1.00  0.00     0.037 A 
BRANCH  58  72
ATOM     72  C   UNL     1      -1.478  11.313   4.951  1.00  0.00     0.057 A 
ATOM     73  C   UNL     1      -0.780  12.518   4.799  1.00  0.00     0.134 A 
ATOM     74  C   UNL     1      -0.997  10.401   5.900  1.00  0.00     0.134 A 
ATOM     75  F   UNL     1      -1.183  13.427   3.898  1.00  0.00    -0.206 F 
ATOM     76  C   UNL     1       0.363  12.797   5.550  1.00  0.00     0.040 A 
ATOM     77  C   UNL     1       0.132  10.678   6.671  1.00  0.00     0.040 A 
ATOM     78  F   UNL     1      -1.623   9.231   6.097  1.00  0.00    -0.206 F 
ATOM     79  C   UNL     1       0.819  11.878   6.494  1.00  0.00     0.006 A 
ENDBRANCH  58  72
BRANCH  59  80
ATOM     80  C   UNL     1      -9.436   9.176  -0.638  1.00  0.00     0.057 A 
ATOM     81  C   UNL     1     -10.394  10.145  -0.953  1.00  0.00     0.134 A 
ATOM     82  C   UNL     1      -9.653   7.875  -1.104  1.00  0.00     0.134 A 
ATOM     83  F   UNL     1     -10.253  11.404  -0.512  1.00  0.00    -0.206 F 
ATOM     84  C   UNL     1     -11.535   9.829  -1.694  1.00  0.00     0.040 A 
ATOM     85  C   UNL     1     -10.777   7.549  -1.863  1.00  0.00     0.040 A 
ATOM     86  F   UNL     1      -8.770   6.902  -0.833  1.00  0.00    -0.206 F 
ATOM     87  C   UNL     1     -11.725   8.527  -2.155  1.00  0.00     0.006 A 
ENDBRANCH  59  80
BRANCH  71  88
ATOM     88  C   UNL     1      -8.582  10.834   6.066  1.00  0.00     0.057 A 
ATOM     89  C   UNL     1      -9.174   9.734   6.699  1.00  0.00     0.134 A 
ATOM     90  C   UNL     1      -8.893  12.109   6.556  1.00  0.00     0.134 A 
ATOM     91  F   UNL     1      -8.926   8.488   6.269  1.00  0.00    -0.206 F 
ATOM     92  C   UNL     1     -10.056   9.898   7.769  1.00  0.00     0.040 A 
ATOM     93  C   UNL     1      -9.756  12.284   7.638  1.00  0.00     0.040 A 
ATOM     94  F   UNL     1      -8.353  13.203   5.998  1.00  0.00    -0.206 F 
ATOM     95  C   UNL     1     -10.344  11.176   8.245  1.00  0.00     0.006 A 
ENDBRANCH  71  88
ENDBRANCH  45  46
ENDBRANCH  38  40
ENDBRANCH  37  38
ENDBRANCH  36  37
ENDBRANCH  35  36
ENDBRANCH  34  35
ENDBRANCH  33  34
ENDBRANCH   1  33
TORSDOF 20
