REMARK SMILES COc1cc(C(=O)OCCOCCOC(=O)c2ccc(-c3c4nc(c(-c5c(F)cccc5F)c5ccc([nH]5)c(-c5c(F)cccc5F)c5nc(c(-c6c(F)cccc6F)c6ccc3[nH]6)C=C5)C=C4)cc2)cc(OC)c1OCc1csc(C)n1
REMARK SMILES IDX 10 1 9 2 8 3 6 4 7 5 5 6 3 7 4 8 75 9 72 10 71 11 2 12 1 13
REMARK SMILES IDX 76 14 77 15 78 16 79 17 83 18 80 19 81 20 82 21 73 22 74 23
REMARK SMILES IDX 11 24 12 25 13 26 14 27 15 28 16 29 17 30 18 31 70 32 19 33
REMARK SMILES IDX 69 34 20 35 21 36 22 37 63 38 23 39 68 40 62 41 64 42 24 43
REMARK SMILES IDX 67 44 61 45 60 46 25 48 51 49 34 50 50 51 35 52 38 53 49 54
REMARK SMILES IDX 65 55 36 56 37 57 48 59 66 60 39 61 26 62 27 63 32 64 28 65
REMARK SMILES IDX 29 66 31 67 33 68 30 69 52 70 53 71 58 72 54 73 55 74 57 75
REMARK SMILES IDX 59 76 56 77 40 78 41 79 46 80 42 81 43 82 45 83 47 84 44 85
REMARK H PARENT 64 47 38 58
REMARK Flexibility Score: inf
ROOT
ATOM      1  C   UNL     1      -1.418   3.474  -7.508  1.00  0.00     0.202 C 
ENDROOT
BRANCH   1   2
ATOM      2  C   UNL     1      -1.152   4.491  -6.393  1.00  0.00     0.261 C 
BRANCH   2   3
ATOM      3  O   UNL     1      -0.108   4.048  -5.509  1.00  0.00    -0.460 OA
BRANCH   3   4
ATOM      4  C   UNL     1      -0.513   3.765  -4.246  1.00  0.00     0.338 C 
ATOM      5  O   UNL     1      -1.611   3.974  -3.760  1.00  0.00    -0.246 OA
BRANCH   4   6
ATOM      6  C   UNL     1       0.510   2.946  -3.564  1.00  0.00     0.067 A 
ATOM      7  C   UNL     1       0.977   0.963  -2.249  1.00  0.00     0.165 A 
ATOM      8  C   UNL     1       0.072   1.784  -2.928  1.00  0.00     0.066 A 
ATOM      9  C   UNL     1       2.336   1.331  -2.161  1.00  0.00     0.203 A 
ATOM     10  C   UNL     1       2.783   2.466  -2.880  1.00  0.00     0.165 A 
ATOM     11  C   UNL     1       1.863   3.265  -3.579  1.00  0.00     0.066 A 
BRANCH   7  12
ATOM     12  O   UNL     1       0.574  -0.261  -1.773  1.00  0.00    -0.493 OA
ATOM     13  C   UNL     1      -0.678  -0.259  -1.089  1.00  0.00     0.278 C 
ENDBRANCH   7  12
BRANCH   9  14
ATOM     14  O   UNL     1       3.271   0.679  -1.403  1.00  0.00    -0.480 OA
BRANCH  14  15
ATOM     15  C   UNL     1       2.900  -0.174  -0.311  1.00  0.00     0.287 C 
BRANCH  15  16
ATOM     16  C   UNL     1       2.079   0.420   0.805  1.00  0.00     0.089 A 
ATOM     17  C   UNL     1       1.563  -0.301   1.869  1.00  0.00     0.094 A 
ATOM     18  N   UNL     1       1.736   1.768   0.819  1.00  0.00    -0.243 NA
ATOM     19  S   UNL     1       0.605   0.703   2.869  1.00  0.00    -0.127 S 
ATOM     20  C   UNL     1       0.937   2.030   1.832  1.00  0.00     0.090 A 
ATOM     21  C   UNL     1       0.299   3.351   2.083  1.00  0.00     0.079 C 
ENDBRANCH  15  16
ENDBRANCH  14  15
ENDBRANCH   9  14
BRANCH  10  22
ATOM     22  O   UNL     1       4.062   2.953  -3.001  1.00  0.00    -0.493 OA
ATOM     23  C   UNL     1       5.145   2.195  -2.481  1.00  0.00     0.278 C 
ENDBRANCH  10  22
ENDBRANCH   4   6
ENDBRANCH   3   4
ENDBRANCH   2   3
ENDBRANCH   1   2
BRANCH   1  24
ATOM     24  O   UNL     1      -1.915   2.196  -7.114  1.00  0.00    -0.374 OA
BRANCH  24  25
ATOM     25  C   UNL     1      -0.980   1.265  -6.569  1.00  0.00     0.202 C 
BRANCH  25  26
ATOM     26  C   UNL     1      -0.066   0.528  -7.555  1.00  0.00     0.261 C 
BRANCH  26  27
ATOM     27  O   UNL     1       0.847   1.414  -8.223  1.00  0.00    -0.460 OA
BRANCH  27  28
ATOM     28  C   UNL     1       0.560   1.649  -9.526  1.00  0.00     0.338 C 
ATOM     29  O   UNL     1      -0.335   1.159 -10.190  1.00  0.00    -0.246 OA
BRANCH  28  30
ATOM     30  C   UNL     1       1.406   2.750 -10.022  1.00  0.00     0.060 A 
ATOM     31  C   UNL     1       0.771   3.840 -10.633  1.00  0.00     0.016 A 
ATOM     32  C   UNL     1       2.798   2.683  -9.954  1.00  0.00     0.016 A 
ATOM     33  C   UNL     1       1.530   4.849 -11.222  1.00  0.00     0.010 A 
ATOM     34  C   UNL     1       3.557   3.690 -10.553  1.00  0.00     0.010 A 
ATOM     35  C   UNL     1       2.927   4.759 -11.219  1.00  0.00    -0.014 A 
BRANCH  35  36
ATOM     36  C   UNL     1       3.740   5.683 -12.044  1.00  0.00     0.031 A 
ATOM     37  C   UNL     1       4.281   5.190 -13.356  1.00  0.00     0.074 A 
ATOM     38  C   UNL     1       4.009   6.932 -11.626  1.00  0.00     0.049 A 
ATOM     39  N   UNL     1       5.128   5.759 -14.174  1.00  0.00    -0.248 NA
ATOM     40  C   UNL     1       3.806   3.869 -13.801  1.00  0.00     0.031 C 
ATOM     41  C   UNL     1       3.505   7.539 -10.395  1.00  0.00     0.029 A 
ATOM     42  N   UNL     1       4.798   7.905 -12.185  1.00  0.00    -0.354 N 
ATOM     43  C   UNL     1       5.299   4.862 -15.221  1.00  0.00     0.074 A 
ATOM     44  C   UNL     1       4.491   3.700 -14.922  1.00  0.00     0.031 C 
ATOM     45  C   UNL     1       4.024   8.773 -10.276  1.00  0.00     0.029 A 
ATOM     46  C   UNL     1       4.926   9.024 -11.399  1.00  0.00     0.049 A 
ATOM     47  H   UNL     1       5.231   7.810 -13.064  1.00  0.00     0.167 HD
ATOM     48  C   UNL     1       6.056   5.000 -16.335  1.00  0.00     0.037 A 
ATOM     49  C   UNL     1       5.713  10.107 -11.551  1.00  0.00     0.037 A 
ATOM     50  C   UNL     1       6.860   6.157 -16.624  1.00  0.00     0.049 A 
ATOM     51  C   UNL     1       6.608  10.206 -12.759  1.00  0.00     0.074 A 
ATOM     52  C   UNL     1       7.664   6.396 -17.725  1.00  0.00     0.029 A 
ATOM     53  N   UNL     1       6.963   7.270 -15.803  1.00  0.00    -0.354 N 
ATOM     54  N   UNL     1       6.761   9.358 -13.748  1.00  0.00    -0.248 NA
ATOM     55  C   UNL     1       7.440  11.413 -12.874  1.00  0.00     0.031 C 
ATOM     56  C   UNL     1       8.291   7.633 -17.547  1.00  0.00     0.029 A 
ATOM     57  C   UNL     1       7.831   8.191 -16.364  1.00  0.00     0.049 A 
ATOM     58  H   UNL     1       6.490   7.388 -14.948  1.00  0.00     0.167 HD
ATOM     59  C   UNL     1       7.675   9.944 -14.617  1.00  0.00     0.074 A 
ATOM     60  C   UNL     1       8.039  11.221 -14.041  1.00  0.00     0.031 C 
ATOM     61  C   UNL     1       8.164   9.469 -15.789  1.00  0.00     0.037 A 
BRANCH  48  62
ATOM     62  C   UNL     1       6.068   3.859 -17.309  1.00  0.00     0.057 A 
ATOM     63  C   UNL     1       4.954   3.551 -18.101  1.00  0.00     0.134 A 
ATOM     64  C   UNL     1       7.218   3.078 -17.481  1.00  0.00     0.134 A 
ATOM     65  F   UNL     1       3.816   4.250 -17.976  1.00  0.00    -0.206 F 
ATOM     66  C   UNL     1       4.976   2.492 -19.011  1.00  0.00     0.040 A 
ATOM     67  C   UNL     1       7.261   2.035 -18.407  1.00  0.00     0.040 A 
ATOM     68  F   UNL     1       8.322   3.321 -16.758  1.00  0.00    -0.206 F 
ATOM     69  C   UNL     1       6.135   1.735 -19.171  1.00  0.00     0.006 A 
ENDBRANCH  48  62
BRANCH  49  70
ATOM     70  C   UNL     1       5.717  11.174 -10.519  1.00  0.00     0.057 A 
ATOM     71  C   UNL     1       5.213  12.451 -10.790  1.00  0.00     0.134 A 
ATOM     72  C   UNL     1       6.248  10.950  -9.242  1.00  0.00     0.134 A 
ATOM     73  F   UNL     1       4.712  12.735 -12.001  1.00  0.00    -0.206 F 
ATOM     74  C   UNL     1       5.256  13.472  -9.839  1.00  0.00     0.040 A 
ATOM     75  C   UNL     1       6.272  11.953  -8.273  1.00  0.00     0.040 A 
ATOM     76  F   UNL     1       6.746   9.748  -8.917  1.00  0.00    -0.206 F 
ATOM     77  C   UNL     1       5.783  13.222  -8.574  1.00  0.00     0.006 A 
ENDBRANCH  49  70
BRANCH  61  78
ATOM     78  C   UNL     1       9.099  10.353 -16.562  1.00  0.00     0.057 A 
ATOM     79  C   UNL     1      10.420  10.577 -16.157  1.00  0.00     0.134 A 
ATOM     80  C   UNL     1       8.686  10.933 -17.770  1.00  0.00     0.134 A 
ATOM     81  F   UNL     1      10.875  10.059 -15.005  1.00  0.00    -0.206 F 
ATOM     82  C   UNL     1      11.293  11.358 -16.917  1.00  0.00     0.040 A 
ATOM     83  C   UNL     1       9.557  11.693 -18.551  1.00  0.00     0.040 A 
ATOM     84  F   UNL     1       7.436  10.750 -18.221  1.00  0.00    -0.206 F 
ATOM     85  C   UNL     1      10.864  11.910 -18.123  1.00  0.00     0.006 A 
ENDBRANCH  61  78
ENDBRANCH  35  36
ENDBRANCH  28  30
ENDBRANCH  27  28
ENDBRANCH  26  27
ENDBRANCH  25  26
ENDBRANCH  24  25
ENDBRANCH   1  24
TORSDOF 19
