REMARK SMILES Cc1csc(C[NH2+]C2(C(=O)OCCOCCOC(=O)c3ccc(-c4c5nc(c(-c6c(F)cccc6F)c6ccc([nH]6)c(-c6c(F)cccc6F)c6nc(c(-c7c(F)cccc7F)c7ccc4[nH]7)C=C6)C=C5)cc3)CC2)n1
REMARK SMILES IDX 13 1 12 2 11 3 9 4 10 5 8 6 74 7 75 8 7 9 6 12 5 13 1 14
REMARK SMILES IDX 2 15 3 16 76 17 4 18 14 19 15 20 16 21 17 22 18 23 19 24
REMARK SMILES IDX 20 25 21 26 73 27 22 28 72 29 23 30 24 31 25 32 66 33 26 34
REMARK SMILES IDX 71 35 65 36 67 37 27 38 70 39 64 40 63 41 28 43 54 44 37 45
REMARK SMILES IDX 53 46 38 47 41 48 52 49 68 50 39 51 40 52 51 54 69 55 42 56
REMARK SMILES IDX 29 57 30 58 35 59 31 60 32 61 34 62 36 63 33 64 55 65 56 66
REMARK SMILES IDX 61 67 57 68 58 69 60 70 62 71 59 72 43 73 44 74 49 75 45 76
REMARK SMILES IDX 46 77 48 78 50 79 47 80
REMARK H PARENT 7 10 7 11 67 42 41 53
REMARK Flexibility Score: inf
ROOT
ATOM      1  C   UNL     1       2.296   2.728   2.678  1.00  0.00     0.202 C 
ENDROOT
BRANCH   1   2
ATOM      2  C   UNL     1       3.481   3.008   1.740  1.00  0.00     0.261 C 
BRANCH   2   3
ATOM      3  O   UNL     1       3.170   4.064   0.827  1.00  0.00    -0.459 OA
BRANCH   3   4
ATOM      4  C   UNL     1       3.498   3.800  -0.467  1.00  0.00     0.368 C 
ATOM      5  O   UNL     1       4.480   3.171  -0.843  1.00  0.00    -0.245 OA
BRANCH   4   6
ATOM      6  C   UNL     1       2.357   4.145  -1.408  1.00  0.00     0.195 C 
ATOM      7  C   UNL     1       2.601   5.077  -2.573  1.00  0.00     0.088 C 
ATOM      8  C   UNL     1       1.866   5.589  -1.373  1.00  0.00     0.088 C 
BRANCH   6   9
ATOM      9  N   UNL     1       1.286   3.084  -1.530  1.00  0.00    -0.326 N 
ATOM     10  H   UNL     1       0.545   3.302  -0.864  1.00  0.00     0.347 HD
ATOM     11  H   UNL     1       0.972   3.102  -2.500  1.00  0.00     0.347 HD
BRANCH   9  12
ATOM     12  C   UNL     1       1.749   1.708  -1.267  1.00  0.00     0.330 C 
BRANCH  12  13
ATOM     13  C   UNL     1       0.682   0.683  -0.957  1.00  0.00     0.147 A 
ATOM     14  C   UNL     1      -2.695  -0.313  -0.154  1.00  0.00     0.067 C 
ATOM     15  C   UNL     1      -1.229  -0.298  -0.393  1.00  0.00     0.049 A 
ATOM     16  C   UNL     1      -0.367  -1.347  -0.140  1.00  0.00     0.090 A 
ATOM     17  N   UNL     1      -0.625   0.854  -0.890  1.00  0.00    -0.240 NA
ATOM     18  S   UNL     1       1.232  -0.902  -0.523  1.00  0.00    -0.121 S 
ENDBRANCH  12  13
ENDBRANCH   9  12
ENDBRANCH   6   9
ENDBRANCH   4   6
ENDBRANCH   3   4
ENDBRANCH   2   3
ENDBRANCH   1   2
BRANCH   1  19
ATOM     19  O   UNL     1       1.016   2.476   2.106  1.00  0.00    -0.374 OA
BRANCH  19  20
ATOM     20  C   UNL     1       0.311   3.560   1.493  1.00  0.00     0.202 C 
BRANCH  20  21
ATOM     21  C   UNL     1      -0.306   4.643   2.381  1.00  0.00     0.261 C 
BRANCH  21  22
ATOM     22  O   UNL     1       0.697   5.408   3.067  1.00  0.00    -0.460 OA
BRANCH  22  23
ATOM     23  C   UNL     1       0.773   5.167   4.394  1.00  0.00     0.338 C 
ATOM     24  O   UNL     1       0.041   4.457   5.067  1.00  0.00    -0.246 OA
BRANCH  23  25
ATOM     25  C   UNL     1       2.028   5.727   4.917  1.00  0.00     0.060 A 
ATOM     26  C   UNL     1       2.858   4.868   5.650  1.00  0.00     0.016 A 
ATOM     27  C   UNL     1       2.351   7.075   4.756  1.00  0.00     0.016 A 
ATOM     28  C   UNL     1       3.981   5.370   6.292  1.00  0.00     0.010 A 
ATOM     29  C   UNL     1       3.471   7.583   5.414  1.00  0.00     0.010 A 
ATOM     30  C   UNL     1       4.253   6.740   6.225  1.00  0.00    -0.014 A 
BRANCH  30  31
ATOM     31  C   UNL     1       5.214   7.319   7.188  1.00  0.00     0.031 A 
ATOM     32  C   UNL     1       4.670   7.977   8.425  1.00  0.00     0.074 A 
ATOM     33  C   UNL     1       6.537   7.207   6.989  1.00  0.00     0.049 A 
ATOM     34  N   UNL     1       5.308   8.571   9.400  1.00  0.00    -0.248 NA
ATOM     35  C   UNL     1       3.206   7.968   8.581  1.00  0.00     0.031 C 
ATOM     36  C   UNL     1       7.167   6.542   5.850  1.00  0.00     0.029 A 
ATOM     37  N   UNL     1       7.587   7.655   7.746  1.00  0.00    -0.354 N 
ATOM     38  C   UNL     1       4.324   9.014  10.275  1.00  0.00     0.074 A 
ATOM     39  C   UNL     1       3.047   8.657   9.700  1.00  0.00     0.031 C 
ATOM     40  C   UNL     1       8.502   6.633   5.980  1.00  0.00     0.029 A 
ATOM     41  C   UNL     1       8.813   7.387   7.192  1.00  0.00     0.049 A 
ATOM     42  H   UNL     1       7.473   8.123   8.604  1.00  0.00     0.167 HD
ATOM     43  C   UNL     1       4.475   9.651  11.460  1.00  0.00     0.037 A 
ATOM     44  C   UNL     1      10.043   7.734   7.613  1.00  0.00     0.037 A 
ATOM     45  C   UNL     1       5.753  10.002  12.020  1.00  0.00     0.049 A 
ATOM     46  C   UNL     1      10.183   8.505   8.899  1.00  0.00     0.074 A 
ATOM     47  C   UNL     1       6.026  10.643  13.215  1.00  0.00     0.029 A 
ATOM     48  N   UNL     1       6.975   9.742  11.415  1.00  0.00    -0.354 N 
ATOM     49  N   UNL     1       9.251   8.911   9.729  1.00  0.00    -0.248 NA
ATOM     50  C   UNL     1      11.548   8.857   9.311  1.00  0.00     0.031 C 
ATOM     51  C   UNL     1       7.410  10.822  13.306  1.00  0.00     0.029 A 
ATOM     52  C   UNL     1       8.004  10.232  12.201  1.00  0.00     0.049 A 
ATOM     53  H   UNL     1       7.092   9.279  10.555  1.00  0.00     0.167 HD
ATOM     54  C   UNL     1       9.917   9.530  10.779  1.00  0.00     0.074 A 
ATOM     55  C   UNL     1      11.333   9.437  10.483  1.00  0.00     0.031 C 
ATOM     56  C   UNL     1       9.408  10.119  11.891  1.00  0.00     0.037 A 
BRANCH  43  57
ATOM     57  C   UNL     1       3.226  10.037  12.201  1.00  0.00     0.057 A 
ATOM     58  C   UNL     1       2.381   9.083  12.786  1.00  0.00     0.134 A 
ATOM     59  C   UNL     1       2.867  11.384  12.338  1.00  0.00     0.134 A 
ATOM     60  F   UNL     1       2.655   7.774  12.678  1.00  0.00    -0.206 F 
ATOM     61  C   UNL     1       1.211   9.454  13.452  1.00  0.00     0.040 A 
ATOM     62  C   UNL     1       1.717  11.768  13.029  1.00  0.00     0.040 A 
ATOM     63  F   UNL     1       3.630  12.350  11.804  1.00  0.00    -0.206 F 
ATOM     64  C   UNL     1       0.880  10.801  13.581  1.00  0.00     0.006 A 
ENDBRANCH  43  57
BRANCH  44  65
ATOM     65  C   UNL     1      11.236   7.356   6.815  1.00  0.00     0.057 A 
ATOM     66  C   UNL     1      12.164   6.423   7.293  1.00  0.00     0.134 A 
ATOM     67  C   UNL     1      11.484   7.926   5.560  1.00  0.00     0.134 A 
ATOM     68  F   UNL     1      11.992   5.857   8.496  1.00  0.00    -0.206 F 
ATOM     69  C   UNL     1      13.305   6.086   6.563  1.00  0.00     0.040 A 
ATOM     70  C   UNL     1      12.605   7.577   4.806  1.00  0.00     0.040 A 
ATOM     71  F   UNL     1      10.631   8.822   5.042  1.00  0.00    -0.206 F 
ATOM     72  C   UNL     1      13.525   6.660   5.312  1.00  0.00     0.006 A 
ENDBRANCH  44  65
BRANCH  56  73
ATOM     73  C   UNL     1      10.390  10.654  12.894  1.00  0.00     0.057 A 
ATOM     74  C   UNL     1      11.176  11.785  12.640  1.00  0.00     0.134 A 
ATOM     75  C   UNL     1      10.528  10.040  14.146  1.00  0.00     0.134 A 
ATOM     76  F   UNL     1      11.101  12.416  11.458  1.00  0.00    -0.206 F 
ATOM     77  C   UNL     1      12.090  12.263  13.581  1.00  0.00     0.040 A 
ATOM     78  C   UNL     1      11.413  10.528  15.107  1.00  0.00     0.040 A 
ATOM     79  F   UNL     1       9.795   8.960  14.460  1.00  0.00    -0.206 F 
ATOM     80  C   UNL     1      12.205  11.638  14.821  1.00  0.00     0.006 A 
ENDBRANCH  56  73
ENDBRANCH  30  31
ENDBRANCH  23  25
ENDBRANCH  22  23
ENDBRANCH  21  22
ENDBRANCH  20  21
ENDBRANCH  19  20
ENDBRANCH   1  19
TORSDOF 17
