REMARK SMILES NS(=O)(=O)c1ccc(-n2nc(NC(=O)NCCCCCCCCCCC(=O)OCCOCCOC(=O)c3ccc(-c4c5nc(c(-c6c(F)cccc6F)c6ccc([nH]6)c(-c6c(F)cccc6F)c6nc(c(-c7c(F)cccc7F)c7ccc4[nH]7)C=C6)C=C5)cc3)cc2-c2ccccc2)cc1
REMARK SMILES IDX 24 1 23 2 22 3 21 4 20 5 19 6 18 7 17 8 16 9 15 10 12 11
REMARK SMILES IDX 13 12 14 14 11 16 9 17 10 18 92 19 91 20 8 21 5 22 6 23
REMARK SMILES IDX 100 24 7 25 99 26 2 27 3 28 4 29 1 30 93 33 94 34 98 35
REMARK SMILES IDX 95 36 97 37 96 38 25 39 26 40 27 41 28 42 29 43 30 44 31 45
REMARK SMILES IDX 32 46 33 47 34 48 35 49 36 50 37 51 38 52 90 53 39 54 89 55
REMARK SMILES IDX 40 56 41 57 42 58 83 59 43 60 88 61 82 62 84 63 44 64 87 65
REMARK SMILES IDX 81 66 80 67 45 69 71 70 54 71 70 72 55 73 58 74 69 75 85 76
REMARK SMILES IDX 56 77 57 78 68 80 86 81 59 82 46 83 47 84 52 85 48 86 49 87
REMARK SMILES IDX 51 88 53 89 50 90 72 91 73 92 78 93 74 94 75 95 77 96 79 97
REMARK SMILES IDX 76 98 60 99 61 100 66 101 62 102 63 103 65 104 67 105 64 106
REMARK H PARENT 12 13 15 15 1 31 1 32 84 68 58 79
REMARK Flexibility Score: inf
ROOT
ATOM      1  C   UNL     1      -2.944   4.128   3.290  1.00  0.00     0.012 C 
ENDROOT
BRANCH   1   2
ATOM      2  C   UNL     1      -3.235   4.061   4.791  1.00  0.00     0.001 C 
BRANCH   2   3
ATOM      3  C   UNL     1      -3.704   2.694   5.273  1.00  0.00     0.000 C 
BRANCH   3   4
ATOM      4  C   UNL     1      -2.598   1.646   5.207  1.00  0.00     0.000 C 
BRANCH   4   5
ATOM      5  C   UNL     1      -1.436   1.928   6.162  1.00  0.00     0.000 C 
BRANCH   5   6
ATOM      6  C   UNL     1      -1.831   2.099   7.633  1.00  0.00     0.000 C 
BRANCH   6   7
ATOM      7  C   UNL     1      -2.624   0.927   8.224  1.00  0.00     0.002 C 
BRANCH   7   8
ATOM      8  C   UNL     1      -2.010  -0.454   8.006  1.00  0.00     0.021 C 
BRANCH   8   9
ATOM      9  C   UNL     1      -0.553  -0.584   8.413  1.00  0.00     0.117 C 
BRANCH   9  10
ATOM     10  N   UNL     1      -0.306  -0.586   9.836  1.00  0.00    -0.338 N 
ATOM     11  N   UNL     1       1.633  -1.964   9.968  1.00  0.00    -0.291 N 
ATOM     12  C   UNL     1       0.652  -1.228  10.539  1.00  0.00     0.320 C 
ATOM     13  H   UNL     1       2.039  -2.628  10.570  1.00  0.00     0.173 HD
ATOM     14  O   UNL     1       0.555  -1.230  11.771  1.00  0.00    -0.248 OA
ATOM     15  H   UNL     1      -0.927  -0.040  10.371  1.00  0.00     0.165 HD
BRANCH  11  16
ATOM     16  C   UNL     1       2.169  -1.954   8.699  1.00  0.00     0.157 A 
ATOM     17  N   UNL     1       2.398  -1.496   6.647  1.00  0.00    -0.231 N 
ATOM     18  N   UNL     1       2.120  -0.933   7.841  1.00  0.00    -0.149 NA
ATOM     19  C   UNL     1       3.106  -2.679   6.813  1.00  0.00     0.076 A 
ATOM     20  C   UNL     1       2.903  -3.026   8.136  1.00  0.00     0.078 A 
BRANCH  17  21
ATOM     21  C   UNL     1       1.909  -0.917   5.442  1.00  0.00     0.065 A 
ATOM     22  C   UNL     1       0.983   0.217   3.068  1.00  0.00     0.082 A 
ATOM     23  C   UNL     1       0.998  -1.172   3.205  1.00  0.00     0.024 A 
ATOM     24  C   UNL     1       1.403   1.042   4.117  1.00  0.00     0.024 A 
ATOM     25  C   UNL     1       1.471  -1.739   4.390  1.00  0.00     0.030 A 
ATOM     26  C   UNL     1       1.841   0.475   5.318  1.00  0.00     0.030 A 
BRANCH  22  27
ATOM     27  S   UNL     1       0.470   0.947   1.541  1.00  0.00     0.238 S 
ATOM     28  O   UNL     1       1.126   2.227   1.392  1.00  0.00    -0.207 OA
ATOM     29  O   UNL     1      -0.957   0.782   1.411  1.00  0.00    -0.207 OA
BRANCH  27  30
ATOM     30  N   UNL     1       1.177  -0.043   0.380  1.00  0.00    -0.225 NA
ATOM     31  H   UNL     1       0.937   0.299  -0.550  1.00  0.00     0.137 HD
ATOM     32  H   UNL     1       0.832  -0.997   0.491  1.00  0.00     0.137 HD
ENDBRANCH  27  30
ENDBRANCH  22  27
ENDBRANCH  17  21
BRANCH  19  33
ATOM     33  C   UNL     1       3.886  -3.295   5.747  1.00  0.00     0.000 A 
ATOM     34  C   UNL     1       4.789  -2.499   5.024  1.00  0.00     0.010 A 
ATOM     35  C   UNL     1       3.704  -4.630   5.381  1.00  0.00     0.010 A 
ATOM     36  C   UNL     1       5.465  -3.013   3.921  1.00  0.00     0.001 A 
ATOM     37  C   UNL     1       4.387  -5.145   4.276  1.00  0.00     0.001 A 
ATOM     38  C   UNL     1       5.258  -4.336   3.544  1.00  0.00     0.000 A 
ENDBRANCH  19  33
ENDBRANCH  11  16
ENDBRANCH   9  10
ENDBRANCH   8   9
ENDBRANCH   7   8
ENDBRANCH   6   7
ENDBRANCH   5   6
ENDBRANCH   4   5
ENDBRANCH   3   4
ENDBRANCH   2   3
ENDBRANCH   1   2
BRANCH   1  39
ATOM     39  C   UNL     1      -4.016   3.549   2.356  1.00  0.00     0.123 C 
BRANCH  39  40
ATOM     40  C   UNL     1      -5.401   4.172   2.369  1.00  0.00     0.305 C 
ATOM     41  O   UNL     1      -6.177   4.072   1.428  1.00  0.00    -0.252 OA
BRANCH  40  42
ATOM     42  O   UNL     1      -5.657   4.852   3.510  1.00  0.00    -0.463 OA
BRANCH  42  43
ATOM     43  C   UNL     1      -6.830   5.681   3.537  1.00  0.00     0.261 C 
BRANCH  43  44
ATOM     44  C   UNL     1      -6.428   7.155   3.583  1.00  0.00     0.202 C 
BRANCH  44  45
ATOM     45  O   UNL     1      -5.858   7.703   2.391  1.00  0.00    -0.374 OA
BRANCH  45  46
ATOM     46  C   UNL     1      -4.513   7.376   2.055  1.00  0.00     0.202 C 
BRANCH  46  47
ATOM     47  C   UNL     1      -3.413   8.126   2.795  1.00  0.00     0.261 C 
BRANCH  47  48
ATOM     48  O   UNL     1      -3.427   7.808   4.178  1.00  0.00    -0.460 OA
BRANCH  48  49
ATOM     49  C   UNL     1      -4.076   8.706   4.960  1.00  0.00     0.338 C 
ATOM     50  O   UNL     1      -4.707   9.676   4.607  1.00  0.00    -0.246 OA
BRANCH  49  51
ATOM     51  C   UNL     1      -3.764   8.383   6.360  1.00  0.00     0.060 A 
ATOM     52  C   UNL     1      -4.064   9.382   7.284  1.00  0.00     0.016 A 
ATOM     53  C   UNL     1      -2.866   7.345   6.644  1.00  0.00     0.016 A 
ATOM     54  C   UNL     1      -3.207   9.536   8.345  1.00  0.00     0.010 A 
ATOM     55  C   UNL     1      -2.012   7.497   7.699  1.00  0.00     0.010 A 
ATOM     56  C   UNL     1      -2.121   8.662   8.448  1.00  0.00    -0.014 A 
BRANCH  56  57
ATOM     57  C   UNL     1      -1.087   8.968   9.402  1.00  0.00     0.031 A 
ATOM     58  C   UNL     1      -1.493   8.618  10.775  1.00  0.00     0.074 A 
ATOM     59  C   UNL     1       0.119   9.420   9.014  1.00  0.00     0.049 A 
ATOM     60  N   UNL     1      -1.801   9.426  11.732  1.00  0.00    -0.248 NA
ATOM     61  C   UNL     1      -1.832   7.210  11.037  1.00  0.00     0.031 C 
ATOM     62  C   UNL     1       0.668   9.537   7.659  1.00  0.00     0.029 A 
ATOM     63  N   UNL     1       1.162   9.795   9.799  1.00  0.00    -0.354 N 
ATOM     64  C   UNL     1      -2.159   8.605  12.795  1.00  0.00     0.074 A 
ATOM     65  C   UNL     1      -2.402   7.305  12.236  1.00  0.00     0.031 C 
ATOM     66  C   UNL     1       2.007   9.731   7.735  1.00  0.00     0.029 A 
ATOM     67  C   UNL     1       2.379   9.884   9.129  1.00  0.00     0.049 A 
ATOM     68  H   UNL     1       1.066   9.986  10.760  1.00  0.00     0.167 HD
ATOM     69  C   UNL     1      -1.927   8.990  14.078  1.00  0.00     0.037 A 
ATOM     70  C   UNL     1       3.588   9.975   9.739  1.00  0.00     0.037 A 
ATOM     71  C   UNL     1      -1.726  10.418  14.152  1.00  0.00     0.049 A 
ATOM     72  C   UNL     1       3.337  10.436  11.134  1.00  0.00     0.074 A 
ATOM     73  C   UNL     1      -2.505  11.523  13.867  1.00  0.00     0.029 A 
ATOM     74  N   UNL     1      -0.430  10.874  14.198  1.00  0.00    -0.354 N 
ATOM     75  N   UNL     1       2.879  11.624  11.426  1.00  0.00    -0.248 NA
ATOM     76  C   UNL     1       3.100   9.412  12.144  1.00  0.00     0.031 C 
ATOM     77  C   UNL     1      -1.607  12.474  13.298  1.00  0.00     0.029 A 
ATOM     78  C   UNL     1      -0.322  11.930  13.330  1.00  0.00     0.049 A 
ATOM     79  H   UNL     1       0.294  10.508  14.757  1.00  0.00     0.167 HD
ATOM     80  C   UNL     1       1.945  11.411  12.432  1.00  0.00     0.074 A 
ATOM     81  C   UNL     1       2.164  10.033  12.869  1.00  0.00     0.031 C 
ATOM     82  C   UNL     1       0.889  12.259  12.611  1.00  0.00     0.037 A 
BRANCH  69  83
ATOM     83  C   UNL     1      -1.466   8.045  15.164  1.00  0.00     0.057 A 
ATOM     84  C   UNL     1      -1.274   8.559  16.458  1.00  0.00     0.134 A 
ATOM     85  C   UNL     1      -0.929   6.755  14.955  1.00  0.00     0.134 A 
ATOM     86  F   UNL     1      -1.747   9.768  16.797  1.00  0.00    -0.206 F 
ATOM     87  C   UNL     1      -0.516   7.892  17.427  1.00  0.00     0.040 A 
ATOM     88  C   UNL     1      -0.213   6.061  15.931  1.00  0.00     0.040 A 
ATOM     89  F   UNL     1      -0.976   6.122  13.779  1.00  0.00    -0.206 F 
ATOM     90  C   UNL     1       0.030   6.645  17.160  1.00  0.00     0.006 A 
ENDBRANCH  69  83
BRANCH  70  91
ATOM     91  C   UNL     1       4.859   9.327   9.335  1.00  0.00     0.057 A 
ATOM     92  C   UNL     1       6.087   9.722   9.883  1.00  0.00     0.134 A 
ATOM     93  C   UNL     1       4.869   8.121   8.609  1.00  0.00     0.134 A 
ATOM     94  F   UNL     1       6.172  10.830  10.633  1.00  0.00    -0.206 F 
ATOM     95  C   UNL     1       7.254   8.957   9.731  1.00  0.00     0.040 A 
ATOM     96  C   UNL     1       6.025   7.351   8.447  1.00  0.00     0.040 A 
ATOM     97  F   UNL     1       3.738   7.603   8.110  1.00  0.00    -0.206 F 
ATOM     98  C   UNL     1       7.222   7.761   9.019  1.00  0.00     0.006 A 
ENDBRANCH  70  91
BRANCH  82  99
ATOM     99  C   UNL     1       0.874  13.540  11.819  1.00  0.00     0.057 A 
ATOM    100  C   UNL     1       0.766  13.596  10.420  1.00  0.00     0.134 A 
ATOM    101  C   UNL     1       0.794  14.755  12.506  1.00  0.00     0.134 A 
ATOM    102  F   UNL     1       0.732  12.479   9.684  1.00  0.00    -0.206 F 
ATOM    103  C   UNL     1       0.623  14.809   9.737  1.00  0.00     0.040 A 
ATOM    104  C   UNL     1       0.618  15.970  11.838  1.00  0.00     0.040 A 
ATOM    105  F   UNL     1       0.830  14.775  13.847  1.00  0.00    -0.206 F 
ATOM    106  C   UNL     1       0.540  16.001  10.449  1.00  0.00     0.006 A 
ENDBRANCH  82  99
ENDBRANCH  56  57
ENDBRANCH  49  51
ENDBRANCH  48  49
ENDBRANCH  47  48
ENDBRANCH  46  47
ENDBRANCH  45  46
ENDBRANCH  44  45
ENDBRANCH  43  44
ENDBRANCH  42  43
ENDBRANCH  40  42
ENDBRANCH  39  40
ENDBRANCH   1  39
TORSDOF 29
