REMARK SMILES COc1ccc(C(F)(F)F)cc1-c1cccnc1C(=O)OCCOCCOC(=O)c1ccc(-c2c3nc(c(-c4c(F)cccc4F)c4ccc([nH]4)c(-c4c(F)cccc4F)c4nc(c(-c5c(F)cccc5F)c5ccc2[nH]5)C=C4)C=C3)cc1
REMARK SMILES IDX 24 1 23 2 22 3 21 4 19 5 20 6 18 7 13 8 14 9 15 10 17 11
REMARK SMILES IDX 16 12 12 13 3 14 4 15 5 16 11 17 6 18 2 19 1 20 7 21 8 22
REMARK SMILES IDX 9 23 10 24 25 25 26 26 27 27 28 28 29 29 30 30 31 31 83 32
REMARK SMILES IDX 32 33 82 34 33 35 34 36 35 37 76 38 36 39 81 40 75 41 77 42
REMARK SMILES IDX 37 43 80 44 74 45 73 46 38 48 64 49 47 50 63 51 48 52 51 53
REMARK SMILES IDX 62 54 78 55 49 56 50 57 61 59 79 60 52 61 39 62 40 63 45 64
REMARK SMILES IDX 41 65 42 66 44 67 46 68 43 69 65 70 66 71 71 72 67 73 68 74
REMARK SMILES IDX 70 75 72 76 69 77 53 78 54 79 59 80 55 81 56 82 58 83 60 84
REMARK SMILES IDX 57 85
REMARK H PARENT 77 47 51 58
REMARK Flexibility Score: inf
ROOT
ATOM      1  O   UNL     1       2.842   5.266   0.314  1.00  0.00    -0.374 OA
ENDROOT
BRANCH   1   2
ATOM      2  C   UNL     1       2.533   5.326  -1.080  1.00  0.00     0.202 C 
BRANCH   2   3
ATOM      3  C   UNL     1       3.523   4.596  -1.987  1.00  0.00     0.261 C 
BRANCH   3   4
ATOM      4  O   UNL     1       3.431   3.180  -1.756  1.00  0.00    -0.458 OA
BRANCH   4   5
ATOM      5  C   UNL     1       4.611   2.512  -1.740  1.00  0.00     0.357 C 
ATOM      6  O   UNL     1       5.699   2.987  -2.029  1.00  0.00    -0.244 OA
BRANCH   5   7
ATOM      7  C   UNL     1       4.423   1.109  -1.248  1.00  0.00     0.156 A 
ATOM      8  C   UNL     1       3.434   0.229  -1.727  1.00  0.00     0.019 A 
ATOM      9  C   UNL     1       3.501  -1.083  -1.216  1.00  0.00     0.013 A 
ATOM     10  C   UNL     1       4.439  -1.443  -0.250  1.00  0.00     0.021 A 
ATOM     11  N   UNL     1       5.350   0.771  -0.299  1.00  0.00    -0.249 NA
ATOM     12  C   UNL     1       5.327  -0.483   0.185  1.00  0.00     0.112 A 
BRANCH   8  13
ATOM     13  C   UNL     1       2.341   0.599  -2.661  1.00  0.00     0.027 A 
ATOM     14  C   UNL     1       0.987   0.290  -2.397  1.00  0.00     0.126 A 
ATOM     15  C   UNL     1      -0.039   0.696  -3.256  1.00  0.00     0.048 A 
ATOM     16  C   UNL     1       0.253   1.471  -4.374  1.00  0.00     0.017 A 
ATOM     17  C   UNL     1       2.609   1.322  -3.841  1.00  0.00     0.025 A 
ATOM     18  C   UNL     1       1.580   1.802  -4.673  1.00  0.00     0.056 A 
BRANCH  14  19
ATOM     19  O   UNL     1       0.616  -0.515  -1.347  1.00  0.00    -0.496 OA
ATOM     20  C   UNL     1       0.414   0.241  -0.155  1.00  0.00     0.278 C 
ENDBRANCH  14  19
BRANCH  18  21
ATOM     21  C   UNL     1       1.891   2.684  -5.858  1.00  0.00     0.416 C 
ATOM     22  F   UNL     1       1.571   2.105  -7.046  1.00  0.00    -0.166 F 
ATOM     23  F   UNL     1       1.204   3.861  -5.816  1.00  0.00    -0.166 F 
ATOM     24  F   UNL     1       3.205   3.031  -5.948  1.00  0.00    -0.166 F 
ENDBRANCH  18  21
ENDBRANCH   8  13
ENDBRANCH   5   7
ENDBRANCH   4   5
ENDBRANCH   3   4
ENDBRANCH   2   3
ENDBRANCH   1   2
BRANCH   1  25
ATOM     25  C   UNL     1       2.581   4.035   0.987  1.00  0.00     0.202 C 
BRANCH  25  26
ATOM     26  C   UNL     1       1.125   3.821   1.413  1.00  0.00     0.261 C 
BRANCH  26  27
ATOM     27  O   UNL     1       0.235   3.692   0.287  1.00  0.00    -0.460 OA
BRANCH  27  28
ATOM     28  C   UNL     1      -0.622   4.727   0.121  1.00  0.00     0.338 C 
ATOM     29  O   UNL     1      -0.759   5.702   0.850  1.00  0.00    -0.246 OA
BRANCH  28  30
ATOM     30  C   UNL     1      -1.325   4.618  -1.169  1.00  0.00     0.060 A 
ATOM     31  C   UNL     1      -1.282   5.724  -2.027  1.00  0.00     0.016 A 
ATOM     32  C   UNL     1      -2.109   3.507  -1.487  1.00  0.00     0.016 A 
ATOM     33  C   UNL     1      -2.061   5.744  -3.183  1.00  0.00     0.010 A 
ATOM     34  C   UNL     1      -2.894   3.530  -2.646  1.00  0.00     0.010 A 
ATOM     35  C   UNL     1      -2.902   4.663  -3.480  1.00  0.00    -0.014 A 
BRANCH  35  36
ATOM     36  C   UNL     1      -3.884   4.778  -4.586  1.00  0.00     0.031 A 
ATOM     37  C   UNL     1      -5.315   5.115  -4.270  1.00  0.00     0.074 A 
ATOM     38  C   UNL     1      -3.502   4.611  -5.864  1.00  0.00     0.049 A 
ATOM     39  N   UNL     1      -6.337   5.238  -5.079  1.00  0.00    -0.248 NA
ATOM     40  C   UNL     1      -5.637   5.346  -2.853  1.00  0.00     0.031 C 
ATOM     41  C   UNL     1      -2.139   4.332  -6.308  1.00  0.00     0.029 A 
ATOM     42  N   UNL     1      -4.234   4.648  -7.025  1.00  0.00    -0.354 N 
ATOM     43  C   UNL     1      -7.420   5.562  -4.272  1.00  0.00     0.074 A 
ATOM     44  C   UNL     1      -6.939   5.583  -2.907  1.00  0.00     0.031 C 
ATOM     45  C   UNL     1      -2.132   4.203  -7.645  1.00  0.00     0.029 A 
ATOM     46  C   UNL     1      -3.494   4.375  -8.149  1.00  0.00     0.049 A 
ATOM     47  H   UNL     1      -5.197   4.852  -7.049  1.00  0.00     0.167 HD
ATOM     48  C   UNL     1      -8.697   5.831  -4.636  1.00  0.00     0.037 A 
ATOM     49  C   UNL     1      -3.876   4.265  -9.435  1.00  0.00     0.037 A 
ATOM     50  C   UNL     1      -9.178   5.815  -5.992  1.00  0.00     0.049 A 
ATOM     51  C   UNL     1      -5.316   4.493  -9.807  1.00  0.00     0.074 A 
ATOM     52  C   UNL     1     -10.451   6.095  -6.459  1.00  0.00     0.029 A 
ATOM     53  N   UNL     1      -8.408   5.496  -7.099  1.00  0.00    -0.354 N 
ATOM     54  N   UNL     1      -6.326   4.821  -9.039  1.00  0.00    -0.248 NA
ATOM     55  C   UNL     1      -5.668   4.339 -11.226  1.00  0.00     0.031 C 
ATOM     56  C   UNL     1     -10.461   5.902  -7.845  1.00  0.00     0.029 A 
ATOM     57  C   UNL     1      -9.183   5.545  -8.245  1.00  0.00     0.049 A 
ATOM     58  H   UNL     1      -7.450   5.267  -7.074  1.00  0.00     0.167 HD
ATOM     59  C   UNL     1      -7.424   4.942  -9.882  1.00  0.00     0.074 A 
ATOM     60  C   UNL     1      -6.955   4.658 -11.223  1.00  0.00     0.031 C 
ATOM     61  C   UNL     1      -8.704   5.263  -9.574  1.00  0.00     0.037 A 
BRANCH  48  62
ATOM     62  C   UNL     1      -9.671   6.148  -3.540  1.00  0.00     0.057 A 
ATOM     63  C   UNL     1      -9.645   7.372  -2.860  1.00  0.00     0.134 A 
ATOM     64  C   UNL     1     -10.665   5.229  -3.181  1.00  0.00     0.134 A 
ATOM     65  F   UNL     1      -8.709   8.290  -3.148  1.00  0.00    -0.206 F 
ATOM     66  C   UNL     1     -10.559   7.662  -1.846  1.00  0.00     0.040 A 
ATOM     67  C   UNL     1     -11.599   5.517  -2.184  1.00  0.00     0.040 A 
ATOM     68  F   UNL     1     -10.748   4.040  -3.797  1.00  0.00    -0.206 F 
ATOM     69  C   UNL     1     -11.544   6.735  -1.510  1.00  0.00     0.006 A 
ENDBRANCH  48  62
BRANCH  49  70
ATOM     70  C   UNL     1      -2.876   3.915 -10.474  1.00  0.00     0.057 A 
ATOM     71  C   UNL     1      -2.458   4.854 -11.423  1.00  0.00     0.134 A 
ATOM     72  C   UNL     1      -2.327   2.630 -10.549  1.00  0.00     0.134 A 
ATOM     73  F   UNL     1      -2.968   6.094 -11.416  1.00  0.00    -0.206 F 
ATOM     74  C   UNL     1      -1.538   4.524 -12.419  1.00  0.00     0.040 A 
ATOM     75  C   UNL     1      -1.390   2.292 -11.526  1.00  0.00     0.040 A 
ATOM     76  F   UNL     1      -2.689   1.686  -9.667  1.00  0.00    -0.206 F 
ATOM     77  C   UNL     1      -0.997   3.240 -12.469  1.00  0.00     0.006 A 
ENDBRANCH  49  70
BRANCH  61  78
ATOM     78  C   UNL     1      -9.683   5.355 -10.707  1.00  0.00     0.057 A 
ATOM     79  C   UNL     1     -10.178   4.213 -11.350  1.00  0.00     0.134 A 
ATOM     80  C   UNL     1     -10.166   6.599 -11.134  1.00  0.00     0.134 A 
ATOM     81  F   UNL     1      -9.745   2.994 -10.996  1.00  0.00    -0.206 F 
ATOM     82  C   UNL     1     -11.105   4.306 -12.389  1.00  0.00     0.040 A 
ATOM     83  C   UNL     1     -11.110   6.703 -12.157  1.00  0.00     0.040 A 
ATOM     84  F   UNL     1      -9.739   7.731 -10.555  1.00  0.00    -0.206 F 
ATOM     85  C   UNL     1     -11.578   5.554 -12.791  1.00  0.00     0.006 A 
ENDBRANCH  61  78
ENDBRANCH  35  36
ENDBRANCH  28  30
ENDBRANCH  27  28
ENDBRANCH  26  27
ENDBRANCH  25  26
ENDBRANCH   1  25
TORSDOF 17
