REMARK SMILES CSc1nc2nnc(C(=O)OCCOCCOC(=O)c3ccc(-c4c5nc(c(-c6c(F)cccc6F)c6ccc([nH]6)c(-c6c(F)cccc6F)c6nc(c(-c7c(F)cccc7F)c7ccc4[nH]7)C=C6)C=C5)cc3)c(O)n2n1
REMARK SMILES IDX 15 1 14 2 13 3 12 4 11 5 9 6 10 7 8 8 3 9 4 10 77 11 5 12
REMARK SMILES IDX 76 13 6 14 74 15 7 16 2 17 1 18 75 19 16 21 17 22 18 23
REMARK SMILES IDX 19 24 20 25 21 26 73 27 22 28 72 29 23 30 24 31 25 32 66 33
REMARK SMILES IDX 26 34 71 35 65 36 67 37 27 38 70 39 64 40 63 41 28 43 54 44
REMARK SMILES IDX 37 45 53 46 38 47 41 48 52 49 68 50 39 51 40 52 51 54 69 55
REMARK SMILES IDX 42 56 29 57 30 58 35 59 31 60 32 61 34 62 36 63 33 64 55 65
REMARK SMILES IDX 56 66 61 67 57 68 58 69 60 70 62 71 59 72 43 73 44 74 49 75
REMARK SMILES IDX 45 76 46 77 48 78 50 79 47 80
REMARK H PARENT 75 20 67 42 41 53
REMARK Flexibility Score: inf
ROOT
ATOM      1  C   UNL     1       3.175   4.927   6.475  1.00  0.00     0.202 C 
ENDROOT
BRANCH   1   2
ATOM      2  O   UNL     1       4.352   5.476   7.059  1.00  0.00    -0.374 OA
BRANCH   2   3
ATOM      3  C   UNL     1       4.567   6.885   6.972  1.00  0.00     0.202 C 
BRANCH   3   4
ATOM      4  C   UNL     1       5.138   7.408   5.650  1.00  0.00     0.261 C 
BRANCH   4   5
ATOM      5  O   UNL     1       4.246   7.194   4.541  1.00  0.00    -0.458 OA
BRANCH   5   6
ATOM      6  C   UNL     1       4.581   6.146   3.749  1.00  0.00     0.364 C 
ATOM      7  O   UNL     1       5.573   5.438   3.871  1.00  0.00    -0.244 OA
BRANCH   6   8
ATOM      8  C   UNL     1       3.479   5.786   2.824  1.00  0.00     0.232 A 
ATOM      9  C   UNL     1       0.936   3.269   0.369  1.00  0.00     0.210 A 
ATOM     10  N   UNL     1       0.692   4.607   0.242  1.00  0.00    -0.182 NA
ATOM     11  N   UNL     1       1.840   2.939   1.288  1.00  0.00    -0.134 NA
ATOM     12  C   UNL     1       1.523   5.152   1.106  1.00  0.00     0.275 A 
ATOM     13  N   UNL     1       2.256   4.147   1.725  1.00  0.00    -0.159 N 
ATOM     14  N   UNL     1       1.765   6.459   1.431  1.00  0.00    -0.108 NA
ATOM     15  C   UNL     1       3.275   4.467   2.617  1.00  0.00     0.251 A 
ATOM     16  N   UNL     1       2.686   6.762   2.248  1.00  0.00    -0.134 NA
BRANCH   9  17
ATOM     17  S   UNL     1       0.145   2.074  -0.624  1.00  0.00    -0.088 SA
ATOM     18  C   UNL     1       0.928   0.554  -0.034  1.00  0.00     0.094 C 
ENDBRANCH   9  17
BRANCH  15  19
ATOM     19  O   UNL     1       3.991   3.435   3.211  1.00  0.00    -0.491 OA
ATOM     20  H   UNL     1       4.681   3.631   3.814  1.00  0.00     0.295 HD
ENDBRANCH  15  19
ENDBRANCH   6   8
ENDBRANCH   5   6
ENDBRANCH   4   5
ENDBRANCH   3   4
ENDBRANCH   2   3
ENDBRANCH   1   2
BRANCH   1  21
ATOM     21  C   UNL     1       1.850   5.153   7.186  1.00  0.00     0.261 C 
BRANCH  21  22
ATOM     22  O   UNL     1       1.461   6.521   7.186  1.00  0.00    -0.460 OA
BRANCH  22  23
ATOM     23  C   UNL     1       1.614   7.135   8.375  1.00  0.00     0.338 C 
ATOM     24  O   UNL     1       2.343   6.781   9.300  1.00  0.00    -0.246 OA
BRANCH  23  25
ATOM     25  C   UNL     1       0.651   8.232   8.476  1.00  0.00     0.060 A 
ATOM     26  C   UNL     1       0.617   8.930   9.685  1.00  0.00     0.016 A 
ATOM     27  C   UNL     1      -0.324   8.429   7.484  1.00  0.00     0.016 A 
ATOM     28  C   UNL     1      -0.472   9.730   9.957  1.00  0.00     0.010 A 
ATOM     29  C   UNL     1      -1.417   9.222   7.761  1.00  0.00     0.010 A 
ATOM     30  C   UNL     1      -1.503   9.822   9.015  1.00  0.00    -0.014 A 
BRANCH  30  31
ATOM     31  C   UNL     1      -2.633  10.660   9.354  1.00  0.00     0.031 A 
ATOM     32  C   UNL     1      -2.339  12.110   9.325  1.00  0.00     0.074 A 
ATOM     33  C   UNL     1      -3.864  10.173   9.588  1.00  0.00     0.049 A 
ATOM     34  N   UNL     1      -2.385  12.951  10.304  1.00  0.00    -0.248 NA
ATOM     35  C   UNL     1      -1.816  12.668   8.068  1.00  0.00     0.031 C 
ATOM     36  C   UNL     1      -4.352   8.814   9.354  1.00  0.00     0.029 A 
ATOM     37  N   UNL     1      -4.974  10.842  10.003  1.00  0.00    -0.354 N 
ATOM     38  C   UNL     1      -2.076  14.188   9.747  1.00  0.00     0.074 A 
ATOM     39  C   UNL     1      -1.590  13.933   8.417  1.00  0.00     0.031 C 
ATOM     40  C   UNL     1      -5.702   8.811   9.439  1.00  0.00     0.029 A 
ATOM     41  C   UNL     1      -6.153  10.130   9.852  1.00  0.00     0.049 A 
ATOM     42  H   UNL     1      -4.942  11.752  10.378  1.00  0.00     0.167 HD
ATOM     43  C   UNL     1      -2.471  15.344  10.341  1.00  0.00     0.037 A 
ATOM     44  C   UNL     1      -7.407  10.621   9.994  1.00  0.00     0.037 A 
ATOM     45  C   UNL     1      -2.750  15.147  11.739  1.00  0.00     0.049 A 
ATOM     46  C   UNL     1      -7.315  11.870  10.787  1.00  0.00     0.074 A 
ATOM     47  C   UNL     1      -2.016  14.737  12.834  1.00  0.00     0.029 A 
ATOM     48  N   UNL     1      -4.067  15.077  12.116  1.00  0.00    -0.354 N 
ATOM     49  N   UNL     1      -7.024  11.922  12.056  1.00  0.00    -0.248 NA
ATOM     50  C   UNL     1      -7.217  13.137  10.075  1.00  0.00     0.031 C 
ATOM     51  C   UNL     1      -2.938  14.040  13.668  1.00  0.00     0.029 A 
ATOM     52  C   UNL     1      -4.189  14.082  13.049  1.00  0.00     0.049 A 
ATOM     53  H   UNL     1      -4.797  15.643  11.776  1.00  0.00     0.167 HD
ATOM     54  C   UNL     1      -6.313  13.102  12.207  1.00  0.00     0.074 A 
ATOM     55  C   UNL     1      -6.592  13.869  11.000  1.00  0.00     0.031 C 
ATOM     56  C   UNL     1      -5.345  13.220  13.161  1.00  0.00     0.037 A 
BRANCH  43  57
ATOM     57  C   UNL     1      -2.975  16.543   9.572  1.00  0.00     0.057 A 
ATOM     58  C   UNL     1      -3.286  17.723  10.272  1.00  0.00     0.134 A 
ATOM     59  C   UNL     1      -3.445  16.499   8.242  1.00  0.00     0.134 A 
ATOM     60  F   UNL     1      -2.913  17.885  11.551  1.00  0.00    -0.206 F 
ATOM     61  C   UNL     1      -4.071  18.741   9.718  1.00  0.00     0.040 A 
ATOM     62  C   UNL     1      -4.183  17.534   7.662  1.00  0.00     0.040 A 
ATOM     63  F   UNL     1      -3.309  15.420   7.463  1.00  0.00    -0.206 F 
ATOM     64  C   UNL     1      -4.528  18.645   8.410  1.00  0.00     0.006 A 
ENDBRANCH  43  57
BRANCH  44  65
ATOM     65  C   UNL     1      -8.652  10.228   9.296  1.00  0.00     0.057 A 
ATOM     66  C   UNL     1      -9.901  10.677   9.751  1.00  0.00     0.134 A 
ATOM     67  C   UNL     1      -8.638   9.639   8.019  1.00  0.00     0.134 A 
ATOM     68  F   UNL     1     -10.016  11.282  10.942  1.00  0.00    -0.206 F 
ATOM     69  C   UNL     1     -11.059  10.584   8.969  1.00  0.00     0.040 A 
ATOM     70  C   UNL     1      -9.790   9.527   7.233  1.00  0.00     0.040 A 
ATOM     71  F   UNL     1      -7.494   9.235   7.449  1.00  0.00    -0.206 F 
ATOM     72  C   UNL     1     -11.002  10.018   7.699  1.00  0.00     0.006 A 
ENDBRANCH  44  65
BRANCH  56  73
ATOM     73  C   UNL     1      -5.323  12.204  14.267  1.00  0.00     0.057 A 
ATOM     74  C   UNL     1      -5.079  10.836  14.076  1.00  0.00     0.134 A 
ATOM     75  C   UNL     1      -5.407  12.655  15.590  1.00  0.00     0.134 A 
ATOM     76  F   UNL     1      -4.889  10.328  12.851  1.00  0.00    -0.206 F 
ATOM     77  C   UNL     1      -4.965   9.953  15.155  1.00  0.00     0.040 A 
ATOM     78  C   UNL     1      -5.257  11.790  16.676  1.00  0.00     0.040 A 
ATOM     79  F   UNL     1      -5.585  13.961  15.850  1.00  0.00    -0.206 F 
ATOM     80  C   UNL     1      -5.045  10.431  16.460  1.00  0.00     0.006 A 
ENDBRANCH  56  73
ENDBRANCH  30  31
ENDBRANCH  23  25
ENDBRANCH  22  23
ENDBRANCH  21  22
ENDBRANCH   1  21
TORSDOF 16
