REMARK SMILES O=C(OCCOCCOC(=O)[C@@H]1CCCC[C@@H]1C(=O)Nc1ccccc1C(=O)N1CCN(c2ccc(F)cc2)CC1)c1ccc(-c2c3nc(c(-c4c(F)cccc4F)c4ccc([nH]4)c(-c4c(F)cccc4F)c4nc(c(-c5c(F)cccc5F)c5ccc2[nH]5)C=C4)C=C3)cc1
REMARK SMILES IDX 7 1 6 2 5 3 4 4 3 5 2 6 1 7 42 8 43 9 95 10 44 11 94 12
REMARK SMILES IDX 45 13 46 14 47 15 88 16 48 17 93 18 87 19 89 20 49 21 92 22
REMARK SMILES IDX 86 23 85 24 50 26 76 27 59 28 75 29 60 30 63 31 74 32 90 33
REMARK SMILES IDX 61 34 62 35 73 37 91 38 64 39 51 40 52 41 57 42 53 43 54 44
REMARK SMILES IDX 56 45 58 46 55 47 77 48 78 49 83 50 79 51 80 52 82 53 84 54
REMARK SMILES IDX 81 55 65 56 66 57 71 58 67 59 68 60 70 61 72 62 69 63 8 64
REMARK SMILES IDX 9 65 10 66 11 67 12 68 13 69 17 70 14 71 16 72 15 73 18 74
REMARK SMILES IDX 19 75 20 76 21 78 22 79 26 80 23 81 25 82 24 83 27 84 28 85
REMARK SMILES IDX 29 86 30 87 41 88 31 89 40 90 32 91 33 92 34 93 39 94 35 95
REMARK SMILES IDX 38 96 36 97 37 98
REMARK H PARENT 89 25 63 36 20 77
REMARK Flexibility Score: inf
ROOT
ATOM      1  C   UNL     1       1.662   1.271  -3.294  1.00  0.00     0.202 C 
ENDROOT
BRANCH   1   2
ATOM      2  O   UNL     1       2.401   1.875  -2.235  1.00  0.00    -0.374 OA
BRANCH   2   3
ATOM      3  C   UNL     1       3.277   0.960  -1.609  1.00  0.00     0.202 C 
BRANCH   3   4
ATOM      4  C   UNL     1       2.618   0.002  -0.600  1.00  0.00     0.261 C 
BRANCH   4   5
ATOM      5  O   UNL     1       1.296   0.419  -0.173  1.00  0.00    -0.460 OA
BRANCH   5   6
ATOM      6  C   UNL     1       0.981   0.966   1.028  1.00  0.00     0.338 C 
ATOM      7  O   UNL     1      -0.158   0.868   1.496  1.00  0.00    -0.246 OA
BRANCH   6   8
ATOM      8  C   UNL     1       2.011   1.710   1.786  1.00  0.00     0.060 A 
ATOM      9  C   UNL     1       3.049   2.325   1.112  1.00  0.00     0.016 A 
ATOM     10  C   UNL     1       1.931   1.890   3.166  1.00  0.00     0.016 A 
ATOM     11  C   UNL     1       4.164   2.787   1.767  1.00  0.00     0.010 A 
ATOM     12  C   UNL     1       2.914   2.648   3.816  1.00  0.00     0.010 A 
ATOM     13  C   UNL     1       4.057   3.079   3.117  1.00  0.00    -0.014 A 
BRANCH  13  14
ATOM     14  C   UNL     1       5.127   3.895   3.734  1.00  0.00     0.031 A 
ATOM     15  C   UNL     1       5.815   3.380   4.956  1.00  0.00     0.074 A 
ATOM     16  C   UNL     1       5.494   5.061   3.158  1.00  0.00     0.049 A 
ATOM     17  N   UNL     1       6.617   4.001   5.776  1.00  0.00    -0.248 NA
ATOM     18  C   UNL     1       5.548   1.978   5.318  1.00  0.00     0.031 C 
ATOM     19  C   UNL     1       4.951   5.608   1.904  1.00  0.00     0.029 A 
ATOM     20  N   UNL     1       6.433   5.990   3.522  1.00  0.00    -0.354 N 
ATOM     21  C   UNL     1       6.879   3.098   6.796  1.00  0.00     0.074 A 
ATOM     22  C   UNL     1       6.162   1.881   6.487  1.00  0.00     0.031 C 
ATOM     23  C   UNL     1       5.620   6.718   1.567  1.00  0.00     0.029 A 
ATOM     24  C   UNL     1       6.525   7.051   2.650  1.00  0.00     0.049 A 
ATOM     25  H   UNL     1       6.989   5.907   4.331  1.00  0.00     0.167 HD
ATOM     26  C   UNL     1       7.636   3.294   7.900  1.00  0.00     0.037 A 
ATOM     27  C   UNL     1       7.214   8.201   2.749  1.00  0.00     0.037 A 
ATOM     28  C   UNL     1       8.353   4.517   8.144  1.00  0.00     0.049 A 
ATOM     29  C   UNL     1       8.003   8.413   4.007  1.00  0.00     0.074 A 
ATOM     30  C   UNL     1       9.123   4.872   9.234  1.00  0.00     0.029 A 
ATOM     31  N   UNL     1       8.387   5.591   7.259  1.00  0.00    -0.354 N 
ATOM     32  N   UNL     1       8.171   7.597   5.021  1.00  0.00    -0.248 NA
ATOM     33  C   UNL     1       8.671   9.709   4.152  1.00  0.00     0.031 C 
ATOM     34  C   UNL     1       9.587   6.176   9.028  1.00  0.00     0.029 A 
ATOM     35  C   UNL     1       9.160   6.611   7.781  1.00  0.00     0.049 A 
ATOM     36  H   UNL     1       7.928   5.619   6.388  1.00  0.00     0.167 HD
ATOM     37  C   UNL     1       8.991   8.267   5.915  1.00  0.00     0.074 A 
ATOM     38  C   UNL     1       9.294   9.552   5.311  1.00  0.00     0.031 C 
ATOM     39  C   UNL     1       9.451   7.864   7.125  1.00  0.00     0.037 A 
BRANCH  26  40
ATOM     40  C   UNL     1       7.627   2.203   8.932  1.00  0.00     0.057 A 
ATOM     41  C   UNL     1       8.206   0.946   8.710  1.00  0.00     0.134 A 
ATOM     42  C   UNL     1       6.953   2.393  10.146  1.00  0.00     0.134 A 
ATOM     43  F   UNL     1       8.840   0.683   7.557  1.00  0.00    -0.206 F 
ATOM     44  C   UNL     1       8.075  -0.093   9.635  1.00  0.00     0.040 A 
ATOM     45  C   UNL     1       6.842   1.372  11.091  1.00  0.00     0.040 A 
ATOM     46  F   UNL     1       6.369   3.568  10.424  1.00  0.00    -0.206 F 
ATOM     47  C   UNL     1       7.391   0.119  10.831  1.00  0.00     0.006 A 
ENDBRANCH  26  40
BRANCH  27  48
ATOM     48  C   UNL     1       7.141   9.238   1.683  1.00  0.00     0.057 A 
ATOM     49  C   UNL     1       8.276   9.602   0.949  1.00  0.00     0.134 A 
ATOM     50  C   UNL     1       5.945   9.902   1.375  1.00  0.00     0.134 A 
ATOM     51  F   UNL     1       9.457   9.018   1.200  1.00  0.00    -0.206 F 
ATOM     52  C   UNL     1       8.232  10.599  -0.029  1.00  0.00     0.040 A 
ATOM     53  C   UNL     1       5.878  10.877   0.377  1.00  0.00     0.040 A 
ATOM     54  F   UNL     1       4.814   9.603   2.031  1.00  0.00    -0.206 F 
ATOM     55  C   UNL     1       7.028  11.236  -0.321  1.00  0.00     0.006 A 
ENDBRANCH  27  48
BRANCH  39  56
ATOM     56  C   UNL     1      10.393   8.797   7.821  1.00  0.00     0.057 A 
ATOM     57  C   UNL     1       9.966   9.998   8.397  1.00  0.00     0.134 A 
ATOM     58  C   UNL     1      11.748   8.461   7.937  1.00  0.00     0.134 A 
ATOM     59  F   UNL     1       8.683  10.382   8.300  1.00  0.00    -0.206 F 
ATOM     60  C   UNL     1      10.861  10.850   9.043  1.00  0.00     0.040 A 
ATOM     61  C   UNL     1      12.645   9.287   8.610  1.00  0.00     0.040 A 
ATOM     62  F   UNL     1      12.215   7.319   7.410  1.00  0.00    -0.206 F 
ATOM     63  C   UNL     1      12.203  10.489   9.158  1.00  0.00     0.006 A 
ENDBRANCH  39  56
ENDBRANCH  13  14
ENDBRANCH   6   8
ENDBRANCH   5   6
ENDBRANCH   4   5
ENDBRANCH   3   4
ENDBRANCH   2   3
ENDBRANCH   1   2
BRANCH   1  64
ATOM     64  C   UNL     1       2.547   0.932  -4.514  1.00  0.00     0.261 C 
BRANCH  64  65
ATOM     65  O   UNL     1       3.256  -0.341  -4.392  1.00  0.00    -0.463 OA
BRANCH  65  66
ATOM     66  C   UNL     1       4.596  -0.406  -4.694  1.00  0.00     0.309 C 
ATOM     67  O   UNL     1       5.304   0.568  -4.911  1.00  0.00    -0.252 OA
BRANCH  66  68
ATOM     68  C   UNL     1       5.080  -1.859  -4.900  1.00  0.00     0.111 C 
ATOM     69  C   UNL     1       4.146  -2.942  -4.352  1.00  0.00     0.016 C 
ATOM     70  C   UNL     1       6.619  -2.232  -4.780  1.00  0.00     0.093 C 
ATOM     71  C   UNL     1       4.332  -4.238  -5.135  1.00  0.00     0.001 C 
ATOM     72  C   UNL     1       6.758  -3.521  -5.664  1.00  0.00     0.014 C 
ATOM     73  C   UNL     1       5.790  -4.667  -5.266  1.00  0.00     0.001 C 
BRANCH  70  74
ATOM     74  C   UNL     1       7.297  -2.712  -3.462  1.00  0.00     0.228 C 
ATOM     75  O   UNL     1       6.845  -3.697  -2.863  1.00  0.00    -0.274 OA
ATOM     76  N   UNL     1       8.499  -2.268  -2.978  1.00  0.00    -0.325 N 
ATOM     77  H   UNL     1       8.923  -2.900  -2.353  1.00  0.00     0.169 HD
BRANCH  76  78
ATOM     78  C   UNL     1       9.257  -1.103  -3.183  1.00  0.00     0.054 A 
ATOM     79  C   UNL     1      10.643  -1.283  -3.303  1.00  0.00     0.027 A 
ATOM     80  C   UNL     1       8.763   0.206  -3.195  1.00  0.00     0.063 A 
ATOM     81  C   UNL     1      11.459  -0.241  -3.749  1.00  0.00     0.002 A 
ATOM     82  C   UNL     1       9.554   1.226  -3.754  1.00  0.00     0.016 A 
ATOM     83  C   UNL     1      10.893   0.988  -4.069  1.00  0.00     0.001 A 
BRANCH  80  84
ATOM     84  C   UNL     1       7.673   0.670  -2.263  1.00  0.00     0.256 C 
ATOM     85  O   UNL     1       7.216   1.807  -2.327  1.00  0.00    -0.269 OA
ATOM     86  N   UNL     1       7.265  -0.236  -1.276  1.00  0.00    -0.335 N 
ATOM     87  C   UNL     1       6.018  -0.843  -1.607  1.00  0.00     0.141 C 
ATOM     88  C   UNL     1       7.278   0.110   0.157  1.00  0.00     0.141 C 
ATOM     89  C   UNL     1       5.753  -2.122  -0.859  1.00  0.00     0.138 C 
ATOM     90  C   UNL     1       6.808  -1.072   1.098  1.00  0.00     0.138 C 
ATOM     91  N   UNL     1       5.637  -1.806   0.552  1.00  0.00    -0.368 N 
BRANCH  91  92
ATOM     92  C   UNL     1       4.668  -2.510   1.243  1.00  0.00     0.037 A 
ATOM     93  C   UNL     1       4.155  -3.737   0.747  1.00  0.00     0.029 A 
ATOM     94  C   UNL     1       4.009  -1.942   2.333  1.00  0.00     0.029 A 
ATOM     95  C   UNL     1       2.963  -4.288   1.212  1.00  0.00     0.041 A 
ATOM     96  C   UNL     1       2.813  -2.494   2.812  1.00  0.00     0.041 A 
ATOM     97  C   UNL     1       2.288  -3.642   2.229  1.00  0.00     0.123 A 
ATOM     98  F   UNL     1       1.110  -4.123   2.645  1.00  0.00    -0.207 F 
ENDBRANCH  91  92
ENDBRANCH  80  84
ENDBRANCH  76  78
ENDBRANCH  70  74
ENDBRANCH  66  68
ENDBRANCH  65  66
ENDBRANCH  64  65
ENDBRANCH   1  64
TORSDOF 18
