REMARK SMILES Cc1nsc(NC(=O)[C@]2([NH3+])CCC[C@@H](C)C2)c1C(=O)OCCOCCOC(=O)c1ccc(-c2c3nc(c(-c4c(F)cccc4F)c4ccc([nH]4)c(-c4c(F)cccc4F)c4nc(c(-c5c(F)cccc5F)c5ccc2[nH]5)C=C4)C=C3)cc1
REMARK SMILES IDX 22 1 21 2 20 3 18 4 19 5 17 6 1 7 2 8 3 9 4 10 5 11 6 12
REMARK SMILES IDX 7 13 8 15 9 16 11 17 16 18 12 19 14 20 13 21 15 22 10 23
REMARK SMILES IDX 23 27 24 28 25 29 26 30 27 31 28 32 29 33 30 34 82 35 31 36
REMARK SMILES IDX 81 37 32 38 33 39 34 40 75 41 35 42 80 43 74 44 76 45 36 46
REMARK SMILES IDX 79 47 73 48 72 49 37 51 63 52 46 53 62 54 47 55 50 56 61 57
REMARK SMILES IDX 77 58 48 59 49 60 60 62 78 63 51 64 38 65 39 66 44 67 40 68
REMARK SMILES IDX 41 69 43 70 45 71 42 72 64 73 65 74 70 75 66 76 67 77 69 78
REMARK SMILES IDX 71 79 68 80 52 81 53 82 58 83 54 84 55 85 57 86 59 87 56 88
REMARK H PARENT 6 14 10 24 10 25 10 26 76 50 50 61
REMARK Flexibility Score: inf
ROOT
ATOM      1  C   UNL     1       3.369   1.256   6.376  1.00  0.00     0.202 C 
ENDROOT
BRANCH   1   2
ATOM      2  C   UNL     1       2.166   0.434   5.903  1.00  0.00     0.261 C 
BRANCH   2   3
ATOM      3  O   UNL     1       1.929   0.605   4.496  1.00  0.00    -0.460 OA
BRANCH   3   4
ATOM      4  C   UNL     1       0.836   1.353   4.172  1.00  0.00     0.343 C 
ATOM      5  O   UNL     1      -0.012   1.732   4.965  1.00  0.00    -0.246 OA
BRANCH   4   6
ATOM      6  C   UNL     1       0.935   1.881   2.822  1.00  0.00     0.117 A 
ATOM      7  C   UNL     1       1.893  -0.205   1.545  1.00  0.00     0.069 C 
ATOM      8  C   UNL     1       1.446   1.211   1.653  1.00  0.00     0.068 A 
ATOM      9  N   UNL     1       1.546   1.961   0.558  1.00  0.00    -0.195 NA
ATOM     10  S   UNL     1       1.075   3.491   0.918  1.00  0.00    -0.017 S 
ATOM     11  C   UNL     1       0.611   3.202   2.523  1.00  0.00     0.131 A 
BRANCH  11  12
ATOM     12  N   UNL     1       0.169   4.176   3.410  1.00  0.00    -0.310 N 
ATOM     13  C   UNL     1      -0.319   5.450   3.299  1.00  0.00     0.286 C 
ATOM     14  H   UNL     1       0.219   3.877   4.347  1.00  0.00     0.171 HD
ATOM     15  O   UNL     1      -0.319   6.119   4.341  1.00  0.00    -0.267 OA
BRANCH  13  16
ATOM     16  C   UNL     1      -0.883   6.050   1.978  1.00  0.00     0.174 C 
ATOM     17  C   UNL     1      -1.648   7.376   2.247  1.00  0.00     0.079 C 
ATOM     18  C   UNL     1      -1.922   5.064   1.392  1.00  0.00     0.082 C 
ATOM     19  C   UNL     1      -2.330   7.923   0.984  1.00  0.00     0.007 C 
ATOM     20  C   UNL     1      -2.640   5.531   0.124  1.00  0.00    -0.008 C 
ATOM     21  C   UNL     1      -3.276   6.906   0.347  1.00  0.00     0.004 C 
ATOM     22  C   UNL     1      -1.740   5.482  -1.111  1.00  0.00     0.008 C 
BRANCH  16  23
ATOM     23  N   UNL     1       0.252   6.437   1.117  1.00  0.00    -0.345 N 
ATOM     24  H   UNL     1      -0.102   6.833   0.246  1.00  0.00     0.345 HD
ATOM     25  H   UNL     1       0.818   5.614   0.911  1.00  0.00     0.345 HD
ATOM     26  H   UNL     1       0.823   7.131   1.599  1.00  0.00     0.345 HD
ENDBRANCH  16  23
ENDBRANCH  13  16
ENDBRANCH  11  12
ENDBRANCH   4   6
ENDBRANCH   3   4
ENDBRANCH   2   3
ENDBRANCH   1   2
BRANCH   1  27
ATOM     27  O   UNL     1       3.234   2.676   6.470  1.00  0.00    -0.374 OA
BRANCH  27  28
ATOM     28  C   UNL     1       3.124   3.480   5.302  1.00  0.00     0.202 C 
BRANCH  28  29
ATOM     29  C   UNL     1       4.356   3.716   4.439  1.00  0.00     0.261 C 
BRANCH  29  30
ATOM     30  O   UNL     1       4.873   2.490   3.955  1.00  0.00    -0.460 OA
BRANCH  30  31
ATOM     31  C   UNL     1       5.903   2.014   4.691  1.00  0.00     0.338 C 
ATOM     32  O   UNL     1       6.335   2.456   5.736  1.00  0.00    -0.246 OA
BRANCH  31  33
ATOM     33  C   UNL     1       6.505   0.891   3.966  1.00  0.00     0.060 A 
ATOM     34  C   UNL     1       7.644   0.342   4.555  1.00  0.00     0.016 A 
ATOM     35  C   UNL     1       6.175   0.686   2.618  1.00  0.00     0.016 A 
ATOM     36  C   UNL     1       8.630  -0.114   3.718  1.00  0.00     0.010 A 
ATOM     37  C   UNL     1       7.154   0.217   1.787  1.00  0.00     0.010 A 
ATOM     38  C   UNL     1       8.404  -0.032   2.342  1.00  0.00    -0.014 A 
BRANCH  38  39
ATOM     39  C   UNL     1       9.530  -0.197   1.458  1.00  0.00     0.031 A 
ATOM     40  C   UNL     1       9.918  -1.610   1.309  1.00  0.00     0.074 A 
ATOM     41  C   UNL     1      10.050   0.850   0.791  1.00  0.00     0.049 A 
ATOM     42  N   UNL     1      10.976  -2.188   1.767  1.00  0.00    -0.248 NA
ATOM     43  C   UNL     1       8.899  -2.533   0.781  1.00  0.00     0.031 C 
ATOM     44  C   UNL     1       9.552   2.228   0.702  1.00  0.00     0.029 A 
ATOM     45  N   UNL     1      11.115   0.857  -0.053  1.00  0.00    -0.354 N 
ATOM     46  C   UNL     1      10.855  -3.515   1.379  1.00  0.00     0.074 A 
ATOM     47  C   UNL     1       9.482  -3.711   0.999  1.00  0.00     0.031 C 
ATOM     48  C   UNL     1      10.166   2.860  -0.327  1.00  0.00     0.029 A 
ATOM     49  C   UNL     1      11.186   1.982  -0.869  1.00  0.00     0.049 A 
ATOM     50  H   UNL     1      11.778   0.130  -0.084  1.00  0.00     0.167 HD
ATOM     51  C   UNL     1      11.952  -4.268   1.110  1.00  0.00     0.037 A 
ATOM     52  C   UNL     1      11.972   2.083  -1.971  1.00  0.00     0.037 A 
ATOM     53  C   UNL     1      13.144  -3.680   1.664  1.00  0.00     0.049 A 
ATOM     54  C   UNL     1      13.033   1.044  -1.843  1.00  0.00     0.074 A 
ATOM     55  C   UNL     1      13.566  -3.374   2.944  1.00  0.00     0.029 A 
ATOM     56  N   UNL     1      13.941  -2.945   0.820  1.00  0.00    -0.354 N 
ATOM     57  N   UNL     1      13.960   1.077  -0.923  1.00  0.00    -0.248 NA
ATOM     58  C   UNL     1      12.744  -0.277  -2.388  1.00  0.00     0.031 C 
ATOM     59  C   UNL     1      14.247  -2.128   2.819  1.00  0.00     0.029 A 
ATOM     60  C   UNL     1      14.267  -1.780   1.468  1.00  0.00     0.049 A 
ATOM     61  H   UNL     1      14.227  -3.207  -0.085  1.00  0.00     0.167 HD
ATOM     62  C   UNL     1      14.069  -0.234  -0.476  1.00  0.00     0.074 A 
ATOM     63  C   UNL     1      13.327  -1.032  -1.451  1.00  0.00     0.031 C 
ATOM     64  C   UNL     1      14.487  -0.522   0.792  1.00  0.00     0.037 A 
BRANCH  51  65
ATOM     65  C   UNL     1      11.988  -5.297   0.016  1.00  0.00     0.057 A 
ATOM     66  C   UNL     1      13.072  -6.185  -0.051  1.00  0.00     0.134 A 
ATOM     67  C   UNL     1      11.158  -5.269  -1.127  1.00  0.00     0.134 A 
ATOM     68  F   UNL     1      13.941  -6.283   0.966  1.00  0.00    -0.206 F 
ATOM     69  C   UNL     1      13.344  -6.942  -1.195  1.00  0.00     0.040 A 
ATOM     70  C   UNL     1      11.388  -6.061  -2.250  1.00  0.00     0.040 A 
ATOM     71  F   UNL     1      10.147  -4.402  -1.264  1.00  0.00    -0.206 F 
ATOM     72  C   UNL     1      12.504  -6.878  -2.301  1.00  0.00     0.006 A 
ENDBRANCH  51  65
BRANCH  52  73
ATOM     73  C   UNL     1      11.610   2.702  -3.268  1.00  0.00     0.057 A 
ATOM     74  C   UNL     1      12.582   3.054  -4.214  1.00  0.00     0.134 A 
ATOM     75  C   UNL     1      10.277   2.719  -3.719  1.00  0.00     0.134 A 
ATOM     76  F   UNL     1      13.884   3.015  -3.896  1.00  0.00    -0.206 F 
ATOM     77  C   UNL     1      12.248   3.402  -5.532  1.00  0.00     0.040 A 
ATOM     78  C   UNL     1       9.929   3.067  -5.028  1.00  0.00     0.040 A 
ATOM     79  F   UNL     1       9.274   2.313  -2.928  1.00  0.00    -0.206 F 
ATOM     80  C   UNL     1      10.918   3.402  -5.944  1.00  0.00     0.006 A 
ENDBRANCH  52  73
BRANCH  64  81
ATOM     81  C   UNL     1      15.008   0.613   1.634  1.00  0.00     0.057 A 
ATOM     82  C   UNL     1      14.219   1.687   2.078  1.00  0.00     0.134 A 
ATOM     83  C   UNL     1      16.303   0.528   2.152  1.00  0.00     0.134 A 
ATOM     84  F   UNL     1      12.934   1.794   1.718  1.00  0.00    -0.206 F 
ATOM     85  C   UNL     1      14.711   2.651   2.964  1.00  0.00     0.040 A 
ATOM     86  C   UNL     1      16.797   1.467   3.061  1.00  0.00     0.040 A 
ATOM     87  F   UNL     1      17.094  -0.504   1.823  1.00  0.00    -0.206 F 
ATOM     88  C   UNL     1      16.004   2.538   3.463  1.00  0.00     0.006 A 
ENDBRANCH  64  81
ENDBRANCH  38  39
ENDBRANCH  31  33
ENDBRANCH  30  31
ENDBRANCH  29  30
ENDBRANCH  28  29
ENDBRANCH  27  28
ENDBRANCH   1  27
TORSDOF 17
