REMARK SMILES COC(=O)c1ccccc1N1C(=O)/C(=C\c2ccc(-c3ccc(Cl)c(C(=O)OCCOCCOC(=O)c4ccc(-c5c6nc(c(-c7c(F)cccc7F)c7ccc([nH]7)c(-c7c(F)cccc7F)c7nc(c(-c8c(F)cccc8F)c8ccc5[nH]8)C=C7)C=C6)cc4)c3)o2)SC1=S
REMARK SMILES IDX 29 1 28 2 26 3 27 4 25 5 20 6 21 7 91 8 22 9 23 10 24 11
REMARK SMILES IDX 19 12 16 13 17 14 92 15 18 16 15 17 11 18 12 19 94 20 13 21
REMARK SMILES IDX 14 22 93 23 95 24 10 25 5 26 6 27 7 28 9 29 8 30 3 31 4 32
REMARK SMILES IDX 2 33 1 34 30 35 31 36 32 37 33 38 34 39 35 40 36 41 37 42
REMARK SMILES IDX 38 43 90 44 39 45 89 46 40 47 41 48 42 49 83 50 43 51 88 52
REMARK SMILES IDX 82 53 84 54 44 55 87 56 81 57 80 58 45 60 71 61 54 62 70 63
REMARK SMILES IDX 55 64 58 65 69 66 85 67 56 68 57 69 68 71 86 72 59 73 46 74
REMARK SMILES IDX 47 75 52 76 48 77 49 78 51 79 53 80 50 81 72 82 73 83 78 84
REMARK SMILES IDX 74 85 75 86 77 87 79 88 76 89 60 90 61 91 66 92 62 93 63 94
REMARK SMILES IDX 65 95 67 96 64 97
REMARK H PARENT 84 59 58 70
REMARK Flexibility Score: inf
ROOT
ATOM      1  C   UNL     1      -4.952  12.163  -4.876  1.00  0.00     0.261 C 
ENDROOT
BRANCH   1   2
ATOM      2  O   UNL     1      -4.906  11.140  -3.872  1.00  0.00    -0.460 OA
BRANCH   2   3
ATOM      3  C   UNL     1      -4.761  11.574  -2.593  1.00  0.00     0.339 C 
ATOM      4  O   UNL     1      -4.488  12.705  -2.230  1.00  0.00    -0.246 OA
BRANCH   3   5
ATOM      5  C   UNL     1      -5.066  10.447  -1.686  1.00  0.00     0.079 A 
ATOM      6  C   UNL     1      -4.718   8.096  -1.128  1.00  0.00     0.018 A 
ATOM      7  C   UNL     1      -5.565   8.248  -0.025  1.00  0.00     0.013 A 
ATOM      8  C   UNL     1      -4.490   9.200  -1.961  1.00  0.00     0.029 A 
ATOM      9  C   UNL     1      -6.158   9.488   0.245  1.00  0.00     0.022 A 
ATOM     10  C   UNL     1      -5.909  10.591  -0.580  1.00  0.00     0.055 A 
ATOM     11  Cl  UNL     1      -6.730  12.062  -0.207  1.00  0.00    -0.083 Cl
BRANCH   6  12
ATOM     12  C   UNL     1      -3.998   6.861  -1.394  1.00  0.00     0.134 A 
ATOM     13  C   UNL     1      -3.709   4.664  -1.339  1.00  0.00     0.128 A 
ATOM     14  C   UNL     1      -2.586   5.226  -1.935  1.00  0.00     0.051 A 
ATOM     15  O   UNL     1      -4.592   5.683  -1.048  1.00  0.00    -0.457 OA
ATOM     16  C   UNL     1      -2.759   6.622  -1.944  1.00  0.00     0.051 A 
BRANCH  13  17
ATOM     17  C   UNL     1      -3.932   3.300  -1.016  1.00  0.00     0.068 C 
ATOM     18  N   UNL     1      -1.774   2.389   1.793  1.00  0.00    -0.260 N 
ATOM     19  C   UNL     1      -2.275   3.326   0.898  1.00  0.00     0.270 C 
ATOM     20  C   UNL     1      -2.272   1.103   1.692  1.00  0.00     0.152 C 
ATOM     21  O   UNL     1      -1.978   4.514   0.872  1.00  0.00    -0.268 OA
ATOM     22  C   UNL     1      -3.248   2.690  -0.037  1.00  0.00     0.084 C 
ATOM     23  S   UNL     1      -3.392   1.011   0.328  1.00  0.00    -0.054 SA
ATOM     24  S   UNL     1      -2.029  -0.206   2.704  1.00  0.00    -0.051 S 
BRANCH  18  25
ATOM     25  C   UNL     1      -0.852   2.845   2.783  1.00  0.00     0.065 A 
ATOM     26  C   UNL     1       0.467   2.373   2.928  1.00  0.00     0.084 A 
ATOM     27  C   UNL     1       1.302   2.960   3.900  1.00  0.00     0.018 A 
ATOM     28  C   UNL     1       0.850   4.004   4.709  1.00  0.00     0.001 A 
ATOM     29  C   UNL     1      -1.288   3.899   3.615  1.00  0.00     0.028 A 
ATOM     30  C   UNL     1      -0.448   4.472   4.569  1.00  0.00     0.002 A 
BRANCH  26  31
ATOM     31  C   UNL     1       1.114   1.328   2.093  1.00  0.00     0.339 C 
ATOM     32  O   UNL     1       2.043   0.642   2.493  1.00  0.00    -0.246 OA
BRANCH  31  33
ATOM     33  O   UNL     1       0.584   1.284   0.844  1.00  0.00    -0.465 OA
ATOM     34  C   UNL     1       1.144   0.250   0.029  1.00  0.00     0.282 C 
ENDBRANCH  31  33
ENDBRANCH  26  31
ENDBRANCH  18  25
ENDBRANCH  13  17
ENDBRANCH   6  12
ENDBRANCH   3   5
ENDBRANCH   2   3
ENDBRANCH   1   2
BRANCH   1  35
ATOM     35  C   UNL     1      -6.292  12.148  -5.619  1.00  0.00     0.202 C 
BRANCH  35  36
ATOM     36  O   UNL     1      -7.475  12.369  -4.853  1.00  0.00    -0.374 OA
BRANCH  36  37
ATOM     37  C   UNL     1      -7.925  11.324  -3.993  1.00  0.00     0.202 C 
BRANCH  37  38
ATOM     38  C   UNL     1      -8.603  10.103  -4.629  1.00  0.00     0.261 C 
BRANCH  38  39
ATOM     39  O   UNL     1      -7.792   9.442  -5.614  1.00  0.00    -0.460 OA
BRANCH  39  40
ATOM     40  C   UNL     1      -8.194   9.652  -6.892  1.00  0.00     0.338 C 
ATOM     41  O   UNL     1      -9.171  10.277  -7.268  1.00  0.00    -0.246 OA
BRANCH  40  42
ATOM     42  C   UNL     1      -7.179   9.152  -7.836  1.00  0.00     0.060 A 
ATOM     43  C   UNL     1      -6.657  10.068  -8.757  1.00  0.00     0.016 A 
ATOM     44  C   UNL     1      -6.821   7.804  -7.891  1.00  0.00     0.016 A 
ATOM     45  C   UNL     1      -5.810   9.629  -9.771  1.00  0.00     0.010 A 
ATOM     46  C   UNL     1      -5.971   7.364  -8.914  1.00  0.00     0.010 A 
ATOM     47  C   UNL     1      -5.491   8.268  -9.880  1.00  0.00    -0.014 A 
BRANCH  47  48
ATOM     48  C   UNL     1      -4.742   7.799 -11.072  1.00  0.00     0.031 A 
ATOM     49  C   UNL     1      -5.474   7.091 -12.181  1.00  0.00     0.074 A 
ATOM     50  C   UNL     1      -3.425   8.053 -11.187  1.00  0.00     0.049 A 
ATOM     51  N   UNL     1      -5.012   6.633 -13.317  1.00  0.00    -0.248 NA
ATOM     52  C   UNL     1      -6.915   6.869 -11.986  1.00  0.00     0.031 C 
ATOM     53  C   UNL     1      -2.610   8.748 -10.191  1.00  0.00     0.029 A 
ATOM     54  N   UNL     1      -2.543   7.758 -12.196  1.00  0.00    -0.354 N 
ATOM     55  C   UNL     1      -6.100   6.059 -13.965  1.00  0.00     0.074 A 
ATOM     56  C   UNL     1      -7.240   6.203 -13.085  1.00  0.00     0.031 C 
ATOM     57  C   UNL     1      -1.345   8.824 -10.638  1.00  0.00     0.029 A 
ATOM     58  C   UNL     1      -1.255   8.159 -11.935  1.00  0.00     0.049 A 
ATOM     59  H   UNL     1      -2.808   7.302 -13.028  1.00  0.00     0.167 HD
ATOM     60  C   UNL     1      -6.143   5.472 -15.185  1.00  0.00     0.037 A 
ATOM     61  C   UNL     1      -0.128   7.991 -12.654  1.00  0.00     0.037 A 
ATOM     62  C   UNL     1      -5.011   5.348 -16.067  1.00  0.00     0.049 A 
ATOM     63  C   UNL     1      -0.203   7.298 -13.990  1.00  0.00     0.074 A 
ATOM     64  C   UNL     1      -4.971   4.821 -17.346  1.00  0.00     0.029 A 
ATOM     65  N   UNL     1      -3.719   5.743 -15.758  1.00  0.00    -0.354 N 
ATOM     66  N   UNL     1      -1.249   6.816 -14.617  1.00  0.00    -0.248 NA
ATOM     67  C   UNL     1       1.061   7.134 -14.722  1.00  0.00     0.031 C 
ATOM     68  C   UNL     1      -3.644   4.834 -17.784  1.00  0.00     0.029 A 
ATOM     69  C   UNL     1      -2.867   5.433 -16.806  1.00  0.00     0.049 A 
ATOM     70  H   UNL     1      -3.447   6.179 -14.918  1.00  0.00     0.167 HD
ATOM     71  C   UNL     1      -0.774   6.321 -15.826  1.00  0.00     0.074 A 
ATOM     72  C   UNL     1       0.649   6.584 -15.854  1.00  0.00     0.031 C 
ATOM     73  C   UNL     1      -1.452   5.701 -16.823  1.00  0.00     0.037 A 
BRANCH  60  74
ATOM     74  C   UNL     1      -7.450   4.888 -15.640  1.00  0.00     0.057 A 
ATOM     75  C   UNL     1      -8.532   5.689 -16.026  1.00  0.00     0.134 A 
ATOM     76  C   UNL     1      -7.596   3.500 -15.769  1.00  0.00     0.134 A 
ATOM     77  F   UNL     1      -8.463   7.024 -15.919  1.00  0.00    -0.206 F 
ATOM     78  C   UNL     1      -9.716   5.130 -16.513  1.00  0.00     0.040 A 
ATOM     79  C   UNL     1      -8.764   2.931 -16.279  1.00  0.00     0.040 A 
ATOM     80  F   UNL     1      -6.596   2.675 -15.422  1.00  0.00    -0.206 F 
ATOM     81  C   UNL     1      -9.830   3.748 -16.650  1.00  0.00     0.006 A 
ENDBRANCH  60  74
BRANCH  61  82
ATOM     82  C   UNL     1       1.179   8.461 -12.124  1.00  0.00     0.057 A 
ATOM     83  C   UNL     1       1.900   9.481 -12.754  1.00  0.00     0.134 A 
ATOM     84  C   UNL     1       1.764   7.859 -11.002  1.00  0.00     0.134 A 
ATOM     85  F   UNL     1       1.405  10.083 -13.846  1.00  0.00    -0.206 F 
ATOM     86  C   UNL     1       3.169   9.862 -12.312  1.00  0.00     0.040 A 
ATOM     87  C   UNL     1       3.017   8.252 -10.530  1.00  0.00     0.040 A 
ATOM     88  F   UNL     1       1.125   6.878 -10.348  1.00  0.00    -0.206 F 
ATOM     89  C   UNL     1       3.729   9.247 -11.194  1.00  0.00     0.006 A 
ENDBRANCH  61  82
BRANCH  73  90
ATOM     90  C   UNL     1      -0.668   5.298 -18.040  1.00  0.00     0.057 A 
ATOM     91  C   UNL     1       0.284   4.270 -18.005  1.00  0.00     0.134 A 
ATOM     92  C   UNL     1      -0.878   5.939 -19.268  1.00  0.00     0.134 A 
ATOM     93  F   UNL     1       0.543   3.622 -16.859  1.00  0.00    -0.206 F 
ATOM     94  C   UNL     1       1.025   3.922 -19.136  1.00  0.00     0.040 A 
ATOM     95  C   UNL     1      -0.168   5.576 -20.414  1.00  0.00     0.040 A 
ATOM     96  F   UNL     1      -1.784   6.923 -19.378  1.00  0.00    -0.206 F 
ATOM     97  C   UNL     1       0.795   4.573 -20.347  1.00  0.00     0.006 A 
ENDBRANCH  73  90
ENDBRANCH  47  48
ENDBRANCH  40  42
ENDBRANCH  39  40
ENDBRANCH  38  39
ENDBRANCH  37  38
ENDBRANCH  36  37
ENDBRANCH  35  36
ENDBRANCH   1  35
TORSDOF 19
