REMARK SMILES Cc1cc(F)ccc1OC1(C(=O)OCCOCCOC(=O)c2ccc(-c3c4nc(c(-c5c(F)cccc5F)c5ccc([nH]5)c(-c5c(F)cccc5F)c5nc(c(-c6c(F)cccc6F)c6ccc3[nH]6)C=C5)C=C4)cc2)CCN(C(=O)[C@H]2CCOC2)CC1
REMARK SMILES IDX 16 1 15 2 14 3 13 4 11 5 12 6 10 7 76 8 87 9 77 10 86 11
REMARK SMILES IDX 78 12 79 13 80 14 9 15 8 16 1 17 2 18 3 19 4 20 7 21 5 22
REMARK SMILES IDX 6 23 81 24 82 25 85 26 83 27 84 28 17 29 18 30 19 31 20 32
REMARK SMILES IDX 21 33 22 34 23 35 75 36 24 37 74 38 25 39 26 40 27 41 68 42
REMARK SMILES IDX 28 43 73 44 67 45 69 46 29 47 72 48 66 49 65 50 30 52 56 53
REMARK SMILES IDX 39 54 55 55 40 56 43 57 54 58 70 59 41 60 42 61 53 63 71 64
REMARK SMILES IDX 44 65 31 66 32 67 37 68 33 69 34 70 36 71 38 72 35 73 57 74
REMARK SMILES IDX 58 75 63 76 59 77 60 78 62 79 64 80 61 81 45 82 46 83 51 84
REMARK SMILES IDX 47 85 48 86 50 87 52 88 49 89
REMARK H PARENT 69 51 43 62
REMARK Flexibility Score: inf
ROOT
ATOM      1  O   UNL     1      11.049  10.258   0.872  1.00  0.00    -0.374 OA
ENDROOT
BRANCH   1   2
ATOM      2  C   UNL     1      11.476   8.971   1.323  1.00  0.00     0.202 C 
BRANCH   2   3
ATOM      3  C   UNL     1      10.408   8.120   2.017  1.00  0.00     0.261 C 
BRANCH   3   4
ATOM      4  O   UNL     1       9.510   7.571   1.032  1.00  0.00    -0.460 OA
BRANCH   4   5
ATOM      5  C   UNL     1       8.205   7.941   1.139  1.00  0.00     0.350 C 
ATOM      6  O   UNL     1       7.737   8.455   2.153  1.00  0.00    -0.247 OA
BRANCH   5   7
ATOM      7  C   UNL     1       7.369   7.643  -0.149  1.00  0.00     0.209 C 
ATOM      8  C   UNL     1       8.235   7.446  -1.392  1.00  0.00     0.082 C 
ATOM      9  C   UNL     1       6.504   6.466   0.286  1.00  0.00     0.082 C 
ATOM     10  C   UNL     1       8.075   6.145  -2.166  1.00  0.00     0.124 C 
ATOM     11  C   UNL     1       6.000   5.580  -0.828  1.00  0.00     0.124 C 
ATOM     12  N   UNL     1       7.010   5.214  -1.814  1.00  0.00    -0.342 N 
ATOM     13  C   UNL     1       6.924   4.093  -2.648  1.00  0.00     0.228 C 
ATOM     14  O   UNL     1       7.767   3.898  -3.528  1.00  0.00    -0.274 OA
BRANCH   7  15
ATOM     15  O   UNL     1       6.709   8.923  -0.159  1.00  0.00    -0.475 OA
BRANCH  15  16
ATOM     16  C   UNL     1       5.756   9.578  -0.844  1.00  0.00     0.124 A 
ATOM     17  C   UNL     1       5.265   8.159  -2.956  1.00  0.00     0.048 C 
ATOM     18  C   UNL     1       5.065   9.308  -2.027  1.00  0.00    -0.006 A 
ATOM     19  C   UNL     1       4.087  10.234  -2.473  1.00  0.00     0.046 A 
ATOM     20  C   UNL     1       3.833  11.413  -1.788  1.00  0.00     0.123 A 
ATOM     21  C   UNL     1       5.481  10.798  -0.180  1.00  0.00     0.050 A 
ATOM     22  F   UNL     1       2.914  12.267  -2.254  1.00  0.00    -0.207 F 
ATOM     23  C   UNL     1       4.536  11.713  -0.642  1.00  0.00     0.043 A 
ENDBRANCH  15  16
ENDBRANCH   7  15
BRANCH  13  24
ATOM     24  C   UNL     1       5.746   3.148  -2.490  1.00  0.00     0.107 C 
ATOM     25  C   UNL     1       4.519   3.631  -3.237  1.00  0.00     0.044 C 
ATOM     26  C   UNL     1       6.002   1.807  -3.155  1.00  0.00     0.173 C 
ATOM     27  C   UNL     1       3.783   2.350  -3.576  1.00  0.00     0.161 C 
ATOM     28  O   UNL     1       4.719   1.272  -3.503  1.00  0.00    -0.381 OA
ENDBRANCH  13  24
ENDBRANCH   5   7
ENDBRANCH   4   5
ENDBRANCH   3   4
ENDBRANCH   2   3
ENDBRANCH   1   2
BRANCH   1  29
ATOM     29  C   UNL     1      10.264  10.317  -0.318  1.00  0.00     0.202 C 
BRANCH  29  30
ATOM     30  C   UNL     1      11.033  10.205  -1.641  1.00  0.00     0.261 C 
BRANCH  30  31
ATOM     31  O   UNL     1      11.689   8.931  -1.787  1.00  0.00    -0.460 OA
BRANCH  31  32
ATOM     32  C   UNL     1      13.041   8.985  -1.734  1.00  0.00     0.338 C 
ATOM     33  O   UNL     1      13.740   9.989  -1.670  1.00  0.00    -0.246 OA
BRANCH  32  34
ATOM     34  C   UNL     1      13.610   7.634  -1.586  1.00  0.00     0.060 A 
ATOM     35  C   UNL     1      14.484   7.423  -0.512  1.00  0.00     0.016 A 
ATOM     36  C   UNL     1      13.378   6.622  -2.521  1.00  0.00     0.016 A 
ATOM     37  C   UNL     1      15.175   6.219  -0.400  1.00  0.00     0.010 A 
ATOM     38  C   UNL     1      14.079   5.414  -2.409  1.00  0.00     0.010 A 
ATOM     39  C   UNL     1      15.010   5.223  -1.371  1.00  0.00    -0.014 A 
BRANCH  39  40
ATOM     40  C   UNL     1      15.924   4.053  -1.371  1.00  0.00     0.031 A 
ATOM     41  C   UNL     1      17.101   4.041  -2.308  1.00  0.00     0.074 A 
ATOM     42  C   UNL     1      15.744   3.037  -0.508  1.00  0.00     0.049 A 
ATOM     43  N   UNL     1      18.026   3.128  -2.469  1.00  0.00    -0.248 NA
ATOM     44  C   UNL     1      17.259   5.217  -3.177  1.00  0.00     0.031 C 
ATOM     45  C   UNL     1      14.671   2.948   0.480  1.00  0.00     0.029 A 
ATOM     46  N   UNL     1      16.467   1.884  -0.328  1.00  0.00    -0.354 N 
ATOM     47  C   UNL     1      18.870   3.616  -3.459  1.00  0.00     0.074 A 
ATOM     48  C   UNL     1      18.332   4.891  -3.883  1.00  0.00     0.031 C 
ATOM     49  C   UNL     1      14.803   1.798   1.162  1.00  0.00     0.029 A 
ATOM     50  C   UNL     1      15.951   1.058   0.639  1.00  0.00     0.049 A 
ATOM     51  H   UNL     1      17.278   1.670  -0.843  1.00  0.00     0.167 HD
ATOM     52  C   UNL     1      19.997   3.059  -3.963  1.00  0.00     0.037 A 
ATOM     53  C   UNL     1      16.349  -0.164   1.044  1.00  0.00     0.037 A 
ATOM     54  C   UNL     1      20.536   1.792  -3.542  1.00  0.00     0.049 A 
ATOM     55  C   UNL     1      17.561  -0.797   0.416  1.00  0.00     0.074 A 
ATOM     56  C   UNL     1      21.686   1.156  -3.979  1.00  0.00     0.029 A 
ATOM     57  N   UNL     1      19.958   0.964  -2.592  1.00  0.00    -0.354 N 
ATOM     58  N   UNL     1      18.366  -0.316  -0.500  1.00  0.00    -0.248 NA
ATOM     59  C   UNL     1      17.922  -2.145   0.881  1.00  0.00     0.031 C 
ATOM     60  C   UNL     1      21.776  -0.079  -3.329  1.00  0.00     0.029 A 
ATOM     61  C   UNL     1      20.711  -0.190  -2.450  1.00  0.00     0.049 A 
ATOM     62  H   UNL     1      19.134   1.166  -2.093  1.00  0.00     0.167 HD
ATOM     63  C   UNL     1      19.340  -1.286  -0.701  1.00  0.00     0.074 A 
ATOM     64  C   UNL     1      19.032  -2.380   0.197  1.00  0.00     0.031 C 
ATOM     65  C   UNL     1      20.397  -1.271  -1.551  1.00  0.00     0.037 A 
BRANCH  52  66
ATOM     66  C   UNL     1      20.709   3.808  -5.050  1.00  0.00     0.057 A 
ATOM     67  C   UNL     1      21.428   4.983  -4.793  1.00  0.00     0.134 A 
ATOM     68  C   UNL     1      20.697   3.334  -6.368  1.00  0.00     0.134 A 
ATOM     69  F   UNL     1      21.469   5.498  -3.555  1.00  0.00    -0.206 F 
ATOM     70  C   UNL     1      22.089   5.672  -5.812  1.00  0.00     0.040 A 
ATOM     71  C   UNL     1      21.375   4.000  -7.390  1.00  0.00     0.040 A 
ATOM     72  F   UNL     1      20.032   2.212  -6.682  1.00  0.00    -0.206 F 
ATOM     73  C   UNL     1      22.068   5.176  -7.114  1.00  0.00     0.006 A 
ENDBRANCH  52  66
BRANCH  53  74
ATOM     74  C   UNL     1      15.585  -0.880   2.097  1.00  0.00     0.057 A 
ATOM     75  C   UNL     1      16.124  -1.089   3.370  1.00  0.00     0.134 A 
ATOM     76  C   UNL     1      14.303  -1.385   1.847  1.00  0.00     0.134 A 
ATOM     77  F   UNL     1      17.358  -0.650   3.662  1.00  0.00    -0.206 F 
ATOM     78  C   UNL     1      15.422  -1.786   4.355  1.00  0.00     0.040 A 
ATOM     79  C   UNL     1      13.580  -2.063   2.829  1.00  0.00     0.040 A 
ATOM     80  F   UNL     1      13.731  -1.218   0.645  1.00  0.00    -0.206 F 
ATOM     81  C   UNL     1      14.143  -2.271   4.087  1.00  0.00     0.006 A 
ENDBRANCH  53  74
BRANCH  65  82
ATOM     82  C   UNL     1      21.317  -2.457  -1.529  1.00  0.00     0.057 A 
ATOM     83  C   UNL     1      20.944  -3.694  -2.068  1.00  0.00     0.134 A 
ATOM     84  C   UNL     1      22.610  -2.346  -1.000  1.00  0.00     0.134 A 
ATOM     85  F   UNL     1      19.716  -3.870  -2.579  1.00  0.00    -0.206 F 
ATOM     86  C   UNL     1      21.815  -4.786  -2.061  1.00  0.00     0.040 A 
ATOM     87  C   UNL     1      23.498  -3.422  -1.010  1.00  0.00     0.040 A 
ATOM     88  F   UNL     1      23.035  -1.186  -0.476  1.00  0.00    -0.206 F 
ATOM     89  C   UNL     1      23.099  -4.649  -1.537  1.00  0.00     0.006 A 
ENDBRANCH  65  82
ENDBRANCH  39  40
ENDBRANCH  32  34
ENDBRANCH  31  32
ENDBRANCH  30  31
ENDBRANCH  29  30
ENDBRANCH   1  29
TORSDOF 17
