REMARK SMILES Cc1ccccc1/[NH+]=C1\S[C@@H](CC(=O)Nc2ccc(C(=O)OCCOCCOC(=O)c3ccc(-c4c5nc(c(-c6c(F)cccc6F)c6ccc([nH]6)c(-c6c(F)cccc6F)c6nc(c(-c7c(F)cccc7F)c7ccc4[nH]7)C=C6)C=C5)cc3)cc2)C(=O)N1C
REMARK SMILES IDX 24 1 23 2 22 3 20 4 21 5 19 6 16 7 17 8 86 9 18 10 85 11
REMARK SMILES IDX 15 12 13 13 14 14 12 16 11 17 8 18 9 19 10 21 89 22 87 23
REMARK SMILES IDX 90 24 88 25 7 26 1 27 2 28 3 29 4 30 6 31 5 32 25 33 26 34
REMARK SMILES IDX 27 35 28 36 29 37 30 38 31 39 32 40 84 41 33 42 83 43 34 44
REMARK SMILES IDX 35 45 36 46 77 47 37 48 82 49 76 50 78 51 38 52 81 53 75 54
REMARK SMILES IDX 74 55 39 57 65 58 48 59 64 60 49 61 52 62 63 63 79 64 50 65
REMARK SMILES IDX 51 66 62 68 80 69 53 70 40 71 41 72 46 73 42 74 43 75 45 76
REMARK SMILES IDX 47 77 44 78 66 79 67 80 72 81 68 82 69 83 71 84 73 85 70 86
REMARK SMILES IDX 54 87 55 88 60 89 56 90 57 91 59 92 61 93 58 94
REMARK H PARENT 15 15 8 20 78 56 52 67
REMARK Flexibility Score: inf
ROOT
ATOM      1  C   UNL     1       3.940   8.123  -1.499  1.00  0.00     0.202 C 
ENDROOT
BRANCH   1   2
ATOM      2  C   UNL     1       3.648   6.833  -2.188  1.00  0.00     0.261 C 
BRANCH   2   3
ATOM      3  O   UNL     1       4.663   5.837  -1.911  1.00  0.00    -0.460 OA
BRANCH   3   4
ATOM      4  C   UNL     1       5.976   5.917  -2.268  1.00  0.00     0.338 C 
ATOM      5  O   UNL     1       6.489   6.441  -3.241  1.00  0.00    -0.246 OA
BRANCH   4   6
ATOM      6  C   UNL     1       6.719   5.214  -1.202  1.00  0.00     0.060 A 
ATOM      7  C   UNL     1       7.881   3.733   0.833  1.00  0.00     0.041 A 
ATOM      8  C   UNL     1       6.678   4.383   1.036  1.00  0.00     0.027 A 
ATOM      9  C   UNL     1       8.630   4.005  -0.308  1.00  0.00     0.027 A 
ATOM     10  C   UNL     1       6.066   5.063   0.019  1.00  0.00     0.018 A 
ATOM     11  C   UNL     1       8.038   4.754  -1.343  1.00  0.00     0.018 A 
BRANCH   7  12
ATOM     12  N   UNL     1       8.221   2.748   1.767  1.00  0.00    -0.326 N 
ATOM     13  C   UNL     1       7.300   1.832   2.266  1.00  0.00     0.226 C 
ATOM     14  O   UNL     1       7.463   1.283   3.353  1.00  0.00    -0.275 OA
ATOM     15  H   UNL     1       9.152   2.701   2.085  1.00  0.00     0.169 HD
BRANCH  13  16
ATOM     16  C   UNL     1       6.217   1.365   1.288  1.00  0.00     0.128 C 
BRANCH  16  17
ATOM     17  C   UNL     1       4.753   1.529   1.651  1.00  0.00     0.183 C 
ATOM     18  N   UNL     1       1.203   1.937   0.954  1.00  0.00    -0.234 N 
ATOM     19  C   UNL     1       2.461   2.180   0.884  1.00  0.00     0.319 C 
ATOM     20  H   UNL     1       0.683   2.610   1.449  1.00  0.00     0.313 HD
ATOM     21  S   UNL     1       3.761   1.356   0.105  1.00  0.00    -0.022 SA
ATOM     22  N   UNL     1       3.025   3.196   1.598  1.00  0.00    -0.193 N 
ATOM     23  C   UNL     1       4.204   2.836   2.223  1.00  0.00     0.324 C 
ATOM     24  C   UNL     1       2.369   4.469   1.819  1.00  0.00     0.301 C 
ATOM     25  O   UNL     1       4.667   3.409   3.203  1.00  0.00    -0.245 OA
BRANCH  18  26
ATOM     26  C   UNL     1       0.441   0.870   0.443  1.00  0.00     0.128 A 
ATOM     27  C   UNL     1       2.093  -1.127   0.643  1.00  0.00     0.049 C 
ATOM     28  C   UNL     1       0.758  -0.504   0.358  1.00  0.00    -0.004 A 
ATOM     29  C   UNL     1      -0.242  -1.429  -0.024  1.00  0.00     0.008 A 
ATOM     30  C   UNL     1      -1.555  -1.036  -0.249  1.00  0.00     0.001 A 
ATOM     31  C   UNL     1      -0.899   1.234   0.192  1.00  0.00     0.052 A 
ATOM     32  C   UNL     1      -1.888   0.302  -0.137  1.00  0.00     0.004 A 
ENDBRANCH  18  26
ENDBRANCH  16  17
ENDBRANCH  13  16
ENDBRANCH   7  12
ENDBRANCH   4   6
ENDBRANCH   3   4
ENDBRANCH   2   3
ENDBRANCH   1   2
BRANCH   1  33
ATOM     33  O   UNL     1       5.140   8.575  -2.090  1.00  0.00    -0.374 OA
BRANCH  33  34
ATOM     34  C   UNL     1       5.724   9.710  -1.498  1.00  0.00     0.202 C 
BRANCH  34  35
ATOM     35  C   UNL     1       4.853  10.950  -1.704  1.00  0.00     0.261 C 
BRANCH  35  36
ATOM     36  O   UNL     1       4.679  11.179  -3.121  1.00  0.00    -0.460 OA
BRANCH  36  37
ATOM     37  C   UNL     1       3.502  10.746  -3.655  1.00  0.00     0.338 C 
ATOM     38  O   UNL     1       2.394  10.957  -3.185  1.00  0.00    -0.246 OA
BRANCH  37  39
ATOM     39  C   UNL     1       3.762   9.732  -4.722  1.00  0.00     0.060 A 
ATOM     40  C   UNL     1       2.703   8.937  -5.204  1.00  0.00     0.016 A 
ATOM     41  C   UNL     1       5.077   9.353  -4.976  1.00  0.00     0.016 A 
ATOM     42  C   UNL     1       2.963   7.679  -5.771  1.00  0.00     0.010 A 
ATOM     43  C   UNL     1       5.321   8.079  -5.450  1.00  0.00     0.010 A 
ATOM     44  C   UNL     1       4.274   7.210  -5.799  1.00  0.00    -0.014 A 
BRANCH  44  45
ATOM     45  C   UNL     1       4.684   5.822  -6.058  1.00  0.00     0.031 A 
ATOM     46  C   UNL     1       5.592   5.551  -7.187  1.00  0.00     0.074 A 
ATOM     47  C   UNL     1       4.485   4.842  -5.141  1.00  0.00     0.049 A 
ATOM     48  N   UNL     1       5.881   4.368  -7.605  1.00  0.00    -0.248 NA
ATOM     49  C   UNL     1       6.209   6.596  -7.999  1.00  0.00     0.031 C 
ATOM     50  C   UNL     1       5.250   3.609  -4.931  1.00  0.00     0.029 A 
ATOM     51  N   UNL     1       3.524   4.764  -4.134  1.00  0.00    -0.354 N 
ATOM     52  C   UNL     1       6.984   4.481  -8.414  1.00  0.00     0.074 A 
ATOM     53  C   UNL     1       7.003   5.870  -8.790  1.00  0.00     0.031 C 
ATOM     54  C   UNL     1       4.577   2.792  -4.100  1.00  0.00     0.029 A 
ATOM     55  C   UNL     1       3.290   3.418  -3.844  1.00  0.00     0.049 A 
ATOM     56  H   UNL     1       3.083   5.530  -3.700  1.00  0.00     0.167 HD
ATOM     57  C   UNL     1       7.830   3.414  -8.499  1.00  0.00     0.037 A 
ATOM     58  C   UNL     1       2.052   2.876  -3.959  1.00  0.00     0.037 A 
ATOM     59  C   UNL     1       7.249   2.236  -7.810  1.00  0.00     0.049 A 
ATOM     60  C   UNL     1       2.169   1.786  -4.970  1.00  0.00     0.074 A 
ATOM     61  C   UNL     1       7.608   1.514  -6.682  1.00  0.00     0.029 A 
ATOM     62  N   UNL     1       5.946   1.818  -8.124  1.00  0.00    -0.354 N 
ATOM     63  N   UNL     1       2.987   1.865  -5.989  1.00  0.00    -0.248 NA
ATOM     64  C   UNL     1       1.585   0.463  -4.788  1.00  0.00     0.031 C 
ATOM     65  C   UNL     1       6.496   0.708  -6.296  1.00  0.00     0.029 A 
ATOM     66  C   UNL     1       5.460   0.914  -7.197  1.00  0.00     0.049 A 
ATOM     67  H   UNL     1       5.441   2.130  -8.909  1.00  0.00     0.167 HD
ATOM     68  C   UNL     1       3.171   0.609  -6.479  1.00  0.00     0.074 A 
ATOM     69  C   UNL     1       2.229  -0.226  -5.745  1.00  0.00     0.031 C 
ATOM     70  C   UNL     1       4.153   0.276  -7.360  1.00  0.00     0.037 A 
BRANCH  57  71
ATOM     71  C   UNL     1       9.278   3.477  -8.993  1.00  0.00     0.057 A 
ATOM     72  C   UNL     1      10.104   2.335  -8.926  1.00  0.00     0.134 A 
ATOM     73  C   UNL     1       9.957   4.617  -9.480  1.00  0.00     0.134 A 
ATOM     74  F   UNL     1       9.637   1.153  -8.503  1.00  0.00    -0.206 F 
ATOM     75  C   UNL     1      11.466   2.337  -9.284  1.00  0.00     0.040 A 
ATOM     76  C   UNL     1      11.307   4.627  -9.868  1.00  0.00     0.040 A 
ATOM     77  F   UNL     1       9.386   5.815  -9.598  1.00  0.00    -0.206 F 
ATOM     78  C   UNL     1      12.074   3.485  -9.763  1.00  0.00     0.006 A 
ENDBRANCH  57  71
BRANCH  58  79
ATOM     79  C   UNL     1       0.964   3.869  -3.734  1.00  0.00     0.057 A 
ATOM     80  C   UNL     1       0.747   4.300  -2.409  1.00  0.00     0.134 A 
ATOM     81  C   UNL     1       0.495   4.718  -4.742  1.00  0.00     0.134 A 
ATOM     82  F   UNL     1       1.227   3.581  -1.385  1.00  0.00    -0.206 F 
ATOM     83  C   UNL     1       0.188   5.547  -2.099  1.00  0.00     0.040 A 
ATOM     84  C   UNL     1      -0.043   5.983  -4.443  1.00  0.00     0.040 A 
ATOM     85  F   UNL     1       0.679   4.410  -6.033  1.00  0.00    -0.206 F 
ATOM     86  C   UNL     1      -0.162   6.416  -3.123  1.00  0.00     0.006 A 
ENDBRANCH  58  79
BRANCH  70  87
ATOM     87  C   UNL     1       3.930  -0.756  -8.431  1.00  0.00     0.057 A 
ATOM     88  C   UNL     1       2.660  -1.251  -8.780  1.00  0.00     0.134 A 
ATOM     89  C   UNL     1       4.977  -1.130  -9.296  1.00  0.00     0.134 A 
ATOM     90  F   UNL     1       1.548  -0.895  -8.123  1.00  0.00    -0.206 F 
ATOM     91  C   UNL     1       2.457  -2.097  -9.871  1.00  0.00     0.040 A 
ATOM     92  C   UNL     1       4.774  -1.927 -10.424  1.00  0.00     0.040 A 
ATOM     93  F   UNL     1       6.236  -0.704  -9.120  1.00  0.00    -0.206 F 
ATOM     94  C   UNL     1       3.513  -2.426 -10.707  1.00  0.00     0.006 A 
ENDBRANCH  70  87
ENDBRANCH  44  45
ENDBRANCH  37  39
ENDBRANCH  36  37
ENDBRANCH  35  36
ENDBRANCH  34  35
ENDBRANCH  33  34
ENDBRANCH   1  33
TORSDOF 18
