REMARK SMILES CC[C@@H](Oc1ccc(/C=C2/SC(=S)N(N3CCOCC3)C2=O)cc1OC)C(=O)OCCOCCOC(=O)c1ccc(-c2c3nc(c(-c4c(F)cccc4F)c4ccc([nH]4)c(-c4c(F)cccc4F)c4nc(c(-c5c(F)cccc5F)c5ccc2[nH]5)C=C4)C=C3)cc1
REMARK SMILES IDX 31 1 30 2 29 3 27 4 28 5 3 6 2 7 1 8 4 9 5 10 6 11 24 12
REMARK SMILES IDX 7 13 23 14 8 15 25 16 26 17 9 18 10 19 11 20 21 21 12 22
REMARK SMILES IDX 14 23 22 24 13 25 15 26 16 27 20 28 17 29 19 30 18 31 32 32
REMARK SMILES IDX 33 33 34 34 35 35 36 36 37 37 38 38 39 39 91 40 40 41 90 42
REMARK SMILES IDX 41 43 42 44 43 45 84 46 44 47 89 48 83 49 85 50 45 51 88 52
REMARK SMILES IDX 82 53 81 54 46 56 72 57 55 58 71 59 56 60 59 61 70 62 86 63
REMARK SMILES IDX 57 64 58 65 69 67 87 68 60 69 47 70 48 71 53 72 49 73 50 74
REMARK SMILES IDX 52 75 54 76 51 77 73 78 74 79 79 80 75 81 76 82 78 83 80 84
REMARK SMILES IDX 77 85 61 86 62 87 67 88 63 89 64 90 66 91 68 92 65 93
REMARK H PARENT 85 55 59 66
REMARK Flexibility Score: inf
ROOT
ATOM      1  C   UNL     1      -0.732   0.204  -5.915  1.00  0.00     0.202 C 
ENDROOT
BRANCH   1   2
ATOM      2  C   UNL     1      -0.431  -1.220  -5.435  1.00  0.00     0.261 C 
BRANCH   2   3
ATOM      3  O   UNL     1      -0.094  -1.227  -4.035  1.00  0.00    -0.461 OA
BRANCH   3   4
ATOM      4  C   UNL     1       1.143  -1.687  -3.691  1.00  0.00     0.347 C 
ATOM      5  O   UNL     1       1.978  -2.116  -4.479  1.00  0.00    -0.248 OA
BRANCH   4   6
ATOM      6  C   UNL     1       1.408  -1.530  -2.190  1.00  0.00     0.282 C 
BRANCH   6   7
ATOM      7  C   UNL     1       1.819  -0.072  -1.909  1.00  0.00     0.054 C 
ATOM      8  C   UNL     1       2.469   0.186  -0.556  1.00  0.00     0.008 C 
ENDBRANCH   6   7
BRANCH   6   9
ATOM      9  O   UNL     1       0.200  -1.896  -1.511  1.00  0.00    -0.475 OA
BRANCH   9  10
ATOM     10  C   UNL     1       0.436  -2.423  -0.276  1.00  0.00     0.162 A 
ATOM     11  C   UNL     1       0.969  -3.711  -0.160  1.00  0.00     0.051 A 
ATOM     12  C   UNL     1       0.130  -1.677   0.862  1.00  0.00     0.161 A 
ATOM     13  C   UNL     1       1.246  -4.241   1.102  1.00  0.00     0.012 A 
ATOM     14  C   UNL     1       0.483  -2.178   2.109  1.00  0.00     0.058 A 
ATOM     15  C   UNL     1       0.991  -3.478   2.243  1.00  0.00    -0.020 A 
BRANCH  12  16
ATOM     16  O   UNL     1      -0.427  -0.426   0.874  1.00  0.00    -0.493 OA
ATOM     17  C   UNL     1      -1.553  -0.281   0.011  1.00  0.00     0.278 C 
ENDBRANCH  12  16
BRANCH  15  18
ATOM     18  C   UNL     1       1.240  -4.020   3.580  1.00  0.00     0.029 C 
ATOM     19  C   UNL     1       0.317  -4.041   4.553  1.00  0.00     0.082 C 
ATOM     20  S   UNL     1       0.695  -4.427   6.190  1.00  0.00    -0.053 SA
ATOM     21  C   UNL     1      -1.123  -3.648   4.442  1.00  0.00     0.280 C 
ATOM     22  C   UNL     1      -0.828  -3.771   6.792  1.00  0.00     0.163 C 
ATOM     23  N   UNL     1      -1.625  -3.409   5.717  1.00  0.00    -0.220 N 
ATOM     24  O   UNL     1      -1.755  -3.617   3.394  1.00  0.00    -0.267 OA
ATOM     25  S   UNL     1      -1.142  -3.660   8.428  1.00  0.00    -0.050 S 
BRANCH  23  26
ATOM     26  N   UNL     1      -2.929  -2.943   5.843  1.00  0.00    -0.208 NA
ATOM     27  C   UNL     1      -3.231  -1.583   6.244  1.00  0.00     0.137 C 
ATOM     28  C   UNL     1      -4.049  -3.852   5.702  1.00  0.00     0.137 C 
ATOM     29  C   UNL     1      -4.194  -1.579   7.445  1.00  0.00     0.177 C 
ATOM     30  C   UNL     1      -4.908  -3.787   6.967  1.00  0.00     0.177 C 
ATOM     31  O   UNL     1      -5.326  -2.439   7.233  1.00  0.00    -0.379 OA
ENDBRANCH  23  26
ENDBRANCH  15  18
ENDBRANCH   9  10
ENDBRANCH   6   9
ENDBRANCH   4   6
ENDBRANCH   3   4
ENDBRANCH   2   3
ENDBRANCH   1   2
BRANCH   1  32
ATOM     32  O   UNL     1       0.417   1.041  -6.081  1.00  0.00    -0.374 OA
BRANCH  32  33
ATOM     33  C   UNL     1       0.941   1.610  -4.883  1.00  0.00     0.202 C 
BRANCH  33  34
ATOM     34  C   UNL     1       0.350   2.965  -4.486  1.00  0.00     0.261 C 
BRANCH  34  35
ATOM     35  O   UNL     1      -1.051   2.846  -4.184  1.00  0.00    -0.460 OA
BRANCH  35  36
ATOM     36  C   UNL     1      -1.869   3.333  -5.146  1.00  0.00     0.338 C 
ATOM     37  O   UNL     1      -1.549   3.955  -6.144  1.00  0.00    -0.246 OA
BRANCH  36  38
ATOM     38  C   UNL     1      -3.253   2.875  -4.918  1.00  0.00     0.060 A 
ATOM     39  C   UNL     1      -3.936   2.354  -6.023  1.00  0.00     0.016 A 
ATOM     40  C   UNL     1      -3.900   3.024  -3.688  1.00  0.00     0.016 A 
ATOM     41  C   UNL     1      -5.289   2.045  -5.924  1.00  0.00     0.010 A 
ATOM     42  C   UNL     1      -5.262   2.715  -3.591  1.00  0.00     0.010 A 
ATOM     43  C   UNL     1      -5.971   2.268  -4.721  1.00  0.00    -0.014 A 
BRANCH  43  44
ATOM     44  C   UNL     1      -7.451   2.183  -4.708  1.00  0.00     0.031 A 
ATOM     45  C   UNL     1      -8.255   3.451  -4.810  1.00  0.00     0.074 A 
ATOM     46  C   UNL     1      -8.072   0.991  -4.673  1.00  0.00     0.049 A 
ATOM     47  N   UNL     1      -9.554   3.611  -4.834  1.00  0.00    -0.248 NA
ATOM     48  C   UNL     1      -7.492   4.706  -4.898  1.00  0.00     0.031 C 
ATOM     49  C   UNL     1      -7.405  -0.308  -4.619  1.00  0.00     0.029 A 
ATOM     50  N   UNL     1      -9.410   0.684  -4.683  1.00  0.00    -0.354 N 
ATOM     51  C   UNL     1      -9.763   4.981  -4.936  1.00  0.00     0.074 A 
ATOM     52  C   UNL     1      -8.460   5.610  -4.938  1.00  0.00     0.031 C 
ATOM     53  C   UNL     1      -8.338  -1.275  -4.599  1.00  0.00     0.029 A 
ATOM     54  C   UNL     1      -9.665  -0.662  -4.611  1.00  0.00     0.049 A 
ATOM     55  H   UNL     1     -10.119   1.365  -4.737  1.00  0.00     0.167 HD
ATOM     56  C   UNL     1     -10.934   5.653  -5.031  1.00  0.00     0.037 A 
ATOM     57  C   UNL     1     -10.837  -1.323  -4.547  1.00  0.00     0.037 A 
ATOM     58  C   UNL     1     -12.230   5.028  -5.037  1.00  0.00     0.049 A 
ATOM     59  C   UNL     1     -12.127  -0.547  -4.585  1.00  0.00     0.074 A 
ATOM     60  C   UNL     1     -13.475   5.623  -5.151  1.00  0.00     0.029 A 
ATOM     61  N   UNL     1     -12.448   3.664  -4.917  1.00  0.00    -0.354 N 
ATOM     62  N   UNL     1     -12.313   0.745  -4.706  1.00  0.00    -0.248 NA
ATOM     63  C   UNL     1     -13.371  -1.324  -4.479  1.00  0.00     0.031 C 
ATOM     64  C   UNL     1     -14.448   4.623  -5.053  1.00  0.00     0.029 A 
ATOM     65  C   UNL     1     -13.808   3.401  -4.927  1.00  0.00     0.049 A 
ATOM     66  H   UNL     1     -11.741   2.984  -4.836  1.00  0.00     0.167 HD
ATOM     67  C   UNL     1     -13.689   0.933  -4.718  1.00  0.00     0.074 A 
ATOM     68  C   UNL     1     -14.292  -0.379  -4.603  1.00  0.00     0.031 C 
ATOM     69  C   UNL     1     -14.392   2.088  -4.818  1.00  0.00     0.037 A 
BRANCH  56  70
ATOM     70  C   UNL     1     -10.867   7.150  -5.113  1.00  0.00     0.057 A 
ATOM     71  C   UNL     1     -10.428   7.810  -6.268  1.00  0.00     0.134 A 
ATOM     72  C   UNL     1     -11.277   7.941  -4.033  1.00  0.00     0.134 A 
ATOM     73  F   UNL     1     -10.008   7.110  -7.333  1.00  0.00    -0.206 F 
ATOM     74  C   UNL     1     -10.380   9.203  -6.338  1.00  0.00     0.040 A 
ATOM     75  C   UNL     1     -11.257   9.335  -4.099  1.00  0.00     0.040 A 
ATOM     76  F   UNL     1     -11.712   7.372  -2.898  1.00  0.00    -0.206 F 
ATOM     77  C   UNL     1     -10.802   9.970  -5.253  1.00  0.00     0.006 A 
ENDBRANCH  56  70
BRANCH  57  78
ATOM     78  C   UNL     1     -10.850  -2.802  -4.431  1.00  0.00     0.057 A 
ATOM     79  C   UNL     1     -11.301  -3.610  -5.481  1.00  0.00     0.134 A 
ATOM     80  C   UNL     1     -10.429  -3.442  -3.259  1.00  0.00     0.134 A 
ATOM     81  F   UNL     1     -11.739  -3.054  -6.620  1.00  0.00    -0.206 F 
ATOM     82  C   UNL     1     -11.347  -5.000  -5.365  1.00  0.00     0.040 A 
ATOM     83  C   UNL     1     -10.447  -4.832  -3.138  1.00  0.00     0.040 A 
ATOM     84  F   UNL     1      -9.987  -2.724  -2.216  1.00  0.00    -0.206 F 
ATOM     85  C   UNL     1     -10.914  -5.615  -4.191  1.00  0.00     0.006 A 
ENDBRANCH  57  78
BRANCH  69  86
ATOM     86  C   UNL     1     -15.889   1.984  -4.841  1.00  0.00     0.057 A 
ATOM     87  C   UNL     1     -16.627   1.678  -3.692  1.00  0.00     0.134 A 
ATOM     88  C   UNL     1     -16.602   2.236  -6.020  1.00  0.00     0.134 A 
ATOM     89  F   UNL     1     -16.003   1.414  -2.533  1.00  0.00    -0.206 F 
ATOM     90  C   UNL     1     -18.021   1.604  -3.719  1.00  0.00     0.040 A 
ATOM     91  C   UNL     1     -17.996   2.191  -6.054  1.00  0.00     0.040 A 
ATOM     92  F   UNL     1     -15.956   2.545  -7.155  1.00  0.00    -0.206 F 
ATOM     93  C   UNL     1     -18.709   1.868  -4.901  1.00  0.00     0.006 A 
ENDBRANCH  69  86
ENDBRANCH  43  44
ENDBRANCH  36  38
ENDBRANCH  35  36
ENDBRANCH  34  35
ENDBRANCH  33  34
ENDBRANCH  32  33
ENDBRANCH   1  32
TORSDOF 20
