REMARK SMILES O=C(CSc1nnnn1-c1ccc(C(=O)OCCOCCOC(=O)c2ccc(-c3c4nc(c(-c5c(F)cccc5F)c5ccc([nH]5)c(-c5c(F)cccc5F)c5nc(c(-c6c(F)cccc6F)c6ccc3[nH]6)C=C5)C=C4)cc2)cc1)Nc1nc(-c2ccccc2)cs1
REMARK SMILES IDX 17 1 16 2 14 3 15 4 13 5 10 6 11 7 80 8 12 9 79 10 9 11 5 12
REMARK SMILES IDX 6 13 7 14 8 15 4 16 3 17 2 18 1 19 81 20 82 22 83 23 92 24
REMARK SMILES IDX 84 25 91 26 85 27 86 28 90 29 87 30 89 31 88 32 18 33 19 34
REMARK SMILES IDX 20 35 21 36 22 37 23 38 24 39 25 40 26 41 78 42 27 43 77 44
REMARK SMILES IDX 28 45 29 46 30 47 71 48 31 49 76 50 70 51 72 52 32 53 75 54
REMARK SMILES IDX 69 55 68 56 33 58 59 59 42 60 58 61 43 62 46 63 57 64 73 65
REMARK SMILES IDX 44 66 45 67 56 69 74 70 47 71 34 72 35 73 40 74 36 75 37 76
REMARK SMILES IDX 39 77 41 78 38 79 60 80 61 81 66 82 62 83 63 84 65 85 67 86
REMARK SMILES IDX 64 87 48 88 49 89 54 90 50 91 51 92 53 93 55 94 52 95
REMARK H PARENT 81 21 72 57 46 68
REMARK Flexibility Score: inf
ROOT
ATOM      1  C   UNL     1       4.058   9.368   0.307  1.00  0.00     0.261 C 
ENDROOT
BRANCH   1   2
ATOM      2  O   UNL     1       3.578   8.070   0.690  1.00  0.00    -0.460 OA
BRANCH   2   3
ATOM      3  C   UNL     1       4.373   7.414   1.571  1.00  0.00     0.338 C 
ATOM      4  O   UNL     1       5.450   7.781   2.007  1.00  0.00    -0.246 OA
BRANCH   3   5
ATOM      5  C   UNL     1       3.686   6.206   2.075  1.00  0.00     0.060 A 
ATOM      6  C   UNL     1       2.737   3.779   3.019  1.00  0.00     0.069 A 
ATOM      7  C   UNL     1       3.396   4.635   3.904  1.00  0.00     0.029 A 
ATOM      8  C   UNL     1       2.423   4.194   1.717  1.00  0.00     0.029 A 
ATOM      9  C   UNL     1       3.897   5.840   3.415  1.00  0.00     0.018 A 
ATOM     10  C   UNL     1       2.893   5.415   1.243  1.00  0.00     0.018 A 
BRANCH   6  11
ATOM     11  N   UNL     1       2.501   2.445   3.397  1.00  0.00    -0.187 N 
ATOM     12  C   UNL     1       2.821   1.282   2.715  1.00  0.00     0.214 A 
ATOM     13  N   UNL     1       2.408   0.253   3.420  1.00  0.00    -0.101 NA
ATOM     14  N   UNL     1       1.897   0.779   4.583  1.00  0.00    -0.022 NA
ATOM     15  N   UNL     1       2.029   2.100   4.615  1.00  0.00    -0.039 NA
BRANCH  12  16
ATOM     16  S   UNL     1       4.048   1.188   1.482  1.00  0.00    -0.074 SA
BRANCH  16  17
ATOM     17  C   UNL     1       3.093   1.085  -0.046  1.00  0.00     0.178 C 
BRANCH  17  18
ATOM     18  C   UNL     1       2.198  -0.131  -0.115  1.00  0.00     0.236 C 
ATOM     19  O   UNL     1       1.029   0.001  -0.467  1.00  0.00    -0.274 OA
ATOM     20  N   UNL     1       2.846  -1.303   0.197  1.00  0.00    -0.301 N 
ATOM     21  H   UNL     1       3.774  -1.263   0.524  1.00  0.00     0.172 HD
BRANCH  20  22
ATOM     22  C   UNL     1       2.243  -2.517   0.068  1.00  0.00     0.189 A 
ATOM     23  N   UNL     1       1.162  -2.831  -0.592  1.00  0.00    -0.220 NA
ATOM     24  S   UNL     1       3.044  -3.783   0.885  1.00  0.00    -0.105 S 
ATOM     25  C   UNL     1       0.877  -4.163  -0.376  1.00  0.00     0.084 A 
ATOM     26  C   UNL     1       1.770  -4.840   0.433  1.00  0.00     0.097 A 
BRANCH  25  27
ATOM     27  C   UNL     1      -0.281  -4.791  -0.975  1.00  0.00     0.001 A 
ATOM     28  C   UNL     1      -0.339  -4.958  -2.363  1.00  0.00     0.010 A 
ATOM     29  C   UNL     1      -1.347  -5.221  -0.178  1.00  0.00     0.010 A 
ATOM     30  C   UNL     1      -1.447  -5.574  -2.947  1.00  0.00     0.001 A 
ATOM     31  C   UNL     1      -2.458  -5.827  -0.766  1.00  0.00     0.001 A 
ATOM     32  C   UNL     1      -2.504  -6.009  -2.148  1.00  0.00     0.000 A 
ENDBRANCH  25  27
ENDBRANCH  20  22
ENDBRANCH  17  18
ENDBRANCH  16  17
ENDBRANCH  12  16
ENDBRANCH   6  11
ENDBRANCH   3   5
ENDBRANCH   2   3
ENDBRANCH   1   2
BRANCH   1  33
ATOM     33  C   UNL     1       3.234  10.501   0.923  1.00  0.00     0.202 C 
BRANCH  33  34
ATOM     34  O   UNL     1       3.232  10.625   2.344  1.00  0.00    -0.374 OA
BRANCH  34  35
ATOM     35  C   UNL     1       2.538   9.665   3.130  1.00  0.00     0.202 C 
BRANCH  35  36
ATOM     36  C   UNL     1       1.018   9.652   3.084  1.00  0.00     0.261 C 
BRANCH  36  37
ATOM     37  O   UNL     1       0.494   9.415   1.784  1.00  0.00    -0.460 OA
BRANCH  37  38
ATOM     38  C   UNL     1      -0.025  10.530   1.215  1.00  0.00     0.338 C 
ATOM     39  O   UNL     1       0.296  11.682   1.430  1.00  0.00    -0.246 OA
BRANCH  38  40
ATOM     40  C   UNL     1      -1.211  10.152   0.440  1.00  0.00     0.060 A 
ATOM     41  C   UNL     1      -1.907  11.191  -0.177  1.00  0.00     0.016 A 
ATOM     42  C   UNL     1      -1.750   8.860   0.548  1.00  0.00     0.016 A 
ATOM     43  C   UNL     1      -3.217  10.974  -0.545  1.00  0.00     0.010 A 
ATOM     44  C   UNL     1      -3.062   8.648   0.191  1.00  0.00     0.010 A 
ATOM     45  C   UNL     1      -3.800   9.723  -0.296  1.00  0.00    -0.014 A 
BRANCH  45  46
ATOM     46  C   UNL     1      -5.136   9.492  -0.811  1.00  0.00     0.031 A 
ATOM     47  C   UNL     1      -5.116   9.474  -2.290  1.00  0.00     0.074 A 
ATOM     48  C   UNL     1      -6.219   9.242  -0.048  1.00  0.00     0.049 A 
ATOM     49  N   UNL     1      -5.544  10.407  -3.070  1.00  0.00    -0.248 NA
ATOM     50  C   UNL     1      -4.324   8.439  -2.979  1.00  0.00     0.031 C 
ATOM     51  C   UNL     1      -6.249   9.010   1.399  1.00  0.00     0.029 A 
ATOM     52  N   UNL     1      -7.524   9.061  -0.413  1.00  0.00    -0.354 N 
ATOM     53  C   UNL     1      -5.352   9.917  -4.355  1.00  0.00     0.074 A 
ATOM     54  C   UNL     1      -4.393   8.854  -4.246  1.00  0.00     0.031 C 
ATOM     55  C   UNL     1      -7.455   8.501   1.748  1.00  0.00     0.029 A 
ATOM     56  C   UNL     1      -8.325   8.503   0.584  1.00  0.00     0.049 A 
ATOM     57  H   UNL     1      -7.868   9.303  -1.303  1.00  0.00     0.167 HD
ATOM     58  C   UNL     1      -6.308  10.155  -5.292  1.00  0.00     0.037 A 
ATOM     59  C   UNL     1      -9.604   8.064   0.449  1.00  0.00     0.037 A 
ATOM     60  C   UNL     1      -7.151  11.252  -4.878  1.00  0.00     0.049 A 
ATOM     61  C   UNL     1     -10.179   8.730  -0.738  1.00  0.00     0.074 A 
ATOM     62  C   UNL     1      -7.036  12.617  -4.736  1.00  0.00     0.029 A 
ATOM     63  N   UNL     1      -8.204  10.852  -4.103  1.00  0.00    -0.354 N 
ATOM     64  N   UNL     1     -10.489   9.994  -0.762  1.00  0.00    -0.248 NA
ATOM     65  C   UNL     1     -10.110   8.075  -2.039  1.00  0.00     0.031 C 
ATOM     66  C   UNL     1      -8.002  13.004  -3.756  1.00  0.00     0.029 A 
ATOM     67  C   UNL     1      -8.720  11.878  -3.365  1.00  0.00     0.049 A 
ATOM     68  H   UNL     1      -8.550   9.931  -4.079  1.00  0.00     0.167 HD
ATOM     69  C   UNL     1     -10.187  10.383  -2.049  1.00  0.00     0.074 A 
ATOM     70  C   UNL     1     -10.161   9.151  -2.829  1.00  0.00     0.031 C 
ATOM     71  C   UNL     1      -9.632  11.606  -2.280  1.00  0.00     0.037 A 
BRANCH  58  72
ATOM     72  C   UNL     1      -6.851   9.074  -6.210  1.00  0.00     0.057 A 
ATOM     73  C   UNL     1      -7.810   9.434  -7.175  1.00  0.00     0.134 A 
ATOM     74  C   UNL     1      -6.737   7.685  -5.981  1.00  0.00     0.134 A 
ATOM     75  F   UNL     1      -8.042  10.724  -7.464  1.00  0.00    -0.206 F 
ATOM     76  C   UNL     1      -8.628   8.491  -7.812  1.00  0.00     0.040 A 
ATOM     77  C   UNL     1      -7.514   6.733  -6.646  1.00  0.00     0.040 A 
ATOM     78  F   UNL     1      -5.953   7.167  -5.030  1.00  0.00    -0.206 F 
ATOM     79  C   UNL     1      -8.484   7.135  -7.546  1.00  0.00     0.006 A 
ENDBRANCH  58  72
BRANCH  59  80
ATOM     80  C   UNL     1     -10.368   7.007   1.152  1.00  0.00     0.057 A 
ATOM     81  C   UNL     1     -11.770   6.942   1.057  1.00  0.00     0.134 A 
ATOM     82  C   UNL     1      -9.732   5.861   1.652  1.00  0.00     0.134 A 
ATOM     83  F   UNL     1     -12.472   7.977   0.574  1.00  0.00    -0.206 F 
ATOM     84  C   UNL     1     -12.490   5.785   1.379  1.00  0.00     0.040 A 
ATOM     85  C   UNL     1     -10.442   4.699   1.982  1.00  0.00     0.040 A 
ATOM     86  F   UNL     1      -8.396   5.798   1.742  1.00  0.00    -0.206 F 
ATOM     87  C   UNL     1     -11.823   4.650   1.824  1.00  0.00     0.006 A 
ENDBRANCH  59  80
BRANCH  71  88
ATOM     88  C   UNL     1      -9.894  12.673  -1.264  1.00  0.00     0.057 A 
ATOM     89  C   UNL     1      -9.446  12.650   0.064  1.00  0.00     0.134 A 
ATOM     90  C   UNL     1     -10.628  13.793  -1.671  1.00  0.00     0.134 A 
ATOM     91  F   UNL     1      -8.672  11.655   0.520  1.00  0.00    -0.206 F 
ATOM     92  C   UNL     1      -9.766  13.674   0.960  1.00  0.00     0.040 A 
ATOM     93  C   UNL     1     -10.923  14.838  -0.797  1.00  0.00     0.040 A 
ATOM     94  F   UNL     1     -11.057  13.896  -2.939  1.00  0.00    -0.206 F 
ATOM     95  C   UNL     1     -10.506  14.773   0.529  1.00  0.00     0.006 A 
ENDBRANCH  71  88
ENDBRANCH  45  46
ENDBRANCH  38  40
ENDBRANCH  37  38
ENDBRANCH  36  37
ENDBRANCH  35  36
ENDBRANCH  34  35
ENDBRANCH  33  34
ENDBRANCH   1  33
TORSDOF 20
