REMARK SMILES C[C@]12C(=O)N(c3ccc(C(=O)OCCOCCOC(=O)c4ccc(-c5c6nc(c(-c7c(F)cccc7F)c7ccc([nH]7)c(-c7c(F)cccc7F)c7nc(c(-c8c(F)cccc8F)c8ccc5[nH]8)C=C7)C=C6)cc4)cc3)C(=O)[C@H]1[C@H]1c3ccccc3[C@@H]2c2ccccc21
REMARK SMILES IDX 16 1 15 2 14 3 13 4 12 5 10 6 11 7 9 8 6 9 7 10 76 11 8 12
REMARK SMILES IDX 75 13 5 14 1 15 2 16 3 17 79 18 87 19 4 20 77 21 80 22 86 23
REMARK SMILES IDX 88 24 78 25 81 26 93 27 85 28 89 29 82 30 92 31 84 32 90 33
REMARK SMILES IDX 83 34 91 35 17 36 18 37 19 38 20 39 21 40 22 41 74 42 23 43
REMARK SMILES IDX 73 44 24 45 25 46 26 47 67 48 27 49 72 50 66 51 68 52 28 53
REMARK SMILES IDX 71 54 65 55 64 56 29 58 55 59 38 60 54 61 39 62 42 63 53 64
REMARK SMILES IDX 69 65 40 66 41 67 52 69 70 70 43 71 30 72 31 73 36 74 32 75
REMARK SMILES IDX 33 76 35 77 37 78 34 79 56 80 57 81 62 82 58 83 59 84 61 85
REMARK SMILES IDX 63 86 60 87 44 88 45 89 50 90 46 91 47 92 49 93 51 94 48 95
REMARK H PARENT 68 57 42 68
REMARK Flexibility Score: inf
ROOT
ATOM      1  C   UNL     1       4.228   9.408  -2.657  1.00  0.00     0.202 C 
ENDROOT
BRANCH   1   2
ATOM      2  O   UNL     1       3.844  10.760  -2.883  1.00  0.00    -0.374 OA
BRANCH   2   3
ATOM      3  C   UNL     1       3.506  11.571  -1.759  1.00  0.00     0.202 C 
BRANCH   3   4
ATOM      4  C   UNL     1       2.224  11.241  -0.989  1.00  0.00     0.261 C 
BRANCH   4   5
ATOM      5  O   UNL     1       2.280   9.947  -0.365  1.00  0.00    -0.460 OA
BRANCH   5   6
ATOM      6  C   UNL     1       1.314   9.093  -0.779  1.00  0.00     0.338 C 
ATOM      7  O   UNL     1       0.370   9.339  -1.511  1.00  0.00    -0.246 OA
BRANCH   6   8
ATOM      8  C   UNL     1       1.652   7.712  -0.396  1.00  0.00     0.060 A 
ATOM      9  C   UNL     1       1.820   4.977   0.182  1.00  0.00     0.052 A 
ATOM     10  C   UNL     1       1.844   5.431  -1.145  1.00  0.00     0.028 A 
ATOM     11  C   UNL     1       1.857   5.929   1.215  1.00  0.00     0.028 A 
ATOM     12  C   UNL     1       1.716   6.783  -1.433  1.00  0.00     0.018 A 
ATOM     13  C   UNL     1       1.791   7.302   0.929  1.00  0.00     0.018 A 
BRANCH   9  14
ATOM     14  N   UNL     1       1.486   3.626   0.416  1.00  0.00    -0.250 N 
ATOM     15  C   UNL     1       1.103   0.234  -0.090  1.00  0.00     0.024 C 
ATOM     16  C   UNL     1       0.475   1.623  -0.058  1.00  0.00     0.071 C 
ATOM     17  C   UNL     1       1.501   2.630  -0.495  1.00  0.00     0.241 C 
ATOM     18  C   UNL     1      -0.081   2.003   1.354  1.00  0.00     0.107 C 
ATOM     19  C   UNL     1      -0.653   1.836  -1.177  1.00  0.00     0.066 C 
ATOM     20  O   UNL     1       2.171   2.524  -1.514  1.00  0.00    -0.273 OA
ATOM     21  C   UNL     1       1.042   3.101   1.577  1.00  0.00     0.238 C 
ATOM     22  C   UNL     1      -1.637   2.094   1.214  1.00  0.00     0.063 C 
ATOM     23  C   UNL     1      -1.317   3.207  -0.920  1.00  0.00    -0.036 A 
ATOM     24  C   UNL     1      -1.700   0.785  -0.884  1.00  0.00    -0.036 A 
ATOM     25  O   UNL     1       1.605   3.281   2.662  1.00  0.00    -0.274 OA
ATOM     26  C   UNL     1      -1.849   3.329   0.385  1.00  0.00    -0.036 A 
ATOM     27  C   UNL     1      -2.200   0.884   0.432  1.00  0.00    -0.036 A 
ATOM     28  C   UNL     1      -1.355   4.290  -1.781  1.00  0.00     0.005 A 
ATOM     29  C   UNL     1      -2.175  -0.162  -1.783  1.00  0.00     0.005 A 
ATOM     30  C   UNL     1      -2.401   4.511   0.846  1.00  0.00     0.004 A 
ATOM     31  C   UNL     1      -3.194   0.008   0.850  1.00  0.00     0.004 A 
ATOM     32  C   UNL     1      -1.897   5.494  -1.315  1.00  0.00     0.000 A 
ATOM     33  C   UNL     1      -3.176  -1.031  -1.360  1.00  0.00     0.000 A 
ATOM     34  C   UNL     1      -2.416   5.603  -0.015  1.00  0.00     0.000 A 
ATOM     35  C   UNL     1      -3.680  -0.949  -0.053  1.00  0.00     0.000 A 
ENDBRANCH   9  14
ENDBRANCH   6   8
ENDBRANCH   5   6
ENDBRANCH   4   5
ENDBRANCH   3   4
ENDBRANCH   2   3
ENDBRANCH   1   2
BRANCH   1  36
ATOM     36  C   UNL     1       5.602   9.132  -2.032  1.00  0.00     0.261 C 
BRANCH  36  37
ATOM     37  O   UNL     1       5.782   9.747  -0.749  1.00  0.00    -0.460 OA
BRANCH  37  38
ATOM     38  C   UNL     1       6.606  10.836  -0.757  1.00  0.00     0.338 C 
ATOM     39  O   UNL     1       7.195  11.307  -1.690  1.00  0.00    -0.246 OA
BRANCH  38  40
ATOM     40  C   UNL     1       6.534  11.490   0.573  1.00  0.00     0.060 A 
ATOM     41  C   UNL     1       6.718  10.765   1.748  1.00  0.00     0.016 A 
ATOM     42  C   UNL     1       6.311  12.873   0.615  1.00  0.00     0.016 A 
ATOM     43  C   UNL     1       6.706  11.436   2.972  1.00  0.00     0.010 A 
ATOM     44  C   UNL     1       6.306  13.543   1.840  1.00  0.00     0.010 A 
ATOM     45  C   UNL     1       6.524  12.832   3.027  1.00  0.00    -0.014 A 
BRANCH  45  46
ATOM     46  C   UNL     1       6.688  13.537   4.324  1.00  0.00     0.031 A 
ATOM     47  C   UNL     1       5.517  14.104   5.069  1.00  0.00     0.074 A 
ATOM     48  C   UNL     1       7.927  13.635   4.842  1.00  0.00     0.049 A 
ATOM     49  N   UNL     1       5.480  14.618   6.274  1.00  0.00    -0.248 NA
ATOM     50  C   UNL     1       4.222  14.101   4.375  1.00  0.00     0.031 C 
ATOM     51  C   UNL     1       9.151  13.163   4.191  1.00  0.00     0.029 A 
ATOM     52  N   UNL     1       8.361  14.139   6.041  1.00  0.00    -0.354 N 
ATOM     53  C   UNL     1       4.156  14.967   6.499  1.00  0.00     0.074 A 
ATOM     54  C   UNL     1       3.433  14.668   5.279  1.00  0.00     0.031 C 
ATOM     55  C   UNL     1      10.190  13.352   5.019  1.00  0.00     0.029 A 
ATOM     56  C   UNL     1       9.711  13.986   6.244  1.00  0.00     0.049 A 
ATOM     57  H   UNL     1       7.763  14.570   6.694  1.00  0.00     0.167 HD
ATOM     58  C   UNL     1       3.591  15.467   7.626  1.00  0.00     0.037 A 
ATOM     59  C   UNL     1      10.475  14.308   7.303  1.00  0.00     0.037 A 
ATOM     60  C   UNL     1       4.321  15.803   8.825  1.00  0.00     0.049 A 
ATOM     61  C   UNL     1       9.828  14.921   8.514  1.00  0.00     0.074 A 
ATOM     62  C   UNL     1       3.837  16.312  10.018  1.00  0.00     0.029 A 
ATOM     63  N   UNL     1       5.694  15.678   8.977  1.00  0.00    -0.354 N 
ATOM     64  N   UNL     1       8.562  15.170   8.745  1.00  0.00    -0.248 NA
ATOM     65  C   UNL     1      10.722  15.283   9.622  1.00  0.00     0.031 C 
ATOM     66  C   UNL     1       4.921  16.542  10.873  1.00  0.00     0.029 A 
ATOM     67  C   UNL     1       6.075  16.117  10.237  1.00  0.00     0.049 A 
ATOM     68  H   UNL     1       6.309  15.329   8.292  1.00  0.00     0.167 HD
ATOM     69  C   UNL     1       8.504  15.679  10.036  1.00  0.00     0.074 A 
ATOM     70  C   UNL     1       9.860  15.680  10.544  1.00  0.00     0.031 C 
ATOM     71  C   UNL     1       7.426  16.107  10.739  1.00  0.00     0.037 A 
BRANCH  58  72
ATOM     72  C   UNL     1       2.103  15.676   7.617  1.00  0.00     0.057 A 
ATOM     73  C   UNL     1       1.551  16.962   7.667  1.00  0.00     0.134 A 
ATOM     74  C   UNL     1       1.212  14.593   7.604  1.00  0.00     0.134 A 
ATOM     75  F   UNL     1       2.344  18.044   7.694  1.00  0.00    -0.206 F 
ATOM     76  C   UNL     1       0.169  17.164   7.704  1.00  0.00     0.040 A 
ATOM     77  C   UNL     1      -0.172  14.783   7.613  1.00  0.00     0.040 A 
ATOM     78  F   UNL     1       1.672  13.334   7.551  1.00  0.00    -0.206 F 
ATOM     79  C   UNL     1      -0.696  16.072   7.670  1.00  0.00     0.006 A 
ENDBRANCH  58  72
BRANCH  59  80
ATOM     80  C   UNL     1      11.937  14.043   7.291  1.00  0.00     0.057 A 
ATOM     81  C   UNL     1      12.799  14.752   6.447  1.00  0.00     0.134 A 
ATOM     82  C   UNL     1      12.513  13.121   8.174  1.00  0.00     0.134 A 
ATOM     83  F   UNL     1      12.310  15.641   5.571  1.00  0.00    -0.206 F 
ATOM     84  C   UNL     1      14.181  14.565   6.490  1.00  0.00     0.040 A 
ATOM     85  C   UNL     1      13.896  12.949   8.252  1.00  0.00     0.040 A 
ATOM     86  F   UNL     1      11.742  12.422   9.020  1.00  0.00    -0.206 F 
ATOM     87  C   UNL     1      14.734  13.674   7.408  1.00  0.00     0.006 A 
ENDBRANCH  59  80
BRANCH  71  88
ATOM     88  C   UNL     1       7.672  16.552  12.155  1.00  0.00     0.057 A 
ATOM     89  C   UNL     1       7.192  15.794  13.230  1.00  0.00     0.134 A 
ATOM     90  C   UNL     1       8.398  17.712  12.460  1.00  0.00     0.134 A 
ATOM     91  F   UNL     1       6.479  14.678  13.014  1.00  0.00    -0.206 F 
ATOM     92  C   UNL     1       7.437  16.163  14.554  1.00  0.00     0.040 A 
ATOM     93  C   UNL     1       8.681  18.072  13.780  1.00  0.00     0.040 A 
ATOM     94  F   UNL     1       8.900  18.478  11.479  1.00  0.00    -0.206 F 
ATOM     95  C   UNL     1       8.197  17.297  14.831  1.00  0.00     0.006 A 
ENDBRANCH  71  88
ENDBRANCH  45  46
ENDBRANCH  38  40
ENDBRANCH  37  38
ENDBRANCH  36  37
ENDBRANCH   1  36
TORSDOF 15
