REMARK SMILES O=C(OCCOCCOC(=O)[C@@H](F)Sc1ccccc1O)c1ccc(-c2c3nc(c(-c4c(F)cccc4F)c4ccc([nH]4)c(-c4c(F)cccc4F)c4nc(c(-c5c(F)cccc5F)c5ccc2[nH]5)C=C4)C=C3)cc1
REMARK SMILES IDX 7 1 6 2 5 3 4 4 3 5 2 6 1 7 22 8 23 9 75 10 24 11 74 12
REMARK SMILES IDX 25 13 26 14 27 15 68 16 28 17 73 18 67 19 69 20 29 21 72 22
REMARK SMILES IDX 66 23 65 24 30 26 56 27 39 28 55 29 40 30 43 31 54 32 70 33
REMARK SMILES IDX 41 34 42 35 53 37 71 38 44 39 31 40 32 41 37 42 33 43 34 44
REMARK SMILES IDX 36 45 38 46 35 47 57 48 58 49 63 50 59 51 60 52 62 53 64 54
REMARK SMILES IDX 61 55 45 56 46 57 51 58 47 59 48 60 50 61 52 62 49 63 8 64
REMARK SMILES IDX 9 65 10 66 11 67 12 68 13 69 14 70 15 71 16 72 20 73 17 74
REMARK SMILES IDX 19 75 18 76 21 77
REMARK H PARENT 69 25 43 36 21 78
REMARK Flexibility Score: inf
ROOT
ATOM      1  C   UNL     1       2.783   2.197  -0.298  1.00  0.00     0.202 C 
ENDROOT
BRANCH   1   2
ATOM      2  O   UNL     1       4.121   1.703  -0.437  1.00  0.00    -0.374 OA
BRANCH   2   3
ATOM      3  C   UNL     1       4.325   0.780  -1.511  1.00  0.00     0.202 C 
BRANCH   3   4
ATOM      4  C   UNL     1       4.059  -0.683  -1.142  1.00  0.00     0.261 C 
BRANCH   4   5
ATOM      5  O   UNL     1       2.679  -0.861  -0.766  1.00  0.00    -0.460 OA
BRANCH   5   6
ATOM      6  C   UNL     1       2.135  -0.977   0.466  1.00  0.00     0.338 C 
ATOM      7  O   UNL     1       0.922  -1.166   0.551  1.00  0.00    -0.246 OA
BRANCH   6   8
ATOM      8  C   UNL     1       2.913  -0.885   1.741  1.00  0.00     0.060 A 
ATOM      9  C   UNL     1       4.134  -0.228   1.890  1.00  0.00     0.016 A 
ATOM     10  C   UNL     1       2.315  -1.424   2.896  1.00  0.00     0.016 A 
ATOM     11  C   UNL     1       4.770  -0.140   3.118  1.00  0.00     0.010 A 
ATOM     12  C   UNL     1       2.932  -1.314   4.146  1.00  0.00     0.010 A 
ATOM     13  C   UNL     1       4.171  -0.678   4.252  1.00  0.00    -0.014 A 
BRANCH  13  14
ATOM     14  C   UNL     1       4.936  -0.625   5.507  1.00  0.00     0.031 A 
ATOM     15  C   UNL     1       5.683  -1.848   5.934  1.00  0.00     0.074 A 
ATOM     16  C   UNL     1       5.082   0.553   6.137  1.00  0.00     0.049 A 
ATOM     17  N   UNL     1       6.444  -2.028   6.978  1.00  0.00    -0.248 NA
ATOM     18  C   UNL     1       5.576  -3.022   5.051  1.00  0.00     0.031 C 
ATOM     19  C   UNL     1       4.489   1.820   5.699  1.00  0.00     0.029 A 
ATOM     20  N   UNL     1       5.804   0.889   7.249  1.00  0.00    -0.354 N 
ATOM     21  C   UNL     1       6.895  -3.337   6.888  1.00  0.00     0.074 A 
ATOM     22  C   UNL     1       6.320  -3.910   5.692  1.00  0.00     0.031 C 
ATOM     23  C   UNL     1       4.893   2.800   6.523  1.00  0.00     0.029 A 
ATOM     24  C   UNL     1       5.720   2.220   7.575  1.00  0.00     0.049 A 
ATOM     25  H   UNL     1       6.332   0.239   7.766  1.00  0.00     0.167 HD
ATOM     26  C   UNL     1       7.713  -3.996   7.739  1.00  0.00     0.037 A 
ATOM     27  C   UNL     1       6.237   2.881   8.627  1.00  0.00     0.037 A 
ATOM     28  C   UNL     1       8.257  -3.401   8.929  1.00  0.00     0.049 A 
ATOM     29  C   UNL     1       7.055   2.096   9.616  1.00  0.00     0.074 A 
ATOM     30  C   UNL     1       9.025  -3.983   9.918  1.00  0.00     0.029 A 
ATOM     31  N   UNL     1       8.079  -2.069   9.285  1.00  0.00    -0.354 N 
ATOM     32  N   UNL     1       7.418   0.835   9.570  1.00  0.00    -0.248 NA
ATOM     33  C   UNL     1       7.518   2.814  10.810  1.00  0.00     0.031 C 
ATOM     34  C   UNL     1       9.281  -3.011  10.893  1.00  0.00     0.029 A 
ATOM     35  C   UNL     1       8.709  -1.813  10.489  1.00  0.00     0.049 A 
ATOM     36  H   UNL     1       7.579  -1.406   8.757  1.00  0.00     0.167 HD
ATOM     37  C   UNL     1       8.161   0.609  10.720  1.00  0.00     0.074 A 
ATOM     38  C   UNL     1       8.214   1.872  11.432  1.00  0.00     0.031 C 
ATOM     39  C   UNL     1       8.740  -0.536  11.157  1.00  0.00     0.037 A 
BRANCH  26  40
ATOM     40  C   UNL     1       7.983  -5.439   7.437  1.00  0.00     0.057 A 
ATOM     41  C   UNL     1       8.816  -5.837   6.384  1.00  0.00     0.134 A 
ATOM     42  C   UNL     1       7.356  -6.446   8.181  1.00  0.00     0.134 A 
ATOM     43  F   UNL     1       9.421  -4.921   5.612  1.00  0.00    -0.206 F 
ATOM     44  C   UNL     1       8.995  -7.185   6.064  1.00  0.00     0.040 A 
ATOM     45  C   UNL     1       7.543  -7.797   7.885  1.00  0.00     0.040 A 
ATOM     46  F   UNL     1       6.536  -6.132   9.196  1.00  0.00    -0.206 F 
ATOM     47  C   UNL     1       8.358  -8.169   6.818  1.00  0.00     0.006 A 
ENDBRANCH  26  40
BRANCH  27  48
ATOM     48  C   UNL     1       5.956   4.327   8.822  1.00  0.00     0.057 A 
ATOM     49  C   UNL     1       6.973   5.286   8.769  1.00  0.00     0.134 A 
ATOM     50  C   UNL     1       4.657   4.785   9.082  1.00  0.00     0.134 A 
ATOM     51  F   UNL     1       8.242   4.913   8.546  1.00  0.00    -0.206 F 
ATOM     52  C   UNL     1       6.713   6.643   8.980  1.00  0.00     0.040 A 
ATOM     53  C   UNL     1       4.378   6.140   9.266  1.00  0.00     0.040 A 
ATOM     54  F   UNL     1       3.634   3.921   9.147  1.00  0.00    -0.206 F 
ATOM     55  C   UNL     1       5.410   7.074   9.223  1.00  0.00     0.006 A 
ENDBRANCH  27  48
BRANCH  39  56
ATOM     56  C   UNL     1       9.494  -0.457  12.448  1.00  0.00     0.057 A 
ATOM     57  C   UNL     1       8.835  -0.381  13.680  1.00  0.00     0.134 A 
ATOM     58  C   UNL     1      10.893  -0.506  12.457  1.00  0.00     0.134 A 
ATOM     59  F   UNL     1       7.495  -0.317  13.732  1.00  0.00    -0.206 F 
ATOM     60  C   UNL     1       9.543  -0.339  14.880  1.00  0.00     0.040 A 
ATOM     61  C   UNL     1      11.612  -0.489  13.651  1.00  0.00     0.040 A 
ATOM     62  F   UNL     1      11.580  -0.588  11.307  1.00  0.00    -0.206 F 
ATOM     63  C   UNL     1      10.936  -0.401  14.867  1.00  0.00     0.006 A 
ENDBRANCH  39  56
ENDBRANCH  13  14
ENDBRANCH   6   8
ENDBRANCH   5   6
ENDBRANCH   4   5
ENDBRANCH   3   4
ENDBRANCH   2   3
ENDBRANCH   1   2
BRANCH   1  64
ATOM     64  C   UNL     1       2.801   3.719  -0.409  1.00  0.00     0.261 C 
BRANCH  64  65
ATOM     65  O   UNL     1       3.183   4.034  -1.753  1.00  0.00    -0.460 OA
BRANCH  65  66
ATOM     66  C   UNL     1       4.493   4.298  -1.994  1.00  0.00     0.351 C 
ATOM     67  O   UNL     1       5.296   4.642  -1.129  1.00  0.00    -0.248 OA
BRANCH  66  68
ATOM     68  C   UNL     1       4.889   3.973  -3.428  1.00  0.00     0.338 C 
ATOM     69  F   UNL     1       4.957   2.629  -3.664  1.00  0.00    -0.222 F 
BRANCH  68  70
ATOM     70  S   UNL     1       3.924   4.802  -4.737  1.00  0.00    -0.073 SA
BRANCH  70  71
ATOM     71  C   UNL     1       2.222   4.465  -4.299  1.00  0.00     0.052 A 
ATOM     72  C   UNL     1       1.409   5.585  -4.073  1.00  0.00     0.019 A 
ATOM     73  C   UNL     1       1.655   3.189  -4.155  1.00  0.00     0.129 A 
ATOM     74  C   UNL     1       0.078   5.438  -3.679  1.00  0.00     0.001 A 
ATOM     75  C   UNL     1       0.323   3.039  -3.756  1.00  0.00     0.047 A 
ATOM     76  C   UNL     1      -0.463   4.165  -3.514  1.00  0.00     0.004 A 
BRANCH  73  77
ATOM     77  O   UNL     1       2.407   2.071  -4.387  1.00  0.00    -0.507 OA
ATOM     78  H   UNL     1       3.301   2.155  -4.655  1.00  0.00     0.293 HD
ENDBRANCH  73  77
ENDBRANCH  70  71
ENDBRANCH  68  70
ENDBRANCH  66  68
ENDBRANCH  65  66
ENDBRANCH  64  65
ENDBRANCH   1  64
TORSDOF 17
