REMARK SMILES COc1ccc(CCc2nnc(NC(=O)[C@@H]3[C@@H](C(=O)OCCOCCOC(=O)c4ccc(-c5c6nc(c(-c7c(F)cccc7F)c7ccc([nH]7)c(-c7c(F)cccc7F)c7nc(c(-c8c(F)cccc8F)c8ccc5[nH]8)C=C7)C=C6)cc4)C3(C)C)s2)cc1
REMARK SMILES IDX 21 1 20 2 18 3 19 4 17 5 16 6 83 7 84 8 85 9 14 10 13 11
REMARK SMILES IDX 15 13 12 14 9 15 10 16 86 17 11 18 8 19 7 20 6 21 3 22 4 23
REMARK SMILES IDX 88 24 5 25 87 26 2 27 1 28 22 29 23 30 24 31 25 32 26 33
REMARK SMILES IDX 27 34 28 35 29 36 30 37 82 38 31 39 81 40 32 41 33 42 34 43
REMARK SMILES IDX 75 44 35 45 80 46 74 47 76 48 36 49 79 50 73 51 72 52 37 54
REMARK SMILES IDX 63 55 46 56 62 57 47 58 50 59 61 60 77 61 48 62 49 63 60 65
REMARK SMILES IDX 78 66 51 67 38 68 39 69 44 70 40 71 41 72 43 73 45 74 42 75
REMARK SMILES IDX 64 76 65 77 70 78 66 79 67 80 69 81 71 82 68 83 52 84 53 85
REMARK SMILES IDX 58 86 54 87 55 88 57 89 59 90 56 91
REMARK H PARENT 13 12 76 53 50 64
REMARK Flexibility Score: inf
ROOT
ATOM      1  C   UNL     1      -7.580   6.057   7.702  1.00  0.00     0.261 C 
ENDROOT
BRANCH   1   2
ATOM      2  O   UNL     1      -6.777   5.231   6.853  1.00  0.00    -0.463 OA
BRANCH   2   3
ATOM      3  C   UNL     1      -5.865   4.471   7.503  1.00  0.00     0.310 C 
ATOM      4  O   UNL     1      -5.447   4.653   8.637  1.00  0.00    -0.252 OA
BRANCH   3   5
ATOM      5  C   UNL     1      -5.525   3.245   6.745  1.00  0.00     0.118 C 
ATOM      6  C   UNL     1      -4.091   3.028   6.391  1.00  0.00     0.100 C 
ATOM      7  C   UNL     1      -5.115   3.192   5.269  1.00  0.00    -0.009 C 
ATOM      8  C   UNL     1      -5.071   4.462   4.452  1.00  0.00     0.013 C 
ATOM      9  C   UNL     1      -5.559   2.005   4.453  1.00  0.00     0.013 C 
BRANCH   6  10
ATOM     10  C   UNL     1      -3.227   1.843   6.634  1.00  0.00     0.230 C 
ATOM     11  N   UNL     1      -3.567   0.528   6.783  1.00  0.00    -0.300 N 
ATOM     12  H   UNL     1      -2.790  -0.074   6.836  1.00  0.00     0.172 HD
ATOM     13  O   UNL     1      -2.011   2.063   6.635  1.00  0.00    -0.274 OA
BRANCH  11  14
ATOM     14  C   UNL     1      -4.757  -0.118   6.872  1.00  0.00     0.212 A 
ATOM     15  C   UNL     1      -6.370  -1.815   6.513  1.00  0.00     0.119 A 
ATOM     16  N   UNL     1      -6.917  -0.678   6.891  1.00  0.00    -0.142 NA
ATOM     17  S   UNL     1      -4.648  -1.806   6.588  1.00  0.00    -0.080 S 
ATOM     18  N   UNL     1      -5.973   0.307   7.087  1.00  0.00    -0.120 NA
BRANCH  15  19
ATOM     19  C   UNL     1      -7.130  -2.990   5.980  1.00  0.00     0.074 C 
BRANCH  19  20
ATOM     20  C   UNL     1      -8.130  -2.597   4.874  1.00  0.00     0.043 C 
BRANCH  20  21
ATOM     21  C   UNL     1      -7.533  -2.309   3.509  1.00  0.00    -0.047 A 
ATOM     22  C   UNL     1      -6.492  -1.715   0.952  1.00  0.00     0.118 A 
ATOM     23  C   UNL     1      -6.064  -1.005   2.067  1.00  0.00     0.046 A 
ATOM     24  C   UNL     1      -7.433  -2.731   1.107  1.00  0.00     0.046 A 
ATOM     25  C   UNL     1      -6.600  -1.283   3.325  1.00  0.00     0.007 A 
ATOM     26  C   UNL     1      -7.949  -3.025   2.378  1.00  0.00     0.007 A 
BRANCH  22  27
ATOM     27  O   UNL     1      -5.899  -1.369  -0.230  1.00  0.00    -0.497 OA
ATOM     28  C   UNL     1      -6.771  -1.377  -1.355  1.00  0.00     0.278 C 
ENDBRANCH  22  27
ENDBRANCH  20  21
ENDBRANCH  19  20
ENDBRANCH  15  19
ENDBRANCH  11  14
ENDBRANCH   6  10
ENDBRANCH   3   5
ENDBRANCH   2   3
ENDBRANCH   1   2
BRANCH   1  29
ATOM     29  C   UNL     1      -9.019   6.073   7.183  1.00  0.00     0.202 C 
BRANCH  29  30
ATOM     30  O   UNL     1      -9.704   4.820   7.211  1.00  0.00    -0.374 OA
BRANCH  30  31
ATOM     31  C   UNL     1      -9.306   3.813   6.277  1.00  0.00     0.202 C 
BRANCH  31  32
ATOM     32  C   UNL     1      -9.729   4.024   4.818  1.00  0.00     0.261 C 
BRANCH  32  33
ATOM     33  O   UNL     1      -9.062   5.141   4.200  1.00  0.00    -0.460 OA
BRANCH  33  34
ATOM     34  C   UNL     1      -9.868   6.183   3.883  1.00  0.00     0.338 C 
ATOM     35  O   UNL     1     -11.076   6.261   4.027  1.00  0.00    -0.246 OA
BRANCH  34  36
ATOM     36  C   UNL     1      -9.054   7.335   3.456  1.00  0.00     0.060 A 
ATOM     37  C   UNL     1      -9.231   8.550   4.131  1.00  0.00     0.016 A 
ATOM     38  C   UNL     1      -8.213   7.253   2.346  1.00  0.00     0.016 A 
ATOM     39  C   UNL     1      -8.600   9.704   3.670  1.00  0.00     0.010 A 
ATOM     40  C   UNL     1      -7.594   8.414   1.875  1.00  0.00     0.010 A 
ATOM     41  C   UNL     1      -7.814   9.649   2.513  1.00  0.00    -0.014 A 
BRANCH  41  42
ATOM     42  C   UNL     1      -7.361  10.898   1.857  1.00  0.00     0.031 A 
ATOM     43  C   UNL     1      -8.164  11.436   0.706  1.00  0.00     0.074 A 
ATOM     44  C   UNL     1      -6.249  11.533   2.263  1.00  0.00     0.049 A 
ATOM     45  N   UNL     1      -7.891  12.420  -0.111  1.00  0.00    -0.248 NA
ATOM     46  C   UNL     1      -9.449  10.767   0.438  1.00  0.00     0.031 C 
ATOM     47  C   UNL     1      -5.420  11.143   3.401  1.00  0.00     0.029 A 
ATOM     48  N   UNL     1      -5.616  12.634   1.743  1.00  0.00    -0.354 N 
ATOM     49  C   UNL     1      -8.956  12.476  -1.000  1.00  0.00     0.074 A 
ATOM     50  C   UNL     1      -9.875  11.421  -0.632  1.00  0.00     0.031 C 
ATOM     51  C   UNL     1      -4.369  11.978   3.478  1.00  0.00     0.029 A 
ATOM     52  C   UNL     1      -4.433  12.932   2.372  1.00  0.00     0.049 A 
ATOM     53  H   UNL     1      -5.976  13.159   0.991  1.00  0.00     0.167 HD
ATOM     54  C   UNL     1      -9.149  13.331  -2.032  1.00  0.00     0.037 A 
ATOM     55  C   UNL     1      -3.494  13.848   2.064  1.00  0.00     0.037 A 
ATOM     56  C   UNL     1      -8.235  14.381  -2.392  1.00  0.00     0.049 A 
ATOM     57  C   UNL     1      -3.693  14.741   0.868  1.00  0.00     0.074 A 
ATOM     58  C   UNL     1      -8.340  15.302  -3.419  1.00  0.00     0.029 A 
ATOM     59  N   UNL     1      -7.044  14.646  -1.734  1.00  0.00    -0.354 N 
ATOM     60  N   UNL     1      -4.701  14.787   0.030  1.00  0.00    -0.248 NA
ATOM     61  C   UNL     1      -2.624  15.706   0.571  1.00  0.00     0.031 C 
ATOM     62  C   UNL     1      -7.193  16.102  -3.405  1.00  0.00     0.029 A 
ATOM     63  C   UNL     1      -6.396  15.707  -2.343  1.00  0.00     0.049 A 
ATOM     64  H   UNL     1      -6.708  14.153  -0.951  1.00  0.00     0.167 HD
ATOM     65  C   UNL     1      -4.405  15.806  -0.868  1.00  0.00     0.074 A 
ATOM     66  C   UNL     1      -3.122  16.350  -0.476  1.00  0.00     0.031 C 
ATOM     67  C   UNL     1      -5.133  16.253  -1.919  1.00  0.00     0.037 A 
BRANCH  54  68
ATOM     68  C   UNL     1     -10.381  13.143  -2.864  1.00  0.00     0.057 A 
ATOM     69  C   UNL     1     -11.652  13.495  -2.393  1.00  0.00     0.134 A 
ATOM     70  C   UNL     1     -10.291  12.627  -4.163  1.00  0.00     0.134 A 
ATOM     71  F   UNL     1     -11.807  13.979  -1.151  1.00  0.00    -0.206 F 
ATOM     72  C   UNL     1     -12.793  13.323  -3.179  1.00  0.00     0.040 A 
ATOM     73  C   UNL     1     -11.422  12.472  -4.966  1.00  0.00     0.040 A 
ATOM     74  F   UNL     1      -9.103  12.272  -4.674  1.00  0.00    -0.206 F 
ATOM     75  C   UNL     1     -12.678  12.816  -4.472  1.00  0.00     0.006 A 
ENDBRANCH  54  68
BRANCH  55  76
ATOM     76  C   UNL     1      -2.263  13.953   2.886  1.00  0.00     0.057 A 
ATOM     77  C   UNL     1      -2.033  15.061   3.709  1.00  0.00     0.134 A 
ATOM     78  C   UNL     1      -1.280  12.956   2.857  1.00  0.00     0.134 A 
ATOM     79  F   UNL     1      -2.927  16.059   3.760  1.00  0.00    -0.206 F 
ATOM     80  C   UNL     1      -0.865  15.181   4.463  1.00  0.00     0.040 A 
ATOM     81  C   UNL     1      -0.117  13.052   3.623  1.00  0.00     0.040 A 
ATOM     82  F   UNL     1      -1.440  11.869   2.087  1.00  0.00    -0.206 F 
ATOM     83  C   UNL     1       0.095  14.172   4.425  1.00  0.00     0.006 A 
ENDBRANCH  55  76
BRANCH  67  84
ATOM     84  C   UNL     1      -4.600  17.425  -2.687  1.00  0.00     0.057 A 
ATOM     85  C   UNL     1      -3.552  17.294  -3.605  1.00  0.00     0.134 A 
ATOM     86  C   UNL     1      -5.202  18.684  -2.562  1.00  0.00     0.134 A 
ATOM     87  F   UNL     1      -2.929  16.117  -3.762  1.00  0.00    -0.206 F 
ATOM     88  C   UNL     1      -3.116  18.378  -4.369  1.00  0.00     0.040 A 
ATOM     89  C   UNL     1      -4.790  19.769  -3.335  1.00  0.00     0.040 A 
ATOM     90  F   UNL     1      -6.218  18.871  -1.706  1.00  0.00    -0.206 F 
ATOM     91  C   UNL     1      -3.743  19.618  -4.242  1.00  0.00     0.006 A 
ENDBRANCH  67  84
ENDBRANCH  41  42
ENDBRANCH  34  36
ENDBRANCH  33  34
ENDBRANCH  32  33
ENDBRANCH  31  32
ENDBRANCH  30  31
ENDBRANCH  29  30
ENDBRANCH   1  29
TORSDOF 20
