REMARK SMILES CCC[NH+]1CCC(NC(=O)NC2(CC(=O)OCCOCCOC(=O)c3ccc(-c4c5nc(c(-c6c(F)cccc6F)c6ccc([nH]6)c(-c6c(F)cccc6F)c6nc(c(-c7c(F)cccc7F)c7ccc4[nH]7)C=C6)C=C5)cc3)CCC2)CC1
REMARK SMILES IDX 17 1 16 2 14 3 15 4 13 5 12 6 79 7 81 8 80 9 11 10 8 11 9 12
REMARK SMILES IDX 10 14 7 16 4 17 5 18 83 19 6 21 82 22 3 23 2 24 1 25 18 26
REMARK SMILES IDX 19 27 20 28 21 29 22 30 23 31 24 32 25 33 26 34 78 35 27 36
REMARK SMILES IDX 77 37 28 38 29 39 30 40 71 41 31 42 76 43 70 44 72 45 32 46
REMARK SMILES IDX 75 47 69 48 68 49 33 51 59 52 42 53 58 54 43 55 46 56 57 57
REMARK SMILES IDX 73 58 44 59 45 60 56 62 74 63 47 64 34 65 35 66 40 67 36 68
REMARK SMILES IDX 37 69 39 70 41 71 38 72 60 73 61 74 66 75 62 76 63 77 65 78
REMARK SMILES IDX 67 79 64 80 48 81 49 82 54 83 50 84 51 85 53 86 55 87 52 88
REMARK H PARENT 8 13 11 15 4 20 72 50 46 61
REMARK Flexibility Score: inf
ROOT
ATOM      1  C   UNL     1      -0.679 -10.076  -1.866  1.00  0.00     0.261 C 
ENDROOT
BRANCH   1   2
ATOM      2  O   UNL     1      -1.497  -8.915  -1.629  1.00  0.00    -0.463 OA
BRANCH   2   3
ATOM      3  C   UNL     1      -2.791  -8.980  -2.030  1.00  0.00     0.308 C 
ATOM      4  O   UNL     1      -3.300  -9.941  -2.595  1.00  0.00    -0.252 OA
BRANCH   3   5
ATOM      5  C   UNL     1      -3.577  -7.718  -1.745  1.00  0.00     0.151 C 
BRANCH   5   6
ATOM      6  C   UNL     1      -2.871  -6.547  -1.017  1.00  0.00     0.052 C 
ATOM      7  C   UNL     1      -3.568  -5.188  -1.303  1.00  0.00     0.029 C 
ATOM      8  C   UNL     1      -1.649  -6.064  -1.824  1.00  0.00     0.029 C 
ATOM      9  C   UNL     1      -2.465  -4.856  -2.321  1.00  0.00     0.005 C 
BRANCH   6  10
ATOM     10  N   UNL     1      -2.800  -6.846   0.436  1.00  0.00    -0.332 N 
ATOM     11  N   UNL     1      -1.533  -5.317   1.784  1.00  0.00    -0.335 N 
ATOM     12  C   UNL     1      -2.323  -6.370   1.595  1.00  0.00     0.315 C 
ATOM     13  H   UNL     1      -1.311  -5.170   2.731  1.00  0.00     0.165 HD
ATOM     14  O   UNL     1      -2.672  -6.988   2.608  1.00  0.00    -0.249 OA
ATOM     15  H   UNL     1      -3.270  -7.693   0.610  1.00  0.00     0.165 HD
BRANCH  11  16
ATOM     16  C   UNL     1      -0.932  -4.345   0.908  1.00  0.00     0.095 C 
ATOM     17  N   UNL     1       0.760  -2.224  -0.131  1.00  0.00    -0.335 N 
ATOM     18  C   UNL     1      -0.638  -1.984   0.267  1.00  0.00     0.264 C 
ATOM     19  C   UNL     1       1.067  -3.645  -0.387  1.00  0.00     0.264 C 
ATOM     20  H   UNL     1       1.310  -1.916   0.670  1.00  0.00     0.348 HD
ATOM     21  C   UNL     1      -1.114  -2.914   1.385  1.00  0.00     0.086 C 
ATOM     22  C   UNL     1       0.557  -4.588   0.700  1.00  0.00     0.086 C 
BRANCH  17  23
ATOM     23  C   UNL     1       1.128  -1.448  -1.337  1.00  0.00     0.261 C 
BRANCH  23  24
ATOM     24  C   UNL     1       0.864   0.061  -1.281  1.00  0.00     0.058 C 
ATOM     25  C   UNL     1       1.569   0.754  -0.128  1.00  0.00     0.010 C 
ENDBRANCH  23  24
ENDBRANCH  17  23
ENDBRANCH  11  16
ENDBRANCH   6  10
ENDBRANCH   5   6
ENDBRANCH   3   5
ENDBRANCH   2   3
ENDBRANCH   1   2
BRANCH   1  26
ATOM     26  C   UNL     1      -0.074 -10.588  -0.558  1.00  0.00     0.202 C 
BRANCH  26  27
ATOM     27  O   UNL     1      -1.035 -11.121   0.355  1.00  0.00    -0.374 OA
BRANCH  27  28
ATOM     28  C   UNL     1      -1.693 -10.164   1.193  1.00  0.00     0.202 C 
BRANCH  28  29
ATOM     29  C   UNL     1      -0.886  -9.761   2.429  1.00  0.00     0.261 C 
BRANCH  29  30
ATOM     30  O   UNL     1       0.232  -8.932   2.053  1.00  0.00    -0.460 OA
BRANCH  30  31
ATOM     31  C   UNL     1       1.430  -9.369   2.490  1.00  0.00     0.338 C 
ATOM     32  O   UNL     1       1.652 -10.291   3.267  1.00  0.00    -0.246 OA
BRANCH  31  33
ATOM     33  C   UNL     1       2.515  -8.684   1.771  1.00  0.00     0.060 A 
ATOM     34  C   UNL     1       3.433  -9.485   1.083  1.00  0.00     0.016 A 
ATOM     35  C   UNL     1       2.705  -7.303   1.860  1.00  0.00     0.016 A 
ATOM     36  C   UNL     1       4.585  -8.916   0.545  1.00  0.00     0.010 A 
ATOM     37  C   UNL     1       3.856  -6.731   1.303  1.00  0.00     0.010 A 
ATOM     38  C   UNL     1       4.828  -7.543   0.690  1.00  0.00    -0.014 A 
BRANCH  38  39
ATOM     39  C   UNL     1       6.176  -7.012   0.357  1.00  0.00     0.031 A 
ATOM     40  C   UNL     1       7.145  -6.721   1.473  1.00  0.00     0.074 A 
ATOM     41  C   UNL     1       6.566  -6.866  -0.922  1.00  0.00     0.049 A 
ATOM     42  N   UNL     1       8.382  -6.296   1.410  1.00  0.00    -0.248 NA
ATOM     43  C   UNL     1       6.655  -6.937   2.844  1.00  0.00     0.031 C 
ATOM     44  C   UNL     1       5.740  -7.143  -2.096  1.00  0.00     0.029 A 
ATOM     45  N   UNL     1       7.768  -6.456  -1.445  1.00  0.00    -0.354 N 
ATOM     46  C   UNL     1       8.813  -6.189   2.727  1.00  0.00     0.074 A 
ATOM     47  C   UNL     1       7.696  -6.556   3.569  1.00  0.00     0.031 C 
ATOM     48  C   UNL     1       6.463  -6.904  -3.204  1.00  0.00     0.029 A 
ATOM     49  C   UNL     1       7.793  -6.436  -2.818  1.00  0.00     0.049 A 
ATOM     50  H   UNL     1       8.539  -6.201  -0.888  1.00  0.00     0.167 HD
ATOM     51  C   UNL     1      10.033  -5.835   3.196  1.00  0.00     0.037 A 
ATOM     52  C   UNL     1       8.776  -6.077  -3.667  1.00  0.00     0.037 A 
ATOM     53  C   UNL     1      11.156  -5.488   2.366  1.00  0.00     0.049 A 
ATOM     54  C   UNL     1      10.110  -5.641  -3.120  1.00  0.00     0.074 A 
ATOM     55  C   UNL     1      12.439  -5.141   2.751  1.00  0.00     0.029 A 
ATOM     56  N   UNL     1      11.127  -5.445   0.981  1.00  0.00    -0.354 N 
ATOM     57  N   UNL     1      10.511  -5.571  -1.874  1.00  0.00    -0.248 NA
ATOM     58  C   UNL     1      11.130  -5.240  -4.101  1.00  0.00     0.031 C 
ATOM     59  C   UNL     1      13.177  -4.849   1.599  1.00  0.00     0.029 A 
ATOM     60  C   UNL     1      12.365  -5.056   0.496  1.00  0.00     0.049 A 
ATOM     61  H   UNL     1      10.344  -5.660   0.424  1.00  0.00     0.167 HD
ATOM     62  C   UNL     1      11.832  -5.142  -1.922  1.00  0.00     0.074 A 
ATOM     63  C   UNL     1      12.170  -4.980  -3.321  1.00  0.00     0.031 C 
ATOM     64  C   UNL     1      12.689  -4.905  -0.899  1.00  0.00     0.037 A 
BRANCH  51  65
ATOM     65  C   UNL     1      10.212  -5.792   4.685  1.00  0.00     0.057 A 
ATOM     66  C   UNL     1      10.292  -6.960   5.454  1.00  0.00     0.134 A 
ATOM     67  C   UNL     1      10.331  -4.567   5.354  1.00  0.00     0.134 A 
ATOM     68  F   UNL     1      10.171  -8.165   4.875  1.00  0.00    -0.206 F 
ATOM     69  C   UNL     1      10.461  -6.912   6.838  1.00  0.00     0.040 A 
ATOM     70  C   UNL     1      10.524  -4.506   6.734  1.00  0.00     0.040 A 
ATOM     71  F   UNL     1      10.268  -3.412   4.675  1.00  0.00    -0.206 F 
ATOM     72  C   UNL     1      10.583  -5.681   7.482  1.00  0.00     0.006 A 
ENDBRANCH  51  65
BRANCH  52  73
ATOM     73  C   UNL     1       8.540  -6.112  -5.132  1.00  0.00     0.057 A 
ATOM     74  C   UNL     1       9.173  -7.056  -5.947  1.00  0.00     0.134 A 
ATOM     75  C   UNL     1       7.692  -5.187  -5.752  1.00  0.00     0.134 A 
ATOM     76  F   UNL     1      10.016  -7.952  -5.414  1.00  0.00    -0.206 F 
ATOM     77  C   UNL     1       8.983  -7.071  -7.330  1.00  0.00     0.040 A 
ATOM     78  C   UNL     1       7.475  -5.204  -7.131  1.00  0.00     0.040 A 
ATOM     79  F   UNL     1       7.057  -4.256  -5.025  1.00  0.00    -0.206 F 
ATOM     80  C   UNL     1       8.127  -6.145  -7.925  1.00  0.00     0.006 A 
ENDBRANCH  52  73
BRANCH  64  81
ATOM     81  C   UNL     1      14.082  -4.473  -1.251  1.00  0.00     0.057 A 
ATOM     82  C   UNL     1      14.358  -3.180  -1.713  1.00  0.00     0.134 A 
ATOM     83  C   UNL     1      15.164  -5.346  -1.082  1.00  0.00     0.134 A 
ATOM     84  F   UNL     1      13.364  -2.300  -1.907  1.00  0.00    -0.206 F 
ATOM     85  C   UNL     1      15.661  -2.776  -2.012  1.00  0.00     0.040 A 
ATOM     86  C   UNL     1      16.473  -4.947  -1.356  1.00  0.00     0.040 A 
ATOM     87  F   UNL     1      14.968  -6.595  -0.635  1.00  0.00    -0.206 F 
ATOM     88  C   UNL     1      16.723  -3.659  -1.827  1.00  0.00     0.006 A 
ENDBRANCH  64  81
ENDBRANCH  38  39
ENDBRANCH  31  33
ENDBRANCH  30  31
ENDBRANCH  29  30
ENDBRANCH  28  29
ENDBRANCH  27  28
ENDBRANCH  26  27
ENDBRANCH   1  26
TORSDOF 19
