REMARK SMILES Cc1n[nH]c(C[N@H+]2CCC[C@H](c3cccc(C(=O)OCCOCCOC(=O)c4ccc(-c5c6nc(c(-c7c(F)cccc7F)c7ccc([nH]7)c(-c7c(F)cccc7F)c7nc(c(-c8c(F)cccc8F)c8ccc5[nH]8)C=C7)C=C6)cc4)c3)C2)n1
REMARK SMILES IDX 21 1 20 2 19 3 17 4 18 5 16 6 12 7 13 8 82 9 14 10 15 11
REMARK SMILES IDX 11 12 7 13 8 14 83 15 9 17 10 18 6 19 5 20 1 21 2 22 3 23
REMARK SMILES IDX 84 24 4 25 22 27 23 28 24 29 25 30 26 31 27 32 28 33 29 34
REMARK SMILES IDX 81 35 30 36 80 37 31 38 32 39 33 40 74 41 34 42 79 43 73 44
REMARK SMILES IDX 75 45 35 46 78 47 72 48 71 49 36 51 62 52 45 53 61 54 46 55
REMARK SMILES IDX 49 56 60 57 76 58 47 59 48 60 59 62 77 63 50 64 37 65 38 66
REMARK SMILES IDX 43 67 39 68 40 69 42 70 44 71 41 72 63 73 64 74 69 75 65 76
REMARK SMILES IDX 66 77 68 78 70 79 67 80 51 81 52 82 57 83 53 84 54 85 56 86
REMARK SMILES IDX 58 87 55 88
REMARK H PARENT 7 16 4 26 75 50 49 61
REMARK Flexibility Score: inf
ROOT
ATOM      1  C   UNL     1       4.089  10.252   7.411  1.00  0.00     0.202 C 
ENDROOT
BRANCH   1   2
ATOM      2  C   UNL     1       4.469   8.862   7.941  1.00  0.00     0.261 C 
BRANCH   2   3
ATOM      3  O   UNL     1       3.733   7.787   7.342  1.00  0.00    -0.460 OA
BRANCH   3   4
ATOM      4  C   UNL     1       2.622   7.415   8.031  1.00  0.00     0.338 C 
ATOM      5  O   UNL     1       2.282   7.825   9.128  1.00  0.00    -0.246 OA
BRANCH   4   6
ATOM      6  C   UNL     1       1.718   6.628   7.149  1.00  0.00     0.060 A 
ATOM      7  C   UNL     1       1.338   4.983   5.405  1.00  0.00    -0.038 A 
ATOM      8  C   UNL     1      -0.038   5.054   5.693  1.00  0.00     0.004 A 
ATOM      9  C   UNL     1       2.206   5.823   6.119  1.00  0.00     0.020 A 
ATOM     10  C   UNL     1      -0.543   5.963   6.617  1.00  0.00     0.001 A 
ATOM     11  C   UNL     1       0.336   6.750   7.345  1.00  0.00     0.016 A 
BRANCH   7  12
ATOM     12  C   UNL     1       1.902   4.032   4.353  1.00  0.00     0.074 C 
ATOM     13  N   UNL     1       0.520   2.022   4.905  1.00  0.00    -0.328 N 
ATOM     14  C   UNL     1       1.690   1.283   5.390  1.00  0.00     0.262 C 
ATOM     15  C   UNL     1       0.897   2.979   3.840  1.00  0.00     0.270 C 
ATOM     16  H   UNL     1       0.166   2.558   5.697  1.00  0.00     0.348 HD
ATOM     17  C   UNL     1       2.785   2.228   5.892  1.00  0.00     0.062 C 
ATOM     18  C   UNL     1       3.154   3.262   4.829  1.00  0.00     0.020 C 
BRANCH  13  19
ATOM     19  C   UNL     1      -0.593   1.146   4.494  1.00  0.00     0.340 C 
BRANCH  19  20
ATOM     20  C   UNL     1      -0.299   0.352   3.270  1.00  0.00     0.179 A 
ATOM     21  C   UNL     1       1.030  -0.124   0.056  1.00  0.00     0.092 C 
ATOM     22  C   UNL     1       0.442  -0.262   1.401  1.00  0.00     0.147 A 
ATOM     23  N   UNL     1       0.436  -1.403   2.101  1.00  0.00    -0.159 NA
ATOM     24  N   UNL     1      -0.066   0.816   2.061  1.00  0.00    -0.211 NA
ATOM     25  N   UNL     1      -0.080  -0.994   3.274  1.00  0.00    -0.258 N 
ATOM     26  H   UNL     1      -0.273  -1.588   4.035  1.00  0.00     0.192 HD
ENDBRANCH  19  20
ENDBRANCH  13  19
ENDBRANCH   7  12
ENDBRANCH   4   6
ENDBRANCH   3   4
ENDBRANCH   2   3
ENDBRANCH   1   2
BRANCH   1  27
ATOM     27  O   UNL     1       2.736  10.708   7.388  1.00  0.00    -0.374 OA
BRANCH  27  28
ATOM     28  C   UNL     1       1.773  10.049   6.577  1.00  0.00     0.202 C 
BRANCH  28  29
ATOM     29  C   UNL     1       1.868  10.078   5.064  1.00  0.00     0.261 C 
BRANCH  29  30
ATOM     30  O   UNL     1       3.153   9.677   4.635  1.00  0.00    -0.460 OA
BRANCH  30  31
ATOM     31  C   UNL     1       4.004  10.717   4.386  1.00  0.00     0.338 C 
ATOM     32  O   UNL     1       3.879  11.866   4.657  1.00  0.00    -0.246 OA
BRANCH  31  33
ATOM     33  C   UNL     1       5.102  10.145   3.587  1.00  0.00     0.060 A 
ATOM     34  C   UNL     1       6.170  10.975   3.256  1.00  0.00     0.016 A 
ATOM     35  C   UNL     1       4.681   9.173   2.697  1.00  0.00     0.016 A 
ATOM     36  C   UNL     1       6.356  11.195   1.876  1.00  0.00     0.010 A 
ATOM     37  C   UNL     1       5.259   9.215   1.472  1.00  0.00     0.010 A 
ATOM     38  C   UNL     1       5.538  10.476   0.953  1.00  0.00    -0.014 A 
BRANCH  38  39
ATOM     39  C   UNL     1       5.646  10.384  -0.572  1.00  0.00     0.031 A 
ATOM     40  C   UNL     1       7.174   9.810  -0.661  1.00  0.00     0.074 A 
ATOM     41  C   UNL     1       4.635  10.621  -1.582  1.00  0.00     0.049 A 
ATOM     42  N   UNL     1       8.216  10.594  -0.718  1.00  0.00    -0.248 NA
ATOM     43  C   UNL     1       7.696   8.466  -0.138  1.00  0.00     0.031 C 
ATOM     44  C   UNL     1       3.163  11.109  -1.643  1.00  0.00     0.029 A 
ATOM     45  N   UNL     1       4.747  10.526  -2.998  1.00  0.00    -0.354 N 
ATOM     46  C   UNL     1       9.335   9.767  -0.867  1.00  0.00     0.074 A 
ATOM     47  C   UNL     1       9.033   8.564  -0.195  1.00  0.00     0.031 C 
ATOM     48  C   UNL     1       2.556  10.880  -2.869  1.00  0.00     0.029 A 
ATOM     49  C   UNL     1       3.537  10.373  -3.807  1.00  0.00     0.049 A 
ATOM     50  H   UNL     1       5.631  10.562  -3.429  1.00  0.00     0.167 HD
ATOM     51  C   UNL     1      10.177   9.985  -1.911  1.00  0.00     0.037 A 
ATOM     52  C   UNL     1       3.412  10.139  -5.189  1.00  0.00     0.037 A 
ATOM     53  C   UNL     1       9.850  11.275  -2.458  1.00  0.00     0.049 A 
ATOM     54  C   UNL     1       4.781  10.377  -5.728  1.00  0.00     0.074 A 
ATOM     55  C   UNL     1       9.869  12.556  -1.948  1.00  0.00     0.029 A 
ATOM     56  N   UNL     1       8.828  11.206  -3.365  1.00  0.00    -0.354 N 
ATOM     57  N   UNL     1       5.288  11.583  -5.730  1.00  0.00    -0.248 NA
ATOM     58  C   UNL     1       5.698   9.259  -5.487  1.00  0.00     0.031 C 
ATOM     59  C   UNL     1       8.650  13.158  -2.376  1.00  0.00     0.029 A 
ATOM     60  C   UNL     1       8.043  12.320  -3.305  1.00  0.00     0.049 A 
ATOM     61  H   UNL     1       8.679  10.453  -3.981  1.00  0.00     0.167 HD
ATOM     62  C   UNL     1       6.436  11.447  -4.968  1.00  0.00     0.074 A 
ATOM     63  C   UNL     1       6.641   9.971  -4.850  1.00  0.00     0.031 C 
ATOM     64  C   UNL     1       6.880  12.452  -4.137  1.00  0.00     0.037 A 
BRANCH  51  65
ATOM     65  C   UNL     1      10.856   8.934  -2.754  1.00  0.00     0.057 A 
ATOM     66  C   UNL     1      11.852   9.375  -3.638  1.00  0.00     0.134 A 
ATOM     67  C   UNL     1      10.418   7.606  -2.951  1.00  0.00     0.134 A 
ATOM     68  F   UNL     1      12.326  10.627  -3.554  1.00  0.00    -0.206 F 
ATOM     69  C   UNL     1      12.357   8.576  -4.668  1.00  0.00     0.040 A 
ATOM     70  C   UNL     1      10.957   6.776  -3.947  1.00  0.00     0.040 A 
ATOM     71  F   UNL     1       9.402   7.077  -2.256  1.00  0.00    -0.206 F 
ATOM     72  C   UNL     1      11.916   7.268  -4.822  1.00  0.00     0.006 A 
ENDBRANCH  51  65
BRANCH  52  73
ATOM     73  C   UNL     1       2.454   9.201  -5.955  1.00  0.00     0.057 A 
ATOM     74  C   UNL     1       2.255   9.017  -7.363  1.00  0.00     0.134 A 
ATOM     75  C   UNL     1       1.890   8.179  -5.185  1.00  0.00     0.134 A 
ATOM     76  F   UNL     1       2.749   9.877  -8.270  1.00  0.00    -0.206 F 
ATOM     77  C   UNL     1       1.554   7.894  -7.910  1.00  0.00     0.040 A 
ATOM     78  C   UNL     1       1.229   7.059  -5.711  1.00  0.00     0.040 A 
ATOM     79  F   UNL     1       2.046   8.188  -3.858  1.00  0.00    -0.206 F 
ATOM     80  C   UNL     1       1.060   6.898  -7.075  1.00  0.00     0.006 A 
ENDBRANCH  52  73
BRANCH  64  81
ATOM     81  C   UNL     1       6.195  13.808  -4.105  1.00  0.00     0.057 A 
ATOM     82  C   UNL     1       5.010  14.168  -3.430  1.00  0.00     0.134 A 
ATOM     83  C   UNL     1       6.924  14.876  -4.623  1.00  0.00     0.134 A 
ATOM     84  F   UNL     1       4.377  13.307  -2.630  1.00  0.00    -0.206 F 
ATOM     85  C   UNL     1       4.492  15.475  -3.443  1.00  0.00     0.040 A 
ATOM     86  C   UNL     1       6.464  16.194  -4.579  1.00  0.00     0.040 A 
ATOM     87  F   UNL     1       8.158  14.664  -5.103  1.00  0.00    -0.206 F 
ATOM     88  C   UNL     1       5.218  16.494  -4.042  1.00  0.00     0.006 A 
ENDBRANCH  64  81
ENDBRANCH  38  39
ENDBRANCH  31  33
ENDBRANCH  30  31
ENDBRANCH  29  30
ENDBRANCH  28  29
ENDBRANCH  27  28
ENDBRANCH   1  27
TORSDOF 17
