REMARK SMILES Cc1ccc(-c2cc(C(=O)OCCOCCOC(=O)c3ccc(-c4c5nc(c(-c6c(F)cccc6F)c6ccc([nH]6)c(-c6c(F)cccc6F)c6nc(c(-c7c(F)cccc7F)c7ccc4[nH]7)C=C6)C=C5)cc3)c3c(-c4cccc([N+](=O)[O-])c4)[nH]nc3n2)cc1
REMARK SMILES IDX 14 1 13 2 12 3 11 4 9 5 10 6 8 7 6 8 7 9 88 10 87 11 74 12
REMARK SMILES IDX 86 13 75 14 85 15 5 17 1 18 2 19 3 20 90 21 4 22 89 23 76 24
REMARK SMILES IDX 77 25 84 26 78 27 80 28 79 29 81 30 82 31 83 32 15 33 16 34
REMARK SMILES IDX 17 35 18 36 19 37 20 38 21 39 73 40 22 41 72 42 23 43 24 44
REMARK SMILES IDX 25 45 66 46 26 47 71 48 65 49 67 50 27 51 70 52 64 53 63 54
REMARK SMILES IDX 28 56 54 57 37 58 53 59 38 60 41 61 52 62 68 63 39 64 40 65
REMARK SMILES IDX 51 67 69 68 42 69 29 70 30 71 35 72 31 73 32 74 34 75 36 76
REMARK SMILES IDX 33 77 55 78 56 79 61 80 57 81 58 82 60 83 62 84 59 85 43 86
REMARK SMILES IDX 44 87 49 88 45 89 46 90 48 91 50 92 47 93
REMARK H PARENT 85 16 67 55 41 66
REMARK Flexibility Score: inf
ROOT
ATOM      1  O   UNL     1      -6.151  -0.353  -4.373  1.00  0.00    -0.374 OA
ENDROOT
BRANCH   1   2
ATOM      2  C   UNL     1      -4.849  -0.055  -4.823  1.00  0.00     0.202 C 
BRANCH   2   3
ATOM      3  C   UNL     1      -4.522   1.172  -4.059  1.00  0.00     0.261 C 
BRANCH   3   4
ATOM      4  O   UNL     1      -4.605   0.919  -2.640  1.00  0.00    -0.460 OA
BRANCH   4   5
ATOM      5  C   UNL     1      -5.754   0.792  -1.906  1.00  0.00     0.339 C 
ATOM      6  O   UNL     1      -6.880   1.048  -2.220  1.00  0.00    -0.246 OA
BRANCH   5   7
ATOM      7  C   UNL     1      -5.313   0.265  -0.616  1.00  0.00     0.075 A 
ATOM      8  C   UNL     1      -3.382  -0.395   0.773  1.00  0.00     0.074 A 
ATOM      9  C   UNL     1      -3.949   0.270  -0.321  1.00  0.00     0.045 A 
ATOM     10  N   UNL     1      -4.085  -1.084   1.714  1.00  0.00    -0.226 NA
ATOM     11  C   UNL     1      -5.440  -1.019   1.525  1.00  0.00     0.182 A 
ATOM     12  C   UNL     1      -6.042  -0.363   0.389  1.00  0.00     0.061 A 
ATOM     13  N   UNL     1      -6.377  -1.552   2.311  1.00  0.00    -0.154 NA
ATOM     14  C   UNL     1      -7.412  -0.518   0.535  1.00  0.00     0.076 A 
ATOM     15  N   UNL     1      -7.538  -1.215   1.716  1.00  0.00    -0.275 N 
ATOM     16  H   UNL     1      -8.414  -1.450   2.099  1.00  0.00     0.190 HD
BRANCH   8  17
ATOM     17  C   UNL     1      -1.905  -0.372   0.791  1.00  0.00     0.000 A 
ATOM     18  C   UNL     1       2.350  -0.129  -0.031  1.00  0.00     0.044 C 
ATOM     19  C   UNL     1       0.877  -0.210   0.244  1.00  0.00    -0.051 A 
ATOM     20  C   UNL     1       0.229  -1.451   0.320  1.00  0.00     0.004 A 
ATOM     21  C   UNL     1       0.132   0.952   0.442  1.00  0.00     0.004 A 
ATOM     22  C   UNL     1      -1.147  -1.532   0.589  1.00  0.00     0.010 A 
ATOM     23  C   UNL     1      -1.233   0.869   0.722  1.00  0.00     0.010 A 
ENDBRANCH   8  17
BRANCH  14  24
ATOM     24  C   UNL     1      -8.586  -0.084  -0.227  1.00  0.00     0.007 A 
ATOM     25  C   UNL     1      -9.241   1.116   0.092  1.00  0.00     0.011 A 
ATOM     26  C   UNL     1      -9.036  -0.828  -1.327  1.00  0.00     0.096 A 
ATOM     27  C   UNL     1     -10.304   1.585  -0.690  1.00  0.00     0.008 A 
ATOM     28  C   UNL     1     -10.086  -0.337  -2.123  1.00  0.00     0.270 A 
ATOM     29  C   UNL     1     -10.726   0.868  -1.807  1.00  0.00     0.085 A 
BRANCH  28  30
ATOM     30  N   UNL     1     -10.480  -1.058  -3.340  1.00  0.00     0.062 N 
ATOM     31  O   UNL     1     -11.338  -0.538  -4.069  1.00  0.00    -0.258 OA
ATOM     32  O   UNL     1      -9.926  -2.141  -3.579  1.00  0.00    -0.258 OA
ENDBRANCH  28  30
ENDBRANCH  14  24
ENDBRANCH   5   7
ENDBRANCH   4   5
ENDBRANCH   3   4
ENDBRANCH   2   3
ENDBRANCH   1   2
BRANCH   1  33
ATOM     33  C   UNL     1      -6.516  -1.703  -4.440  1.00  0.00     0.202 C 
BRANCH  33  34
ATOM     34  C   UNL     1      -6.748  -2.073  -5.899  1.00  0.00     0.261 C 
BRANCH  34  35
ATOM     35  O   UNL     1      -7.667  -1.122  -6.502  1.00  0.00    -0.460 OA
BRANCH  35  36
ATOM     36  C   UNL     1      -7.117  -0.057  -7.164  1.00  0.00     0.338 C 
ATOM     37  O   UNL     1      -6.207  -0.130  -7.975  1.00  0.00    -0.246 OA
BRANCH  36  38
ATOM     38  C   UNL     1      -7.555   1.237  -6.536  1.00  0.00     0.060 A 
ATOM     39  C   UNL     1      -6.833   2.432  -6.750  1.00  0.00     0.016 A 
ATOM     40  C   UNL     1      -8.431   1.164  -5.465  1.00  0.00     0.016 A 
ATOM     41  C   UNL     1      -6.835   3.459  -5.780  1.00  0.00     0.010 A 
ATOM     42  C   UNL     1      -8.340   2.120  -4.475  1.00  0.00     0.010 A 
ATOM     43  C   UNL     1      -7.510   3.249  -4.582  1.00  0.00    -0.014 A 
BRANCH  43  44
ATOM     44  C   UNL     1      -7.431   4.040  -3.338  1.00  0.00     0.031 A 
ATOM     45  C   UNL     1      -8.700   4.602  -2.817  1.00  0.00     0.074 A 
ATOM     46  C   UNL     1      -6.356   3.974  -2.504  1.00  0.00     0.049 A 
ATOM     47  N   UNL     1      -8.774   5.322  -1.758  1.00  0.00    -0.248 NA
ATOM     48  C   UNL     1     -10.004   4.439  -3.463  1.00  0.00     0.031 C 
ATOM     49  C   UNL     1      -6.310   4.103  -1.040  1.00  0.00     0.029 A 
ATOM     50  N   UNL     1      -5.022   3.693  -2.800  1.00  0.00    -0.354 N 
ATOM     51  C   UNL     1     -10.094   5.424  -1.399  1.00  0.00     0.074 A 
ATOM     52  C   UNL     1     -10.822   4.992  -2.561  1.00  0.00     0.031 C 
ATOM     53  C   UNL     1      -5.031   4.183  -0.621  1.00  0.00     0.029 A 
ATOM     54  C   UNL     1      -4.196   4.231  -1.808  1.00  0.00     0.049 A 
ATOM     55  H   UNL     1      -4.709   3.192  -3.588  1.00  0.00     0.167 HD
ATOM     56  C   UNL     1     -10.368   5.740  -0.102  1.00  0.00     0.037 A 
ATOM     57  C   UNL     1      -3.241   5.140  -2.136  1.00  0.00     0.037 A 
ATOM     58  C   UNL     1      -9.125   6.118   0.594  1.00  0.00     0.049 A 
ATOM     59  C   UNL     1      -3.658   6.436  -1.509  1.00  0.00     0.074 A 
ATOM     60  C   UNL     1      -8.350   5.520   1.572  1.00  0.00     0.029 A 
ATOM     61  N   UNL     1      -8.343   7.143   0.054  1.00  0.00    -0.354 N 
ATOM     62  N   UNL     1      -4.907   6.702  -1.227  1.00  0.00    -0.248 NA
ATOM     63  C   UNL     1      -2.733   7.435  -0.992  1.00  0.00     0.031 C 
ATOM     64  C   UNL     1      -7.066   6.150   1.553  1.00  0.00     0.029 A 
ATOM     65  C   UNL     1      -7.071   7.153   0.592  1.00  0.00     0.049 A 
ATOM     66  H   UNL     1      -8.660   7.779  -0.627  1.00  0.00     0.167 HD
ATOM     67  C   UNL     1      -4.957   7.776  -0.398  1.00  0.00     0.074 A 
ATOM     68  C   UNL     1      -3.580   8.238  -0.323  1.00  0.00     0.031 C 
ATOM     69  C   UNL     1      -6.107   8.186   0.206  1.00  0.00     0.037 A 
BRANCH  56  70
ATOM     70  C   UNL     1     -11.703   5.572   0.601  1.00  0.00     0.057 A 
ATOM     71  C   UNL     1     -11.845   5.972   1.946  1.00  0.00     0.134 A 
ATOM     72  C   UNL     1     -12.857   4.961   0.068  1.00  0.00     0.134 A 
ATOM     73  F   UNL     1     -10.836   6.549   2.614  1.00  0.00    -0.206 F 
ATOM     74  C   UNL     1     -13.024   5.785   2.686  1.00  0.00     0.040 A 
ATOM     75  C   UNL     1     -14.056   4.809   0.782  1.00  0.00     0.040 A 
ATOM     76  F   UNL     1     -12.885   4.415  -1.151  1.00  0.00    -0.206 F 
ATOM     77  C   UNL     1     -14.142   5.214   2.101  1.00  0.00     0.006 A 
ENDBRANCH  56  70
BRANCH  57  78
ATOM     78  C   UNL     1      -2.654   4.864  -3.486  1.00  0.00     0.057 A 
ATOM     79  C   UNL     1      -1.770   3.769  -3.599  1.00  0.00     0.134 A 
ATOM     80  C   UNL     1      -3.301   5.261  -4.664  1.00  0.00     0.134 A 
ATOM     81  F   UNL     1      -1.157   3.284  -2.506  1.00  0.00    -0.206 F 
ATOM     82  C   UNL     1      -1.621   3.042  -4.790  1.00  0.00     0.040 A 
ATOM     83  C   UNL     1      -3.193   4.512  -5.849  1.00  0.00     0.040 A 
ATOM     84  F   UNL     1      -4.176   6.277  -4.648  1.00  0.00    -0.206 F 
ATOM     85  C   UNL     1      -2.382   3.381  -5.906  1.00  0.00     0.006 A 
ENDBRANCH  57  78
BRANCH  69  86
ATOM     86  C   UNL     1      -6.382   9.632   0.516  1.00  0.00     0.057 A 
ATOM     87  C   UNL     1      -5.654  10.697  -0.042  1.00  0.00     0.134 A 
ATOM     88  C   UNL     1      -7.532  10.011   1.240  1.00  0.00     0.134 A 
ATOM     89  F   UNL     1      -4.625  10.500  -0.876  1.00  0.00    -0.206 F 
ATOM     90  C   UNL     1      -5.989  12.033   0.178  1.00  0.00     0.040 A 
ATOM     91  C   UNL     1      -7.920  11.341   1.397  1.00  0.00     0.040 A 
ATOM     92  F   UNL     1      -8.360   9.113   1.791  1.00  0.00    -0.206 F 
ATOM     93  C   UNL     1      -7.133  12.360   0.889  1.00  0.00     0.006 A 
ENDBRANCH  69  86
ENDBRANCH  43  44
ENDBRANCH  36  38
ENDBRANCH  35  36
ENDBRANCH  34  35
ENDBRANCH  33  34
ENDBRANCH   1  33
TORSDOF 17
