REMARK SMILES COc1cccc(C(=O)Nc2ccc(NC(=O)[C@@H]3[C@@H](C(=O)OCCOCCOC(=O)c4ccc(-c5c6nc(c(-c7c(F)cccc7F)c7ccc([nH]7)c(-c7c(F)cccc7F)c7nc(c(-c8c(F)cccc8F)c8ccc5[nH]8)C=C7)C=C6)cc4)[C@@H]4C=C[C@H]3C4)cc2)c1
REMARK SMILES IDX 23 1 22 2 20 3 21 4 19 5 18 6 88 7 85 8 87 9 89 10 86 11
REMARK SMILES IDX 16 12 15 13 17 15 14 16 11 17 12 18 91 19 13 20 90 21 10 22
REMARK SMILES IDX 8 23 9 24 7 26 3 27 4 28 92 29 5 30 6 31 2 32 1 33 24 34
REMARK SMILES IDX 25 35 26 36 27 37 28 38 29 39 30 40 31 41 32 42 84 43 33 44
REMARK SMILES IDX 83 45 34 46 35 47 36 48 77 49 37 50 82 51 76 52 78 53 38 54
REMARK SMILES IDX 81 55 75 56 74 57 39 59 65 60 48 61 64 62 49 63 52 64 63 65
REMARK SMILES IDX 79 66 50 67 51 68 62 70 80 71 53 72 40 73 41 74 46 75 42 76
REMARK SMILES IDX 43 77 45 78 47 79 44 80 66 81 67 82 72 83 68 84 69 85 71 86
REMARK SMILES IDX 73 87 70 88 54 89 55 90 60 91 56 92 57 93 59 94 61 95 58 96
REMARK H PARENT 15 14 10 25 78 58 52 69
REMARK Flexibility Score: inf
ROOT
ATOM      1  C   UNL     1       7.934  -2.958  -1.057  1.00  0.00     0.261 C 
ENDROOT
BRANCH   1   2
ATOM      2  O   UNL     1       6.540  -3.272  -0.861  1.00  0.00    -0.463 OA
BRANCH   2   3
ATOM      3  C   UNL     1       6.065  -4.336  -1.553  1.00  0.00     0.310 C 
ATOM      4  O   UNL     1       6.735  -5.030  -2.308  1.00  0.00    -0.252 OA
BRANCH   3   5
ATOM      5  C   UNL     1       4.607  -4.622  -1.291  1.00  0.00     0.119 C 
ATOM      6  C   UNL     1       3.789  -3.607  -0.442  1.00  0.00     0.100 C 
ATOM      7  C   UNL     1       2.943  -4.547   0.464  1.00  0.00     0.025 C 
ATOM      8  C   UNL     1       4.422  -5.940  -0.487  1.00  0.00     0.027 C 
ATOM      9  C   UNL     1       2.164  -5.591  -0.307  1.00  0.00    -0.027 C 
ATOM     10  C   UNL     1       4.083  -5.462   0.937  1.00  0.00     0.017 C 
ATOM     11  C   UNL     1       3.048  -6.445  -0.849  1.00  0.00    -0.027 C 
BRANCH   6  12
ATOM     12  C   UNL     1       3.018  -2.659  -1.327  1.00  0.00     0.228 C 
ATOM     13  N   UNL     1       3.244  -1.314  -1.377  1.00  0.00    -0.326 N 
ATOM     14  H   UNL     1       2.801  -0.900  -2.153  1.00  0.00     0.169 HD
ATOM     15  O   UNL     1       2.136  -3.081  -2.083  1.00  0.00    -0.274 OA
BRANCH  13  16
ATOM     16  C   UNL     1       3.945  -0.363  -0.609  1.00  0.00     0.041 A 
ATOM     17  C   UNL     1       4.618   1.626   1.251  1.00  0.00     0.041 A 
ATOM     18  C   UNL     1       5.241   0.386   1.301  1.00  0.00     0.028 A 
ATOM     19  C   UNL     1       3.869   1.959   0.130  1.00  0.00     0.028 A 
ATOM     20  C   UNL     1       4.892  -0.609   0.380  1.00  0.00     0.028 A 
ATOM     21  C   UNL     1       3.544   0.968  -0.802  1.00  0.00     0.028 A 
BRANCH  17  22
ATOM     22  N   UNL     1       4.703   2.430   2.392  1.00  0.00    -0.322 N 
ATOM     23  C   UNL     1       3.746   3.216   3.004  1.00  0.00     0.255 C 
ATOM     24  O   UNL     1       4.082   3.899   3.972  1.00  0.00    -0.269 OA
ATOM     25  H   UNL     1       5.585   2.437   2.829  1.00  0.00     0.170 HD
BRANCH  23  26
ATOM     26  C   UNL     1       2.307   3.214   2.607  1.00  0.00     0.043 A 
ATOM     27  C   UNL     1       0.301   2.171   1.713  1.00  0.00     0.119 A 
ATOM     28  C   UNL     1      -0.373   3.387   1.851  1.00  0.00     0.046 A 
ATOM     29  C   UNL     1       1.621   2.071   2.156  1.00  0.00     0.060 A 
ATOM     30  C   UNL     1       0.264   4.500   2.396  1.00  0.00     0.005 A 
ATOM     31  C   UNL     1       1.605   4.417   2.761  1.00  0.00     0.014 A 
BRANCH  27  32
ATOM     32  O   UNL     1      -0.447   1.185   1.134  1.00  0.00    -0.497 OA
ATOM     33  C   UNL     1       0.185  -0.024   0.740  1.00  0.00     0.278 C 
ENDBRANCH  27  32
ENDBRANCH  23  26
ENDBRANCH  17  22
ENDBRANCH  13  16
ENDBRANCH   6  12
ENDBRANCH   3   5
ENDBRANCH   2   3
ENDBRANCH   1   2
BRANCH   1  34
ATOM     34  C   UNL     1       8.761  -3.246   0.199  1.00  0.00     0.202 C 
BRANCH  34  35
ATOM     35  O   UNL     1       8.939  -4.628   0.513  1.00  0.00    -0.374 OA
BRANCH  35  36
ATOM     36  C   UNL     1       7.852  -5.269   1.177  1.00  0.00     0.202 C 
BRANCH  36  37
ATOM     37  C   UNL     1       7.837  -5.117   2.701  1.00  0.00     0.261 C 
BRANCH  37  38
ATOM     38  O   UNL     1       7.709  -3.736   3.087  1.00  0.00    -0.460 OA
BRANCH  38  39
ATOM     39  C   UNL     1       8.819  -3.219   3.666  1.00  0.00     0.338 C 
ATOM     40  O   UNL     1       9.826  -3.817   4.003  1.00  0.00    -0.246 OA
BRANCH  39  41
ATOM     41  C   UNL     1       8.736  -1.747   3.711  1.00  0.00     0.060 A 
ATOM     42  C   UNL     1       9.835  -1.036   3.217  1.00  0.00     0.016 A 
ATOM     43  C   UNL     1       7.667  -1.076   4.310  1.00  0.00     0.016 A 
ATOM     44  C   UNL     1       9.904   0.344   3.382  1.00  0.00     0.010 A 
ATOM     45  C   UNL     1       7.739   0.313   4.479  1.00  0.00     0.010 A 
ATOM     46  C   UNL     1       8.878   1.021   4.053  1.00  0.00    -0.014 A 
BRANCH  46  47
ATOM     47  C   UNL     1       9.096   2.432   4.459  1.00  0.00     0.031 A 
ATOM     48  C   UNL     1       9.524   2.724   5.873  1.00  0.00     0.074 A 
ATOM     49  C   UNL     1       8.991   3.432   3.566  1.00  0.00     0.049 A 
ATOM     50  N   UNL     1       9.789   3.873   6.440  1.00  0.00    -0.248 NA
ATOM     51  C   UNL     1       9.680   1.564   6.765  1.00  0.00     0.031 C 
ATOM     52  C   UNL     1       8.640   3.276   2.156  1.00  0.00     0.029 A 
ATOM     53  N   UNL     1       9.181   4.782   3.720  1.00  0.00    -0.354 N 
ATOM     54  C   UNL     1      10.139   3.575   7.751  1.00  0.00     0.074 A 
ATOM     55  C   UNL     1      10.024   2.142   7.906  1.00  0.00     0.031 C 
ATOM     56  C   UNL     1       8.639   4.487   1.572  1.00  0.00     0.029 A 
ATOM     57  C   UNL     1       8.964   5.503   2.571  1.00  0.00     0.049 A 
ATOM     58  H   UNL     1       9.447   5.195   4.573  1.00  0.00     0.167 HD
ATOM     59  C   UNL     1      10.536   4.416   8.736  1.00  0.00     0.037 A 
ATOM     60  C   UNL     1       9.014   6.832   2.357  1.00  0.00     0.037 A 
ATOM     61  C   UNL     1      10.655   5.842   8.588  1.00  0.00     0.049 A 
ATOM     62  C   UNL     1       9.380   7.754   3.491  1.00  0.00     0.074 A 
ATOM     63  C   UNL     1      11.048   6.778   9.528  1.00  0.00     0.029 A 
ATOM     64  N   UNL     1      10.376   6.538   7.422  1.00  0.00    -0.354 N 
ATOM     65  N   UNL     1       9.725   7.459   4.721  1.00  0.00    -0.248 NA
ATOM     66  C   UNL     1       9.366   9.196   3.203  1.00  0.00     0.031 C 
ATOM     67  C   UNL     1      10.973   8.045   8.941  1.00  0.00     0.029 A 
ATOM     68  C   UNL     1      10.573   7.893   7.624  1.00  0.00     0.049 A 
ATOM     69  H   UNL     1      10.082   6.129   6.576  1.00  0.00     0.167 HD
ATOM     70  C   UNL     1       9.993   8.672   5.344  1.00  0.00     0.074 A 
ATOM     71  C   UNL     1       9.784   9.707   4.353  1.00  0.00     0.031 C 
ATOM     72  C   UNL     1      10.376   8.909   6.622  1.00  0.00     0.037 A 
BRANCH  59  73
ATOM     73  C   UNL     1      10.855   3.811  10.070  1.00  0.00     0.057 A 
ATOM     74  C   UNL     1      12.027   3.074  10.283  1.00  0.00     0.134 A 
ATOM     75  C   UNL     1       9.995   3.989  11.161  1.00  0.00     0.134 A 
ATOM     76  F   UNL     1      12.884   2.853   9.275  1.00  0.00    -0.206 F 
ATOM     77  C   UNL     1      12.323   2.519  11.530  1.00  0.00     0.040 A 
ATOM     78  C   UNL     1      10.290   3.458  12.417  1.00  0.00     0.040 A 
ATOM     79  F   UNL     1       8.857   4.687  11.024  1.00  0.00    -0.206 F 
ATOM     80  C   UNL     1      11.455   2.716  12.603  1.00  0.00     0.006 A 
ENDBRANCH  59  73
BRANCH  60  81
ATOM     81  C   UNL     1       8.700   7.383   1.015  1.00  0.00     0.057 A 
ATOM     82  C   UNL     1       9.692   7.976   0.225  1.00  0.00     0.134 A 
ATOM     83  C   UNL     1       7.397   7.359   0.505  1.00  0.00     0.134 A 
ATOM     84  F   UNL     1      10.955   8.050   0.669  1.00  0.00    -0.206 F 
ATOM     85  C   UNL     1       9.395   8.542  -1.016  1.00  0.00     0.040 A 
ATOM     86  C   UNL     1       7.091   7.901  -0.744  1.00  0.00     0.040 A 
ATOM     87  F   UNL     1       6.402   6.804   1.212  1.00  0.00    -0.206 F 
ATOM     88  C   UNL     1       8.091   8.502  -1.506  1.00  0.00     0.006 A 
ENDBRANCH  60  81
BRANCH  72  89
ATOM     89  C   UNL     1      10.634  10.335   7.012  1.00  0.00     0.057 A 
ATOM     90  C   UNL     1       9.590  11.246   7.213  1.00  0.00     0.134 A 
ATOM     91  C   UNL     1      11.941  10.788   7.231  1.00  0.00     0.134 A 
ATOM     92  F   UNL     1       8.317  10.877   7.008  1.00  0.00    -0.206 F 
ATOM     93  C   UNL     1       9.838  12.564   7.600  1.00  0.00     0.040 A 
ATOM     94  C   UNL     1      12.201  12.097   7.640  1.00  0.00     0.040 A 
ATOM     95  F   UNL     1      12.986   9.962   7.065  1.00  0.00    -0.206 F 
ATOM     96  C   UNL     1      11.147  12.990   7.821  1.00  0.00     0.006 A 
ENDBRANCH  72  89
ENDBRANCH  46  47
ENDBRANCH  39  41
ENDBRANCH  38  39
ENDBRANCH  37  38
ENDBRANCH  36  37
ENDBRANCH  35  36
ENDBRANCH  34  35
ENDBRANCH   1  34
TORSDOF 19
