REMARK SMILES O=C(Cn1c(=O)[nH]c2ccccc2c1=O)NC[C@H]1CC[C@@H](C(=O)N2CCC(C(=O)OCCOCCOC(=O)c3ccc(-c4c5nc(c(-c6c(F)cccc6F)c6ccc([nH]6)c(-c6c(F)cccc6F)c6nc(c(-c7c(F)cccc7F)c7ccc4[nH]7)C=C6)C=C5)cc3)CC2)CC1
REMARK SMILES IDX 31 1 30 2 28 3 29 4 27 5 22 6 23 7 24 8 25 9 94 10 26 11
REMARK SMILES IDX 93 12 21 13 18 14 19 15 96 16 20 17 95 18 17 19 16 20 1 21
REMARK SMILES IDX 2 22 3 24 4 25 5 26 14 27 6 28 7 29 13 30 15 31 8 32 12 34
REMARK SMILES IDX 9 35 11 36 10 37 32 38 33 39 34 40 35 41 36 42 37 43 38 44
REMARK SMILES IDX 39 45 40 46 92 47 41 48 91 49 42 50 43 51 44 52 85 53 45 54
REMARK SMILES IDX 90 55 84 56 86 57 46 58 89 59 83 60 82 61 47 63 73 64 56 65
REMARK SMILES IDX 72 66 57 67 60 68 71 69 87 70 58 71 59 72 70 74 88 75 61 76
REMARK SMILES IDX 48 77 49 78 54 79 50 80 51 81 53 82 55 83 52 84 74 85 75 86
REMARK SMILES IDX 80 87 76 88 77 89 79 90 81 91 78 92 62 93 63 94 68 95 64 96
REMARK SMILES IDX 65 97 67 98 69 99 66 100
REMARK H PARENT 16 23 7 33 86 62 60 73
REMARK Flexibility Score: inf
ROOT
ATOM      1  C   UNL     1       9.450   1.933   1.788  1.00  0.00     0.261 C 
ENDROOT
BRANCH   1   2
ATOM      2  O   UNL     1       8.357   2.169   0.896  1.00  0.00    -0.463 OA
BRANCH   2   3
ATOM      3  C   UNL     1       7.549   1.102   0.696  1.00  0.00     0.309 C 
ATOM      4  O   UNL     1       7.743  -0.029   1.128  1.00  0.00    -0.252 OA
BRANCH   3   5
ATOM      5  C   UNL     1       6.401   1.399  -0.227  1.00  0.00     0.103 C 
ATOM      6  C   UNL     1       4.668   2.762  -3.854  1.00  0.00     0.225 C 
ATOM      7  O   UNL     1       4.705   3.986  -4.034  1.00  0.00    -0.275 OA
ATOM      8  N   UNL     1       5.109   2.234  -2.657  1.00  0.00    -0.342 N 
ATOM      9  C   UNL     1       4.860   2.990  -1.426  1.00  0.00     0.120 C 
ATOM     10  C   UNL     1       5.630   0.899  -2.509  1.00  0.00     0.120 C 
ATOM     11  C   UNL     1       5.972   2.858  -0.386  1.00  0.00     0.037 C 
ATOM     12  C   UNL     1       6.804   0.825  -1.571  1.00  0.00     0.037 C 
BRANCH   6  13
ATOM     13  C   UNL     1       3.885   1.900  -4.878  1.00  0.00     0.078 C 
ATOM     14  C   UNL     1       2.246  -0.321  -3.638  1.00  0.00     0.008 C 
ATOM     15  C   UNL     1       1.972   1.166  -3.403  1.00  0.00     0.006 C 
ATOM     16  C   UNL     1       3.598  -0.646  -4.300  1.00  0.00     0.006 C 
ATOM     17  C   UNL     1       2.389   2.038  -4.579  1.00  0.00     0.014 C 
ATOM     18  C   UNL     1       4.201   0.439  -5.209  1.00  0.00     0.014 C 
BRANCH  14  19
ATOM     19  C   UNL     1       1.984  -1.183  -2.374  1.00  0.00     0.119 C 
BRANCH  19  20
ATOM     20  N   UNL     1       2.623  -0.762  -1.128  1.00  0.00    -0.354 N 
ATOM     21  O   UNL     1       0.907   0.606  -0.494  1.00  0.00    -0.273 OA
ATOM     22  C   UNL     1       1.934  -0.007  -0.197  1.00  0.00     0.240 C 
ATOM     23  H   UNL     1       3.557  -1.020  -0.950  1.00  0.00     0.163 HD
BRANCH  22  24
ATOM     24  C   UNL     1       2.564   0.192   1.196  1.00  0.00     0.230 C 
BRANCH  24  25
ATOM     25  N   UNL     1       3.503  -0.798   1.718  1.00  0.00    -0.250 N 
ATOM     26  C   UNL     1       3.095  -2.119   1.742  1.00  0.00     0.329 A 
ATOM     27  C   UNL     1       4.557  -0.329   2.507  1.00  0.00     0.264 A 
ATOM     28  O   UNL     1       2.019  -2.511   1.300  1.00  0.00    -0.248 OA
ATOM     29  N   UNL     1       3.969  -3.025   2.268  1.00  0.00    -0.307 N 
ATOM     30  C   UNL     1       5.471  -1.339   3.080  1.00  0.00     0.064 A 
ATOM     31  O   UNL     1       4.737   0.861   2.756  1.00  0.00    -0.268 OA
ATOM     32  C   UNL     1       5.162  -2.680   2.894  1.00  0.00     0.055 A 
ATOM     33  H   UNL     1       3.741  -3.981   2.200  1.00  0.00     0.171 HD
ATOM     34  C   UNL     1       6.628  -0.979   3.779  1.00  0.00     0.016 A 
ATOM     35  C   UNL     1       6.023  -3.675   3.359  1.00  0.00     0.027 A 
ATOM     36  C   UNL     1       7.500  -1.970   4.234  1.00  0.00     0.001 A 
ATOM     37  C   UNL     1       7.202  -3.316   4.015  1.00  0.00     0.002 A 
ENDBRANCH  24  25
ENDBRANCH  22  24
ENDBRANCH  19  20
ENDBRANCH  14  19
ENDBRANCH   6  13
ENDBRANCH   3   5
ENDBRANCH   2   3
ENDBRANCH   1   2
BRANCH   1  38
ATOM     38  C   UNL     1       9.325   2.751   3.074  1.00  0.00     0.202 C 
BRANCH  38  39
ATOM     39  O   UNL     1       8.164   2.560   3.874  1.00  0.00    -0.374 OA
BRANCH  39  40
ATOM     40  C   UNL     1       6.907   3.035   3.388  1.00  0.00     0.202 C 
BRANCH  40  41
ATOM     41  C   UNL     1       6.706   4.545   3.202  1.00  0.00     0.261 C 
BRANCH  41  42
ATOM     42  O   UNL     1       7.527   5.097   2.157  1.00  0.00    -0.460 OA
BRANCH  42  43
ATOM     43  C   UNL     1       8.476   5.969   2.572  1.00  0.00     0.338 C 
ATOM     44  O   UNL     1       8.690   6.350   3.715  1.00  0.00    -0.246 OA
BRANCH  43  45
ATOM     45  C   UNL     1       9.397   6.249   1.459  1.00  0.00     0.060 A 
ATOM     46  C   UNL     1       8.949   6.862   0.289  1.00  0.00     0.016 A 
ATOM     47  C   UNL     1      10.752   5.930   1.626  1.00  0.00     0.016 A 
ATOM     48  C   UNL     1       9.873   7.178  -0.710  1.00  0.00     0.010 A 
ATOM     49  C   UNL     1      11.669   6.237   0.624  1.00  0.00     0.010 A 
ATOM     50  C   UNL     1      11.238   6.882  -0.542  1.00  0.00    -0.014 A 
BRANCH  50  51
ATOM     51  C   UNL     1      12.236   7.349  -1.534  1.00  0.00     0.031 A 
ATOM     52  C   UNL     1      12.896   6.394  -2.480  1.00  0.00     0.074 A 
ATOM     53  C   UNL     1      12.567   8.654  -1.543  1.00  0.00     0.049 A 
ATOM     54  N   UNL     1      13.775   6.640  -3.419  1.00  0.00    -0.248 NA
ATOM     55  C   UNL     1      12.530   4.977  -2.350  1.00  0.00     0.031 C 
ATOM     56  C   UNL     1      12.020   9.666  -0.638  1.00  0.00     0.029 A 
ATOM     57  N   UNL     1      13.444   9.350  -2.334  1.00  0.00    -0.354 N 
ATOM     58  C   UNL     1      14.045   5.416  -4.015  1.00  0.00     0.074 A 
ATOM     59  C   UNL     1      13.286   4.419  -3.287  1.00  0.00     0.031 C 
ATOM     60  C   UNL     1      12.560  10.858  -0.936  1.00  0.00     0.029 A 
ATOM     61  C   UNL     1      13.513  10.688  -2.029  1.00  0.00     0.049 A 
ATOM     62  H   UNL     1      13.972   8.932  -3.051  1.00  0.00     0.167 HD
ATOM     63  C   UNL     1      14.833   5.155  -5.086  1.00  0.00     0.037 A 
ATOM     64  C   UNL     1      14.268  11.664  -2.565  1.00  0.00     0.037 A 
ATOM     65  C   UNL     1      15.616   6.147  -5.780  1.00  0.00     0.049 A 
ATOM     66  C   UNL     1      15.194  11.330  -3.702  1.00  0.00     0.074 A 
ATOM     67  C   UNL     1      16.441   5.985  -6.880  1.00  0.00     0.029 A 
ATOM     68  N   UNL     1      15.682   7.489  -5.429  1.00  0.00    -0.354 N 
ATOM     69  N   UNL     1      15.387  10.181  -4.305  1.00  0.00    -0.248 NA
ATOM     70  C   UNL     1      16.004  12.432  -4.239  1.00  0.00     0.031 C 
ATOM     71  C   UNL     1      17.047   7.215  -7.160  1.00  0.00     0.029 A 
ATOM     72  C   UNL     1      16.555   8.158  -6.274  1.00  0.00     0.049 A 
ATOM     73  H   UNL     1      15.183   7.904  -4.689  1.00  0.00     0.167 HD
ATOM     74  C   UNL     1      16.316  10.429  -5.308  1.00  0.00     0.074 A 
ATOM     75  C   UNL     1      16.631  11.841  -5.245  1.00  0.00     0.031 C 
ATOM     76  C   UNL     1      16.859   9.566  -6.200  1.00  0.00     0.037 A 
BRANCH  63  77
ATOM     77  C   UNL     1      14.886   3.733  -5.569  1.00  0.00     0.057 A 
ATOM     78  C   UNL     1      16.057   2.973  -5.457  1.00  0.00     0.134 A 
ATOM     79  C   UNL     1      13.778   3.122  -6.173  1.00  0.00     0.134 A 
ATOM     80  F   UNL     1      17.160   3.496  -4.900  1.00  0.00    -0.206 F 
ATOM     81  C   UNL     1      16.122   1.658  -5.923  1.00  0.00     0.040 A 
ATOM     82  C   UNL     1      13.822   1.799  -6.617  1.00  0.00     0.040 A 
ATOM     83  F   UNL     1      12.623   3.791  -6.307  1.00  0.00    -0.206 F 
ATOM     84  C   UNL     1      15.000   1.064  -6.496  1.00  0.00     0.006 A 
ENDBRANCH  63  77
BRANCH  64  85
ATOM     85  C   UNL     1      14.188  13.049  -2.036  1.00  0.00     0.057 A 
ATOM     86  C   UNL     1      14.657  13.367  -0.756  1.00  0.00     0.134 A 
ATOM     87  C   UNL     1      13.679  14.095  -2.814  1.00  0.00     0.134 A 
ATOM     88  F   UNL     1      15.149  12.409   0.044  1.00  0.00    -0.206 F 
ATOM     89  C   UNL     1      14.627  14.675  -0.270  1.00  0.00     0.040 A 
ATOM     90  C   UNL     1      13.672  15.412  -2.353  1.00  0.00     0.040 A 
ATOM     91  F   UNL     1      13.230  13.857  -4.055  1.00  0.00    -0.206 F 
ATOM     92  C   UNL     1      14.146  15.704  -1.076  1.00  0.00     0.006 A 
ENDBRANCH  64  85
BRANCH  76  93
ATOM     93  C   UNL     1      17.823  10.136  -7.202  1.00  0.00     0.057 A 
ATOM     94  C   UNL     1      17.475  10.221  -8.556  1.00  0.00     0.134 A 
ATOM     95  C   UNL     1      19.099  10.583  -6.835  1.00  0.00     0.134 A 
ATOM     96  F   UNL     1      16.272   9.804  -8.979  1.00  0.00    -0.206 F 
ATOM     97  C   UNL     1      18.361  10.729  -9.508  1.00  0.00     0.040 A 
ATOM     98  C   UNL     1      19.982  11.122  -7.773  1.00  0.00     0.040 A 
ATOM     99  F   UNL     1      19.491  10.544  -5.552  1.00  0.00    -0.206 F 
ATOM    100  C   UNL     1      19.616  11.189  -9.116  1.00  0.00     0.006 A 
ENDBRANCH  76  93
ENDBRANCH  50  51
ENDBRANCH  43  45
ENDBRANCH  42  43
ENDBRANCH  41  42
ENDBRANCH  40  41
ENDBRANCH  39  40
ENDBRANCH  38  39
ENDBRANCH   1  38
TORSDOF 19
