REMARK SMILES CC(C)[C@@H](NC(=O)[C@@H]1CC[C@H]2CCCC[C@@H]2[NH2+]1)C(=O)OCCOCCOC(=O)c1ccc(-c2c3nc(c(-c4c(F)cccc4F)c4ccc([nH]4)c(-c4c(F)cccc4F)c4nc(c(-c5c(F)cccc5F)c5ccc2[nH]5)C=C4)C=C3)cc1
REMARK SMILES IDX 23 1 22 2 21 3 20 4 18 5 19 6 4 7 2 8 1 9 3 10 5 11 6 12
REMARK SMILES IDX 7 14 8 15 9 16 17 17 10 18 16 19 11 22 15 23 12 24 14 25
REMARK SMILES IDX 13 26 24 27 25 28 26 29 27 30 28 31 29 32 30 33 82 34 31 35
REMARK SMILES IDX 81 36 32 37 33 38 34 39 75 40 35 41 80 42 74 43 76 44 36 45
REMARK SMILES IDX 79 46 73 47 72 48 37 50 63 51 46 52 62 53 47 54 50 55 61 56
REMARK SMILES IDX 77 57 48 58 49 59 60 61 78 62 51 63 38 64 39 65 44 66 40 67
REMARK SMILES IDX 41 68 43 69 45 70 42 71 64 72 65 73 70 74 66 75 67 76 69 77
REMARK SMILES IDX 71 78 68 79 52 80 53 81 58 82 54 83 55 84 57 85 59 86 56 87
REMARK H PARENT 5 13 17 20 17 21 76 49 50 60
REMARK Flexibility Score: inf
ROOT
ATOM      1  O   UNL     1      -0.176  -1.606   2.822  1.00  0.00    -0.374 OA
ENDROOT
BRANCH   1   2
ATOM      2  C   UNL     1      -0.154  -1.096   1.504  1.00  0.00     0.202 C 
BRANCH   2   3
ATOM      3  C   UNL     1      -1.288  -1.389   0.508  1.00  0.00     0.261 C 
BRANCH   3   4
ATOM      4  O   UNL     1      -2.675  -1.152   0.793  1.00  0.00    -0.462 OA
BRANCH   4   5
ATOM      5  C   UNL     1      -3.295  -2.075   1.573  1.00  0.00     0.328 C 
ATOM      6  O   UNL     1      -2.820  -2.544   2.600  1.00  0.00    -0.250 OA
BRANCH   5   7
ATOM      7  C   UNL     1      -4.722  -2.437   1.145  1.00  0.00     0.195 C 
BRANCH   7   8
ATOM      8  C   UNL     1      -5.721  -1.294   1.502  1.00  0.00     0.017 C 
ATOM      9  C   UNL     1      -7.141  -1.858   1.685  1.00  0.00     0.010 C 
ATOM     10  C   UNL     1      -5.352  -0.524   2.779  1.00  0.00     0.010 C 
ENDBRANCH   7   8
BRANCH   7  11
ATOM     11  N   UNL     1      -4.908  -2.889  -0.252  1.00  0.00    -0.337 N 
ATOM     12  C   UNL     1      -4.442  -4.072  -0.797  1.00  0.00     0.278 C 
ATOM     13  H   UNL     1      -5.411  -2.290  -0.851  1.00  0.00     0.164 HD
ATOM     14  O   UNL     1      -5.216  -4.697  -1.526  1.00  0.00    -0.268 OA
BRANCH  12  15
ATOM     15  C   UNL     1      -2.938  -4.439  -0.680  1.00  0.00     0.272 C 
ATOM     16  C   UNL     1      -2.459  -5.644  -1.514  1.00  0.00     0.076 C 
ATOM     17  N   UNL     1      -2.475  -4.481   0.704  1.00  0.00    -0.333 N 
ATOM     18  C   UNL     1      -2.082  -6.882  -0.688  1.00  0.00     0.016 C 
ATOM     19  C   UNL     1      -2.582  -5.727   1.446  1.00  0.00     0.186 C 
ATOM     20  H   UNL     1      -3.008  -3.780   1.219  1.00  0.00     0.347 HD
ATOM     21  H   UNL     1      -1.470  -4.325   0.631  1.00  0.00     0.347 HD
ATOM     22  C   UNL     1      -2.919  -6.940   0.584  1.00  0.00     0.048 C 
ATOM     23  C   UNL     1      -3.547  -5.640   2.632  1.00  0.00     0.065 C 
ATOM     24  C   UNL     1      -2.675  -8.195   1.428  1.00  0.00     0.010 C 
ATOM     25  C   UNL     1      -3.422  -6.892   3.497  1.00  0.00     0.006 C 
ATOM     26  C   UNL     1      -3.558  -8.179   2.682  1.00  0.00     0.001 C 
ENDBRANCH  12  15
ENDBRANCH   7  11
ENDBRANCH   5   7
ENDBRANCH   4   5
ENDBRANCH   3   4
ENDBRANCH   2   3
ENDBRANCH   1   2
BRANCH   1  27
ATOM     27  C   UNL     1      -0.916  -0.913   3.830  1.00  0.00     0.202 C 
BRANCH  27  28
ATOM     28  C   UNL     1      -0.676   0.580   4.036  1.00  0.00     0.261 C 
BRANCH  28  29
ATOM     29  O   UNL     1      -1.124   1.323   2.887  1.00  0.00    -0.460 OA
BRANCH  29  30
ATOM     30  C   UNL     1      -0.211   2.199   2.407  1.00  0.00     0.338 C 
ATOM     31  O   UNL     1       0.817   2.568   2.951  1.00  0.00    -0.246 OA
BRANCH  30  32
ATOM     32  C   UNL     1      -0.489   2.458   0.983  1.00  0.00     0.060 A 
ATOM     33  C   UNL     1       0.550   2.200   0.076  1.00  0.00     0.016 A 
ATOM     34  C   UNL     1      -1.707   2.978   0.545  1.00  0.00     0.016 A 
ATOM     35  C   UNL     1       0.403   2.531  -1.264  1.00  0.00     0.010 A 
ATOM     36  C   UNL     1      -1.843   3.344  -0.797  1.00  0.00     0.010 A 
ATOM     37  C   UNL     1      -0.770   3.166  -1.689  1.00  0.00    -0.014 A 
BRANCH  37  38
ATOM     38  C   UNL     1      -0.759   3.859  -2.995  1.00  0.00     0.031 A 
ATOM     39  C   UNL     1      -0.287   5.286  -3.030  1.00  0.00     0.074 A 
ATOM     40  C   UNL     1      -1.096   3.221  -4.127  1.00  0.00     0.049 A 
ATOM     41  N   UNL     1      -0.191   6.105  -4.044  1.00  0.00    -0.248 NA
ATOM     42  C   UNL     1       0.147   5.862  -1.746  1.00  0.00     0.031 C 
ATOM     43  C   UNL     1      -1.490   1.818  -4.222  1.00  0.00     0.029 A 
ATOM     44  N   UNL     1      -1.154   3.680  -5.417  1.00  0.00    -0.354 N 
ATOM     45  C   UNL     1       0.323   7.286  -3.523  1.00  0.00     0.074 A 
ATOM     46  C   UNL     1       0.494   7.089  -2.101  1.00  0.00     0.031 C 
ATOM     47  C   UNL     1      -1.763   1.532  -5.507  1.00  0.00     0.029 A 
ATOM     48  C   UNL     1      -1.596   2.740  -6.314  1.00  0.00     0.049 A 
ATOM     49  H   UNL     1      -0.903   4.597  -5.676  1.00  0.00     0.167 HD
ATOM     50  C   UNL     1       0.630   8.431  -4.175  1.00  0.00     0.037 A 
ATOM     51  C   UNL     1      -1.860   2.858  -7.629  1.00  0.00     0.037 A 
ATOM     52  C   UNL     1       0.433   8.631  -5.584  1.00  0.00     0.049 A 
ATOM     53  C   UNL     1      -1.649   4.187  -8.304  1.00  0.00     0.074 A 
ATOM     54  C   UNL     1       0.710   9.752  -6.345  1.00  0.00     0.029 A 
ATOM     55  N   UNL     1      -0.110   7.686  -6.441  1.00  0.00    -0.354 N 
ATOM     56  N   UNL     1      -1.153   5.297  -7.811  1.00  0.00    -0.248 NA
ATOM     57  C   UNL     1      -2.049   4.285  -9.716  1.00  0.00     0.031 C 
ATOM     58  C   UNL     1       0.283   9.503  -7.654  1.00  0.00     0.029 A 
ATOM     59  C   UNL     1      -0.218   8.212  -7.716  1.00  0.00     0.049 A 
ATOM     60  H   UNL     1      -0.380   6.775  -6.181  1.00  0.00     0.167 HD
ATOM     61  C   UNL     1      -1.168   6.218  -8.850  1.00  0.00     0.074 A 
ATOM     62  C   UNL     1      -1.709   5.534 -10.007  1.00  0.00     0.031 C 
ATOM     63  C   UNL     1      -0.769   7.514  -8.850  1.00  0.00     0.037 A 
BRANCH  50  64
ATOM     64  C   UNL     1       1.167   9.563  -3.351  1.00  0.00     0.057 A 
ATOM     65  C   UNL     1       2.466   9.546  -2.829  1.00  0.00     0.134 A 
ATOM     66  C   UNL     1       0.372  10.682  -3.076  1.00  0.00     0.134 A 
ATOM     67  F   UNL     1       3.270   8.492  -3.038  1.00  0.00    -0.206 F 
ATOM     68  C   UNL     1       2.949  10.593  -2.041  1.00  0.00     0.040 A 
ATOM     69  C   UNL     1       0.851  11.745  -2.309  1.00  0.00     0.040 A 
ATOM     70  F   UNL     1      -0.883  10.758  -3.545  1.00  0.00    -0.206 F 
ATOM     71  C   UNL     1       2.141  11.699  -1.784  1.00  0.00     0.006 A 
ENDBRANCH  50  64
BRANCH  51  72
ATOM     72  C   UNL     1      -2.390   1.698  -8.385  1.00  0.00     0.057 A 
ATOM     73  C   UNL     1      -1.623   1.056  -9.363  1.00  0.00     0.134 A 
ATOM     74  C   UNL     1      -3.683   1.210  -8.155  1.00  0.00     0.134 A 
ATOM     75  F   UNL     1      -0.387   1.493  -9.646  1.00  0.00    -0.206 F 
ATOM     76  C   UNL     1      -2.124  -0.026 -10.090  1.00  0.00     0.040 A 
ATOM     77  C   UNL     1      -4.188   0.116  -8.859  1.00  0.00     0.040 A 
ATOM     78  F   UNL     1      -4.470   1.786  -7.235  1.00  0.00    -0.206 F 
ATOM     79  C   UNL     1      -3.408  -0.503  -9.833  1.00  0.00     0.006 A 
ENDBRANCH  51  72
BRANCH  63  80
ATOM     80  C   UNL     1      -0.901   8.277 -10.134  1.00  0.00     0.057 A 
ATOM     81  C   UNL     1      -2.144   8.726 -10.595  1.00  0.00     0.134 A 
ATOM     82  C   UNL     1       0.232   8.620 -10.883  1.00  0.00     0.134 A 
ATOM     83  F   UNL     1      -3.267   8.419  -9.929  1.00  0.00    -0.206 F 
ATOM     84  C   UNL     1      -2.257   9.482 -11.763  1.00  0.00     0.040 A 
ATOM     85  C   UNL     1       0.134   9.394 -12.039  1.00  0.00     0.040 A 
ATOM     86  F   UNL     1       1.453   8.227 -10.489  1.00  0.00    -0.206 F 
ATOM     87  C   UNL     1      -1.114   9.825 -12.483  1.00  0.00     0.006 A 
ENDBRANCH  63  80
ENDBRANCH  37  38
ENDBRANCH  30  32
ENDBRANCH  29  30
ENDBRANCH  28  29
ENDBRANCH  27  28
ENDBRANCH   1  27
TORSDOF 17
