REMARK SMILES C[C@H](C(=O)OCCOCCOC(=O)c1ccc(-c2c3nc(c(-c4c(F)cccc4F)c4ccc([nH]4)c(-c4c(F)cccc4F)c4nc(c(-c5c(F)cccc5F)c5ccc2[nH]5)C=C4)C=C3)cc1)[C@@H](C(=O)c1ccccc1)c1ccc(F)cc1
REMARK SMILES IDX 7 1 6 2 5 3 3 4 4 5 2 6 1 7 68 8 69 9 70 10 71 11 72 12
REMARK SMILES IDX 76 13 73 14 75 15 74 16 77 17 78 18 83 19 79 20 82 21 80 22
REMARK SMILES IDX 81 23 8 24 9 25 10 26 11 27 12 28 13 29 14 30 15 31 67 32
REMARK SMILES IDX 16 33 66 34 17 35 18 36 19 37 60 38 20 39 65 40 59 41 61 42
REMARK SMILES IDX 21 43 64 44 58 45 57 46 22 48 48 49 31 50 47 51 32 52 35 53
REMARK SMILES IDX 46 54 62 55 33 56 34 57 45 59 63 60 36 61 23 62 24 63 29 64
REMARK SMILES IDX 25 65 26 66 28 67 30 68 27 69 49 70 50 71 55 72 51 73 52 74
REMARK SMILES IDX 54 75 56 76 53 77 37 78 38 79 43 80 39 81 40 82 42 83 44 84
REMARK SMILES IDX 41 85
REMARK H PARENT 61 47 35 58
REMARK Flexibility Score: inf
ROOT
ATOM      1  C   UNL     1       1.840   0.805  -2.736  1.00  0.00     0.202 C 
ENDROOT
BRANCH   1   2
ATOM      2  C   UNL     1       2.694   0.128  -1.655  1.00  0.00     0.261 C 
BRANCH   2   3
ATOM      3  O   UNL     1       1.924  -0.324  -0.519  1.00  0.00    -0.463 OA
BRANCH   3   4
ATOM      4  C   UNL     1       1.835   0.509   0.527  1.00  0.00     0.309 C 
ATOM      5  O   UNL     1       2.429   1.581   0.562  1.00  0.00    -0.252 OA
BRANCH   4   6
ATOM      6  C   UNL     1       0.966  -0.054   1.665  1.00  0.00     0.111 C 
ATOM      7  C   UNL     1       1.267   0.994   2.787  1.00  0.00     0.021 C 
BRANCH   6   8
ATOM      8  C   UNL     1      -0.588  -0.253   1.360  1.00  0.00     0.105 C 
BRANCH   8   9
ATOM      9  C   UNL     1      -1.096  -1.672   0.790  1.00  0.00     0.171 C 
ATOM     10  O   UNL     1      -1.563  -2.572   1.490  1.00  0.00    -0.293 OA
BRANCH   9  11
ATOM     11  C   UNL     1      -1.215  -1.968  -0.679  1.00  0.00     0.018 A 
ATOM     12  C   UNL     1      -2.857  -2.088  -1.446  1.00  0.00     0.012 A 
ATOM     13  C   UNL     1       0.249  -1.994  -1.754  1.00  0.00     0.012 A 
ATOM     14  C   UNL     1      -3.026  -2.434  -3.241  1.00  0.00     0.001 A 
ATOM     15  C   UNL     1       0.080  -2.071  -3.582  1.00  0.00     0.001 A 
ATOM     16  C   UNL     1      -1.543  -2.437  -4.309  1.00  0.00     0.000 A 
ENDBRANCH   9  11
ENDBRANCH   8   9
BRANCH   8  17
ATOM     17  C   UNL     1      -1.369   0.100   2.672  1.00  0.00    -0.036 A 
ATOM     18  C   UNL     1      -1.795   1.428   2.899  1.00  0.00     0.007 A 
ATOM     19  C   UNL     1      -1.451  -0.806   3.751  1.00  0.00     0.007 A 
ATOM     20  C   UNL     1      -2.222   1.839   4.170  1.00  0.00     0.039 A 
ATOM     21  C   UNL     1      -1.919  -0.402   5.006  1.00  0.00     0.039 A 
ATOM     22  C   UNL     1      -2.278   0.921   5.211  1.00  0.00     0.123 A 
ATOM     23  F   UNL     1      -2.651   1.324   6.433  1.00  0.00    -0.207 F 
ENDBRANCH   8  17
ENDBRANCH   6   8
ENDBRANCH   4   6
ENDBRANCH   3   4
ENDBRANCH   2   3
ENDBRANCH   1   2
BRANCH   1  24
ATOM     24  O   UNL     1       1.294   2.077  -2.408  1.00  0.00    -0.374 OA
BRANCH  24  25
ATOM     25  C   UNL     1       0.087   2.123  -1.642  1.00  0.00     0.202 C 
BRANCH  25  26
ATOM     26  C   UNL     1      -1.082   1.275  -2.142  1.00  0.00     0.261 C 
BRANCH  26  27
ATOM     27  O   UNL     1      -0.861  -0.121  -1.788  1.00  0.00    -0.460 OA
BRANCH  27  28
ATOM     28  C   UNL     1      -1.475  -1.202  -2.629  1.00  0.00     0.338 C 
ATOM     29  O   UNL     1      -2.105  -0.493  -3.470  1.00  0.00    -0.246 OA
BRANCH  28  30
ATOM     30  C   UNL     1      -1.271  -3.325  -2.372  1.00  0.00     0.060 A 
ATOM     31  C   UNL     1      -0.144  -4.232  -2.848  1.00  0.00     0.016 A 
ATOM     32  C   UNL     1      -2.228  -4.395  -1.874  1.00  0.00     0.016 A 
ATOM     33  C   UNL     1      -0.190  -5.559  -3.280  1.00  0.00     0.010 A 
ATOM     34  C   UNL     1      -2.204  -5.810  -2.116  1.00  0.00     0.010 A 
ATOM     35  C   UNL     1      -1.226  -6.375  -2.911  1.00  0.00    -0.014 A 
BRANCH  35  36
ATOM     36  C   UNL     1      -1.151  -7.797  -3.296  1.00  0.00     0.031 A 
ATOM     37  C   UNL     1      -2.165  -8.386  -4.229  1.00  0.00     0.074 A 
ATOM     38  C   UNL     1      -0.069  -8.499  -2.901  1.00  0.00     0.049 A 
ATOM     39  N   UNL     1      -2.293  -9.624  -4.626  1.00  0.00    -0.248 NA
ATOM     40  C   UNL     1      -3.164  -7.466  -4.798  1.00  0.00     0.031 C 
ATOM     41  C   UNL     1       1.028  -7.964  -2.082  1.00  0.00     0.029 A 
ATOM     42  N   UNL     1       0.318  -9.785  -3.158  1.00  0.00    -0.354 N 
ATOM     43  C   UNL     1      -3.414  -9.647  -5.446  1.00  0.00     0.074 A 
ATOM     44  C   UNL     1      -3.921  -8.293  -5.508  1.00  0.00     0.031 C 
ATOM     45  C   UNL     1       1.986  -8.889  -1.959  1.00  0.00     0.029 A 
ATOM     46  C   UNL     1       1.508 -10.122  -2.559  1.00  0.00     0.049 A 
ATOM     47  H   UNL     1      -0.203 -10.406  -3.716  1.00  0.00     0.167 HD
ATOM     48  C   UNL     1      -3.967 -10.718  -6.064  1.00  0.00     0.037 A 
ATOM     49  C   UNL     1       2.112 -11.316  -2.440  1.00  0.00     0.037 A 
ATOM     50  C   UNL     1      -3.416 -12.048  -5.977  1.00  0.00     0.049 A 
ATOM     51  C   UNL     1       1.427 -12.497  -3.052  1.00  0.00     0.074 A 
ATOM     52  C   UNL     1      -3.894 -13.224  -6.526  1.00  0.00     0.029 A 
ATOM     53  N   UNL     1      -2.252 -12.373  -5.289  1.00  0.00    -0.354 N 
ATOM     54  N   UNL     1       0.324 -12.530  -3.762  1.00  0.00    -0.248 NA
ATOM     55  C   UNL     1       2.047 -13.805  -2.829  1.00  0.00     0.031 C 
ATOM     56  C   UNL     1      -3.053 -14.266  -6.121  1.00  0.00     0.029 A 
ATOM     57  C   UNL     1      -2.012 -13.734  -5.376  1.00  0.00     0.049 A 
ATOM     58  H   UNL     1      -1.681 -11.729  -4.810  1.00  0.00     0.167 HD
ATOM     59  C   UNL     1       0.122 -13.861  -4.088  1.00  0.00     0.074 A 
ATOM     60  C   UNL     1       1.234 -14.597  -3.513  1.00  0.00     0.031 C 
ATOM     61  C   UNL     1      -0.889 -14.427  -4.791  1.00  0.00     0.037 A 
BRANCH  48  62
ATOM     62  C   UNL     1      -5.261 -10.512  -6.801  1.00  0.00     0.057 A 
ATOM     63  C   UNL     1      -5.343  -9.804  -8.007  1.00  0.00     0.134 A 
ATOM     64  C   UNL     1      -6.453 -11.049  -6.293  1.00  0.00     0.134 A 
ATOM     65  F   UNL     1      -4.247  -9.249  -8.545  1.00  0.00    -0.206 F 
ATOM     66  C   UNL     1      -6.562  -9.617  -8.665  1.00  0.00     0.040 A 
ATOM     67  C   UNL     1      -7.673 -10.891  -6.954  1.00  0.00     0.040 A 
ATOM     68  F   UNL     1      -6.453 -11.740  -5.143  1.00  0.00    -0.206 F 
ATOM     69  C   UNL     1      -7.731 -10.166  -8.142  1.00  0.00     0.006 A 
ENDBRANCH  48  62
BRANCH  49  70
ATOM     70  C   UNL     1       3.364 -11.444  -1.650  1.00  0.00     0.057 A 
ATOM     71  C   UNL     1       4.569 -11.819  -2.251  1.00  0.00     0.134 A 
ATOM     72  C   UNL     1       3.392 -11.169  -0.274  1.00  0.00     0.134 A 
ATOM     73  F   UNL     1       4.610 -12.106  -3.560  1.00  0.00    -0.206 F 
ATOM     74  C   UNL     1       5.751 -11.927  -1.514  1.00  0.00     0.040 A 
ATOM     75  C   UNL     1       4.572 -11.239   0.467  1.00  0.00     0.040 A 
ATOM     76  F   UNL     1       2.274 -10.793   0.365  1.00  0.00    -0.206 F 
ATOM     77  C   UNL     1       5.756 -11.628  -0.153  1.00  0.00     0.006 A 
ENDBRANCH  49  70
BRANCH  61  78
ATOM     78  C   UNL     1      -0.796 -15.906  -5.009  1.00  0.00     0.057 A 
ATOM     79  C   UNL     1      -1.006 -16.822  -3.972  1.00  0.00     0.134 A 
ATOM     80  C   UNL     1      -0.507 -16.414  -6.281  1.00  0.00     0.134 A 
ATOM     81  F   UNL     1      -1.266 -16.394  -2.727  1.00  0.00    -0.206 F 
ATOM     82  C   UNL     1      -0.904 -18.196  -4.187  1.00  0.00     0.040 A 
ATOM     83  C   UNL     1      -0.434 -17.786  -6.516  1.00  0.00     0.040 A 
ATOM     84  F   UNL     1      -0.300 -15.585  -7.316  1.00  0.00    -0.206 F 
ATOM     85  C   UNL     1      -0.625 -18.680  -5.464  1.00  0.00     0.006 A 
ENDBRANCH  61  78
ENDBRANCH  35  36
ENDBRANCH  28  30
ENDBRANCH  27  28
ENDBRANCH  26  27
ENDBRANCH  25  26
ENDBRANCH  24  25
ENDBRANCH   1  24
TORSDOF 18
