REMARK SMILES COc1ccccc1[C@@H]1C[N@@H+](Cc2cc3c(cc2C)OCO3)C[C@H]1C(=O)OCCOCCOC(=O)c1ccc(-c2c3nc(c(-c4c(F)cccc4F)c4ccc([nH]4)c(-c4c(F)cccc4F)c4nc(c(-c5c(F)cccc5F)c5ccc2[nH]5)C=C4)C=C3)cc1
REMARK SMILES IDX 30 1 29 2 28 3 27 4 25 5 26 6 24 7 9 8 10 9 11 10 23 11 8 13
REMARK SMILES IDX 3 14 4 15 5 16 7 17 6 18 2 19 1 20 12 21 13 22 14 23 18 24
REMARK SMILES IDX 15 25 17 26 19 27 16 28 22 29 20 30 21 31 31 32 32 33 33 34
REMARK SMILES IDX 34 35 35 36 36 37 37 38 89 39 38 40 88 41 39 42 40 43 41 44
REMARK SMILES IDX 82 45 42 46 87 47 81 48 83 49 43 50 86 51 80 52 79 53 44 55
REMARK SMILES IDX 70 56 53 57 69 58 54 59 57 60 68 61 84 62 55 63 56 64 67 66
REMARK SMILES IDX 85 67 58 68 45 69 46 70 51 71 47 72 48 73 50 74 52 75 49 76
REMARK SMILES IDX 71 77 72 78 77 79 73 80 74 81 76 82 78 83 75 84 59 85 60 86
REMARK SMILES IDX 65 87 61 88 62 89 64 90 66 91 63 92
REMARK H PARENT 11 12 83 54 57 65
REMARK Flexibility Score: inf
ROOT
ATOM      1  O   UNL     1       2.366   5.731   0.125  1.00  0.00    -0.374 OA
ENDROOT
BRANCH   1   2
ATOM      2  C   UNL     1       3.467   5.116   0.802  1.00  0.00     0.202 C 
BRANCH   2   3
ATOM      3  C   UNL     1       3.113   3.817   1.526  1.00  0.00     0.261 C 
BRANCH   3   4
ATOM      4  O   UNL     1       3.039   2.706   0.604  1.00  0.00    -0.463 OA
BRANCH   4   5
ATOM      5  C   UNL     1       2.703   1.535   1.203  1.00  0.00     0.315 C 
ATOM      6  O   UNL     1       2.567   1.420   2.420  1.00  0.00    -0.252 OA
BRANCH   5   7
ATOM      7  C   UNL     1       2.323   0.425   0.241  1.00  0.00     0.167 C 
ATOM      8  C   UNL     1       2.846   0.440  -1.205  1.00  0.00     0.098 C 
ATOM      9  C   UNL     1       3.250  -1.016  -1.484  1.00  0.00     0.272 C 
ATOM     10  N   UNL     1       3.582  -1.622  -0.195  1.00  0.00    -0.330 N 
ATOM     11  C   UNL     1       2.750  -0.939   0.801  1.00  0.00     0.278 C 
ATOM     12  H   UNL     1       3.364  -2.618  -0.201  1.00  0.00     0.348 HD
BRANCH   8  13
ATOM     13  C   UNL     1       1.889   0.932  -2.283  1.00  0.00     0.004 A 
ATOM     14  C   UNL     1       0.552   0.505  -2.392  1.00  0.00     0.122 A 
ATOM     15  C   UNL     1      -0.294   1.033  -3.372  1.00  0.00     0.047 A 
ATOM     16  C   UNL     1       0.207   1.936  -4.311  1.00  0.00     0.004 A 
ATOM     17  C   UNL     1       2.386   1.792  -3.276  1.00  0.00     0.008 A 
ATOM     18  C   UNL     1       1.556   2.277  -4.291  1.00  0.00     0.001 A 
BRANCH  14  19
ATOM     19  O   UNL     1       0.163  -0.611  -1.698  1.00  0.00    -0.496 OA
ATOM     20  C   UNL     1      -0.846  -0.395  -0.721  1.00  0.00     0.278 C 
ENDBRANCH  14  19
ENDBRANCH   8  13
BRANCH  10  21
ATOM     21  C   UNL     1       5.015  -1.690   0.109  1.00  0.00     0.299 C 
BRANCH  21  22
ATOM     22  C   UNL     1       5.724  -0.359   0.239  1.00  0.00     0.013 A 
ATOM     23  C   UNL     1       6.305   0.169  -0.928  1.00  0.00     0.060 A 
ATOM     24  C   UNL     1       5.802   0.378   1.459  1.00  0.00    -0.038 A 
ATOM     25  C   UNL     1       6.887   1.403  -0.846  1.00  0.00     0.166 A 
ATOM     26  C   UNL     1       6.256   1.706   1.452  1.00  0.00     0.054 A 
ATOM     27  C   UNL     1       5.527  -0.216   2.814  1.00  0.00     0.045 C 
ATOM     28  C   UNL     1       6.822   2.168   0.295  1.00  0.00     0.166 A 
ATOM     29  O   UNL     1       7.709   1.952  -1.780  1.00  0.00    -0.454 OA
ATOM     30  O   UNL     1       7.570   3.300   0.177  1.00  0.00    -0.454 OA
ATOM     31  C   UNL     1       8.412   2.839  -0.896  1.00  0.00     0.468 C 
ENDBRANCH  21  22
ENDBRANCH  10  21
ENDBRANCH   5   7
ENDBRANCH   4   5
ENDBRANCH   3   4
ENDBRANCH   2   3
ENDBRANCH   1   2
BRANCH   1  32
ATOM     32  C   UNL     1       1.856   5.029  -1.005  1.00  0.00     0.202 C 
BRANCH  32  33
ATOM     33  C   UNL     1       2.584   5.298  -2.326  1.00  0.00     0.261 C 
BRANCH  33  34
ATOM     34  O   UNL     1       4.013   5.269  -2.232  1.00  0.00    -0.460 OA
BRANCH  34  35
ATOM     35  C   UNL     1       4.585   6.495  -2.141  1.00  0.00     0.338 C 
ATOM     36  O   UNL     1       4.024   7.580  -2.152  1.00  0.00    -0.246 OA
BRANCH  35  37
ATOM     37  C   UNL     1       6.041   6.361  -1.962  1.00  0.00     0.060 A 
ATOM     38  C   UNL     1       6.663   7.091  -0.941  1.00  0.00     0.016 A 
ATOM     39  C   UNL     1       6.800   5.592  -2.841  1.00  0.00     0.016 A 
ATOM     40  C   UNL     1       8.052   7.042  -0.781  1.00  0.00     0.010 A 
ATOM     41  C   UNL     1       8.188   5.569  -2.695  1.00  0.00     0.010 A 
ATOM     42  C   UNL     1       8.834   6.279  -1.655  1.00  0.00    -0.014 A 
BRANCH  42  43
ATOM     43  C   UNL     1      10.325   6.274  -1.565  1.00  0.00     0.031 A 
ATOM     44  C   UNL     1      11.105   6.919  -2.678  1.00  0.00     0.074 A 
ATOM     45  C   UNL     1      10.995   5.676  -0.556  1.00  0.00     0.049 A 
ATOM     46  N   UNL     1      12.400   7.033  -2.827  1.00  0.00    -0.248 NA
ATOM     47  C   UNL     1      10.318   7.511  -3.772  1.00  0.00     0.031 C 
ATOM     48  C   UNL     1      10.395   5.005   0.597  1.00  0.00     0.029 A 
ATOM     49  N   UNL     1      12.348   5.504  -0.358  1.00  0.00    -0.354 N 
ATOM     50  C   UNL     1      12.575   7.744  -4.005  1.00  0.00     0.074 A 
ATOM     51  C   UNL     1      11.267   7.929  -4.591  1.00  0.00     0.031 C 
ATOM     52  C   UNL     1      11.364   4.437   1.339  1.00  0.00     0.029 A 
ATOM     53  C   UNL     1      12.662   4.745   0.748  1.00  0.00     0.049 A 
ATOM     54  H   UNL     1      13.030   5.889  -0.954  1.00  0.00     0.167 HD
ATOM     55  C   UNL     1      13.710   8.260  -4.529  1.00  0.00     0.037 A 
ATOM     56  C   UNL     1      13.858   4.363   1.241  1.00  0.00     0.037 A 
ATOM     57  C   UNL     1      15.019   8.075  -3.972  1.00  0.00     0.049 A 
ATOM     58  C   UNL     1      15.123   4.869   0.592  1.00  0.00     0.074 A 
ATOM     59  C   UNL     1      16.228   8.570  -4.426  1.00  0.00     0.029 A 
ATOM     60  N   UNL     1      15.289   7.322  -2.841  1.00  0.00    -0.354 N 
ATOM     61  N   UNL     1      15.262   5.641  -0.458  1.00  0.00    -0.248 NA
ATOM     62  C   UNL     1      16.397   4.486   1.222  1.00  0.00     0.031 C 
ATOM     63  C   UNL     1      17.237   8.083  -3.589  1.00  0.00     0.029 A 
ATOM     64  C   UNL     1      16.650   7.321  -2.592  1.00  0.00     0.049 A 
ATOM     65  H   UNL     1      14.613   6.857  -2.296  1.00  0.00     0.167 HD
ATOM     66  C   UNL     1      16.626   5.883  -0.577  1.00  0.00     0.074 A 
ATOM     67  C   UNL     1      17.275   5.173   0.504  1.00  0.00     0.031 C 
ATOM     68  C   UNL     1      17.281   6.635  -1.494  1.00  0.00     0.037 A 
BRANCH  55  69
ATOM     69  C   UNL     1      13.549   9.102  -5.757  1.00  0.00     0.057 A 
ATOM     70  C   UNL     1      12.939  10.364  -5.693  1.00  0.00     0.134 A 
ATOM     71  C   UNL     1      13.956   8.639  -7.011  1.00  0.00     0.134 A 
ATOM     72  F   UNL     1      12.506  10.851  -4.520  1.00  0.00    -0.206 F 
ATOM     73  C   UNL     1      12.701  11.117  -6.842  1.00  0.00     0.040 A 
ATOM     74  C   UNL     1      13.748   9.396  -8.165  1.00  0.00     0.040 A 
ATOM     75  F   UNL     1      14.543   7.440  -7.138  1.00  0.00    -0.206 F 
ATOM     76  C   UNL     1      13.108  10.632  -8.083  1.00  0.00     0.006 A 
ENDBRANCH  55  69
BRANCH  56  77
ATOM     77  C   UNL     1      13.951   3.496   2.448  1.00  0.00     0.057 A 
ATOM     78  C   UNL     1      14.410   4.002   3.671  1.00  0.00     0.134 A 
ATOM     79  C   UNL     1      13.670   2.126   2.386  1.00  0.00     0.134 A 
ATOM     80  F   UNL     1      14.722   5.301   3.787  1.00  0.00    -0.206 F 
ATOM     81  C   UNL     1      14.624   3.174   4.775  1.00  0.00     0.040 A 
ATOM     82  C   UNL     1      13.861   1.289   3.490  1.00  0.00     0.040 A 
ATOM     83  F   UNL     1      13.228   1.576   1.246  1.00  0.00    -0.206 F 
ATOM     84  C   UNL     1      14.351   1.811   4.685  1.00  0.00     0.006 A 
ENDBRANCH  56  77
BRANCH  68  85
ATOM     85  C   UNL     1      18.767   6.781  -1.350  1.00  0.00     0.057 A 
ATOM     86  C   UNL     1      19.648   5.734  -1.645  1.00  0.00     0.134 A 
ATOM     87  C   UNL     1      19.325   8.013  -0.983  1.00  0.00     0.134 A 
ATOM     88  F   UNL     1      19.177   4.526  -1.991  1.00  0.00    -0.206 F 
ATOM     89  C   UNL     1      21.032   5.904  -1.572  1.00  0.00     0.040 A 
ATOM     90  C   UNL     1      20.706   8.203  -0.931  1.00  0.00     0.040 A 
ATOM     91  F   UNL     1      18.537   9.060  -0.694  1.00  0.00    -0.206 F 
ATOM     92  C   UNL     1      21.564   7.145  -1.225  1.00  0.00     0.006 A 
ENDBRANCH  68  85
ENDBRANCH  42  43
ENDBRANCH  35  37
ENDBRANCH  34  35
ENDBRANCH  33  34
ENDBRANCH  32  33
ENDBRANCH   1  32
TORSDOF 18
