REMARK SMILES O=C(OCCOCCOC(=O)[C@@H]1C[NH2+]CCN1C(=O)N[C@@H]1CCOC1)c1ccc(-c2c3nc(c(-c4c(F)cccc4F)c4ccc([nH]4)c(-c4c(F)cccc4F)c4nc(c(-c5c(F)cccc5F)c5ccc2[nH]5)C=C4)C=C3)cc1
REMARK SMILES IDX 6 1 5 2 4 3 3 4 2 5 1 6 26 7 27 8 79 9 28 10 78 11 29 12
REMARK SMILES IDX 30 13 31 14 72 15 32 16 77 17 71 18 73 19 33 20 76 21 70 22
REMARK SMILES IDX 69 23 34 25 60 26 43 27 59 28 44 29 47 30 58 31 74 32 45 33
REMARK SMILES IDX 46 34 57 36 75 37 48 38 35 39 36 40 41 41 37 42 38 43 40 44
REMARK SMILES IDX 42 45 39 46 61 47 62 48 67 49 63 50 64 51 66 52 68 53 65 54
REMARK SMILES IDX 49 55 50 56 55 57 51 58 52 59 54 60 56 61 53 62 7 63 8 64
REMARK SMILES IDX 9 65 10 66 11 67 12 68 13 69 17 70 14 71 16 72 15 73 18 76
REMARK SMILES IDX 19 77 20 78 21 80 22 81 25 82 23 83 24 84
REMARK H PARENT 73 24 47 35 14 74 14 75 20 79
REMARK Flexibility Score: inf
ROOT
ATOM      1  O   UNL     1       2.986   0.765  -0.583  1.00  0.00    -0.374 OA
ENDROOT
BRANCH   1   2
ATOM      2  C   UNL     1       3.929   0.322  -1.584  1.00  0.00     0.202 C 
BRANCH   2   3
ATOM      3  C   UNL     1       3.887  -1.138  -2.068  1.00  0.00     0.261 C 
BRANCH   3   4
ATOM      4  O   UNL     1       2.647  -1.807  -1.844  1.00  0.00    -0.460 OA
BRANCH   4   5
ATOM      5  C   UNL     1       2.120  -2.105  -0.635  1.00  0.00     0.338 C 
ATOM      6  O   UNL     1       0.898  -2.170  -0.510  1.00  0.00    -0.246 OA
BRANCH   5   7
ATOM      7  C   UNL     1       2.971  -2.557   0.503  1.00  0.00     0.060 A 
ATOM      8  C   UNL     1       4.189  -1.982   0.863  1.00  0.00     0.016 A 
ATOM      9  C   UNL     1       2.464  -3.603   1.297  1.00  0.00     0.016 A 
ATOM     10  C   UNL     1       4.922  -2.474   1.933  1.00  0.00     0.010 A 
ATOM     11  C   UNL     1       3.182  -4.089   2.394  1.00  0.00     0.010 A 
ATOM     12  C   UNL     1       4.434  -3.541   2.688  1.00  0.00    -0.014 A 
BRANCH  12  13
ATOM     13  C   UNL     1       5.383  -4.172   3.620  1.00  0.00     0.031 A 
ATOM     14  C   UNL     1       6.142  -5.365   3.121  1.00  0.00     0.074 A 
ATOM     15  C   UNL     1       5.720  -3.538   4.757  1.00  0.00     0.049 A 
ATOM     16  N   UNL     1       7.085  -6.053   3.702  1.00  0.00    -0.248 NA
ATOM     17  C   UNL     1       5.825  -5.815   1.752  1.00  0.00     0.031 C 
ATOM     18  C   UNL     1       5.140  -2.273   5.216  1.00  0.00     0.029 A 
ATOM     19  N   UNL     1       6.665  -3.835   5.699  1.00  0.00    -0.354 N 
ATOM     20  C   UNL     1       7.473  -7.010   2.773  1.00  0.00     0.074 A 
ATOM     21  C   UNL     1       6.664  -6.825   1.593  1.00  0.00     0.031 C 
ATOM     22  C   UNL     1       5.764  -1.890   6.343  1.00  0.00     0.029 A 
ATOM     23  C   UNL     1       6.731  -2.915   6.718  1.00  0.00     0.049 A 
ATOM     24  H   UNL     1       7.243  -4.630   5.652  1.00  0.00     0.167 HD
ATOM     25  C   UNL     1       8.423  -7.963   2.905  1.00  0.00     0.037 A 
ATOM     26  C   UNL     1       7.469  -2.937   7.844  1.00  0.00     0.037 A 
ATOM     27  C   UNL     1       9.182  -8.141   4.110  1.00  0.00     0.049 A 
ATOM     28  C   UNL     1       8.407  -4.100   8.036  1.00  0.00     0.074 A 
ATOM     29  C   UNL     1      10.060  -9.152   4.447  1.00  0.00     0.029 A 
ATOM     30  N   UNL     1       9.138  -7.264   5.188  1.00  0.00    -0.354 N 
ATOM     31  N   UNL     1       8.687  -5.079   7.206  1.00  0.00    -0.248 NA
ATOM     32  C   UNL     1       9.115  -4.177   9.319  1.00  0.00     0.031 C 
ATOM     33  C   UNL     1      10.516  -8.907   5.748  1.00  0.00     0.029 A 
ATOM     34  C   UNL     1       9.962  -7.717   6.200  1.00  0.00     0.049 A 
ATOM     35  H   UNL     1       8.599  -6.441   5.225  1.00  0.00     0.167 HD
ATOM     36  C   UNL     1       9.603  -5.888   7.863  1.00  0.00     0.074 A 
ATOM     37  C   UNL     1       9.859  -5.260   9.146  1.00  0.00     0.031 C 
ATOM     38  C   UNL     1      10.176  -7.050   7.460  1.00  0.00     0.037 A 
BRANCH  25  39
ATOM     39  C   UNL     1       8.596  -8.909   1.756  1.00  0.00     0.057 A 
ATOM     40  C   UNL     1       9.216  -8.524   0.559  1.00  0.00     0.134 A 
ATOM     41  C   UNL     1       8.075 -10.207   1.823  1.00  0.00     0.134 A 
ATOM     42  F   UNL     1       9.700  -7.281   0.414  1.00  0.00    -0.206 F 
ATOM     43  C   UNL     1       9.290  -9.388  -0.536  1.00  0.00     0.040 A 
ATOM     44  C   UNL     1       8.161 -11.087   0.742  1.00  0.00     0.040 A 
ATOM     45  F   UNL     1       7.453 -10.633   2.932  1.00  0.00    -0.206 F 
ATOM     46  C   UNL     1       8.763 -10.675  -0.445  1.00  0.00     0.006 A 
ENDBRANCH  25  39
BRANCH  26  47
ATOM     47  C   UNL     1       7.287  -1.897   8.894  1.00  0.00     0.057 A 
ATOM     48  C   UNL     1       8.329  -1.054   9.297  1.00  0.00     0.134 A 
ATOM     49  C   UNL     1       6.058  -1.750   9.555  1.00  0.00     0.134 A 
ATOM     50  F   UNL     1       9.537  -1.151   8.725  1.00  0.00    -0.206 F 
ATOM     51  C   UNL     1       8.163  -0.123  10.328  1.00  0.00     0.040 A 
ATOM     52  C   UNL     1       5.868  -0.802  10.562  1.00  0.00     0.040 A 
ATOM     53  F   UNL     1       5.014  -2.526   9.226  1.00  0.00    -0.206 F 
ATOM     54  C   UNL     1       6.927   0.008  10.959  1.00  0.00     0.006 A 
ENDBRANCH  26  47
BRANCH  38  55
ATOM     55  C   UNL     1      11.135  -7.688   8.416  1.00  0.00     0.057 A 
ATOM     56  C   UNL     1      10.694  -8.328   9.580  1.00  0.00     0.134 A 
ATOM     57  C   UNL     1      12.509  -7.688   8.150  1.00  0.00     0.134 A 
ATOM     58  F   UNL     1       9.389  -8.348   9.893  1.00  0.00    -0.206 F 
ATOM     59  C   UNL     1      11.592  -8.925  10.463  1.00  0.00     0.040 A 
ATOM     60  C   UNL     1      13.414  -8.306   9.011  1.00  0.00     0.040 A 
ATOM     61  F   UNL     1      12.989  -7.099   7.044  1.00  0.00    -0.206 F 
ATOM     62  C   UNL     1      12.956  -8.920  10.175  1.00  0.00     0.006 A 
ENDBRANCH  38  55
ENDBRANCH  12  13
ENDBRANCH   5   7
ENDBRANCH   4   5
ENDBRANCH   3   4
ENDBRANCH   2   3
ENDBRANCH   1   2
BRANCH   1  63
ATOM     63  C   UNL     1       1.833   1.478  -1.107  1.00  0.00     0.202 C 
BRANCH  63  64
ATOM     64  C   UNL     1       1.518   2.841  -0.394  1.00  0.00     0.261 C 
BRANCH  64  65
ATOM     65  O   UNL     1       2.324   3.908  -0.955  1.00  0.00    -0.462 OA
BRANCH  65  66
ATOM     66  C   UNL     1       2.518   5.052  -0.208  1.00  0.00     0.334 C 
ATOM     67  O   UNL     1       1.641   5.601   0.445  1.00  0.00    -0.250 OA
BRANCH  66  68
ATOM     68  C   UNL     1       4.023   5.474  -0.185  1.00  0.00     0.252 C 
ATOM     69  C   UNL     1       4.364   6.946  -0.542  1.00  0.00     0.298 C 
ATOM     70  N   UNL     1       4.788   4.537  -0.992  1.00  0.00    -0.300 N 
ATOM     71  N   UNL     1       4.981   7.182  -1.872  1.00  0.00    -0.343 N 
ATOM     72  C   UNL     1       4.749   4.782  -2.452  1.00  0.00     0.183 C 
ATOM     73  C   UNL     1       4.390   6.238  -2.825  1.00  0.00     0.282 C 
ATOM     74  H   UNL     1       5.989   7.032  -1.817  1.00  0.00     0.346 HD
ATOM     75  H   UNL     1       4.811   8.141  -2.175  1.00  0.00     0.346 HD
BRANCH  70  76
ATOM     76  C   UNL     1       5.125   3.283  -0.530  1.00  0.00     0.318 C 
ATOM     77  O   UNL     1       5.773   2.512  -1.237  1.00  0.00    -0.249 OA
ATOM     78  N   UNL     1       4.398   2.794   0.533  1.00  0.00    -0.333 N 
ATOM     79  H   UNL     1       3.575   2.322   0.269  1.00  0.00     0.165 HD
BRANCH  78  80
ATOM     80  C   UNL     1       4.617   2.843   1.993  1.00  0.00     0.112 C 
ATOM     81  C   UNL     1       4.268   1.494   2.627  1.00  0.00     0.056 C 
ATOM     82  C   UNL     1       3.681   3.767   2.792  1.00  0.00     0.185 C 
ATOM     83  C   UNL     1       2.833   1.628   3.096  1.00  0.00     0.162 C 
ATOM     84  O   UNL     1       2.640   2.999   3.413  1.00  0.00    -0.379 OA
ENDBRANCH  78  80
ENDBRANCH  70  76
ENDBRANCH  66  68
ENDBRANCH  65  66
ENDBRANCH  64  65
ENDBRANCH  63  64
ENDBRANCH   1  63
TORSDOF 16
