REMARK SMILES Cc1cc(F)ccc1S(=O)(=O)N1CCO[C@H](CC(=O)OCCOCCOC(=O)c2ccc(-c3c4nc(c(-c5c(F)cccc5F)c5ccc([nH]5)c(-c5c(F)cccc5F)c5nc(c(-c6c(F)cccc6F)c6ccc3[nH]6)C=C5)C=C4)cc2)C1
REMARK SMILES IDX 22 1 21 2 20 3 18 4 19 5 17 6 16 7 12 8 13 9 83 10 14 11
REMARK SMILES IDX 15 12 9 13 10 14 11 15 8 16 1 17 2 18 3 19 4 20 7 21 5 22
REMARK SMILES IDX 6 23 23 24 24 25 25 26 26 27 27 28 28 29 29 30 30 31 82 32
REMARK SMILES IDX 31 33 81 34 32 35 33 36 34 37 75 38 35 39 80 40 74 41 76 42
REMARK SMILES IDX 36 43 79 44 73 45 72 46 37 48 63 49 46 50 62 51 47 52 50 53
REMARK SMILES IDX 61 54 77 55 48 56 49 57 60 59 78 60 51 61 38 62 39 63 44 64
REMARK SMILES IDX 40 65 41 66 43 67 45 68 42 69 64 70 65 71 70 72 66 73 67 74
REMARK SMILES IDX 69 75 71 76 68 77 52 78 53 79 58 80 54 81 55 82 57 83 59 84
REMARK SMILES IDX 56 85
REMARK H PARENT 76 47 50 58
REMARK Flexibility Score: inf
ROOT
ATOM      1  C   UNL     1       2.882   2.506  -6.354  1.00  0.00     0.202 C 
ENDROOT
BRANCH   1   2
ATOM      2  C   UNL     1       2.211   3.172  -5.151  1.00  0.00     0.261 C 
BRANCH   2   3
ATOM      3  O   UNL     1       2.881   2.913  -3.908  1.00  0.00    -0.463 OA
BRANCH   3   4
ATOM      4  C   UNL     1       2.210   2.090  -3.064  1.00  0.00     0.308 C 
ATOM      5  O   UNL     1       1.138   1.549  -3.307  1.00  0.00    -0.252 OA
BRANCH   4   6
ATOM      6  C   UNL     1       2.908   1.931  -1.746  1.00  0.00     0.156 C 
BRANCH   6   7
ATOM      7  C   UNL     1       4.329   1.357  -1.811  1.00  0.00     0.144 C 
ATOM      8  N   UNL     1       3.886  -0.309  -0.094  1.00  0.00    -0.193 NA
ATOM      9  C   UNL     1       4.832   0.319   0.857  1.00  0.00     0.131 C 
ATOM     10  C   UNL     1       4.330  -0.152  -1.498  1.00  0.00     0.135 C 
ATOM     11  C   UNL     1       5.053   1.798   0.470  1.00  0.00     0.177 C 
ATOM     12  O   UNL     1       5.257   2.035  -0.931  1.00  0.00    -0.375 OA
BRANCH   8  13
ATOM     13  S   UNL     1       2.913  -1.591   0.383  1.00  0.00     0.243 S 
ATOM     14  O   UNL     1       3.145  -1.863   1.778  1.00  0.00    -0.207 OA
ATOM     15  O   UNL     1       3.080  -2.622  -0.629  1.00  0.00    -0.207 OA
BRANCH  13  16
ATOM     16  C   UNL     1       1.195  -1.031   0.264  1.00  0.00     0.085 A 
ATOM     17  C   UNL     1       1.518   1.305   1.339  1.00  0.00     0.046 C 
ATOM     18  C   UNL     1       0.722   0.244   0.647  1.00  0.00    -0.028 A 
ATOM     19  C   UNL     1      -0.643   0.545   0.456  1.00  0.00     0.044 A 
ATOM     20  C   UNL     1      -1.524  -0.408  -0.032  1.00  0.00     0.123 A 
ATOM     21  C   UNL     1       0.276  -1.989  -0.212  1.00  0.00     0.025 A 
ATOM     22  F   UNL     1      -2.819  -0.097  -0.170  1.00  0.00    -0.207 F 
ATOM     23  C   UNL     1      -1.081  -1.682  -0.343  1.00  0.00     0.040 A 
ENDBRANCH  13  16
ENDBRANCH   8  13
ENDBRANCH   6   7
ENDBRANCH   4   6
ENDBRANCH   3   4
ENDBRANCH   2   3
ENDBRANCH   1   2
BRANCH   1  24
ATOM     24  O   UNL     1       2.994   1.088  -6.365  1.00  0.00    -0.374 OA
BRANCH  24  25
ATOM     25  C   UNL     1       3.902   0.462  -5.463  1.00  0.00     0.202 C 
BRANCH  25  26
ATOM     26  C   UNL     1       5.402   0.759  -5.613  1.00  0.00     0.261 C 
BRANCH  26  27
ATOM     27  O   UNL     1       5.733   2.142  -5.377  1.00  0.00    -0.460 OA
BRANCH  27  28
ATOM     28  C   UNL     1       6.295   2.773  -6.439  1.00  0.00     0.338 C 
ATOM     29  O   UNL     1       6.593   2.284  -7.516  1.00  0.00    -0.246 OA
BRANCH  28  30
ATOM     30  C   UNL     1       6.340   4.229  -6.214  1.00  0.00     0.060 A 
ATOM     31  C   UNL     1       5.604   5.039  -7.088  1.00  0.00     0.016 A 
ATOM     32  C   UNL     1       7.187   4.796  -5.262  1.00  0.00     0.016 A 
ATOM     33  C   UNL     1       5.745   6.423  -7.042  1.00  0.00     0.010 A 
ATOM     34  C   UNL     1       7.336   6.189  -5.225  1.00  0.00     0.010 A 
ATOM     35  C   UNL     1       6.643   7.005  -6.138  1.00  0.00    -0.014 A 
BRANCH  35  36
ATOM     36  C   UNL     1       6.941   8.454  -6.254  1.00  0.00     0.031 A 
ATOM     37  C   UNL     1       8.207   8.896  -6.938  1.00  0.00     0.074 A 
ATOM     38  C   UNL     1       6.061   9.369  -5.810  1.00  0.00     0.049 A 
ATOM     39  N   UNL     1       8.652  10.107  -7.158  1.00  0.00    -0.248 NA
ATOM     40  C   UNL     1       9.087   7.831  -7.444  1.00  0.00     0.031 C 
ATOM     41  C   UNL     1       4.782   9.066  -5.170  1.00  0.00     0.029 A 
ATOM     42  N   UNL     1       6.111  10.740  -5.835  1.00  0.00    -0.354 N 
ATOM     43  C   UNL     1       9.863   9.951  -7.822  1.00  0.00     0.074 A 
ATOM     44  C   UNL     1      10.099   8.528  -7.939  1.00  0.00     0.031 C 
ATOM     45  C   UNL     1       4.168  10.220  -4.859  1.00  0.00     0.029 A 
ATOM     46  C   UNL     1       5.024  11.339  -5.248  1.00  0.00     0.049 A 
ATOM     47  H   UNL     1       6.855  11.246  -6.234  1.00  0.00     0.167 HD
ATOM     48  C   UNL     1      10.697  10.906  -8.298  1.00  0.00     0.037 A 
ATOM     49  C   UNL     1       4.758  12.642  -5.032  1.00  0.00     0.037 A 
ATOM     50  C   UNL     1      10.458  12.322  -8.181  1.00  0.00     0.049 A 
ATOM     51  C   UNL     1       5.737  13.683  -5.507  1.00  0.00     0.074 A 
ATOM     52  C   UNL     1      11.233  13.369  -8.651  1.00  0.00     0.029 A 
ATOM     53  N   UNL     1       9.367  12.890  -7.540  1.00  0.00    -0.354 N 
ATOM     54  N   UNL     1       6.864  13.525  -6.157  1.00  0.00    -0.248 NA
ATOM     55  C   UNL     1       5.402  15.085  -5.221  1.00  0.00     0.031 C 
ATOM     56  C   UNL     1      10.641  14.569  -8.244  1.00  0.00     0.029 A 
ATOM     57  C   UNL     1       9.465  14.272  -7.574  1.00  0.00     0.049 A 
ATOM     58  H   UNL     1       8.632  12.386  -7.122  1.00  0.00     0.167 HD
ATOM     59  C   UNL     1       7.359  14.804  -6.382  1.00  0.00     0.074 A 
ATOM     60  C   UNL     1       6.399  15.727  -5.812  1.00  0.00     0.031 C 
ATOM     61  C   UNL     1       8.503  15.181  -7.004  1.00  0.00     0.037 A 
BRANCH  48  62
ATOM     62  C   UNL     1      11.963  10.453  -8.967  1.00  0.00     0.057 A 
ATOM     63  C   UNL     1      11.960   9.834 -10.224  1.00  0.00     0.134 A 
ATOM     64  C   UNL     1      13.206  10.674  -8.361  1.00  0.00     0.134 A 
ATOM     65  F   UNL     1      10.803   9.581 -10.855  1.00  0.00    -0.206 F 
ATOM     66  C   UNL     1      13.145   9.431 -10.842  1.00  0.00     0.040 A 
ATOM     67  C   UNL     1      14.400  10.301  -8.982  1.00  0.00     0.040 A 
ATOM     68  F   UNL     1      13.283  11.268  -7.160  1.00  0.00    -0.206 F 
ATOM     69  C   UNL     1      14.371   9.671 -10.224  1.00  0.00     0.006 A 
ENDBRANCH  48  62
BRANCH  49  70
ATOM     70  C   UNL     1       3.518  13.038  -4.319  1.00  0.00     0.057 A 
ATOM     71  C   UNL     1       2.490  13.727  -4.973  1.00  0.00     0.134 A 
ATOM     72  C   UNL     1       3.339  12.753  -2.959  1.00  0.00     0.134 A 
ATOM     73  F   UNL     1       2.611  14.050  -6.268  1.00  0.00    -0.206 F 
ATOM     74  C   UNL     1       1.337  14.134  -4.297  1.00  0.00     0.040 A 
ATOM     75  C   UNL     1       2.181  13.128  -2.278  1.00  0.00     0.040 A 
ATOM     76  F   UNL     1       4.286  12.093  -2.275  1.00  0.00    -0.206 F 
ATOM     77  C   UNL     1       1.179  13.829  -2.946  1.00  0.00     0.006 A 
ENDBRANCH  49  70
BRANCH  61  78
ATOM     78  C   UNL     1       8.764  16.655  -7.132  1.00  0.00     0.057 A 
ATOM     79  C   UNL     1       9.103  17.448  -6.028  1.00  0.00     0.134 A 
ATOM     80  C   UNL     1       8.708  17.283  -8.383  1.00  0.00     0.134 A 
ATOM     81  F   UNL     1       9.163  16.912  -4.799  1.00  0.00    -0.206 F 
ATOM     82  C   UNL     1       9.348  18.816  -6.159  1.00  0.00     0.040 A 
ATOM     83  C   UNL     1       8.980  18.644  -8.532  1.00  0.00     0.040 A 
ATOM     84  F   UNL     1       8.400  16.582  -9.485  1.00  0.00    -0.206 F 
ATOM     85  C   UNL     1       9.294  19.416  -7.415  1.00  0.00     0.006 A 
ENDBRANCH  61  78
ENDBRANCH  35  36
ENDBRANCH  28  30
ENDBRANCH  27  28
ENDBRANCH  26  27
ENDBRANCH  25  26
ENDBRANCH  24  25
ENDBRANCH   1  24
TORSDOF 17
