REMARK SMILES CCN(C(=O)C1(C)CCCC1)[C@@H]1COC[C@H]1C(=O)OCCOCCOC(=O)c1ccc(-c2c3nc(c(-c4c(F)cccc4F)c4ccc([nH]4)c(-c4c(F)cccc4F)c4nc(c(-c5c(F)cccc5F)c5ccc2[nH]5)C=C4)C=C3)cc1
REMARK SMILES IDX 21 1 20 2 19 3 17 4 18 5 16 6 12 7 13 8 14 9 15 10 3 11 2 12
REMARK SMILES IDX 1 13 4 14 5 15 6 16 7 17 8 18 11 19 9 20 10 21 22 22 23 23
REMARK SMILES IDX 24 24 25 25 26 26 27 27 28 28 29 29 81 30 30 31 80 32 31 33
REMARK SMILES IDX 32 34 33 35 74 36 34 37 79 38 73 39 75 40 35 41 78 42 72 43
REMARK SMILES IDX 71 44 36 46 62 47 45 48 61 49 46 50 49 51 60 52 76 53 47 54
REMARK SMILES IDX 48 55 59 57 77 58 50 59 37 60 38 61 43 62 39 63 40 64 42 65
REMARK SMILES IDX 44 66 41 67 63 68 64 69 69 70 65 71 66 72 68 73 70 74 67 75
REMARK SMILES IDX 51 76 52 77 57 78 53 79 54 80 56 81 58 82 55 83
REMARK H PARENT 75 45 49 56
REMARK Flexibility Score: inf
ROOT
ATOM      1  C   UNL     1       3.147   6.231  -4.152  1.00  0.00     0.202 C 
ENDROOT
BRANCH   1   2
ATOM      2  C   UNL     1       4.146   5.220  -3.567  1.00  0.00     0.261 C 
BRANCH   2   3
ATOM      3  O   UNL     1       3.587   3.972  -3.095  1.00  0.00    -0.463 OA
BRANCH   3   4
ATOM      4  C   UNL     1       3.711   3.747  -1.761  1.00  0.00     0.313 C 
ATOM      5  O   UNL     1       4.190   4.554  -0.970  1.00  0.00    -0.252 OA
BRANCH   4   6
ATOM      6  C   UNL     1       3.295   2.371  -1.295  1.00  0.00     0.150 C 
ATOM      7  C   UNL     1       2.286   1.539  -2.092  1.00  0.00     0.127 C 
ATOM      8  C   UNL     1       2.881   0.118  -2.066  1.00  0.00     0.186 C 
ATOM      9  O   UNL     1       4.061   0.160  -1.247  1.00  0.00    -0.378 OA
ATOM     10  C   UNL     1       4.537   1.505  -1.283  1.00  0.00     0.177 C 
BRANCH   7  11
ATOM     11  N   UNL     1       0.844   1.598  -1.652  1.00  0.00    -0.336 N 
BRANCH  11  12
ATOM     12  C   UNL     1       0.498   1.595  -0.222  1.00  0.00     0.116 C 
ATOM     13  C   UNL     1       0.788   0.273   0.469  1.00  0.00     0.027 C 
ENDBRANCH  11  12
BRANCH  11  14
ATOM     14  C   UNL     1      -0.126   1.394  -2.648  1.00  0.00     0.228 C 
ATOM     15  O   UNL     1       0.208   0.838  -3.701  1.00  0.00    -0.274 OA
BRANCH  14  16
ATOM     16  C   UNL     1      -1.583   1.967  -2.485  1.00  0.00     0.047 C 
ATOM     17  C   UNL     1      -1.615   3.378  -1.850  1.00  0.00     0.022 C 
ATOM     18  C   UNL     1      -2.259   2.052  -3.881  1.00  0.00     0.016 C 
ATOM     19  C   UNL     1      -2.538   1.012  -1.752  1.00  0.00     0.016 C 
ATOM     20  C   UNL     1      -2.874   0.685  -4.151  1.00  0.00     0.001 C 
ATOM     21  C   UNL     1      -3.064   0.030  -2.792  1.00  0.00     0.001 C 
ENDBRANCH  14  16
ENDBRANCH  11  14
ENDBRANCH   7  11
ENDBRANCH   4   6
ENDBRANCH   3   4
ENDBRANCH   2   3
ENDBRANCH   1   2
BRANCH   1  22
ATOM     22  O   UNL     1       1.987   6.576  -3.410  1.00  0.00    -0.374 OA
BRANCH  22  23
ATOM     23  C   UNL     1       1.130   5.544  -2.962  1.00  0.00     0.202 C 
BRANCH  23  24
ATOM     24  C   UNL     1       0.664   4.453  -3.929  1.00  0.00     0.261 C 
BRANCH  24  25
ATOM     25  O   UNL     1       1.367   4.314  -5.148  1.00  0.00    -0.460 OA
BRANCH  25  26
ATOM     26  C   UNL     1       0.619   4.544  -6.247  1.00  0.00     0.338 C 
ATOM     27  O   UNL     1      -0.537   4.904  -6.334  1.00  0.00    -0.246 OA
BRANCH  26  28
ATOM     28  C   UNL     1       1.494   4.292  -7.384  1.00  0.00     0.060 A 
ATOM     29  C   UNL     1       2.170   5.372  -7.953  1.00  0.00     0.016 A 
ATOM     30  C   UNL     1       1.619   2.991  -7.873  1.00  0.00     0.016 A 
ATOM     31  C   UNL     1       2.959   5.153  -9.070  1.00  0.00     0.010 A 
ATOM     32  C   UNL     1       2.421   2.772  -8.986  1.00  0.00     0.010 A 
ATOM     33  C   UNL     1       3.063   3.859  -9.602  1.00  0.00    -0.014 A 
BRANCH  33  34
ATOM     34  C   UNL     1       3.759   3.667 -10.886  1.00  0.00     0.031 A 
ATOM     35  C   UNL     1       2.940   3.509 -12.130  1.00  0.00     0.074 A 
ATOM     36  C   UNL     1       5.101   3.666 -10.914  1.00  0.00     0.049 A 
ATOM     37  N   UNL     1       3.336   3.322 -13.361  1.00  0.00    -0.248 NA
ATOM     38  C   UNL     1       1.477   3.563 -11.967  1.00  0.00     0.031 C 
ATOM     39  C   UNL     1       5.969   3.834  -9.747  1.00  0.00     0.029 A 
ATOM     40  N   UNL     1       5.968   3.519 -11.962  1.00  0.00    -0.354 N 
ATOM     41  C   UNL     1       2.174   3.233 -14.116  1.00  0.00     0.074 A 
ATOM     42  C   UNL     1       1.059   3.348 -13.204  1.00  0.00     0.031 C 
ATOM     43  C   UNL     1       7.250   3.782 -10.147  1.00  0.00     0.029 A 
ATOM     44  C   UNL     1       7.287   3.543 -11.586  1.00  0.00     0.049 A 
ATOM     45  H   UNL     1       5.674   3.407 -12.895  1.00  0.00     0.167 HD
ATOM     46  C   UNL     1       2.059   3.080 -15.455  1.00  0.00     0.037 A 
ATOM     47  C   UNL     1       8.395   3.370 -12.329  1.00  0.00     0.037 A 
ATOM     48  C   UNL     1       3.188   2.963 -16.339  1.00  0.00     0.049 A 
ATOM     49  C   UNL     1       8.236   3.146 -13.808  1.00  0.00     0.074 A 
ATOM     50  C   UNL     1       3.199   2.819 -17.714  1.00  0.00     0.029 A 
ATOM     51  N   UNL     1       4.513   2.967 -15.923  1.00  0.00    -0.354 N 
ATOM     52  N   UNL     1       7.137   3.097 -14.523  1.00  0.00    -0.248 NA
ATOM     53  C   UNL     1       9.468   2.958 -14.584  1.00  0.00     0.031 C 
ATOM     54  C   UNL     1       4.529   2.686 -18.124  1.00  0.00     0.029 A 
ATOM     55  C   UNL     1       5.351   2.803 -17.012  1.00  0.00     0.049 A 
ATOM     56  H   UNL     1       4.812   3.071 -14.991  1.00  0.00     0.167 HD
ATOM     57  C   UNL     1       7.543   2.897 -15.835  1.00  0.00     0.074 A 
ATOM     58  C   UNL     1       8.992   2.851 -15.816  1.00  0.00     0.031 C 
ATOM     59  C   UNL     1       6.791   2.764 -16.956  1.00  0.00     0.037 A 
BRANCH  46  60
ATOM     60  C   UNL     1       0.673   3.002 -16.027  1.00  0.00     0.057 A 
ATOM     61  C   UNL     1      -0.179   4.114 -16.065  1.00  0.00     0.134 A 
ATOM     62  C   UNL     1       0.187   1.800 -16.557  1.00  0.00     0.134 A 
ATOM     63  F   UNL     1       0.217   5.292 -15.558  1.00  0.00    -0.206 F 
ATOM     64  C   UNL     1      -1.471   4.028 -16.587  1.00  0.00     0.040 A 
ATOM     65  C   UNL     1      -1.093   1.708 -17.105  1.00  0.00     0.040 A 
ATOM     66  F   UNL     1       0.949   0.696 -16.552  1.00  0.00    -0.206 F 
ATOM     67  C   UNL     1      -1.929   2.822 -17.115  1.00  0.00     0.006 A 
ENDBRANCH  46  60
BRANCH  47  68
ATOM     68  C   UNL     1       9.732   3.401 -11.688  1.00  0.00     0.057 A 
ATOM     69  C   UNL     1      10.636   4.439 -11.938  1.00  0.00     0.134 A 
ATOM     70  C   UNL     1      10.138   2.394 -10.802  1.00  0.00     0.134 A 
ATOM     71  F   UNL     1      10.312   5.426 -12.787  1.00  0.00    -0.206 F 
ATOM     72  C   UNL     1      11.900   4.468 -11.346  1.00  0.00     0.040 A 
ATOM     73  C   UNL     1      11.388   2.424 -10.182  1.00  0.00     0.040 A 
ATOM     74  F   UNL     1       9.316   1.375 -10.511  1.00  0.00    -0.206 F 
ATOM     75  C   UNL     1      12.277   3.460 -10.460  1.00  0.00     0.006 A 
ENDBRANCH  47  68
BRANCH  59  76
ATOM     76  C   UNL     1       7.527   2.589 -18.250  1.00  0.00     0.057 A 
ATOM     77  C   UNL     1       8.184   1.395 -18.572  1.00  0.00     0.134 A 
ATOM     78  C   UNL     1       7.539   3.614 -19.205  1.00  0.00     0.134 A 
ATOM     79  F   UNL     1       8.219   0.380 -17.694  1.00  0.00    -0.206 F 
ATOM     80  C   UNL     1       8.847   1.235 -19.789  1.00  0.00     0.040 A 
ATOM     81  C   UNL     1       8.173   3.455 -20.436  1.00  0.00     0.040 A 
ATOM     82  F   UNL     1       6.919   4.779 -18.961  1.00  0.00    -0.206 F 
ATOM     83  C   UNL     1       8.835   2.264 -20.728  1.00  0.00     0.006 A 
ENDBRANCH  59  76
ENDBRANCH  33  34
ENDBRANCH  26  28
ENDBRANCH  25  26
ENDBRANCH  24  25
ENDBRANCH  23  24
ENDBRANCH  22  23
ENDBRANCH   1  22
TORSDOF 18
