REMARK SMILES CS(=O)(=O)c1ccc(C(=O)N[C@@H](CC(=O)OCCOCCOC(=O)c2ccc(-c3c4nc(c(-c5c(F)cccc5F)c5ccc([nH]5)c(-c5c(F)cccc5F)c5nc(c(-c6c(F)cccc6F)c6ccc3[nH]6)C=C5)C=C4)cc2)c2ccccc2)cc1
REMARK SMILES IDX 18 1 17 2 16 3 14 4 15 5 13 6 12 7 11 8 9 9 10 10 8 12 5 13
REMARK SMILES IDX 6 14 86 15 7 16 85 17 2 18 1 19 3 20 4 21 79 22 80 23 84 24
REMARK SMILES IDX 81 25 83 26 82 27 19 28 20 29 21 30 22 31 23 32 24 33 25 34
REMARK SMILES IDX 26 35 78 36 27 37 77 38 28 39 29 40 30 41 71 42 31 43 76 44
REMARK SMILES IDX 70 45 72 46 32 47 75 48 69 49 68 50 33 52 59 53 42 54 58 55
REMARK SMILES IDX 43 56 46 57 57 58 73 59 44 60 45 61 56 63 74 64 47 65 34 66
REMARK SMILES IDX 35 67 40 68 36 69 37 70 39 71 41 72 38 73 60 74 61 75 66 76
REMARK SMILES IDX 62 77 63 78 65 79 67 80 64 81 48 82 49 83 54 84 50 85 51 86
REMARK SMILES IDX 53 87 55 88 52 89
REMARK H PARENT 11 11 72 51 46 62
REMARK Flexibility Score: inf
ROOT
ATOM      1  C   UNL     1       1.633   9.168   8.956  1.00  0.00     0.202 C 
ENDROOT
BRANCH   1   2
ATOM      2  C   UNL     1       0.478   8.264   8.507  1.00  0.00     0.261 C 
BRANCH   2   3
ATOM      3  O   UNL     1       0.711   7.576   7.258  1.00  0.00    -0.463 OA
BRANCH   3   4
ATOM      4  C   UNL     1      -0.026   8.019   6.204  1.00  0.00     0.308 C 
ATOM      5  O   UNL     1      -0.782   8.985   6.241  1.00  0.00    -0.252 OA
BRANCH   4   6
ATOM      6  C   UNL     1       0.047   7.138   4.982  1.00  0.00     0.152 C 
BRANCH   6   7
ATOM      7  C   UNL     1       1.376   6.469   4.609  1.00  0.00     0.123 C 
BRANCH   7   8
ATOM      8  N   UNL     1       1.650   5.372   5.533  1.00  0.00    -0.345 N 
ATOM      9  C   UNL     1       1.576   4.007   5.391  1.00  0.00     0.251 C 
ATOM     10  O   UNL     1       1.894   3.310   6.354  1.00  0.00    -0.269 OA
ATOM     11  H   UNL     1       1.943   5.665   6.426  1.00  0.00     0.164 HD
BRANCH   9  12
ATOM     12  C   UNL     1       1.202   3.331   4.112  1.00  0.00     0.039 A 
ATOM     13  C   UNL     1       0.728   1.981   1.693  1.00  0.00     0.067 A 
ATOM     14  C   UNL     1       1.580   1.415   2.638  1.00  0.00     0.021 A 
ATOM     15  C   UNL     1       0.059   3.175   1.975  1.00  0.00     0.021 A 
ATOM     16  C   UNL     1       1.817   2.096   3.840  1.00  0.00     0.015 A 
ATOM     17  C   UNL     1       0.267   3.823   3.197  1.00  0.00     0.015 A 
BRANCH  13  18
ATOM     18  S   UNL     1       0.433   1.245   0.102  1.00  0.00     0.175 S 
ATOM     19  C   UNL     1       1.194  -0.351   0.097  1.00  0.00     0.163 C 
ATOM     20  O   UNL     1       1.140   2.071  -0.858  1.00  0.00    -0.224 OA
ATOM     21  O   UNL     1      -1.000   1.043   0.007  1.00  0.00    -0.224 OA
ENDBRANCH  13  18
ENDBRANCH   9  12
ENDBRANCH   7   8
BRANCH   7  22
ATOM     22  C   UNL     1       2.590   7.335   4.292  1.00  0.00    -0.025 A 
ATOM     23  C   UNL     1       3.888   6.792   4.345  1.00  0.00     0.006 A 
ATOM     24  C   UNL     1       2.443   8.615   3.727  1.00  0.00     0.006 A 
ATOM     25  C   UNL     1       4.992   7.501   3.861  1.00  0.00     0.000 A 
ATOM     26  C   UNL     1       3.549   9.327   3.250  1.00  0.00     0.000 A 
ATOM     27  C   UNL     1       4.821   8.767   3.310  1.00  0.00     0.000 A 
ENDBRANCH   7  22
ENDBRANCH   6   7
ENDBRANCH   4   6
ENDBRANCH   3   4
ENDBRANCH   2   3
ENDBRANCH   1   2
BRANCH   1  28
ATOM     28  O   UNL     1       1.906  10.292   8.121  1.00  0.00    -0.374 OA
BRANCH  28  29
ATOM     29  C   UNL     1       2.625  10.035   6.914  1.00  0.00     0.202 C 
BRANCH  29  30
ATOM     30  C   UNL     1       4.109   9.729   7.106  1.00  0.00     0.261 C 
BRANCH  30  31
ATOM     31  O   UNL     1       4.270   8.450   7.740  1.00  0.00    -0.460 OA
BRANCH  31  32
ATOM     32  C   UNL     1       5.408   8.353   8.454  1.00  0.00     0.338 C 
ATOM     33  O   UNL     1       6.381   9.095   8.409  1.00  0.00    -0.246 OA
BRANCH  32  34
ATOM     34  C   UNL     1       5.240   7.332   9.494  1.00  0.00     0.060 A 
ATOM     35  C   UNL     1       5.070   7.783  10.806  1.00  0.00     0.016 A 
ATOM     36  C   UNL     1       5.383   5.971   9.213  1.00  0.00     0.016 A 
ATOM     37  C   UNL     1       5.135   6.875  11.858  1.00  0.00     0.010 A 
ATOM     38  C   UNL     1       5.442   5.059  10.273  1.00  0.00     0.010 A 
ATOM     39  C   UNL     1       5.378   5.518  11.601  1.00  0.00    -0.014 A 
BRANCH  39  40
ATOM     40  C   UNL     1       5.732   4.647  12.748  1.00  0.00     0.031 A 
ATOM     41  C   UNL     1       7.184   4.408  13.062  1.00  0.00     0.074 A 
ATOM     42  C   UNL     1       4.775   4.181  13.568  1.00  0.00     0.049 A 
ATOM     43  N   UNL     1       7.724   3.844  14.113  1.00  0.00    -0.248 NA
ATOM     44  C   UNL     1       8.160   4.875  12.064  1.00  0.00     0.031 C 
ATOM     45  C   UNL     1       3.338   4.357  13.371  1.00  0.00     0.029 A 
ATOM     46  N   UNL     1       4.874   3.489  14.748  1.00  0.00    -0.354 N 
ATOM     47  C   UNL     1       9.097   3.902  13.910  1.00  0.00     0.074 A 
ATOM     48  C   UNL     1       9.309   4.517  12.617  1.00  0.00     0.031 C 
ATOM     49  C   UNL     1       2.686   3.808  14.411  1.00  0.00     0.029 A 
ATOM     50  C   UNL     1       3.661   3.241  15.341  1.00  0.00     0.049 A 
ATOM     51  H   UNL     1       5.732   3.198  15.133  1.00  0.00     0.167 HD
ATOM     52  C   UNL     1      10.094   3.498  14.733  1.00  0.00     0.037 A 
ATOM     53  C   UNL     1       3.373   2.643  16.513  1.00  0.00     0.037 A 
ATOM     54  C   UNL     1       9.883   2.881  16.016  1.00  0.00     0.049 A 
ATOM     55  C   UNL     1       4.496   2.186  17.402  1.00  0.00     0.074 A 
ATOM     56  C   UNL     1      10.824   2.438  16.929  1.00  0.00     0.029 A 
ATOM     57  N   UNL     1       8.637   2.615  16.564  1.00  0.00    -0.354 N 
ATOM     58  N   UNL     1       5.790   2.287  17.219  1.00  0.00    -0.248 NA
ATOM     59  C   UNL     1       4.116   1.546  18.670  1.00  0.00     0.031 C 
ATOM     60  C   UNL     1      10.146   1.872  18.015  1.00  0.00     0.029 A 
ATOM     61  C   UNL     1       8.784   1.999  17.795  1.00  0.00     0.049 A 
ATOM     62  H   UNL     1       7.775   2.832  16.140  1.00  0.00     0.167 HD
ATOM     63  C   UNL     1       6.379   1.742  18.353  1.00  0.00     0.074 A 
ATOM     64  C   UNL     1       5.300   1.331  19.227  1.00  0.00     0.031 C 
ATOM     65  C   UNL     1       7.695   1.593  18.645  1.00  0.00     0.037 A 
BRANCH  52  66
ATOM     66  C   UNL     1      11.502   3.703  14.259  1.00  0.00     0.057 A 
ATOM     67  C   UNL     1      12.092   4.973  14.230  1.00  0.00     0.134 A 
ATOM     68  C   UNL     1      12.284   2.617  13.846  1.00  0.00     0.134 A 
ATOM     69  F   UNL     1      11.391   6.056  14.599  1.00  0.00    -0.206 F 
ATOM     70  C   UNL     1      13.403   5.160  13.788  1.00  0.00     0.040 A 
ATOM     71  C   UNL     1      13.603   2.788  13.421  1.00  0.00     0.040 A 
ATOM     72  F   UNL     1      11.781   1.374  13.851  1.00  0.00    -0.206 F 
ATOM     73  C   UNL     1      14.164   4.064  13.386  1.00  0.00     0.006 A 
ENDBRANCH  52  66
BRANCH  53  74
ATOM     74  C   UNL     1       1.958   2.475  16.927  1.00  0.00     0.057 A 
ATOM     75  C   UNL     1       1.413   3.222  17.977  1.00  0.00     0.134 A 
ATOM     76  C   UNL     1       1.117   1.561  16.280  1.00  0.00     0.134 A 
ATOM     77  F   UNL     1       2.174   4.099  18.648  1.00  0.00    -0.206 F 
ATOM     78  C   UNL     1       0.086   3.059  18.377  1.00  0.00     0.040 A 
ATOM     79  C   UNL     1      -0.217   1.404  16.655  1.00  0.00     0.040 A 
ATOM     80  F   UNL     1       1.581   0.817  15.265  1.00  0.00    -0.206 F 
ATOM     81  C   UNL     1      -0.735   2.151  17.711  1.00  0.00     0.006 A 
ENDBRANCH  53  74
BRANCH  65  82
ATOM     82  C   UNL     1       8.029   0.969  19.968  1.00  0.00     0.057 A 
ATOM     83  C   UNL     1       7.854  -0.401  20.199  1.00  0.00     0.134 A 
ATOM     84  C   UNL     1       8.546   1.743  21.014  1.00  0.00     0.134 A 
ATOM     85  F   UNL     1       7.352  -1.194  19.240  1.00  0.00    -0.206 F 
ATOM     86  C   UNL     1       8.154  -0.975  21.435  1.00  0.00     0.040 A 
ATOM     87  C   UNL     1       8.871   1.176  22.247  1.00  0.00     0.040 A 
ATOM     88  F   UNL     1       8.746   3.060  20.853  1.00  0.00    -0.206 F 
ATOM     89  C   UNL     1       8.668  -0.185  22.462  1.00  0.00     0.006 A 
ENDBRANCH  65  82
ENDBRANCH  39  40
ENDBRANCH  32  34
ENDBRANCH  31  32
ENDBRANCH  30  31
ENDBRANCH  29  30
ENDBRANCH  28  29
ENDBRANCH   1  28
TORSDOF 19
