REMARK SMILES O=C(COc1ccc(N2C[C@@H](C(=O)OCCOCCOC(=O)c3ccc(-c4c5nc(c(-c6c(F)cccc6F)c6ccc([nH]6)c(-c6c(F)cccc6F)c6nc(c(-c7c(F)cccc7F)c7ccc4[nH]7)C=C6)C=C5)cc3)CC2=O)cc1)Nc1ccc(Cl)cc1Cl
REMARK SMILES IDX 15 1 14 2 12 3 13 4 11 5 9 6 10 7 78 8 77 9 79 10 8 11 5 12
REMARK SMILES IDX 6 13 81 14 7 15 80 16 4 17 3 18 2 19 1 20 82 21 83 23 84 24
REMARK SMILES IDX 89 25 85 26 88 27 90 28 86 29 87 30 16 31 17 32 18 33 19 34
REMARK SMILES IDX 20 35 21 36 22 37 23 38 24 39 76 40 25 41 75 42 26 43 27 44
REMARK SMILES IDX 28 45 69 46 29 47 74 48 68 49 70 50 30 51 73 52 67 53 66 54
REMARK SMILES IDX 31 56 57 57 40 58 56 59 41 60 44 61 55 62 71 63 42 64 43 65
REMARK SMILES IDX 54 67 72 68 45 69 32 70 33 71 38 72 34 73 35 74 37 75 39 76
REMARK SMILES IDX 36 77 58 78 59 79 64 80 60 81 61 82 63 83 65 84 62 85 46 86
REMARK SMILES IDX 47 87 52 88 48 89 49 90 51 91 53 92 50 93
REMARK H PARENT 82 22 70 55 44 66
REMARK Flexibility Score: inf
ROOT
ATOM      1  C   UNL     1      -2.332  -1.273   9.717  1.00  0.00     0.261 C 
ENDROOT
BRANCH   1   2
ATOM      2  O   UNL     1      -1.291  -1.701   8.827  1.00  0.00    -0.463 OA
BRANCH   2   3
ATOM      3  C   UNL     1      -0.075  -1.133   9.006  1.00  0.00     0.311 C 
ATOM      4  O   UNL     1       0.153  -0.155   9.707  1.00  0.00    -0.252 OA
BRANCH   3   5
ATOM      5  C   UNL     1       1.015  -1.843   8.246  1.00  0.00     0.128 C 
ATOM      6  N   UNL     1       1.889  -1.774   6.074  1.00  0.00    -0.312 N 
ATOM      7  C   UNL     1       1.511  -0.912   7.162  1.00  0.00     0.141 C 
ATOM      8  C   UNL     1       1.418  -3.075   6.241  1.00  0.00     0.227 C 
ATOM      9  C   UNL     1       0.641  -3.132   7.522  1.00  0.00     0.117 C 
ATOM     10  O   UNL     1       1.562  -4.043   5.508  1.00  0.00    -0.274 OA
BRANCH   6  11
ATOM     11  C   UNL     1       2.447  -1.259   4.885  1.00  0.00     0.044 A 
ATOM     12  C   UNL     1       3.428  -0.180   2.488  1.00  0.00     0.120 A 
ATOM     13  C   UNL     1       3.824   0.364   3.705  1.00  0.00     0.048 A 
ATOM     14  C   UNL     1       2.575  -1.279   2.469  1.00  0.00     0.048 A 
ATOM     15  C   UNL     1       3.312  -0.157   4.900  1.00  0.00     0.030 A 
ATOM     16  C   UNL     1       2.096  -1.819   3.658  1.00  0.00     0.030 A 
BRANCH  12  17
ATOM     17  O   UNL     1       3.974   0.318   1.335  1.00  0.00    -0.484 OA
BRANCH  17  18
ATOM     18  C   UNL     1       3.019   1.043   0.550  1.00  0.00     0.329 C 
BRANCH  18  19
ATOM     19  C   UNL     1       2.099   0.156  -0.296  1.00  0.00     0.262 C 
ATOM     20  O   UNL     1       0.902   0.401  -0.398  1.00  0.00    -0.271 OA
ATOM     21  N   UNL     1       2.764  -0.958  -0.801  1.00  0.00    -0.322 N 
ATOM     22  H   UNL     1       3.746  -0.972  -0.737  1.00  0.00     0.170 HD
BRANCH  21  23
ATOM     23  C   UNL     1       2.128  -2.069  -1.399  1.00  0.00     0.060 A 
ATOM     24  C   UNL     1       2.590  -3.327  -0.976  1.00  0.00     0.029 A 
ATOM     25  C   UNL     1       1.075  -2.014  -2.329  1.00  0.00     0.066 A 
ATOM     26  C   UNL     1       1.955  -4.499  -1.391  1.00  0.00     0.023 A 
ATOM     27  C   UNL     1       0.442  -3.192  -2.745  1.00  0.00     0.043 A 
ATOM     28  Cl  UNL     1       0.622  -0.565  -3.159  1.00  0.00    -0.082 Cl
ATOM     29  C   UNL     1       0.873  -4.424  -2.262  1.00  0.00     0.042 A 
ATOM     30  Cl  UNL     1       0.084  -5.867  -2.767  1.00  0.00    -0.084 Cl
ENDBRANCH  21  23
ENDBRANCH  18  19
ENDBRANCH  17  18
ENDBRANCH  12  17
ENDBRANCH   6  11
ENDBRANCH   3   5
ENDBRANCH   2   3
ENDBRANCH   1   2
BRANCH   1  31
ATOM     31  C   UNL     1      -2.866  -2.460  10.523  1.00  0.00     0.202 C 
BRANCH  31  32
ATOM     32  O   UNL     1      -1.927  -3.108  11.380  1.00  0.00    -0.374 OA
BRANCH  32  33
ATOM     33  C   UNL     1      -0.985  -4.001  10.785  1.00  0.00     0.202 C 
BRANCH  33  34
ATOM     34  C   UNL     1      -1.510  -5.368  10.332  1.00  0.00     0.261 C 
BRANCH  34  35
ATOM     35  O   UNL     1      -2.450  -5.262   9.248  1.00  0.00    -0.460 OA
BRANCH  35  36
ATOM     36  C   UNL     1      -3.707  -5.663   9.553  1.00  0.00     0.338 C 
ATOM     37  O   UNL     1      -4.093  -6.156  10.604  1.00  0.00    -0.246 OA
BRANCH  36  38
ATOM     38  C   UNL     1      -4.647  -5.268   8.490  1.00  0.00     0.060 A 
ATOM     39  C   UNL     1      -5.757  -4.502   8.868  1.00  0.00     0.016 A 
ATOM     40  C   UNL     1      -4.509  -5.721   7.177  1.00  0.00     0.016 A 
ATOM     41  C   UNL     1      -6.765  -4.231   7.946  1.00  0.00     0.010 A 
ATOM     42  C   UNL     1      -5.528  -5.457   6.254  1.00  0.00     0.010 A 
ATOM     43  C   UNL     1      -6.676  -4.745   6.645  1.00  0.00    -0.014 A 
BRANCH  43  44
ATOM     44  C   UNL     1      -7.857  -4.661   5.753  1.00  0.00     0.031 A 
ATOM     45  C   UNL     1      -8.771  -5.849   5.635  1.00  0.00     0.074 A 
ATOM     46  C   UNL     1      -8.132  -3.529   5.082  1.00  0.00     0.049 A 
ATOM     47  N   UNL     1      -9.852  -5.996   4.913  1.00  0.00    -0.248 NA
ATOM     48  C   UNL     1      -8.418  -7.029   6.440  1.00  0.00     0.031 C 
ATOM     49  C   UNL     1      -7.339  -2.303   5.134  1.00  0.00     0.029 A 
ATOM     50  N   UNL     1      -9.156  -3.235   4.217  1.00  0.00    -0.354 N 
ATOM     51  C   UNL     1     -10.305  -7.284   5.170  1.00  0.00     0.074 A 
ATOM     52  C   UNL     1      -9.367  -7.886   6.093  1.00  0.00     0.031 C 
ATOM     53  C   UNL     1      -7.896  -1.391   4.318  1.00  0.00     0.029 A 
ATOM     54  C   UNL     1      -9.069  -1.978   3.673  1.00  0.00     0.049 A 
ATOM     55  H   UNL     1      -9.883  -3.865   4.007  1.00  0.00     0.167 HD
ATOM     56  C   UNL     1     -11.407  -7.906   4.687  1.00  0.00     0.037 A 
ATOM     57  C   UNL     1      -9.838  -1.378   2.744  1.00  0.00     0.037 A 
ATOM     58  C   UNL     1     -12.341  -7.308   3.771  1.00  0.00     0.049 A 
ATOM     59  C   UNL     1     -11.028  -2.107   2.182  1.00  0.00     0.074 A 
ATOM     60  C   UNL     1     -13.506  -7.845   3.252  1.00  0.00     0.029 A 
ATOM     61  N   UNL     1     -12.208  -6.039   3.227  1.00  0.00    -0.354 N 
ATOM     62  N   UNL     1     -11.471  -3.308   2.465  1.00  0.00    -0.248 NA
ATOM     63  C   UNL     1     -11.829  -1.393   1.176  1.00  0.00     0.031 C 
ATOM     64  C   UNL     1     -14.054  -6.919   2.358  1.00  0.00     0.029 A 
ATOM     65  C   UNL     1     -13.255  -5.787   2.355  1.00  0.00     0.049 A 
ATOM     66  H   UNL     1     -11.478  -5.411   3.430  1.00  0.00     0.167 HD
ATOM     67  C   UNL     1     -12.610  -3.487   1.688  1.00  0.00     0.074 A 
ATOM     68  C   UNL     1     -12.797  -2.265   0.933  1.00  0.00     0.031 C 
ATOM     69  C   UNL     1     -13.427  -4.566   1.609  1.00  0.00     0.037 A 
BRANCH  56  70
ATOM     70  C   UNL     1     -11.643  -9.321   5.126  1.00  0.00     0.057 A 
ATOM     71  C   UNL     1     -12.064  -9.633   6.425  1.00  0.00     0.134 A 
ATOM     72  C   UNL     1     -11.461 -10.383   4.232  1.00  0.00     0.134 A 
ATOM     73  F   UNL     1     -12.242  -8.663   7.334  1.00  0.00    -0.206 F 
ATOM     74  C   UNL     1     -12.271 -10.955   6.827  1.00  0.00     0.040 A 
ATOM     75  C   UNL     1     -11.688 -11.706   4.614  1.00  0.00     0.040 A 
ATOM     76  F   UNL     1     -11.063 -10.153   2.972  1.00  0.00    -0.206 F 
ATOM     77  C   UNL     1     -12.087 -11.995   5.918  1.00  0.00     0.006 A 
ENDBRANCH  56  70
BRANCH  57  78
ATOM     78  C   UNL     1      -9.491  -0.015   2.273  1.00  0.00     0.057 A 
ATOM     79  C   UNL     1     -10.272   1.095   2.612  1.00  0.00     0.134 A 
ATOM     80  C   UNL     1      -8.365   0.207   1.470  1.00  0.00     0.134 A 
ATOM     81  F   UNL     1     -11.374   0.941   3.360  1.00  0.00    -0.206 F 
ATOM     82  C   UNL     1      -9.953   2.377   2.160  1.00  0.00     0.040 A 
ATOM     83  C   UNL     1      -8.022   1.486   1.030  1.00  0.00     0.040 A 
ATOM     84  F   UNL     1      -7.577  -0.817   1.112  1.00  0.00    -0.206 F 
ATOM     85  C   UNL     1      -8.820   2.575   1.372  1.00  0.00     0.006 A 
ENDBRANCH  57  78
BRANCH  69  86
ATOM     86  C   UNL     1     -14.610  -4.467   0.692  1.00  0.00     0.057 A 
ATOM     87  C   UNL     1     -14.472  -4.528  -0.700  1.00  0.00     0.134 A 
ATOM     88  C   UNL     1     -15.907  -4.351   1.210  1.00  0.00     0.134 A 
ATOM     89  F   UNL     1     -13.256  -4.626  -1.258  1.00  0.00    -0.206 F 
ATOM     90  C   UNL     1     -15.580  -4.459  -1.546  1.00  0.00     0.040 A 
ATOM     91  C   UNL     1     -17.024  -4.305   0.374  1.00  0.00     0.040 A 
ATOM     92  F   UNL     1     -16.110  -4.296   2.534  1.00  0.00    -0.206 F 
ATOM     93  C   UNL     1     -16.861  -4.354  -1.008  1.00  0.00     0.006 A 
ENDBRANCH  69  86
ENDBRANCH  43  44
ENDBRANCH  36  38
ENDBRANCH  35  36
ENDBRANCH  34  35
ENDBRANCH  33  34
ENDBRANCH  32  33
ENDBRANCH  31  32
ENDBRANCH   1  31
TORSDOF 19
