REMARK SMILES O=C(OCCOCCOC(=O)[C@@H](c1ccccc1)N1C(=O)/C(=C\c2ccc(-c3ccc(F)cc3)o2)SC1=S)c1ccc(-c2c3nc(c(-c4c(F)cccc4F)c4ccc([nH]4)c(-c4c(F)cccc4F)c4nc(c(-c5c(F)cccc5F)c5ccc2[nH]5)C=C4)C=C3)cc1
REMARK SMILES IDX 7 1 6 2 5 3 4 4 3 5 2 6 1 7 39 8 40 9 92 10 41 11 91 12
REMARK SMILES IDX 42 13 43 14 44 15 85 16 45 17 90 18 84 19 86 20 46 21 89 22
REMARK SMILES IDX 83 23 82 24 47 26 73 27 56 28 72 29 57 30 60 31 71 32 87 33
REMARK SMILES IDX 58 34 59 35 70 37 88 38 61 39 48 40 49 41 54 42 50 43 51 44
REMARK SMILES IDX 53 45 55 46 52 47 74 48 75 49 80 50 76 51 77 52 79 53 81 54
REMARK SMILES IDX 78 55 62 56 63 57 68 58 64 59 65 60 67 61 69 62 66 63 8 64
REMARK SMILES IDX 9 65 10 66 11 67 12 68 13 69 14 70 18 71 15 72 17 73 16 74
REMARK SMILES IDX 19 75 20 76 37 77 21 78 22 79 36 80 38 81 23 82 24 83 25 84
REMARK SMILES IDX 35 85 26 86 27 87 28 88 29 89 34 90 30 91 33 92 31 93 32 94
REMARK H PARENT 86 25 60 36
REMARK Flexibility Score: inf
ROOT
ATOM      1  C   UNL     1       2.656  -1.012   1.516  1.00  0.00     0.202 C 
ENDROOT
BRANCH   1   2
ATOM      2  O   UNL     1       4.023  -0.839   1.149  1.00  0.00    -0.374 OA
BRANCH   2   3
ATOM      3  C   UNL     1       4.561   0.479   1.092  1.00  0.00     0.202 C 
BRANCH   3   4
ATOM      4  C   UNL     1       4.154   1.359  -0.092  1.00  0.00     0.261 C 
BRANCH   4   5
ATOM      5  O   UNL     1       2.739   1.300  -0.329  1.00  0.00    -0.460 OA
BRANCH   5   6
ATOM      6  C   UNL     1       2.129   0.569  -1.294  1.00  0.00     0.338 C 
ATOM      7  O   UNL     1       0.913   0.642  -1.440  1.00  0.00    -0.246 OA
BRANCH   6   8
ATOM      8  C   UNL     1       2.899  -0.335  -2.191  1.00  0.00     0.060 A 
ATOM      9  C   UNL     1       3.988  -1.086  -1.757  1.00  0.00     0.016 A 
ATOM     10  C   UNL     1       2.452  -0.520  -3.502  1.00  0.00     0.016 A 
ATOM     11  C   UNL     1       4.662  -1.958  -2.569  1.00  0.00     0.010 A 
ATOM     12  C   UNL     1       3.085  -1.453  -4.327  1.00  0.00     0.010 A 
ATOM     13  C   UNL     1       4.178  -2.182  -3.841  1.00  0.00    -0.014 A 
BRANCH  13  14
ATOM     14  C   UNL     1       4.913  -3.173  -4.621  1.00  0.00     0.031 A 
ATOM     15  C   UNL     1       5.834  -2.678  -5.675  1.00  0.00     0.074 A 
ATOM     16  C   UNL     1       4.856  -4.461  -4.236  1.00  0.00     0.049 A 
ATOM     17  N   UNL     1       6.488  -3.356  -6.571  1.00  0.00    -0.248 NA
ATOM     18  C   UNL     1       6.061  -1.221  -5.724  1.00  0.00     0.031 C 
ATOM     19  C   UNL     1       4.118  -4.968  -3.070  1.00  0.00     0.029 A 
ATOM     20  N   UNL     1       5.446  -5.575  -4.760  1.00  0.00    -0.354 N 
ATOM     21  C   UNL     1       7.149  -2.409  -7.334  1.00  0.00     0.074 A 
ATOM     22  C   UNL     1       6.853  -1.109  -6.779  1.00  0.00     0.031 C 
ATOM     23  C   UNL     1       4.296  -6.294  -2.977  1.00  0.00     0.029 A 
ATOM     24  C   UNL     1       5.067  -6.735  -4.128  1.00  0.00     0.049 A 
ATOM     25  H   UNL     1       6.078  -5.550  -5.514  1.00  0.00     0.167 HD
ATOM     26  C   UNL     1       7.904  -2.637  -8.428  1.00  0.00     0.037 A 
ATOM     27  C   UNL     1       5.260  -8.010  -4.506  1.00  0.00     0.037 A 
ATOM     28  C   UNL     1       8.170  -3.961  -8.917  1.00  0.00     0.049 A 
ATOM     29  C   UNL     1       6.009  -8.227  -5.793  1.00  0.00     0.074 A 
ATOM     30  C   UNL     1       8.890  -4.343 -10.030  1.00  0.00     0.029 A 
ATOM     31  N   UNL     1       7.712  -5.123  -8.306  1.00  0.00    -0.354 N 
ATOM     32  N   UNL     1       6.583  -7.337  -6.571  1.00  0.00    -0.248 NA
ATOM     33  C   UNL     1       6.110  -9.607  -6.276  1.00  0.00     0.031 C 
ATOM     34  C   UNL     1       8.813  -5.736 -10.126  1.00  0.00     0.029 A 
ATOM     35  C   UNL     1       8.097  -6.225  -9.042  1.00  0.00     0.049 A 
ATOM     36  H   UNL     1       7.190  -5.155  -7.471  1.00  0.00     0.167 HD
ATOM     37  C   UNL     1       7.120  -8.048  -7.632  1.00  0.00     0.074 A 
ATOM     38  C   UNL     1       6.828  -9.447  -7.379  1.00  0.00     0.031 C 
ATOM     39  C   UNL     1       7.782  -7.597  -8.726  1.00  0.00     0.037 A 
BRANCH  26  40
ATOM     40  C   UNL     1       8.373  -1.447  -9.203  1.00  0.00     0.057 A 
ATOM     41  C   UNL     1       9.391  -0.601  -8.749  1.00  0.00     0.134 A 
ATOM     42  C   UNL     1       7.772  -1.139 -10.430  1.00  0.00     0.134 A 
ATOM     43  F   UNL     1       9.980  -0.818  -7.564  1.00  0.00    -0.206 F 
ATOM     44  C   UNL     1       9.791   0.515  -9.488  1.00  0.00     0.040 A 
ATOM     45  C   UNL     1       8.177  -0.040 -11.187  1.00  0.00     0.040 A 
ATOM     46  F   UNL     1       6.774  -1.898 -10.909  1.00  0.00    -0.206 F 
ATOM     47  C   UNL     1       9.188   0.793 -10.715  1.00  0.00     0.006 A 
ENDBRANCH  26  40
BRANCH  27  48
ATOM     48  C   UNL     1       4.643  -9.136  -3.756  1.00  0.00     0.057 A 
ATOM     49  C   UNL     1       5.421 -10.144  -3.177  1.00  0.00     0.134 A 
ATOM     50  C   UNL     1       3.250  -9.260  -3.641  1.00  0.00     0.134 A 
ATOM     51  F   UNL     1       6.758 -10.097  -3.263  1.00  0.00    -0.206 F 
ATOM     52  C   UNL     1       4.840 -11.245  -2.541  1.00  0.00     0.040 A 
ATOM     53  C   UNL     1       2.657 -10.336  -2.979  1.00  0.00     0.040 A 
ATOM     54  F   UNL     1       2.438  -8.332  -4.170  1.00  0.00    -0.206 F 
ATOM     55  C   UNL     1       3.454 -11.342  -2.439  1.00  0.00     0.006 A 
ENDBRANCH  27  48
BRANCH  39  56
ATOM     56  C   UNL     1       8.242  -8.631  -9.703  1.00  0.00     0.057 A 
ATOM     57  C   UNL     1       7.345  -9.277 -10.561  1.00  0.00     0.134 A 
ATOM     58  C   UNL     1       9.605  -8.921  -9.837  1.00  0.00     0.134 A 
ATOM     59  F   UNL     1       6.026  -9.050 -10.464  1.00  0.00    -0.206 F 
ATOM     60  C   UNL     1       7.790 -10.187 -11.517  1.00  0.00     0.040 A 
ATOM     61  C   UNL     1      10.064  -9.804 -10.810  1.00  0.00     0.040 A 
ATOM     62  F   UNL     1      10.510  -8.322  -9.047  1.00  0.00    -0.206 F 
ATOM     63  C   UNL     1       9.154 -10.442 -11.652  1.00  0.00     0.006 A 
ENDBRANCH  39  56
ENDBRANCH  13  14
ENDBRANCH   6   8
ENDBRANCH   5   6
ENDBRANCH   4   5
ENDBRANCH   3   4
ENDBRANCH   2   3
ENDBRANCH   1   2
BRANCH   1  64
ATOM     64  C   UNL     1       2.584  -2.056   2.634  1.00  0.00     0.261 C 
BRANCH  64  65
ATOM     65  O   UNL     1       3.088  -1.463   3.843  1.00  0.00    -0.461 OA
BRANCH  65  66
ATOM     66  C   UNL     1       4.444  -1.284   3.872  1.00  0.00     0.334 C 
ATOM     67  O   UNL     1       5.245  -1.940   3.217  1.00  0.00    -0.249 OA
BRANCH  66  68
ATOM     68  C   UNL     1       4.850  -0.184   4.888  1.00  0.00     0.232 C 
BRANCH  68  69
ATOM     69  C   UNL     1       4.320   1.192   4.491  1.00  0.00    -0.014 A 
ATOM     70  C   UNL     1       5.238   2.239   4.278  1.00  0.00     0.006 A 
ATOM     71  C   UNL     1       2.961   1.454   4.219  1.00  0.00     0.006 A 
ATOM     72  C   UNL     1       4.816   3.487   3.809  1.00  0.00     0.000 A 
ATOM     73  C   UNL     1       2.542   2.700   3.741  1.00  0.00     0.000 A 
ATOM     74  C   UNL     1       3.469   3.716   3.539  1.00  0.00     0.000 A 
ENDBRANCH  68  69
BRANCH  68  75
ATOM     75  N   UNL     1       4.516  -0.766   6.196  1.00  0.00    -0.274 N 
ATOM     76  C   UNL     1       5.174  -1.962   6.452  1.00  0.00     0.267 C 
ATOM     77  C   UNL     1       3.740  -0.321   7.232  1.00  0.00     0.149 C 
ATOM     78  O   UNL     1       6.252  -2.269   5.989  1.00  0.00    -0.268 OA
ATOM     79  C   UNL     1       4.381  -2.767   7.408  1.00  0.00     0.084 C 
ATOM     80  S   UNL     1       3.408  -1.677   8.327  1.00  0.00    -0.054 SA
ATOM     81  S   UNL     1       3.181   1.204   7.590  1.00  0.00    -0.052 S 
ATOM     82  C   UNL     1       4.254  -4.099   7.461  1.00  0.00     0.068 C 
BRANCH  82  83
ATOM     83  C   UNL     1       4.901  -5.028   6.596  1.00  0.00     0.128 A 
ATOM     84  C   UNL     1       6.213  -5.107   6.143  1.00  0.00     0.051 A 
ATOM     85  O   UNL     1       4.235  -6.131   6.090  1.00  0.00    -0.457 OA
ATOM     86  C   UNL     1       6.334  -6.247   5.319  1.00  0.00     0.051 A 
ATOM     87  C   UNL     1       5.108  -6.864   5.344  1.00  0.00     0.134 A 
BRANCH  87  88
ATOM     88  C   UNL     1       4.630  -8.134   4.828  1.00  0.00     0.017 A 
ATOM     89  C   UNL     1       3.417  -8.241   4.135  1.00  0.00     0.015 A 
ATOM     90  C   UNL     1       5.409  -9.286   5.026  1.00  0.00     0.015 A 
ATOM     91  C   UNL     1       2.993  -9.482   3.647  1.00  0.00     0.040 A 
ATOM     92  C   UNL     1       4.979 -10.525   4.551  1.00  0.00     0.040 A 
ATOM     93  C   UNL     1       3.776 -10.611   3.865  1.00  0.00     0.123 A 
ATOM     94  F   UNL     1       3.364 -11.800   3.405  1.00  0.00    -0.207 F 
ENDBRANCH  87  88
ENDBRANCH  82  83
ENDBRANCH  68  75
ENDBRANCH  66  68
ENDBRANCH  65  66
ENDBRANCH  64  65
ENDBRANCH   1  64
TORSDOF 18
