REMARK SMILES CC(C)C[C@H](NC(=O)[C@H](Cc1ccccc1)NC(=O)CNC(=O)C[NH3+])C(=O)OCCOCCOC(=O)c1ccc(-c2c3nc(c(-c4c(F)cccc4F)c4ccc([nH]4)c(-c4c(F)cccc4F)c4nc(c(-c5c(F)cccc5F)c5ccc2[nH]5)C=C4)C=C3)cc1
REMARK SMILES IDX 29 1 28 2 26 3 27 4 5 5 4 6 2 7 1 8 3 9 6 10 7 11 8 13 9 14
REMARK SMILES IDX 17 15 18 16 19 18 20 19 21 20 22 21 23 23 24 24 25 25 10 29
REMARK SMILES IDX 11 30 12 31 16 32 13 33 15 34 14 35 30 36 31 37 32 38 33 39
REMARK SMILES IDX 34 40 35 41 36 42 37 43 38 44 90 45 39 46 89 47 40 48 41 49
REMARK SMILES IDX 42 50 83 51 43 52 88 53 82 54 84 55 44 56 87 57 81 58 80 59
REMARK SMILES IDX 45 61 71 62 54 63 70 64 55 65 58 66 69 67 85 68 56 69 57 70
REMARK SMILES IDX 68 72 86 73 59 74 46 75 47 76 52 77 48 78 49 79 51 80 53 81
REMARK SMILES IDX 50 82 72 83 73 84 78 85 74 86 75 87 77 88 79 89 76 90 60 91
REMARK SMILES IDX 61 92 66 93 62 94 63 95 65 96 67 97 64 98
REMARK H PARENT 6 12 17 17 21 22 25 26 25 27 25 28 84 60 58 71
REMARK Flexibility Score: inf
ROOT
ATOM      1  C   UNL     1       5.613  -2.213  -6.260  1.00  0.00     0.261 C 
ENDROOT
BRANCH   1   2
ATOM      2  O   UNL     1       4.619  -2.061  -5.244  1.00  0.00    -0.462 OA
BRANCH   2   3
ATOM      3  C   UNL     1       4.777  -0.918  -4.509  1.00  0.00     0.328 C 
ATOM      4  O   UNL     1       5.597  -0.040  -4.750  1.00  0.00    -0.250 OA
BRANCH   3   5
ATOM      5  C   UNL     1       3.971  -0.985  -3.213  1.00  0.00     0.192 C 
BRANCH   5   6
ATOM      6  C   UNL     1       4.812  -1.856  -2.268  1.00  0.00     0.040 C 
BRANCH   6   7
ATOM      7  C   UNL     1       6.317  -1.508  -2.116  1.00  0.00    -0.015 C 
ATOM      8  C   UNL     1       6.624  -0.038  -1.810  1.00  0.00     0.007 C 
ATOM      9  C   UNL     1       6.975  -2.380  -1.042  1.00  0.00     0.007 C 
ENDBRANCH   6   7
ENDBRANCH   5   6
BRANCH   5  10
ATOM     10  N   UNL     1       2.622  -1.555  -3.417  1.00  0.00    -0.341 N 
ATOM     11  C   UNL     1       1.464  -1.473  -2.683  1.00  0.00     0.243 C 
ATOM     12  H   UNL     1       2.537  -2.097  -4.235  1.00  0.00     0.164 HD
ATOM     13  O   UNL     1       0.459  -1.996  -3.176  1.00  0.00    -0.273 OA
BRANCH  11  14
ATOM     14  C   UNL     1       1.435  -0.839  -1.266  1.00  0.00     0.175 C 
BRANCH  14  15
ATOM     15  N   UNL     1       1.844   0.555  -1.290  1.00  0.00    -0.342 N 
ATOM     16  C   UNL     1       2.764   1.148  -0.476  1.00  0.00     0.240 C 
ATOM     17  H   UNL     1       1.414   1.130  -1.963  1.00  0.00     0.164 HD
ATOM     18  O   UNL     1       2.923   2.366  -0.602  1.00  0.00    -0.273 OA
BRANCH  16  19
ATOM     19  C   UNL     1       3.701   0.310   0.438  1.00  0.00     0.216 C 
BRANCH  19  20
ATOM     20  N   UNL     1       3.164  -0.516   1.516  1.00  0.00    -0.342 N 
ATOM     21  C   UNL     1       3.306  -1.820   1.893  1.00  0.00     0.275 C 
ATOM     22  H   UNL     1       2.558  -0.015   2.109  1.00  0.00     0.164 HD
ATOM     23  O   UNL     1       3.008  -2.111   3.058  1.00  0.00    -0.268 OA
BRANCH  21  24
ATOM     24  C   UNL     1       3.782  -2.945   0.971  1.00  0.00     0.360 C 
BRANCH  24  25
ATOM     25  N   UNL     1       2.722  -3.415   0.061  1.00  0.00    -0.350 N 
ATOM     26  H   UNL     1       1.946  -3.789   0.608  1.00  0.00     0.344 HD
ATOM     27  H   UNL     1       3.094  -4.145  -0.546  1.00  0.00     0.344 HD
ATOM     28  H   UNL     1       2.392  -2.635  -0.507  1.00  0.00     0.344 HD
ENDBRANCH  24  25
ENDBRANCH  21  24
ENDBRANCH  19  20
ENDBRANCH  16  19
ENDBRANCH  14  15
BRANCH  14  29
ATOM     29  C   UNL     1       0.059  -1.029  -0.562  1.00  0.00     0.070 C 
BRANCH  29  30
ATOM     30  C   UNL     1      -0.000  -0.539   0.879  1.00  0.00    -0.045 A 
ATOM     31  C   UNL     1       0.081  -1.438   1.951  1.00  0.00     0.004 A 
ATOM     32  C   UNL     1      -0.067   0.833   1.171  1.00  0.00     0.004 A 
ATOM     33  C   UNL     1       0.188  -0.974   3.268  1.00  0.00     0.000 A 
ATOM     34  C   UNL     1       0.052   1.296   2.485  1.00  0.00     0.000 A 
ATOM     35  C   UNL     1       0.199   0.393   3.533  1.00  0.00     0.000 A 
ENDBRANCH  29  30
ENDBRANCH  14  29
ENDBRANCH  11  14
ENDBRANCH   5  10
ENDBRANCH   3   5
ENDBRANCH   2   3
ENDBRANCH   1   2
BRANCH   1  36
ATOM     36  C   UNL     1       5.186  -1.693  -7.633  1.00  0.00     0.202 C 
BRANCH  36  37
ATOM     37  O   UNL     1       4.545  -0.427  -7.706  1.00  0.00    -0.374 OA
BRANCH  37  38
ATOM     38  C   UNL     1       3.212  -0.283  -7.216  1.00  0.00     0.202 C 
BRANCH  38  39
ATOM     39  C   UNL     1       2.101  -1.116  -7.860  1.00  0.00     0.261 C 
BRANCH  39  40
ATOM     40  O   UNL     1       2.256  -2.527  -7.617  1.00  0.00    -0.460 OA
BRANCH  40  41
ATOM     41  C   UNL     1       2.408  -3.271  -8.732  1.00  0.00     0.338 C 
ATOM     42  O   UNL     1       2.411  -2.876  -9.899  1.00  0.00    -0.246 OA
BRANCH  41  43
ATOM     43  C   UNL     1       2.761  -4.654  -8.395  1.00  0.00     0.060 A 
ATOM     44  C   UNL     1       3.978  -5.154  -8.879  1.00  0.00     0.016 A 
ATOM     45  C   UNL     1       1.844  -5.493  -7.760  1.00  0.00     0.016 A 
ATOM     46  C   UNL     1       4.255  -6.513  -8.792  1.00  0.00     0.010 A 
ATOM     47  C   UNL     1       2.118  -6.862  -7.685  1.00  0.00     0.010 A 
ATOM     48  C   UNL     1       3.300  -7.380  -8.245  1.00  0.00    -0.014 A 
BRANCH  48  49
ATOM     49  C   UNL     1       3.457  -8.839  -8.444  1.00  0.00     0.031 A 
ATOM     50  C   UNL     1       2.729  -9.495  -9.585  1.00  0.00     0.074 A 
ATOM     51  C   UNL     1       4.270  -9.557  -7.652  1.00  0.00     0.049 A 
ATOM     52  N   UNL     1       2.691 -10.755  -9.931  1.00  0.00    -0.248 NA
ATOM     53  C   UNL     1       1.938  -8.607 -10.454  1.00  0.00     0.031 C 
ATOM     54  C   UNL     1       5.067  -9.020  -6.551  1.00  0.00     0.029 A 
ATOM     55  N   UNL     1       4.553 -10.899  -7.654  1.00  0.00    -0.354 N 
ATOM     56  C   UNL     1       1.869 -10.814 -11.050  1.00  0.00     0.074 A 
ATOM     57  C   UNL     1       1.408  -9.468 -11.311  1.00  0.00     0.031 C 
ATOM     58  C   UNL     1       5.743 -10.028  -5.973  1.00  0.00     0.029 A 
ATOM     59  C   UNL     1       5.399 -11.281  -6.644  1.00  0.00     0.049 A 
ATOM     60  H   UNL     1       4.184 -11.527  -8.316  1.00  0.00     0.167 HD
ATOM     61  C   UNL     1       1.536 -11.892 -11.798  1.00  0.00     0.037 A 
ATOM     62  C   UNL     1       5.827 -12.508  -6.290  1.00  0.00     0.037 A 
ATOM     63  C   UNL     1       1.998 -13.229 -11.536  1.00  0.00     0.049 A 
ATOM     64  C   UNL     1       5.381 -13.702  -7.091  1.00  0.00     0.074 A 
ATOM     65  C   UNL     1       1.728 -14.390 -12.240  1.00  0.00     0.029 A 
ATOM     66  N   UNL     1       2.824 -13.583 -10.480  1.00  0.00    -0.354 N 
ATOM     67  N   UNL     1       4.615 -13.747  -8.154  1.00  0.00    -0.248 NA
ATOM     68  C   UNL     1       5.861 -15.017  -6.641  1.00  0.00     0.031 C 
ATOM     69  C   UNL     1       2.355 -15.454 -11.582  1.00  0.00     0.029 A 
ATOM     70  C   UNL     1       3.054 -14.948 -10.497  1.00  0.00     0.049 A 
ATOM     71  H   UNL     1       3.192 -12.956  -9.816  1.00  0.00     0.167 HD
ATOM     72  C   UNL     1       4.542 -15.086  -8.516  1.00  0.00     0.074 A 
ATOM     73  C   UNL     1       5.352 -15.820  -7.565  1.00  0.00     0.031 C 
ATOM     74  C   UNL     1       3.868 -15.659  -9.544  1.00  0.00     0.037 A 
BRANCH  61  75
ATOM     75  C   UNL     1       0.602 -11.671 -12.951  1.00  0.00     0.057 A 
ATOM     76  C   UNL     1       1.011 -11.018 -14.121  1.00  0.00     0.134 A 
ATOM     77  C   UNL     1      -0.717 -12.138 -12.899  1.00  0.00     0.134 A 
ATOM     78  F   UNL     1       2.257 -10.532 -14.228  1.00  0.00    -0.206 F 
ATOM     79  C   UNL     1       0.135 -10.818 -15.190  1.00  0.00     0.040 A 
ATOM     80  C   UNL     1      -1.595 -11.966 -13.970  1.00  0.00     0.040 A 
ATOM     81  F   UNL     1      -1.172 -12.774 -11.809  1.00  0.00    -0.206 F 
ATOM     82  C   UNL     1      -1.171 -11.299 -15.118  1.00  0.00     0.006 A 
ENDBRANCH  61  75
BRANCH  62  83
ATOM     83  C   UNL     1       6.714 -12.672  -5.112  1.00  0.00     0.057 A 
ATOM     84  C   UNL     1       8.050 -13.061  -5.257  1.00  0.00     0.134 A 
ATOM     85  C   UNL     1       6.240 -12.460  -3.811  1.00  0.00     0.134 A 
ATOM     86  F   UNL     1       8.555 -13.300  -6.476  1.00  0.00    -0.206 F 
ATOM     87  C   UNL     1       8.880 -13.248  -4.150  1.00  0.00     0.040 A 
ATOM     88  C   UNL     1       7.065 -12.620  -2.697  1.00  0.00     0.040 A 
ATOM     89  F   UNL     1       4.969 -12.085  -3.606  1.00  0.00    -0.206 F 
ATOM     90  C   UNL     1       8.389 -13.022  -2.865  1.00  0.00     0.006 A 
ENDBRANCH  62  83
BRANCH  74  91
ATOM     91  C   UNL     1       4.004 -17.143  -9.712  1.00  0.00     0.057 A 
ATOM     92  C   UNL     1       3.376 -18.046  -8.846  1.00  0.00     0.134 A 
ATOM     93  C   UNL     1       4.738 -17.674 -10.781  1.00  0.00     0.134 A 
ATOM     94  F   UNL     1       2.669 -17.601  -7.796  1.00  0.00    -0.206 F 
ATOM     95  C   UNL     1       3.490 -19.426  -9.024  1.00  0.00     0.040 A 
ATOM     96  C   UNL     1       4.839 -19.051 -10.984  1.00  0.00     0.040 A 
ATOM     97  F   UNL     1       5.356 -16.863 -11.653  1.00  0.00    -0.206 F 
ATOM     98  C   UNL     1       4.218 -19.931 -10.100  1.00  0.00     0.006 A 
ENDBRANCH  74  91
ENDBRANCH  48  49
ENDBRANCH  41  43
ENDBRANCH  40  41
ENDBRANCH  39  40
ENDBRANCH  38  39
ENDBRANCH  37  38
ENDBRANCH  36  37
ENDBRANCH   1  36
TORSDOF 25
