REMARK SMILES Cc1ccc(S(=O)(=O)n2cc(C(=O)C(=O)N[C@@H](Cc3cnc[nH]3)C(=O)OCCOCCOC(=O)c3ccc(-c4c5nc(c(-c6c(F)cccc6F)c6ccc([nH]6)c(-c6c(F)cccc6F)c6nc(c(-c7c(F)cccc7F)c7ccc4[nH]7)C=C6)C=C5)cc3)c3ccccc32)cc1
REMARK SMILES IDX 27 1 26 2 24 3 25 4 17 5 16 6 14 7 15 8 12 10 13 11 11 12
REMARK SMILES IDX 9 13 10 14 94 15 89 16 93 17 90 18 92 19 91 20 6 21 7 22
REMARK SMILES IDX 8 23 5 24 1 25 2 26 3 27 96 28 4 29 95 30 18 31 19 32 20 33
REMARK SMILES IDX 23 34 21 35 22 36 28 38 29 39 30 40 31 41 32 42 33 43 34 44
REMARK SMILES IDX 35 45 36 46 88 47 37 48 87 49 38 50 39 51 40 52 81 53 41 54
REMARK SMILES IDX 86 55 80 56 82 57 42 58 85 59 79 60 78 61 43 63 69 64 52 65
REMARK SMILES IDX 68 66 53 67 56 68 67 69 83 70 54 71 55 72 66 74 84 75 57 76
REMARK SMILES IDX 44 77 45 78 50 79 46 80 47 81 49 82 51 83 48 84 70 85 71 86
REMARK SMILES IDX 76 87 72 88 73 89 75 90 77 91 74 92 58 93 59 94 64 95 60 96
REMARK SMILES IDX 61 97 63 98 65 99 62 100
REMARK H PARENT 16 9 23 37 82 62 56 73
REMARK Flexibility Score: inf
ROOT
ATOM      1  C   UNL     1      -7.029   6.910   4.981  1.00  0.00     0.261 C 
ENDROOT
BRANCH   1   2
ATOM      2  O   UNL     1      -8.021   6.360   4.126  1.00  0.00    -0.462 OA
BRANCH   2   3
ATOM      3  C   UNL     1      -7.982   6.831   2.837  1.00  0.00     0.329 C 
ATOM      4  O   UNL     1      -7.848   8.002   2.516  1.00  0.00    -0.250 OA
BRANCH   3   5
ATOM      5  C   UNL     1      -8.301   5.686   1.884  1.00  0.00     0.198 C 
BRANCH   5   6
ATOM      6  N   UNL     1      -7.789   4.446   2.503  1.00  0.00    -0.335 N 
ATOM      7  C   UNL     1      -6.535   3.909   2.401  1.00  0.00     0.293 C 
ATOM      8  O   UNL     1      -6.133   3.081   3.210  1.00  0.00    -0.265 OA
ATOM      9  H   UNL     1      -8.429   3.945   3.058  1.00  0.00     0.164 HD
BRANCH   7  10
ATOM     10  C   UNL     1      -5.633   4.368   1.262  1.00  0.00     0.252 C 
ATOM     11  O   UNL     1      -5.482   5.575   1.101  1.00  0.00    -0.283 OA
BRANCH  10  12
ATOM     12  C   UNL     1      -4.993   3.379   0.407  1.00  0.00     0.054 A 
ATOM     13  N   UNL     1      -4.109   1.478  -0.337  1.00  0.00    -0.240 N 
ATOM     14  C   UNL     1      -4.828   2.036   0.687  1.00  0.00     0.117 A 
ATOM     15  C   UNL     1      -3.834   2.410  -1.316  1.00  0.00     0.065 A 
ATOM     16  C   UNL     1      -4.387   3.616  -0.867  1.00  0.00     0.012 A 
ATOM     17  C   UNL     1      -3.122   2.335  -2.526  1.00  0.00     0.028 A 
ATOM     18  C   UNL     1      -4.252   4.770  -1.666  1.00  0.00     0.011 A 
ATOM     19  C   UNL     1      -2.978   3.503  -3.281  1.00  0.00     0.002 A 
ATOM     20  C   UNL     1      -3.542   4.703  -2.865  1.00  0.00     0.001 A 
BRANCH  13  21
ATOM     21  S   UNL     1      -3.509  -0.113  -0.284  1.00  0.00     0.268 S 
ATOM     22  O   UNL     1      -3.772  -0.658  -1.609  1.00  0.00    -0.201 OA
ATOM     23  O   UNL     1      -4.059  -0.707   0.913  1.00  0.00    -0.201 OA
BRANCH  21  24
ATOM     24  C   UNL     1      -1.752  -0.021  -0.075  1.00  0.00     0.088 A 
ATOM     25  C   UNL     1       2.545  -0.035   0.038  1.00  0.00     0.044 C 
ATOM     26  C   UNL     1       1.045  -0.025   0.039  1.00  0.00    -0.051 A 
ATOM     27  C   UNL     1       0.341  -1.232  -0.046  1.00  0.00     0.005 A 
ATOM     28  C   UNL     1       0.334   1.179   0.114  1.00  0.00     0.005 A 
ATOM     29  C   UNL     1      -1.053  -1.232  -0.108  1.00  0.00     0.022 A 
ATOM     30  C   UNL     1      -1.062   1.185   0.071  1.00  0.00     0.022 A 
ENDBRANCH  21  24
ENDBRANCH  13  21
ENDBRANCH  10  12
ENDBRANCH   7  10
ENDBRANCH   5   6
BRANCH   5  31
ATOM     31  C   UNL     1      -9.821   5.648   1.658  1.00  0.00     0.092 C 
BRANCH  31  32
ATOM     32  C   UNL     1     -10.547   4.875   2.711  1.00  0.00     0.037 A 
ATOM     33  C   UNL     1     -10.822   3.526   2.808  1.00  0.00     0.134 A 
ATOM     34  N   UNL     1     -11.025   5.413   3.879  1.00  0.00    -0.348 N 
ATOM     35  N   UNL     1     -11.447   3.239   3.986  1.00  0.00    -0.245 NA
ATOM     36  C   UNL     1     -11.592   4.394   4.588  1.00  0.00     0.196 A 
ATOM     37  H   UNL     1     -10.969   6.356   4.154  1.00  0.00     0.167 HD
ENDBRANCH  31  32
ENDBRANCH   5  31
ENDBRANCH   3   5
ENDBRANCH   2   3
ENDBRANCH   1   2
BRANCH   1  38
ATOM     38  C   UNL     1      -5.862   5.998   5.117  1.00  0.00     0.202 C 
BRANCH  38  39
ATOM     39  O   UNL     1      -4.850   6.489   4.260  1.00  0.00    -0.374 OA
BRANCH  39  40
ATOM     40  C   UNL     1      -3.638   5.753   4.345  1.00  0.00     0.202 C 
BRANCH  40  41
ATOM     41  C   UNL     1      -3.126   5.518   5.783  1.00  0.00     0.261 C 
BRANCH  41  42
ATOM     42  O   UNL     1      -2.859   6.791   6.414  1.00  0.00    -0.460 OA
BRANCH  42  43
ATOM     43  C   UNL     1      -3.586   7.104   7.525  1.00  0.00     0.338 C 
ATOM     44  O   UNL     1      -3.856   6.344   8.440  1.00  0.00    -0.246 OA
BRANCH  43  45
ATOM     45  C   UNL     1      -4.304   8.395   7.291  1.00  0.00     0.060 A 
ATOM     46  C   UNL     1      -5.329   8.800   8.166  1.00  0.00     0.016 A 
ATOM     47  C   UNL     1      -4.229   8.950   6.020  1.00  0.00     0.016 A 
ATOM     48  C   UNL     1      -6.396   9.578   7.688  1.00  0.00     0.010 A 
ATOM     49  C   UNL     1      -5.337   9.602   5.529  1.00  0.00     0.010 A 
ATOM     50  C   UNL     1      -6.459   9.865   6.332  1.00  0.00    -0.014 A 
BRANCH  50  51
ATOM     51  C   UNL     1      -7.628  10.390   5.612  1.00  0.00     0.031 A 
ATOM     52  C   UNL     1      -7.473  11.723   4.996  1.00  0.00     0.074 A 
ATOM     53  C   UNL     1      -8.730   9.643   5.328  1.00  0.00     0.049 A 
ATOM     54  N   UNL     1      -8.458  12.491   4.697  1.00  0.00    -0.248 NA
ATOM     55  C   UNL     1      -6.179  12.337   4.708  1.00  0.00     0.031 C 
ATOM     56  C   UNL     1      -9.774   9.879   4.327  1.00  0.00     0.029 A 
ATOM     57  N   UNL     1      -9.178   8.456   5.926  1.00  0.00    -0.354 N 
ATOM     58  C   UNL     1      -7.969  13.484   3.879  1.00  0.00     0.074 A 
ATOM     59  C   UNL     1      -6.542  13.434   4.047  1.00  0.00     0.031 C 
ATOM     60  C   UNL     1     -10.845   9.105   4.605  1.00  0.00     0.029 A 
ATOM     61  C   UNL     1     -10.576   8.438   5.873  1.00  0.00     0.049 A 
ATOM     62  H   UNL     1      -8.607   7.755   6.315  1.00  0.00     0.167 HD
ATOM     63  C   UNL     1      -8.827  14.108   3.024  1.00  0.00     0.037 A 
ATOM     64  C   UNL     1     -11.292   8.428   7.030  1.00  0.00     0.037 A 
ATOM     65  C   UNL     1     -10.181  13.528   3.151  1.00  0.00     0.049 A 
ATOM     66  C   UNL     1     -12.051   9.717   7.112  1.00  0.00     0.074 A 
ATOM     67  C   UNL     1     -10.956  12.694   2.360  1.00  0.00     0.029 A 
ATOM     68  N   UNL     1     -10.792  13.508   4.401  1.00  0.00    -0.354 N 
ATOM     69  N   UNL     1     -11.837  10.694   6.273  1.00  0.00    -0.248 NA
ATOM     70  C   UNL     1     -13.080  10.041   8.083  1.00  0.00     0.031 C 
ATOM     71  C   UNL     1     -12.056  12.218   3.146  1.00  0.00     0.029 A 
ATOM     72  C   UNL     1     -11.957  12.766   4.414  1.00  0.00     0.049 A 
ATOM     73  H   UNL     1     -10.433  13.973   5.191  1.00  0.00     0.167 HD
ATOM     74  C   UNL     1     -12.708  11.704   6.483  1.00  0.00     0.074 A 
ATOM     75  C   UNL     1     -13.403  11.292   7.699  1.00  0.00     0.031 C 
ATOM     76  C   UNL     1     -12.779  12.766   5.624  1.00  0.00     0.037 A 
BRANCH  63  77
ATOM     77  C   UNL     1      -8.398  15.048   1.905  1.00  0.00     0.057 A 
ATOM     78  C   UNL     1      -9.282  15.354   0.853  1.00  0.00     0.134 A 
ATOM     79  C   UNL     1      -7.148  15.694   1.788  1.00  0.00     0.134 A 
ATOM     80  F   UNL     1     -10.547  14.915   0.847  1.00  0.00    -0.206 F 
ATOM     81  C   UNL     1      -8.927  16.152  -0.247  1.00  0.00     0.040 A 
ATOM     82  C   UNL     1      -6.759  16.449   0.670  1.00  0.00     0.040 A 
ATOM     83  F   UNL     1      -6.254  15.714   2.779  1.00  0.00    -0.206 F 
ATOM     84  C   UNL     1      -7.652  16.682  -0.358  1.00  0.00     0.006 A 
ENDBRANCH  63  77
BRANCH  64  85
ATOM     85  C   UNL     1     -10.582   7.658   8.108  1.00  0.00     0.057 A 
ATOM     86  C   UNL     1     -10.416   6.273   7.897  1.00  0.00     0.134 A 
ATOM     87  C   UNL     1      -9.638   8.261   8.938  1.00  0.00     0.134 A 
ATOM     88  F   UNL     1     -11.345   5.600   7.212  1.00  0.00    -0.206 F 
ATOM     89  C   UNL     1      -9.250   5.584   8.256  1.00  0.00     0.040 A 
ATOM     90  C   UNL     1      -8.493   7.565   9.362  1.00  0.00     0.040 A 
ATOM     91  F   UNL     1      -9.722   9.568   9.222  1.00  0.00    -0.206 F 
ATOM     92  C   UNL     1      -8.253   6.254   8.949  1.00  0.00     0.006 A 
ENDBRANCH  64  85
BRANCH  76  93
ATOM     93  C   UNL     1     -13.610  13.968   5.932  1.00  0.00     0.057 A 
ATOM     94  C   UNL     1     -14.851  13.895   6.563  1.00  0.00     0.134 A 
ATOM     95  C   UNL     1     -13.154  15.266   5.627  1.00  0.00     0.134 A 
ATOM     96  F   UNL     1     -15.493  12.725   6.701  1.00  0.00    -0.206 F 
ATOM     97  C   UNL     1     -15.483  15.029   7.070  1.00  0.00     0.040 A 
ATOM     98  C   UNL     1     -13.805  16.410   6.071  1.00  0.00     0.040 A 
ATOM     99  F   UNL     1     -12.046  15.499   4.912  1.00  0.00    -0.206 F 
ATOM    100  C   UNL     1     -14.943  16.291   6.849  1.00  0.00     0.006 A 
ENDBRANCH  76  93
ENDBRANCH  50  51
ENDBRANCH  43  45
ENDBRANCH  42  43
ENDBRANCH  41  42
ENDBRANCH  40  41
ENDBRANCH  39  40
ENDBRANCH  38  39
ENDBRANCH   1  38
TORSDOF 21
