REMARK SMILES Cc1ccsc1C(=O)N1CCN(C(=O)OC(C)(C)C)C[C@@H]1C(=O)OCCOCCOC(=O)c1ccc(-c2c3nc(c(-c4c(F)cccc4F)c4ccc([nH]4)c(-c4c(F)cccc4F)c4nc(c(-c5c(F)cccc5F)c5ccc2[nH]5)C=C4)C=C3)cc1
REMARK SMILES IDX 26 1 25 2 24 3 22 4 23 5 21 6 9 7 10 8 11 9 20 10 12 11 7 12
REMARK SMILES IDX 8 13 6 14 1 15 2 16 3 17 4 18 5 19 13 20 14 21 15 22 16 23
REMARK SMILES IDX 17 24 18 25 19 26 27 27 28 28 29 29 30 30 31 31 32 32 33 33
REMARK SMILES IDX 34 34 86 35 35 36 85 37 36 38 37 39 38 40 79 41 39 42 84 43
REMARK SMILES IDX 78 44 80 45 40 46 83 47 77 48 76 49 41 51 67 52 50 53 66 54
REMARK SMILES IDX 51 55 54 56 65 57 81 58 52 59 53 60 64 62 82 63 55 64 42 65
REMARK SMILES IDX 43 66 48 67 44 68 45 69 47 70 49 71 46 72 68 73 69 74 74 75
REMARK SMILES IDX 70 76 71 77 73 78 75 79 72 80 56 81 57 82 62 83 58 84 59 85
REMARK SMILES IDX 61 86 63 87 60 88
REMARK H PARENT 80 50 54 61
REMARK Flexibility Score: inf
ROOT
ATOM      1  C   UNL     1       4.194  -6.673   2.929  1.00  0.00     0.202 C 
ENDROOT
BRANCH   1   2
ATOM      2  C   UNL     1       3.008  -6.147   2.108  1.00  0.00     0.261 C 
BRANCH   2   3
ATOM      3  O   UNL     1       3.320  -4.986   1.308  1.00  0.00    -0.462 OA
BRANCH   3   4
ATOM      4  C   UNL     1       2.621  -3.853   1.601  1.00  0.00     0.330 C 
ATOM      5  O   UNL     1       1.763  -3.775   2.476  1.00  0.00    -0.250 OA
BRANCH   4   6
ATOM      6  C   UNL     1       2.929  -2.669   0.660  1.00  0.00     0.215 C 
ATOM      7  N   UNL     1       2.061  -2.745  -0.522  1.00  0.00    -0.321 N 
ATOM      8  C   UNL     1       2.506  -3.689  -1.538  1.00  0.00     0.142 C 
ATOM      9  C   UNL     1       3.911  -3.326  -2.020  1.00  0.00     0.144 C 
ATOM     10  C   UNL     1       4.423  -2.475   0.289  1.00  0.00     0.160 C 
ATOM     11  N   UNL     1       4.889  -3.130  -0.943  1.00  0.00    -0.304 N 
BRANCH   7  12
ATOM     12  C   UNL     1       0.707  -2.419  -0.471  1.00  0.00     0.265 C 
ATOM     13  O   UNL     1      -0.112  -3.274  -0.815  1.00  0.00    -0.268 OA
BRANCH  12  14
ATOM     14  C   UNL     1       0.331  -1.036  -0.148  1.00  0.00     0.095 A 
ATOM     15  C   UNL     1       2.474   0.383  -0.510  1.00  0.00     0.046 C 
ATOM     16  C   UNL     1       1.033   0.171  -0.188  1.00  0.00    -0.027 A 
ATOM     17  C   UNL     1       0.168   1.291   0.073  1.00  0.00     0.016 A 
ATOM     18  C   UNL     1      -1.138   0.926   0.281  1.00  0.00     0.066 A 
ATOM     19  S   UNL     1      -1.335  -0.761   0.226  1.00  0.00    -0.138 S 
ENDBRANCH  12  14
ENDBRANCH   7  12
BRANCH  11  20
ATOM     20  C   UNL     1       6.240  -3.239  -1.285  1.00  0.00     0.410 C 
ATOM     21  O   UNL     1       6.604  -3.654  -2.383  1.00  0.00    -0.224 OA
BRANCH  20  22
ATOM     22  O   UNL     1       7.105  -2.849  -0.306  1.00  0.00    -0.444 OA
BRANCH  22  23
ATOM     23  C   UNL     1       8.555  -3.007  -0.468  1.00  0.00     0.106 C 
ATOM     24  C   UNL     1       8.977  -4.479  -0.494  1.00  0.00     0.056 C 
ATOM     25  C   UNL     1       9.110  -2.287  -1.703  1.00  0.00     0.056 C 
ATOM     26  C   UNL     1       9.190  -2.367   0.781  1.00  0.00     0.056 C 
ENDBRANCH  22  23
ENDBRANCH  20  22
ENDBRANCH  11  20
ENDBRANCH   4   6
ENDBRANCH   3   4
ENDBRANCH   2   3
ENDBRANCH   1   2
BRANCH   1  27
ATOM     27  O   UNL     1       4.815  -5.761   3.827  1.00  0.00    -0.374 OA
BRANCH  27  28
ATOM     28  C   UNL     1       5.460  -4.626   3.267  1.00  0.00     0.202 C 
BRANCH  28  29
ATOM     29  C   UNL     1       6.565  -4.878   2.235  1.00  0.00     0.261 C 
BRANCH  29  30
ATOM     30  O   UNL     1       6.139  -5.559   1.032  1.00  0.00    -0.460 OA
BRANCH  30  31
ATOM     31  C   UNL     1       6.863  -6.670   0.742  1.00  0.00     0.338 C 
ATOM     32  O   UNL     1       7.810  -7.101   1.385  1.00  0.00    -0.246 OA
BRANCH  31  33
ATOM     33  C   UNL     1       6.330  -7.462  -0.382  1.00  0.00     0.060 A 
ATOM     34  C   UNL     1       6.045  -8.798  -0.087  1.00  0.00     0.016 A 
ATOM     35  C   UNL     1       6.325  -7.024  -1.709  1.00  0.00     0.016 A 
ATOM     36  C   UNL     1       5.816  -9.706  -1.114  1.00  0.00     0.010 A 
ATOM     37  C   UNL     1       6.080  -7.937  -2.746  1.00  0.00     0.010 A 
ATOM     38  C   UNL     1       5.850  -9.289  -2.453  1.00  0.00    -0.014 A 
BRANCH  38  39
ATOM     39  C   UNL     1       5.592 -10.293  -3.511  1.00  0.00     0.031 A 
ATOM     40  C   UNL     1       6.708 -10.871  -4.332  1.00  0.00     0.074 A 
ATOM     41  C   UNL     1       4.332 -10.741  -3.659  1.00  0.00     0.049 A 
ATOM     42  N   UNL     1       6.660 -11.819  -5.235  1.00  0.00    -0.248 NA
ATOM     43  C   UNL     1       8.053 -10.319  -4.110  1.00  0.00     0.031 C 
ATOM     44  C   UNL     1       3.181 -10.259  -2.892  1.00  0.00     0.029 A 
ATOM     45  N   UNL     1       3.810 -11.705  -4.479  1.00  0.00    -0.354 N 
ATOM     46  C   UNL     1       7.964 -11.983  -5.687  1.00  0.00     0.074 A 
ATOM     47  C   UNL     1       8.777 -11.015  -4.979  1.00  0.00     0.031 C 
ATOM     48  C   UNL     1       2.091 -10.945  -3.263  1.00  0.00     0.029 A 
ATOM     49  C   UNL     1       2.457 -11.877  -4.324  1.00  0.00     0.049 A 
ATOM     50  H   UNL     1       4.352 -12.223  -5.117  1.00  0.00     0.167 HD
ATOM     51  C   UNL     1       8.433 -12.866  -6.603  1.00  0.00     0.037 A 
ATOM     52  C   UNL     1       1.602 -12.684  -4.979  1.00  0.00     0.037 A 
ATOM     53  C   UNL     1       7.605 -13.818  -7.305  1.00  0.00     0.049 A 
ATOM     54  C   UNL     1       2.139 -13.600  -6.040  1.00  0.00     0.074 A 
ATOM     55  C   UNL     1       7.985 -14.776  -8.229  1.00  0.00     0.029 A 
ATOM     56  N   UNL     1       6.227 -13.919  -7.171  1.00  0.00    -0.354 N 
ATOM     57  N   UNL     1       3.380 -13.779  -6.424  1.00  0.00    -0.248 NA
ATOM     58  C   UNL     1       1.160 -14.422  -6.760  1.00  0.00     0.031 C 
ATOM     59  C   UNL     1       6.831 -15.412  -8.700  1.00  0.00     0.029 A 
ATOM     60  C   UNL     1       5.737 -14.893  -8.027  1.00  0.00     0.049 A 
ATOM     61  H   UNL     1       5.679 -13.379  -6.558  1.00  0.00     0.167 HD
ATOM     62  C   UNL     1       3.333 -14.741  -7.423  1.00  0.00     0.074 A 
ATOM     63  C   UNL     1       1.943 -15.127  -7.563  1.00  0.00     0.031 C 
ATOM     64  C   UNL     1       4.347 -15.254  -8.162  1.00  0.00     0.037 A 
BRANCH  51  65
ATOM     65  C   UNL     1       9.901 -12.832  -6.926  1.00  0.00     0.057 A 
ATOM     66  C   UNL     1      10.874 -13.271  -6.018  1.00  0.00     0.134 A 
ATOM     67  C   UNL     1      10.345 -12.406  -8.185  1.00  0.00     0.134 A 
ATOM     68  F   UNL     1      10.522 -13.690  -4.793  1.00  0.00    -0.206 F 
ATOM     69  C   UNL     1      12.234 -13.264  -6.341  1.00  0.00     0.040 A 
ATOM     70  C   UNL     1      11.699 -12.419  -8.530  1.00  0.00     0.040 A 
ATOM     71  F   UNL     1       9.469 -11.984  -9.110  1.00  0.00    -0.206 F 
ATOM     72  C   UNL     1      12.649 -12.843  -7.604  1.00  0.00     0.006 A 
ENDBRANCH  51  65
BRANCH  52  73
ATOM     73  C   UNL     1       0.153 -12.632  -4.662  1.00  0.00     0.057 A 
ATOM     74  C   UNL     1      -0.502 -13.712  -4.062  1.00  0.00     0.134 A 
ATOM     75  C   UNL     1      -0.609 -11.491  -4.944  1.00  0.00     0.134 A 
ATOM     76  F   UNL     1       0.169 -14.838  -3.781  1.00  0.00    -0.206 F 
ATOM     77  C   UNL     1      -1.866 -13.665  -3.767  1.00  0.00     0.040 A 
ATOM     78  C   UNL     1      -1.965 -11.418  -4.627  1.00  0.00     0.040 A 
ATOM     79  F   UNL     1      -0.037 -10.418  -5.513  1.00  0.00    -0.206 F 
ATOM     80  C   UNL     1      -2.599 -12.512  -4.043  1.00  0.00     0.006 A 
ENDBRANCH  52  73
BRANCH  64  81
ATOM     81  C   UNL     1       3.985 -16.292  -9.185  1.00  0.00     0.057 A 
ATOM     82  C   UNL     1       3.291 -15.960 -10.356  1.00  0.00     0.134 A 
ATOM     83  C   UNL     1       4.356 -17.631  -9.011  1.00  0.00     0.134 A 
ATOM     84  F   UNL     1       2.891 -14.698 -10.575  1.00  0.00    -0.206 F 
ATOM     85  C   UNL     1       2.960 -16.927 -11.306  1.00  0.00     0.040 A 
ATOM     86  C   UNL     1       4.057 -18.601  -9.968  1.00  0.00     0.040 A 
ATOM     87  F   UNL     1       5.028 -18.015  -7.915  1.00  0.00    -0.206 F 
ATOM     88  C   UNL     1       3.350 -18.251 -11.117  1.00  0.00     0.006 A 
ENDBRANCH  64  81
ENDBRANCH  38  39
ENDBRANCH  31  33
ENDBRANCH  30  31
ENDBRANCH  29  30
ENDBRANCH  28  29
ENDBRANCH  27  28
ENDBRANCH   1  27
TORSDOF 19
