REMARK SMILES C[C@H](NC(=O)N(CC(=O)OCCOCCOC(=O)c1ccc(-c2c3nc(c(-c4c(F)cccc4F)c4ccc([nH]4)c(-c4c(F)cccc4F)c4nc(c(-c5c(F)cccc5F)c5ccc2[nH]5)C=C4)C=C3)cc1)C(C)(C)C)c1nncn1C
REMARK SMILES IDX 12 1 11 2 10 3 8 4 9 5 7 6 6 7 4 8 3 9 5 11 2 12 1 13 77 14
REMARK SMILES IDX 78 15 81 16 79 17 80 18 82 19 73 20 74 21 75 22 76 23 13 24
REMARK SMILES IDX 14 25 15 26 16 27 17 28 18 29 19 30 20 31 72 32 21 33 71 34
REMARK SMILES IDX 22 35 23 36 24 37 65 38 25 39 70 40 64 41 66 42 26 43 69 44
REMARK SMILES IDX 63 45 62 46 27 48 53 49 36 50 52 51 37 52 40 53 51 54 67 55
REMARK SMILES IDX 38 56 39 57 50 59 68 60 41 61 28 62 29 63 34 64 30 65 31 66
REMARK SMILES IDX 33 67 35 68 32 69 54 70 55 71 60 72 56 73 57 74 59 75 61 76
REMARK SMILES IDX 58 77 42 78 43 79 48 80 44 81 45 82 47 83 49 84 46 85
REMARK H PARENT 3 10 66 47 40 58
REMARK Flexibility Score: inf
ROOT
ATOM      1  C   UNL     1      -1.004   1.994   6.238  1.00  0.00     0.202 C 
ENDROOT
BRANCH   1   2
ATOM      2  C   UNL     1      -1.282   1.540   4.797  1.00  0.00     0.261 C 
BRANCH   2   3
ATOM      3  O   UNL     1      -0.167   1.602   3.883  1.00  0.00    -0.462 OA
BRANCH   3   4
ATOM      4  C   UNL     1      -0.256   2.611   2.982  1.00  0.00     0.325 C 
ATOM      5  O   UNL     1      -1.099   3.508   3.023  1.00  0.00    -0.250 OA
BRANCH   4   6
ATOM      6  C   UNL     1       0.655   2.507   1.764  1.00  0.00     0.244 C 
BRANCH   6   7
ATOM      7  N   UNL     1       1.854   1.703   1.502  1.00  0.00    -0.309 N 
BRANCH   7   8
ATOM      8  C   UNL     1       1.787   0.585   0.692  1.00  0.00     0.318 C 
ATOM      9  N   UNL     1       1.040   0.624  -0.441  1.00  0.00    -0.328 N 
ATOM     10  H   UNL     1       0.851  -0.266  -0.819  1.00  0.00     0.166 HD
ATOM     11  O   UNL     1       2.444  -0.434   0.898  1.00  0.00    -0.249 OA
BRANCH   9  12
ATOM     12  C   UNL     1       0.459   1.725  -1.212  1.00  0.00     0.149 C 
ATOM     13  C   UNL     1       0.919   1.674  -2.664  1.00  0.00     0.040 C 
BRANCH  12  14
ATOM     14  C   UNL     1      -1.035   1.611  -1.116  1.00  0.00     0.154 A 
ATOM     15  N   UNL     1      -1.737   0.494  -1.181  1.00  0.00    -0.133 NA
ATOM     16  N   UNL     1      -1.899   2.643  -0.833  1.00  0.00    -0.319 N 
ATOM     17  N   UNL     1      -3.044   0.785  -0.878  1.00  0.00    -0.139 NA
ATOM     18  C   UNL     1      -3.122   2.073  -0.649  1.00  0.00     0.225 A 
ATOM     19  C   UNL     1      -1.605   4.044  -0.698  1.00  0.00     0.152 C 
ENDBRANCH  12  14
ENDBRANCH   9  12
ENDBRANCH   7   8
BRANCH   7  20
ATOM     20  C   UNL     1       3.151   2.027   2.184  1.00  0.00     0.037 C 
ATOM     21  C   UNL     1       3.474   1.010   3.292  1.00  0.00     0.034 C 
ATOM     22  C   UNL     1       4.305   2.032   1.148  1.00  0.00     0.034 C 
ATOM     23  C   UNL     1       3.160   3.444   2.797  1.00  0.00     0.034 C 
ENDBRANCH   7  20
ENDBRANCH   6   7
ENDBRANCH   4   6
ENDBRANCH   3   4
ENDBRANCH   2   3
ENDBRANCH   1   2
BRANCH   1  24
ATOM     24  O   UNL     1      -0.466   3.294   6.452  1.00  0.00    -0.374 OA
BRANCH  24  25
ATOM     25  C   UNL     1       0.854   3.553   5.984  1.00  0.00     0.202 C 
BRANCH  25  26
ATOM     26  C   UNL     1       1.994   2.717   6.578  1.00  0.00     0.261 C 
BRANCH  26  27
ATOM     27  O   UNL     1       1.828   1.313   6.321  1.00  0.00    -0.460 OA
BRANCH  27  28
ATOM     28  C   UNL     1       2.033   0.520   7.397  1.00  0.00     0.338 C 
ATOM     29  O   UNL     1       2.488   0.857   8.486  1.00  0.00    -0.246 OA
BRANCH  28  30
ATOM     30  C   UNL     1       1.459  -0.816   7.180  1.00  0.00     0.060 A 
ATOM     31  C   UNL     1       0.385  -1.191   7.995  1.00  0.00     0.016 A 
ATOM     32  C   UNL     1       2.050  -1.737   6.314  1.00  0.00     0.016 A 
ATOM     33  C   UNL     1      -0.055  -2.512   8.005  1.00  0.00     0.010 A 
ATOM     34  C   UNL     1       1.616  -3.070   6.333  1.00  0.00     0.010 A 
ATOM     35  C   UNL     1       0.599  -3.471   7.218  1.00  0.00    -0.014 A 
BRANCH  35  36
ATOM     36  C   UNL     1       0.340  -4.905   7.500  1.00  0.00     0.031 A 
ATOM     37  C   UNL     1       1.246  -5.625   8.465  1.00  0.00     0.074 A 
ATOM     38  C   UNL     1      -0.738  -5.528   6.993  1.00  0.00     0.049 A 
ATOM     39  N   UNL     1       1.163  -6.847   8.929  1.00  0.00    -0.248 NA
ATOM     40  C   UNL     1       2.390  -4.861   8.988  1.00  0.00     0.031 C 
ATOM     41  C   UNL     1      -1.713  -4.927   6.085  1.00  0.00     0.029 A 
ATOM     42  N   UNL     1      -1.200  -6.806   7.186  1.00  0.00    -0.354 N 
ATOM     43  C   UNL     1       2.231  -6.989   9.807  1.00  0.00     0.074 A 
ATOM     44  C   UNL     1       2.970  -5.746   9.784  1.00  0.00     0.031 C 
ATOM     45  C   UNL     1      -2.662  -5.837   5.802  1.00  0.00     0.029 A 
ATOM     46  C   UNL     1      -2.353  -7.086   6.495  1.00  0.00     0.049 A 
ATOM     47  H   UNL     1      -0.746  -7.461   7.766  1.00  0.00     0.167 HD
ATOM     48  C   UNL     1       2.559  -8.054  10.577  1.00  0.00     0.037 A 
ATOM     49  C   UNL     1      -3.072  -8.223   6.430  1.00  0.00     0.037 A 
ATOM     50  C   UNL     1       1.836  -9.297  10.593  1.00  0.00     0.049 A 
ATOM     51  C   UNL     1      -2.642  -9.418   7.239  1.00  0.00     0.074 A 
ATOM     52  C   UNL     1       2.106 -10.444  11.319  1.00  0.00     0.029 A 
ATOM     53  N   UNL     1       0.698  -9.553   9.845  1.00  0.00    -0.354 N 
ATOM     54  N   UNL     1      -1.639  -9.535   8.076  1.00  0.00    -0.248 NA
ATOM     55  C   UNL     1      -3.449 -10.640   7.099  1.00  0.00     0.031 C 
ATOM     56  C   UNL     1       1.146 -11.406  10.987  1.00  0.00     0.029 A 
ATOM     57  C   UNL     1       0.259 -10.844  10.084  1.00  0.00     0.049 A 
ATOM     58  H   UNL     1       0.266  -8.912   9.235  1.00  0.00     0.167 HD
ATOM     59  C   UNL     1      -1.714 -10.826   8.584  1.00  0.00     0.074 A 
ATOM     60  C   UNL     1      -2.866 -11.452   7.969  1.00  0.00     0.031 C 
ATOM     61  C   UNL     1      -0.902 -11.441   9.478  1.00  0.00     0.037 A 
BRANCH  48  62
ATOM     62  C   UNL     1       3.760  -7.920  11.463  1.00  0.00     0.057 A 
ATOM     63  C   UNL     1       3.721  -7.161  12.639  1.00  0.00     0.134 A 
ATOM     64  C   UNL     1       4.954  -8.586  11.160  1.00  0.00     0.134 A 
ATOM     65  F   UNL     1       2.611  -6.487  12.977  1.00  0.00    -0.206 F 
ATOM     66  C   UNL     1       4.833  -7.058  13.477  1.00  0.00     0.040 A 
ATOM     67  C   UNL     1       6.066  -8.506  12.000  1.00  0.00     0.040 A 
ATOM     68  F   UNL     1       5.055  -9.331  10.049  1.00  0.00    -0.206 F 
ATOM     69  C   UNL     1       6.008  -7.738  13.162  1.00  0.00     0.006 A 
ENDBRANCH  48  62
BRANCH  49  70
ATOM     70  C   UNL     1      -4.277  -8.298   5.567  1.00  0.00     0.057 A 
ATOM     71  C   UNL     1      -5.561  -8.409   6.114  1.00  0.00     0.134 A 
ATOM     72  C   UNL     1      -4.169  -8.306   4.171  1.00  0.00     0.134 A 
ATOM     73  F   UNL     1      -5.727  -8.434   7.445  1.00  0.00    -0.206 F 
ATOM     74  C   UNL     1      -6.691  -8.546   5.306  1.00  0.00     0.040 A 
ATOM     75  C   UNL     1      -5.292  -8.418   3.350  1.00  0.00     0.040 A 
ATOM     76  F   UNL     1      -2.966  -8.208   3.585  1.00  0.00    -0.206 F 
ATOM     77  C   UNL     1      -6.558  -8.548   3.919  1.00  0.00     0.006 A 
ENDBRANCH  49  70
BRANCH  61  78
ATOM     78  C   UNL     1      -1.254 -12.842   9.877  1.00  0.00     0.057 A 
ATOM     79  C   UNL     1      -1.033 -13.930   9.024  1.00  0.00     0.134 A 
ATOM     80  C   UNL     1      -1.782 -13.109  11.147  1.00  0.00     0.134 A 
ATOM     81  F   UNL     1      -0.540 -13.738   7.791  1.00  0.00    -0.206 F 
ATOM     82  C   UNL     1      -1.344 -15.234   9.413  1.00  0.00     0.040 A 
ATOM     83  C   UNL     1      -2.076 -14.410  11.555  1.00  0.00     0.040 A 
ATOM     84  F   UNL     1      -2.008 -12.111  12.014  1.00  0.00    -0.206 F 
ATOM     85  C   UNL     1      -1.861 -15.477  10.685  1.00  0.00     0.006 A 
ENDBRANCH  61  78
ENDBRANCH  35  36
ENDBRANCH  28  30
ENDBRANCH  27  28
ENDBRANCH  26  27
ENDBRANCH  25  26
ENDBRANCH  24  25
ENDBRANCH   1  24
TORSDOF 19
