REMARK SMILES O=C(/C=C/[C@@]12C=C(O)C(=O)C=C1C(=O)C1=Cc3cc(O)c(O)cc3O[C@@H](c3ccc(O)c(O)c3)[C@@H]12)OCCOCCOC(=O)c1ccc(-c2c3nc(c(-c4c(F)cccc4F)c4ccc([nH]4)c(-c4c(F)cccc4F)c4nc(c(-c5c(F)cccc5F)c5ccc2[nH]5)C=C4)C=C3)cc1
REMARK SMILES IDX 37 1 36 2 2 3 1 4 3 5 4 6 5 7 6 8 12 9 35 10 7 11 11 12
REMARK SMILES IDX 13 13 15 14 9 16 14 17 16 18 10 19 8 20 17 22 18 23 24 24
REMARK SMILES IDX 19 25 23 26 21 27 25 28 26 29 27 31 28 32 34 33 29 34 32 35
REMARK SMILES IDX 30 36 33 37 31 39 20 41 22 43 38 45 39 46 40 47 41 48 42 49
REMARK SMILES IDX 43 50 44 51 45 52 46 53 98 54 47 55 97 56 48 57 49 58 50 59
REMARK SMILES IDX 91 60 51 61 96 62 90 63 92 64 52 65 95 66 89 67 88 68 53 70
REMARK SMILES IDX 79 71 62 72 78 73 63 74 66 75 77 76 93 77 64 78 65 79 76 81
REMARK SMILES IDX 94 82 67 83 54 84 55 85 60 86 56 87 57 88 59 89 61 90 58 91
REMARK SMILES IDX 80 92 81 93 86 94 82 95 83 96 85 97 87 98 84 99 68 100
REMARK SMILES IDX 69 101 74 102 70 103 71 104 73 105 75 106 72 107
REMARK H PARENT 8 21 33 38 31 40 20 42 22 44 92 69 66 80
REMARK Flexibility Score: 90.00
ROOT
ATOM      1  C   UNL     1       3.855   1.020   1.024  1.00  0.00     0.261 C 
ENDROOT
BRANCH   1   2
ATOM      2  O   UNL     1       2.553   1.465   0.581  1.00  0.00    -0.460 OA
BRANCH   2   3
ATOM      3  C   UNL     1       2.054   1.335  -0.672  1.00  0.00     0.330 C 
ATOM      4  O   UNL     1       0.922   1.705  -0.959  1.00  0.00    -0.247 OA
BRANCH   3   5
ATOM      5  C   UNL     1       2.842   0.590  -1.665  1.00  0.00     0.090 C 
ATOM      6  C   UNL     1       4.058   0.954  -2.104  1.00  0.00    -0.003 C 
BRANCH   6   7
ATOM      7  C   UNL     1       5.049   0.125  -2.961  1.00  0.00     0.051 C 
ATOM      8  C   UNL     1       6.409   0.697  -2.634  1.00  0.00     0.040 C 
ATOM      9  C   UNL     1       5.015  -1.350  -2.606  1.00  0.00     0.018 C 
ATOM     10  C   UNL     1       4.552   0.102  -4.443  1.00  0.00     0.087 CG0
ATOM     11  C   UNL     1       7.343   0.053  -1.920  1.00  0.00     0.160 C 
ATOM     12  C   UNL     1       5.920  -2.053  -1.915  1.00  0.00     0.065 C 
ATOM     13  C   UNL     1       3.896  -1.991  -3.326  1.00  0.00     0.186 C 
ATOM     14  C   UNL     1       3.557  -1.052  -4.421  1.00  0.00     0.009 C 
ATOM     15  G   UNL     1       5.519  -0.245  -5.612  1.00  0.00     0.000 G0
ATOM     16  C   UNL     1       7.139  -1.355  -1.462  1.00  0.00     0.220 C 
ATOM     17  O   UNL     1       3.380  -3.056  -3.087  1.00  0.00    -0.289 OA
ATOM     18  C   UNL     1       2.584  -1.238  -5.314  1.00  0.00     0.020 C 
ATOM     19  O   UNL     1       8.017  -1.903  -0.804  1.00  0.00    -0.286 OA
BRANCH  11  20
ATOM     20  O   UNL     1       8.539   0.665  -1.599  1.00  0.00    -0.504 OA
ATOM     21  H   UNL     1       8.702   1.547  -1.869  1.00  0.00     0.293 HD
ENDBRANCH  11  20
BRANCH  18  22
ATOM     22  C   UNL     1       2.498  -0.276  -6.412  1.00  0.00     0.021 A 
ATOM     23  C   UNL     1       1.247   0.287  -6.708  1.00  0.00     0.062 A 
ATOM     24  C   UNL     1       3.640   0.119  -7.146  1.00  0.00     0.131 A 
ATOM     25  C   UNL     1       1.149   1.224  -7.729  1.00  0.00     0.158 A 
ATOM     26  C   UNL     1       3.509   1.007  -8.214  1.00  0.00     0.097 A 
ATOM     27  C   UNL     1       2.269   1.568  -8.481  1.00  0.00     0.161 A 
BRANCH  24  28
ATOM     28  O   UNL     1       4.909  -0.359  -6.931  1.00  0.00    -0.484 OA
BRANCH  28  29
ATOM     29  C   UNL     1       5.519  -0.245  -5.612  1.00  0.00     0.213 CG0
ATOM     30  G   UNL     1       4.552   0.102  -4.443  1.00  0.00     0.000 G0
BRANCH  29  31
ATOM     31  C   UNL     1       6.673   0.737  -5.726  1.00  0.00    -0.003 A 
ATOM     32  C   UNL     1       7.952   0.370  -5.268  1.00  0.00     0.011 A 
ATOM     33  C   UNL     1       6.471   2.048  -6.182  1.00  0.00     0.057 A 
ATOM     34  C   UNL     1       8.958   1.328  -5.126  1.00  0.00     0.050 A 
ATOM     35  C   UNL     1       7.497   2.986  -6.091  1.00  0.00     0.157 A 
ATOM     36  C   UNL     1       8.714   2.641  -5.511  1.00  0.00     0.157 A 
BRANCH  35  37
ATOM     37  O   UNL     1       7.291   4.263  -6.528  1.00  0.00    -0.504 OA
ATOM     38  H   UNL     1       7.979   4.895  -6.468  1.00  0.00     0.293 HD
ENDBRANCH  35  37
BRANCH  36  39
ATOM     39  O   UNL     1       9.661   3.603  -5.305  1.00  0.00    -0.504 OA
ATOM     40  H   UNL     1      10.482   3.375  -4.915  1.00  0.00     0.293 HD
ENDBRANCH  36  39
ENDBRANCH  29  31
ENDBRANCH  28  29
ENDBRANCH  24  28
BRANCH  25  41
ATOM     41  O   UNL     1      -0.032   1.845  -8.031  1.00  0.00    -0.504 OA
ATOM     42  H   UNL     1      -0.807   1.639  -7.547  1.00  0.00     0.293 HD
ENDBRANCH  25  41
BRANCH  27  43
ATOM     43  O   UNL     1       2.159   2.485  -9.486  1.00  0.00    -0.504 OA
ATOM     44  H   UNL     1       1.327   2.873  -9.678  1.00  0.00     0.293 HD
ENDBRANCH  27  43
ENDBRANCH  18  22
ENDBRANCH   6   7
ENDBRANCH   3   5
ENDBRANCH   2   3
ENDBRANCH   1   2
BRANCH   1  45
ATOM     45  C   UNL     1       3.919  -0.471   1.351  1.00  0.00     0.202 C 
BRANCH  45  46
ATOM     46  O   UNL     1       3.648  -1.290   0.215  1.00  0.00    -0.374 OA
BRANCH  46  47
ATOM     47  C   UNL     1       2.469  -2.098   0.320  1.00  0.00     0.202 C 
BRANCH  47  48
ATOM     48  C   UNL     1       2.787  -3.519   0.782  1.00  0.00     0.261 C 
BRANCH  48  49
ATOM     49  O   UNL     1       3.221  -3.474   2.147  1.00  0.00    -0.460 OA
BRANCH  49  50
ATOM     50  C   UNL     1       4.562  -3.482   2.336  1.00  0.00     0.338 C 
ATOM     51  O   UNL     1       5.419  -3.773   1.520  1.00  0.00    -0.246 OA
BRANCH  50  52
ATOM     52  C   UNL     1       4.848  -2.860   3.653  1.00  0.00     0.060 A 
ATOM     53  C   UNL     1       3.876  -2.786   4.657  1.00  0.00     0.016 A 
ATOM     54  C   UNL     1       6.099  -2.256   3.842  1.00  0.00     0.016 A 
ATOM     55  C   UNL     1       4.156  -2.112   5.844  1.00  0.00     0.010 A 
ATOM     56  C   UNL     1       6.385  -1.594   5.037  1.00  0.00     0.010 A 
ATOM     57  C   UNL     1       5.417  -1.528   6.047  1.00  0.00    -0.014 A 
BRANCH  57  58
ATOM     58  C   UNL     1       5.754  -1.007   7.388  1.00  0.00     0.031 A 
ATOM     59  C   UNL     1       5.734   0.454   7.702  1.00  0.00     0.074 A 
ATOM     60  C   UNL     1       6.058  -1.908   8.341  1.00  0.00     0.049 A 
ATOM     61  N   UNL     1       5.851   1.040   8.865  1.00  0.00    -0.248 NA
ATOM     62  C   UNL     1       5.568   1.377   6.571  1.00  0.00     0.031 C 
ATOM     63  C   UNL     1       6.143  -3.354   8.125  1.00  0.00     0.029 A 
ATOM     64  N   UNL     1       6.327  -1.749   9.673  1.00  0.00    -0.354 N 
ATOM     65  C   UNL     1       5.754   2.401   8.615  1.00  0.00     0.074 A 
ATOM     66  C   UNL     1       5.612   2.556   7.181  1.00  0.00     0.031 C 
ATOM     67  C   UNL     1       6.405  -3.954   9.294  1.00  0.00     0.029 A 
ATOM     68  C   UNL     1       6.521  -2.936  10.333  1.00  0.00     0.049 A 
ATOM     69  H   UNL     1       6.376  -0.870  10.115  1.00  0.00     0.167 HD
ATOM     70  C   UNL     1       5.767   3.419   9.508  1.00  0.00     0.037 A 
ATOM     71  C   UNL     1       6.747  -3.181  11.636  1.00  0.00     0.037 A 
ATOM     72  C   UNL     1       5.920   3.247  10.931  1.00  0.00     0.049 A 
ATOM     73  C   UNL     1       6.779  -2.035  12.600  1.00  0.00     0.074 A 
ATOM     74  C   UNL     1       5.875   4.210  11.926  1.00  0.00     0.029 A 
ATOM     75  N   UNL     1       6.169   2.036  11.560  1.00  0.00    -0.354 N 
ATOM     76  N   UNL     1       6.584  -0.760  12.367  1.00  0.00    -0.248 NA
ATOM     77  C   UNL     1       7.058  -2.357  14.005  1.00  0.00     0.031 C 
ATOM     78  C   UNL     1       6.146   3.588  13.149  1.00  0.00     0.029 A 
ATOM     79  C   UNL     1       6.319   2.232  12.924  1.00  0.00     0.049 A 
ATOM     80  H   UNL     1       6.230   1.165  11.105  1.00  0.00     0.167 HD
ATOM     81  C   UNL     1       6.709  -0.126  13.595  1.00  0.00     0.074 A 
ATOM     82  C   UNL     1       6.979  -1.161  14.573  1.00  0.00     0.031 C 
ATOM     83  C   UNL     1       6.609   1.194  13.882  1.00  0.00     0.037 A 
BRANCH  70  84
ATOM     84  C   UNL     1       5.604   4.814   8.982  1.00  0.00     0.057 A 
ATOM     85  C   UNL     1       4.366   5.283   8.523  1.00  0.00     0.134 A 
ATOM     86  C   UNL     1       6.671   5.720   9.003  1.00  0.00     0.134 A 
ATOM     87  F   UNL     1       3.305   4.464   8.473  1.00  0.00    -0.206 F 
ATOM     88  C   UNL     1       4.199   6.601   8.091  1.00  0.00     0.040 A 
ATOM     89  C   UNL     1       6.512   7.045   8.592  1.00  0.00     0.040 A 
ATOM     90  F   UNL     1       7.880   5.338   9.440  1.00  0.00    -0.206 F 
ATOM     91  C   UNL     1       5.273   7.488   8.133  1.00  0.00     0.006 A 
ENDBRANCH  70  84
BRANCH  71  92
ATOM     92  C   UNL     1       6.903  -4.583  12.087  1.00  0.00     0.057 A 
ATOM     93  C   UNL     1       5.876  -5.233  12.778  1.00  0.00     0.134 A 
ATOM     94  C   UNL     1       8.047  -5.326  11.771  1.00  0.00     0.134 A 
ATOM     95  F   UNL     1       4.761  -4.568  13.112  1.00  0.00    -0.206 F 
ATOM     96  C   UNL     1       5.979  -6.577  13.138  1.00  0.00     0.040 A 
ATOM     97  C   UNL     1       8.155  -6.675  12.107  1.00  0.00     0.040 A 
ATOM     98  F   UNL     1       9.057  -4.759  11.096  1.00  0.00    -0.206 F 
ATOM     99  C   UNL     1       7.117  -7.304  12.794  1.00  0.00     0.006 A 
ENDBRANCH  71  92
BRANCH  83 100
ATOM    100  C   UNL     1       6.812   1.602  15.309  1.00  0.00     0.057 A 
ATOM    101  C   UNL     1       8.089   1.644  15.880  1.00  0.00     0.134 A 
ATOM    102  C   UNL     1       5.733   2.021  16.098  1.00  0.00     0.134 A 
ATOM    103  F   UNL     1       9.161   1.243  15.178  1.00  0.00    -0.206 F 
ATOM    104  C   UNL     1       8.288   2.083  17.190  1.00  0.00     0.040 A 
ATOM    105  C   UNL     1       5.921   2.481  17.402  1.00  0.00     0.040 A 
ATOM    106  F   UNL     1       4.485   2.010  15.607  1.00  0.00    -0.206 F 
ATOM    107  C   UNL     1       7.202   2.512  17.951  1.00  0.00     0.006 A 
ENDBRANCH  83 100
ENDBRANCH  57  58
ENDBRANCH  50  52
ENDBRANCH  49  50
ENDBRANCH  48  49
ENDBRANCH  47  48
ENDBRANCH  46  47
ENDBRANCH  45  46
ENDBRANCH   1  45
TORSDOF 21
