REMARK SMILES COc1cc(C=O)cc(OC)c1O[C@H](C)C(=O)OCCOCCOC(=O)c1ccc(-c2c3nc(c(-c4c(F)cccc4F)c4ccc([nH]4)c(-c4c(F)cccc4F)c4nc(c(-c5c(F)cccc5F)c5ccc2[nH]5)C=C4)C=C3)cc1
REMARK SMILES IDX 20 1 19 2 18 3 16 4 17 5 14 6 15 7 13 8 12 9 3 10 4 11 5 12
REMARK SMILES IDX 9 13 8 14 2 15 1 16 6 17 7 18 10 19 11 20 21 21 22 22 23 23
REMARK SMILES IDX 24 24 25 25 26 26 27 27 28 28 80 29 29 30 79 31 30 32 31 33
REMARK SMILES IDX 32 34 73 35 33 36 78 37 72 38 74 39 34 40 77 41 71 42 70 43
REMARK SMILES IDX 35 45 61 46 44 47 60 48 45 49 48 50 59 51 75 52 46 53 47 54
REMARK SMILES IDX 58 56 76 57 49 58 36 59 37 60 42 61 38 62 39 63 41 64 43 65
REMARK SMILES IDX 40 66 62 67 63 68 68 69 64 70 65 71 67 72 69 73 66 74 50 75
REMARK SMILES IDX 51 76 56 77 52 78 53 79 55 80 57 81 54 82
REMARK H PARENT 74 44 48 55
REMARK Flexibility Score: inf
ROOT
ATOM      1  C   UNL     1       1.551   2.313   2.834  1.00  0.00     0.202 C 
ENDROOT
BRANCH   1   2
ATOM      2  C   UNL     1       0.922   2.141   1.448  1.00  0.00     0.261 C 
BRANCH   2   3
ATOM      3  O   UNL     1       1.313   0.902   0.819  1.00  0.00    -0.461 OA
BRANCH   3   4
ATOM      4  C   UNL     1       2.301   0.996  -0.108  1.00  0.00     0.347 C 
ATOM      5  O   UNL     1       2.912   2.029  -0.366  1.00  0.00    -0.248 OA
BRANCH   4   6
ATOM      6  C   UNL     1       2.623  -0.339  -0.789  1.00  0.00     0.279 C 
ATOM      7  C   UNL     1       3.813  -1.083  -0.194  1.00  0.00     0.066 C 
BRANCH   6   8
ATOM      8  O   UNL     1       1.555  -1.128  -1.267  1.00  0.00    -0.471 OA
BRANCH   8   9
ATOM      9  C   UNL     1       0.693  -1.954  -0.633  1.00  0.00     0.204 A 
ATOM     10  C   UNL     1      -0.442  -2.325  -1.393  1.00  0.00     0.165 A 
ATOM     11  C   UNL     1      -1.328  -3.301  -0.915  1.00  0.00     0.062 A 
ATOM     12  C   UNL     1      -1.100  -3.928   0.305  1.00  0.00     0.022 A 
ATOM     13  C   UNL     1       0.854  -2.538   0.633  1.00  0.00     0.165 A 
ATOM     14  C   UNL     1      -0.021  -3.538   1.091  1.00  0.00     0.062 A 
BRANCH  10  15
ATOM     15  O   UNL     1      -0.837  -1.855  -2.623  1.00  0.00    -0.493 OA
ATOM     16  C   UNL     1      -0.027  -0.920  -3.320  1.00  0.00     0.278 C 
ENDBRANCH  10  15
BRANCH  12  17
ATOM     17  C   UNL     1      -1.974  -5.034   0.745  1.00  0.00     0.260 C 
ATOM     18  O   UNL     1      -2.913  -5.430   0.066  1.00  0.00    -0.298 OA
ENDBRANCH  12  17
BRANCH  13  19
ATOM     19  O   UNL     1       1.941  -2.258   1.409  1.00  0.00    -0.493 OA
ATOM     20  C   UNL     1       1.593  -1.636   2.643  1.00  0.00     0.278 C 
ENDBRANCH  13  19
ENDBRANCH   8   9
ENDBRANCH   6   8
ENDBRANCH   4   6
ENDBRANCH   3   4
ENDBRANCH   2   3
ENDBRANCH   1   2
BRANCH   1  21
ATOM     21  O   UNL     1       2.911   2.749   2.838  1.00  0.00    -0.374 OA
BRANCH  21  22
ATOM     22  C   UNL     1       3.904   1.734   2.716  1.00  0.00     0.202 C 
BRANCH  22  23
ATOM     23  C   UNL     1       4.350   1.098   4.039  1.00  0.00     0.261 C 
BRANCH  23  24
ATOM     24  O   UNL     1       3.265   0.417   4.698  1.00  0.00    -0.460 OA
BRANCH  24  25
ATOM     25  C   UNL     1       2.687   1.124   5.700  1.00  0.00     0.338 C 
ATOM     26  O   UNL     1       3.059   2.191   6.153  1.00  0.00    -0.246 OA
BRANCH  25  27
ATOM     27  C   UNL     1       1.408   0.497   6.103  1.00  0.00     0.060 A 
ATOM     28  C   UNL     1       0.337   1.359   6.366  1.00  0.00     0.016 A 
ATOM     29  C   UNL     1       1.264  -0.880   6.294  1.00  0.00     0.016 A 
ATOM     30  C   UNL     1      -0.847   0.861   6.905  1.00  0.00     0.010 A 
ATOM     31  C   UNL     1       0.066  -1.381   6.823  1.00  0.00     0.010 A 
ATOM     32  C   UNL     1      -0.976  -0.506   7.183  1.00  0.00    -0.014 A 
BRANCH  32  33
ATOM     33  C   UNL     1      -2.129  -0.973   8.000  1.00  0.00     0.031 A 
ATOM     34  C   UNL     1      -1.909  -1.331   9.448  1.00  0.00     0.074 A 
ATOM     35  C   UNL     1      -3.374  -1.008   7.490  1.00  0.00     0.049 A 
ATOM     36  N   UNL     1      -2.774  -1.730  10.347  1.00  0.00    -0.248 NA
ATOM     37  C   UNL     1      -0.530  -1.224   9.950  1.00  0.00     0.031 C 
ATOM     38  C   UNL     1      -3.736  -0.652   6.120  1.00  0.00     0.029 A 
ATOM     39  N   UNL     1      -4.567  -1.357   8.074  1.00  0.00    -0.354 N 
ATOM     40  C   UNL     1      -2.045  -1.927  11.514  1.00  0.00     0.074 A 
ATOM     41  C   UNL     1      -0.662  -1.645  11.199  1.00  0.00     0.031 C 
ATOM     42  C   UNL     1      -5.064  -0.795   5.969  1.00  0.00     0.029 A 
ATOM     43  C   UNL     1      -5.641  -1.283   7.221  1.00  0.00     0.049 A 
ATOM     44  H   UNL     1      -4.645  -1.635   9.015  1.00  0.00     0.167 HD
ATOM     45  C   UNL     1      -2.486  -2.291  12.742  1.00  0.00     0.037 A 
ATOM     46  C   UNL     1      -6.939  -1.587   7.422  1.00  0.00     0.037 A 
ATOM     47  C   UNL     1      -3.862  -2.564  13.066  1.00  0.00     0.049 A 
ATOM     48  C   UNL     1      -7.394  -2.060   8.778  1.00  0.00     0.074 A 
ATOM     49  C   UNL     1      -4.406  -2.918  14.289  1.00  0.00     0.029 A 
ATOM     50  N   UNL     1      -4.912  -2.521  12.162  1.00  0.00    -0.354 N 
ATOM     51  N   UNL     1      -6.700  -2.212   9.880  1.00  0.00    -0.248 NA
ATOM     52  C   UNL     1      -8.819  -2.396   8.919  1.00  0.00     0.031 C 
ATOM     53  C   UNL     1      -5.774  -3.148  14.112  1.00  0.00     0.029 A 
ATOM     54  C   UNL     1      -6.095  -2.872  12.793  1.00  0.00     0.049 A 
ATOM     55  H   UNL     1      -4.830  -2.276  11.212  1.00  0.00     0.167 HD
ATOM     56  C   UNL     1      -7.607  -2.627  10.849  1.00  0.00     0.074 A 
ATOM     57  C   UNL     1      -8.903  -2.690  10.208  1.00  0.00     0.031 C 
ATOM     58  C   UNL     1      -7.385  -2.925  12.153  1.00  0.00     0.037 A 
BRANCH  45  59
ATOM     59  C   UNL     1      -1.461  -2.441  13.831  1.00  0.00     0.057 A 
ATOM     60  C   UNL     1      -0.797  -1.339  14.385  1.00  0.00     0.134 A 
ATOM     61  C   UNL     1      -1.160  -3.705  14.355  1.00  0.00     0.134 A 
ATOM     62  F   UNL     1      -1.028  -0.101  13.921  1.00  0.00    -0.206 F 
ATOM     63  C   UNL     1       0.147  -1.491  15.403  1.00  0.00     0.040 A 
ATOM     64  C   UNL     1      -0.241  -3.866  15.393  1.00  0.00     0.040 A 
ATOM     65  F   UNL     1      -1.763  -4.803  13.875  1.00  0.00    -0.206 F 
ATOM     66  C   UNL     1       0.421  -2.757  15.915  1.00  0.00     0.006 A 
ENDBRANCH  45  59
BRANCH  46  67
ATOM     67  C   UNL     1      -7.912  -1.463   6.305  1.00  0.00     0.057 A 
ATOM     68  C   UNL     1      -8.935  -0.508   6.332  1.00  0.00     0.134 A 
ATOM     69  C   UNL     1      -7.860  -2.320   5.199  1.00  0.00     0.134 A 
ATOM     70  F   UNL     1      -9.053   0.326   7.375  1.00  0.00    -0.206 F 
ATOM     71  C   UNL     1      -9.883  -0.423   5.310  1.00  0.00     0.040 A 
ATOM     72  C   UNL     1      -8.783  -2.228   4.157  1.00  0.00     0.040 A 
ATOM     73  F   UNL     1      -6.904  -3.257   5.114  1.00  0.00    -0.206 F 
ATOM     74  C   UNL     1      -9.805  -1.282   4.216  1.00  0.00     0.006 A 
ENDBRANCH  46  67
BRANCH  58  75
ATOM     75  C   UNL     1      -8.574  -3.301  12.992  1.00  0.00     0.057 A 
ATOM     76  C   UNL     1      -9.253  -4.515  12.824  1.00  0.00     0.134 A 
ATOM     77  C   UNL     1      -9.025  -2.449  14.010  1.00  0.00     0.134 A 
ATOM     78  F   UNL     1      -8.881  -5.375  11.863  1.00  0.00    -0.206 F 
ATOM     79  C   UNL     1     -10.353  -4.854  13.616  1.00  0.00     0.040 A 
ATOM     80  C   UNL     1     -10.103  -2.790  14.828  1.00  0.00     0.040 A 
ATOM     81  F   UNL     1      -8.415  -1.275  14.236  1.00  0.00    -0.206 F 
ATOM     82  C   UNL     1     -10.777  -3.992  14.626  1.00  0.00     0.006 A 
ENDBRANCH  58  75
ENDBRANCH  32  33
ENDBRANCH  25  27
ENDBRANCH  24  25
ENDBRANCH  23  24
ENDBRANCH  22  23
ENDBRANCH  21  22
ENDBRANCH   1  21
TORSDOF 19
