REMARK SMILES CCS(=O)(=O)c1ccccc1NC[C@H]1CC[C@H](C(=O)OCCOCCOC(=O)c2ccc(-c3c4nc(c(-c5c(F)cccc5F)c5ccc([nH]5)c(-c5c(F)cccc5F)c5nc(c(-c6c(F)cccc6F)c6ccc3[nH]6)C=C5)C=C4)cc2)O1
REMARK SMILES IDX 21 1 20 2 18 3 19 4 17 5 14 6 15 7 83 8 16 9 13 10 12 11
REMARK SMILES IDX 11 13 6 14 7 15 8 16 10 17 9 18 3 19 4 20 5 21 2 22 1 23
REMARK SMILES IDX 22 24 23 25 24 26 25 27 26 28 27 29 28 30 29 31 30 32 82 33
REMARK SMILES IDX 31 34 81 35 32 36 33 37 34 38 75 39 35 40 80 41 74 42 76 43
REMARK SMILES IDX 36 44 79 45 73 46 72 47 37 49 63 50 46 51 62 52 47 53 50 54
REMARK SMILES IDX 61 55 77 56 48 57 49 58 60 60 78 61 51 62 38 63 39 64 44 65
REMARK SMILES IDX 40 66 41 67 43 68 45 69 42 70 64 71 65 72 70 73 66 74 67 75
REMARK SMILES IDX 69 76 71 77 68 78 52 79 53 80 58 81 54 82 55 83 57 84 59 85
REMARK SMILES IDX 56 86
REMARK H PARENT 12 12 76 48 50 59
REMARK Flexibility Score: inf
ROOT
ATOM      1  C   UNL     1       4.238   5.856   1.217  1.00  0.00     0.261 C 
ENDROOT
BRANCH   1   2
ATOM      2  O   UNL     1       4.027   4.771   0.296  1.00  0.00    -0.461 OA
BRANCH   2   3
ATOM      3  C   UNL     1       2.815   4.731  -0.325  1.00  0.00     0.335 C 
ATOM      4  O   UNL     1       1.892   5.509  -0.115  1.00  0.00    -0.249 OA
BRANCH   3   5
ATOM      5  C   UNL     1       2.734   3.591  -1.346  1.00  0.00     0.228 C 
ATOM      6  C   UNL     1       3.151   1.296  -1.102  1.00  0.00     0.138 C 
ATOM      7  C   UNL     1       4.480   1.997  -1.338  1.00  0.00     0.037 C 
ATOM      8  O   UNL     1       2.264   2.377  -0.731  1.00  0.00    -0.361 OA
ATOM      9  C   UNL     1       4.048   3.255  -2.048  1.00  0.00     0.047 C 
BRANCH   6  10
ATOM     10  C   UNL     1       2.526   0.561  -2.315  1.00  0.00     0.145 C 
BRANCH  10  11
ATOM     11  N   UNL     1       3.513   0.058  -3.266  1.00  0.00    -0.381 N 
ATOM     12  H   UNL     1       4.168   0.709  -3.609  1.00  0.00     0.160 HD
BRANCH  11  13
ATOM     13  C   UNL     1       3.623  -1.233  -3.733  1.00  0.00     0.053 A 
ATOM     14  C   UNL     1       4.160  -1.573  -4.989  1.00  0.00     0.090 A 
ATOM     15  C   UNL     1       4.288  -2.930  -5.370  1.00  0.00     0.022 A 
ATOM     16  C   UNL     1       3.866  -3.959  -4.537  1.00  0.00     0.001 A 
ATOM     17  C   UNL     1       3.173  -2.304  -2.932  1.00  0.00     0.027 A 
ATOM     18  C   UNL     1       3.295  -3.643  -3.318  1.00  0.00     0.002 A 
BRANCH  14  19
ATOM     19  S   UNL     1       4.732  -0.461  -6.265  1.00  0.00     0.180 S 
ATOM     20  O   UNL     1       3.920  -0.744  -7.437  1.00  0.00    -0.224 OA
ATOM     21  O   UNL     1       6.171  -0.668  -6.321  1.00  0.00    -0.224 OA
BRANCH  19  22
ATOM     22  C   UNL     1       4.518   1.251  -5.902  1.00  0.00     0.139 C 
ATOM     23  C   UNL     1       3.092   1.752  -5.958  1.00  0.00     0.021 C 
ENDBRANCH  19  22
ENDBRANCH  14  19
ENDBRANCH  11  13
ENDBRANCH  10  11
ENDBRANCH   6  10
ENDBRANCH   3   5
ENDBRANCH   2   3
ENDBRANCH   1   2
BRANCH   1  24
ATOM     24  C   UNL     1       5.383   6.757   0.746  1.00  0.00     0.202 C 
BRANCH  24  25
ATOM     25  O   UNL     1       5.089   7.604  -0.365  1.00  0.00    -0.374 OA
BRANCH  25  26
ATOM     26  C   UNL     1       5.099   7.012  -1.661  1.00  0.00     0.202 C 
BRANCH  26  27
ATOM     27  C   UNL     1       6.484   6.794  -2.287  1.00  0.00     0.261 C 
BRANCH  27  28
ATOM     28  O   UNL     1       7.277   5.851  -1.540  1.00  0.00    -0.460 OA
BRANCH  28  29
ATOM     29  C   UNL     1       8.383   6.378  -0.965  1.00  0.00     0.338 C 
ATOM     30  O   UNL     1       8.820   7.516  -1.102  1.00  0.00    -0.246 OA
BRANCH  29  31
ATOM     31  C   UNL     1       8.951   5.447   0.025  1.00  0.00     0.060 A 
ATOM     32  C   UNL     1       9.114   5.924   1.331  1.00  0.00     0.016 A 
ATOM     33  C   UNL     1       9.411   4.175  -0.328  1.00  0.00     0.016 A 
ATOM     34  C   UNL     1       9.785   5.154   2.277  1.00  0.00     0.010 A 
ATOM     35  C   UNL     1      10.092   3.405   0.625  1.00  0.00     0.010 A 
ATOM     36  C   UNL     1      10.316   3.906   1.920  1.00  0.00    -0.014 A 
BRANCH  36  37
ATOM     37  C   UNL     1      11.216   3.213   2.875  1.00  0.00     0.031 A 
ATOM     38  C   UNL     1      12.706   3.340   2.710  1.00  0.00     0.074 A 
ATOM     39  C   UNL     1      10.713   2.536   3.924  1.00  0.00     0.049 A 
ATOM     40  N   UNL     1      13.667   2.870   3.465  1.00  0.00    -0.248 NA
ATOM     41  C   UNL     1      13.176   4.100   1.541  1.00  0.00     0.031 C 
ATOM     42  C   UNL     1       9.291   2.361   4.213  1.00  0.00     0.029 A 
ATOM     43  N   UNL     1      11.349   1.876   4.945  1.00  0.00    -0.354 N 
ATOM     44  C   UNL     1      14.853   3.279   2.867  1.00  0.00     0.074 A 
ATOM     45  C   UNL     1      14.492   4.006   1.669  1.00  0.00     0.031 C 
ATOM     46  C   UNL     1       9.162   1.639   5.339  1.00  0.00     0.029 A 
ATOM     47  C   UNL     1      10.490   1.288   5.840  1.00  0.00     0.049 A 
ATOM     48  H   UNL     1      12.329   1.829   5.029  1.00  0.00     0.167 HD
ATOM     49  C   UNL     1      16.126   3.080   3.284  1.00  0.00     0.037 A 
ATOM     50  C   UNL     1      10.745   0.545   6.934  1.00  0.00     0.037 A 
ATOM     51  C   UNL     1      16.491   2.363   4.477  1.00  0.00     0.049 A 
ATOM     52  C   UNL     1      12.171   0.296   7.348  1.00  0.00     0.074 A 
ATOM     53  C   UNL     1      17.755   2.135   4.994  1.00  0.00     0.029 A 
ATOM     54  N   UNL     1      15.592   1.750   5.336  1.00  0.00    -0.354 N 
ATOM     55  N   UNL     1      13.280   0.723   6.796  1.00  0.00    -0.248 NA
ATOM     56  C   UNL     1      12.378  -0.534   8.545  1.00  0.00     0.031 C 
ATOM     57  C   UNL     1      17.624   1.348   6.143  1.00  0.00     0.029 A 
ATOM     58  C   UNL     1      16.275   1.123   6.365  1.00  0.00     0.049 A 
ATOM     59  H   UNL     1      14.614   1.760   5.230  1.00  0.00     0.167 HD
ATOM     60  C   UNL     1      14.313   0.235   7.588  1.00  0.00     0.074 A 
ATOM     61  C   UNL     1      13.697  -0.506   8.669  1.00  0.00     0.031 C 
ATOM     62  C   UNL     1      15.651   0.388   7.434  1.00  0.00     0.037 A 
BRANCH  49  63
ATOM     63  C   UNL     1      17.227   3.636   2.430  1.00  0.00     0.057 A 
ATOM     64  C   UNL     1      17.505   5.008   2.387  1.00  0.00     0.134 A 
ATOM     65  C   UNL     1      18.045   2.785   1.677  1.00  0.00     0.134 A 
ATOM     66  F   UNL     1      16.750   5.878   3.076  1.00  0.00    -0.206 F 
ATOM     67  C   UNL     1      18.549   5.516   1.611  1.00  0.00     0.040 A 
ATOM     68  C   UNL     1      19.105   3.279   0.915  1.00  0.00     0.040 A 
ATOM     69  F   UNL     1      17.833   1.460   1.679  1.00  0.00    -0.206 F 
ATOM     70  C   UNL     1      19.357   4.649   0.878  1.00  0.00     0.006 A 
ENDBRANCH  49  63
BRANCH  50  71
ATOM     71  C   UNL     1       9.625  -0.029   7.720  1.00  0.00     0.057 A 
ATOM     72  C   UNL     1       9.327   0.433   9.007  1.00  0.00     0.134 A 
ATOM     73  C   UNL     1       8.845  -1.074   7.212  1.00  0.00     0.134 A 
ATOM     74  F   UNL     1      10.055   1.415   9.557  1.00  0.00    -0.206 F 
ATOM     75  C   UNL     1       8.305  -0.137   9.769  1.00  0.00     0.040 A 
ATOM     76  C   UNL     1       7.805  -1.637   7.953  1.00  0.00     0.040 A 
ATOM     77  F   UNL     1       9.081  -1.560   5.984  1.00  0.00    -0.206 F 
ATOM     78  C   UNL     1       7.538  -1.173   9.239  1.00  0.00     0.006 A 
ENDBRANCH  50  71
BRANCH  62  79
ATOM     79  C   UNL     1      16.537  -0.241   8.470  1.00  0.00     0.057 A 
ATOM     80  C   UNL     1      16.728  -1.627   8.536  1.00  0.00     0.134 A 
ATOM     81  C   UNL     1      17.227   0.551   9.397  1.00  0.00     0.134 A 
ATOM     82  F   UNL     1      16.086  -2.442   7.685  1.00  0.00    -0.206 F 
ATOM     83  C   UNL     1      17.553  -2.205   9.502  1.00  0.00     0.040 A 
ATOM     84  C   UNL     1      18.074  -0.013  10.352  1.00  0.00     0.040 A 
ATOM     85  F   UNL     1      17.096   1.887   9.383  1.00  0.00    -0.206 F 
ATOM     86  C   UNL     1      18.233  -1.396  10.411  1.00  0.00     0.006 A 
ENDBRANCH  62  79
ENDBRANCH  36  37
ENDBRANCH  29  31
ENDBRANCH  28  29
ENDBRANCH  27  28
ENDBRANCH  26  27
ENDBRANCH  25  26
ENDBRANCH  24  25
ENDBRANCH   1  24
TORSDOF 19
