REMARK SMILES CSc1nc(O)nc(C)c1C(=O)N1C[C@@H](O)C[C@@H]1C(=O)OCCOCCOC(=O)c1ccc(-c2c3nc(c(-c4c(F)cccc4F)c4ccc([nH]4)c(-c4c(F)cccc4F)c4nc(c(-c5c(F)cccc5F)c5ccc2[nH]5)C=C4)C=C3)cc1
REMARK SMILES IDX 23 1 22 2 21 3 19 4 20 5 18 6 13 7 14 8 15 9 17 10 11 11
REMARK SMILES IDX 12 12 10 13 3 14 4 15 5 16 8 17 7 18 9 19 2 20 1 21 6 22
REMARK SMILES IDX 16 24 24 26 25 27 26 28 27 29 28 30 29 31 30 32 31 33 83 34
REMARK SMILES IDX 32 35 82 36 33 37 34 38 35 39 76 40 36 41 81 42 75 43 77 44
REMARK SMILES IDX 37 45 80 46 74 47 73 48 38 50 64 51 47 52 63 53 48 54 51 55
REMARK SMILES IDX 62 56 78 57 49 58 50 59 61 61 79 62 52 63 39 64 40 65 45 66
REMARK SMILES IDX 41 67 42 68 44 69 46 70 43 71 65 72 66 73 71 74 67 75 68 76
REMARK SMILES IDX 70 77 72 78 69 79 53 80 54 81 59 82 55 83 56 84 58 85 60 86
REMARK SMILES IDX 57 87
REMARK H PARENT 6 23 16 25 77 49 51 60
REMARK Flexibility Score: inf
ROOT
ATOM      1  C   UNL     1      -3.267  -0.631   3.526  1.00  0.00     0.202 C 
ENDROOT
BRANCH   1   2
ATOM      2  C   UNL     1      -3.278  -0.842   1.998  1.00  0.00     0.261 C 
BRANCH   2   3
ATOM      3  O   UNL     1      -2.082  -1.414   1.453  1.00  0.00    -0.462 OA
BRANCH   3   4
ATOM      4  C   UNL     1      -1.153  -0.456   1.185  1.00  0.00     0.329 C 
ATOM      5  O   UNL     1      -1.376   0.739   1.316  1.00  0.00    -0.250 OA
BRANCH   4   6
ATOM      6  C   UNL     1       0.212  -1.039   0.824  1.00  0.00     0.198 C 
ATOM      7  N   UNL     1       1.222   0.032   0.842  1.00  0.00    -0.322 N 
ATOM      8  C   UNL     1       2.275  -0.344  -0.084  1.00  0.00     0.152 C 
ATOM      9  C   UNL     1       1.540  -1.073  -1.212  1.00  0.00     0.136 C 
ATOM     10  C   UNL     1       0.313  -1.704  -0.544  1.00  0.00     0.071 C 
BRANCH   7  11
ATOM     11  C   UNL     1       1.539   0.520   2.104  1.00  0.00     0.259 C 
ATOM     12  O   UNL     1       1.707  -0.309   3.000  1.00  0.00    -0.269 OA
BRANCH  11  13
ATOM     13  C   UNL     1       1.646   1.994   2.386  1.00  0.00     0.093 A 
ATOM     14  C   UNL     1       1.121   3.077   1.656  1.00  0.00     0.116 A 
ATOM     15  N   UNL     1       1.311   4.368   2.043  1.00  0.00    -0.188 NA
ATOM     16  C   UNL     1       1.905   4.580   3.201  1.00  0.00     0.315 A 
ATOM     17  C   UNL     1       2.260   2.375   3.604  1.00  0.00     0.058 A 
ATOM     18  N   UNL     1       2.382   3.662   4.020  1.00  0.00    -0.200 NA
ATOM     19  C   UNL     1       2.766   1.412   4.647  1.00  0.00     0.068 C 
BRANCH  14  20
ATOM     20  S   UNL     1      -0.123   3.153   0.378  1.00  0.00    -0.109 SA
ATOM     21  C   UNL     1       0.595   2.371  -1.061  1.00  0.00     0.092 C 
ENDBRANCH  14  20
BRANCH  16  22
ATOM     22  O   UNL     1       1.941   5.849   3.678  1.00  0.00    -0.479 OA
ATOM     23  H   UNL     1       1.620   6.556   3.153  1.00  0.00     0.297 HD
ENDBRANCH  16  22
ENDBRANCH  11  13
ENDBRANCH   7  11
BRANCH   9  24
ATOM     24  O   UNL     1       2.340  -2.045  -1.863  1.00  0.00    -0.391 OA
ATOM     25  H   UNL     1       2.630  -2.710  -1.219  1.00  0.00     0.211 HD
ENDBRANCH   9  24
ENDBRANCH   4   6
ENDBRANCH   3   4
ENDBRANCH   2   3
ENDBRANCH   1   2
BRANCH   1  26
ATOM     26  O   UNL     1      -2.029  -0.417   4.190  1.00  0.00    -0.374 OA
BRANCH  26  27
ATOM     27  C   UNL     1      -1.109  -1.501   4.316  1.00  0.00     0.202 C 
BRANCH  27  28
ATOM     28  C   UNL     1      -1.619  -2.829   4.877  1.00  0.00     0.261 C 
BRANCH  28  29
ATOM     29  O   UNL     1      -2.510  -3.474   3.945  1.00  0.00    -0.460 OA
BRANCH  29  30
ATOM     30  C   UNL     1      -3.676  -3.897   4.475  1.00  0.00     0.338 C 
ATOM     31  O   UNL     1      -4.015  -3.875   5.656  1.00  0.00    -0.246 OA
BRANCH  30  32
ATOM     32  C   UNL     1      -4.612  -4.243   3.402  1.00  0.00     0.060 A 
ATOM     33  C   UNL     1      -5.733  -3.425   3.212  1.00  0.00     0.016 A 
ATOM     34  C   UNL     1      -4.458  -5.429   2.683  1.00  0.00     0.016 A 
ATOM     35  C   UNL     1      -6.731  -3.810   2.323  1.00  0.00     0.010 A 
ATOM     36  C   UNL     1      -5.475  -5.831   1.814  1.00  0.00     0.010 A 
ATOM     37  C   UNL     1      -6.630  -5.042   1.664  1.00  0.00    -0.014 A 
BRANCH  37  38
ATOM     38  C   UNL     1      -7.825  -5.599   0.996  1.00  0.00     0.031 A 
ATOM     39  C   UNL     1      -8.771  -6.439   1.808  1.00  0.00     0.074 A 
ATOM     40  C   UNL     1      -8.078  -5.339  -0.297  1.00  0.00     0.049 A 
ATOM     41  N   UNL     1      -9.868  -7.047   1.440  1.00  0.00    -0.248 NA
ATOM     42  C   UNL     1      -8.435  -6.610   3.232  1.00  0.00     0.031 C 
ATOM     43  C   UNL     1      -7.261  -4.496  -1.167  1.00  0.00     0.029 A 
ATOM     44  N   UNL     1      -9.099  -5.771  -1.102  1.00  0.00    -0.354 N 
ATOM     45  C   UNL     1     -10.360  -7.660   2.585  1.00  0.00     0.074 A 
ATOM     46  C   UNL     1      -9.428  -7.378   3.654  1.00  0.00     0.031 C 
ATOM     47  C   UNL     1      -7.806  -4.487  -2.396  1.00  0.00     0.029 A 
ATOM     48  C   UNL     1      -8.991  -5.342  -2.401  1.00  0.00     0.049 A 
ATOM     49  H   UNL     1      -9.839  -6.336  -0.780  1.00  0.00     0.167 HD
ATOM     50  C   UNL     1     -11.491  -8.388   2.734  1.00  0.00     0.037 A 
ATOM     51  C   UNL     1      -9.755  -5.630  -3.471  1.00  0.00     0.037 A 
ATOM     52  C   UNL     1     -12.399  -8.694   1.663  1.00  0.00     0.049 A 
ATOM     53  C   UNL     1     -10.943  -6.539  -3.304  1.00  0.00     0.074 A 
ATOM     54  C   UNL     1     -13.572  -9.427   1.705  1.00  0.00     0.029 A 
ATOM     55  N   UNL     1     -12.223  -8.294   0.347  1.00  0.00    -0.354 N 
ATOM     56  N   UNL     1     -11.413  -7.097  -2.215  1.00  0.00    -0.248 NA
ATOM     57  C   UNL     1     -11.704  -6.860  -4.520  1.00  0.00     0.031 C 
ATOM     58  C   UNL     1     -14.083  -9.506   0.404  1.00  0.00     0.029 A 
ATOM     59  C   UNL     1     -13.249  -8.788  -0.439  1.00  0.00     0.049 A 
ATOM     60  H   UNL     1     -11.478  -7.739   0.020  1.00  0.00     0.167 HD
ATOM     61  C   UNL     1     -12.535  -7.816  -2.608  1.00  0.00     0.074 A 
ATOM     62  C   UNL     1     -12.681  -7.613  -4.035  1.00  0.00     0.031 C 
ATOM     63  C   UNL     1     -13.371  -8.575  -1.858  1.00  0.00     0.037 A 
BRANCH  50  64
ATOM     64  C   UNL     1     -11.783  -8.921   4.104  1.00  0.00     0.057 A 
ATOM     65  C   UNL     1     -11.618 -10.280   4.393  1.00  0.00     0.134 A 
ATOM     66  C   UNL     1     -12.225  -8.086   5.138  1.00  0.00     0.134 A 
ATOM     67  F   UNL     1     -11.194 -11.131   3.447  1.00  0.00    -0.206 F 
ATOM     68  C   UNL     1     -11.882 -10.791   5.665  1.00  0.00     0.040 A 
ATOM     69  C   UNL     1     -12.473  -8.582   6.420  1.00  0.00     0.040 A 
ATOM     70  F   UNL     1     -12.383  -6.770   4.930  1.00  0.00    -0.206 F 
ATOM     71  C   UNL     1     -12.305  -9.940   6.684  1.00  0.00     0.006 A 
ENDBRANCH  50  64
BRANCH  51  72
ATOM     72  C   UNL     1      -9.413  -5.076  -4.804  1.00  0.00     0.057 A 
ATOM     73  C   UNL     1      -8.295  -5.529  -5.514  1.00  0.00     0.134 A 
ATOM     74  C   UNL     1     -10.219  -4.109  -5.414  1.00  0.00     0.134 A 
ATOM     75  F   UNL     1      -7.486  -6.457  -4.983  1.00  0.00    -0.206 F 
ATOM     76  C   UNL     1      -7.987  -5.037  -6.783  1.00  0.00     0.040 A 
ATOM     77  C   UNL     1      -9.935  -3.623  -6.691  1.00  0.00     0.040 A 
ATOM     78  F   UNL     1     -11.317  -3.656  -4.792  1.00  0.00    -0.206 F 
ATOM     79  C   UNL     1      -8.814  -4.085  -7.378  1.00  0.00     0.006 A 
ENDBRANCH  51  72
BRANCH  63  80
ATOM     80  C   UNL     1     -14.525  -9.219  -2.567  1.00  0.00     0.057 A 
ATOM     81  C   UNL     1     -15.829  -8.739  -2.390  1.00  0.00     0.134 A 
ATOM     82  C   UNL     1     -14.349 -10.326  -3.405  1.00  0.00     0.134 A 
ATOM     83  F   UNL     1     -16.065  -7.685  -1.594  1.00  0.00    -0.206 F 
ATOM     84  C   UNL     1     -16.918  -9.340  -3.021  1.00  0.00     0.040 A 
ATOM     85  C   UNL     1     -15.428 -10.922  -4.060  1.00  0.00     0.040 A 
ATOM     86  F   UNL     1     -13.122 -10.823  -3.627  1.00  0.00    -0.206 F 
ATOM     87  C   UNL     1     -16.718 -10.431  -3.864  1.00  0.00     0.006 A 
ENDBRANCH  63  80
ENDBRANCH  37  38
ENDBRANCH  30  32
ENDBRANCH  29  30
ENDBRANCH  28  29
ENDBRANCH  27  28
ENDBRANCH  26  27
ENDBRANCH   1  26
TORSDOF 19
