REMARK SMILES CNC(=O)c1ccc(Cl)cc1NC(=O)[C@H]1[C@@H](C(=O)OCCOCCOC(=O)c2ccc(-c3c4nc(c(-c5c(F)cccc5F)c5ccc([nH]5)c(-c5c(F)cccc5F)c5nc(c(-c6c(F)cccc6F)c6ccc3[nH]6)C=C5)C=C4)cc2)[C@H]2C=C[C@@H]1C2
REMARK SMILES IDX 21 1 20 2 19 3 17 4 18 5 16 6 15 7 85 8 82 9 84 10 86 11
REMARK SMILES IDX 83 12 13 13 12 14 14 16 11 17 5 18 6 19 7 20 10 21 8 22 9 23
REMARK SMILES IDX 3 24 1 25 2 26 4 28 22 29 23 30 24 31 25 32 26 33 27 34
REMARK SMILES IDX 28 35 29 36 81 37 30 38 80 39 31 40 32 41 33 42 74 43 34 44
REMARK SMILES IDX 79 45 73 46 75 47 35 48 78 49 72 50 71 51 36 53 62 54 45 55
REMARK SMILES IDX 61 56 46 57 49 58 60 59 76 60 47 61 48 62 59 64 77 65 50 66
REMARK SMILES IDX 37 67 38 68 43 69 39 70 40 71 42 72 44 73 41 74 63 75 64 76
REMARK SMILES IDX 69 77 65 78 66 79 68 80 70 81 67 82 51 83 52 84 57 85 53 86
REMARK SMILES IDX 54 87 56 88 58 89 55 90
REMARK H PARENT 12 15 2 27 75 52 49 63
REMARK Flexibility Score: inf
ROOT
ATOM      1  C   UNL     1      -0.371   7.892  -0.205  1.00  0.00     0.202 C 
ENDROOT
BRANCH   1   2
ATOM      2  C   UNL     1       0.599   8.299   0.912  1.00  0.00     0.261 C 
BRANCH   2   3
ATOM      3  O   UNL     1       0.452   7.455   2.073  1.00  0.00    -0.463 OA
BRANCH   3   4
ATOM      4  C   UNL     1       0.759   8.021   3.258  1.00  0.00     0.310 C 
ATOM      5  O   UNL     1       1.244   9.143   3.376  1.00  0.00    -0.252 OA
BRANCH   4   6
ATOM      6  C   UNL     1       0.457   7.162   4.477  1.00  0.00     0.119 C 
ATOM      7  C   UNL     1      -0.162   5.720   4.443  1.00  0.00     0.100 C 
ATOM      8  C   UNL     1      -1.508   5.918   5.201  1.00  0.00     0.025 C 
ATOM      9  C   UNL     1      -0.546   7.927   5.390  1.00  0.00     0.027 C 
ATOM     10  C   UNL     1      -2.400   6.914   4.501  1.00  0.00    -0.027 C 
ATOM     11  C   UNL     1      -1.017   6.823   6.342  1.00  0.00     0.017 C 
ATOM     12  C   UNL     1      -1.835   8.121   4.628  1.00  0.00    -0.027 C 
BRANCH   7  13
ATOM     13  C   UNL     1      -0.263   4.902   3.166  1.00  0.00     0.228 C 
ATOM     14  N   UNL     1       0.848   4.637   2.404  1.00  0.00    -0.325 N 
ATOM     15  H   UNL     1       0.664   4.157   1.564  1.00  0.00     0.169 HD
ATOM     16  O   UNL     1      -1.342   4.426   2.801  1.00  0.00    -0.274 OA
BRANCH  14  17
ATOM     17  C   UNL     1       2.211   4.938   2.626  1.00  0.00     0.055 A 
ATOM     18  C   UNL     1       3.053   5.240   1.545  1.00  0.00     0.063 A 
ATOM     19  C   UNL     1       4.324   5.796   1.742  1.00  0.00     0.017 A 
ATOM     20  C   UNL     1       4.815   5.944   3.033  1.00  0.00     0.021 A 
ATOM     21  C   UNL     1       2.776   4.962   3.899  1.00  0.00     0.047 A 
ATOM     22  C   UNL     1       4.058   5.480   4.102  1.00  0.00     0.043 A 
ATOM     23  Cl  UNL     1       4.690   5.563   5.699  1.00  0.00    -0.084 Cl
BRANCH  18  24
ATOM     24  C   UNL     1       2.636   4.989   0.164  1.00  0.00     0.253 C 
ATOM     25  C   UNL     1       4.411   3.205  -0.158  1.00  0.00     0.143 C 
ATOM     26  N   UNL     1       3.316   4.058  -0.562  1.00  0.00    -0.355 N 
ATOM     27  H   UNL     1       3.019   3.951  -1.495  1.00  0.00     0.163 HD
ATOM     28  O   UNL     1       1.675   5.577  -0.313  1.00  0.00    -0.269 OA
ENDBRANCH  18  24
ENDBRANCH  14  17
ENDBRANCH   7  13
ENDBRANCH   4   6
ENDBRANCH   3   4
ENDBRANCH   2   3
ENDBRANCH   1   2
BRANCH   1  29
ATOM     29  O   UNL     1      -1.749   8.052   0.143  1.00  0.00    -0.374 OA
BRANCH  29  30
ATOM     30  C   UNL     1      -2.293   6.989   0.930  1.00  0.00     0.202 C 
BRANCH  30  31
ATOM     31  C   UNL     1      -2.755   5.762   0.138  1.00  0.00     0.261 C 
BRANCH  31  32
ATOM     32  O   UNL     1      -1.657   4.976  -0.378  1.00  0.00    -0.460 OA
BRANCH  32  33
ATOM     33  C   UNL     1      -1.609   4.872  -1.728  1.00  0.00     0.338 C 
ATOM     34  O   UNL     1      -2.387   5.368  -2.525  1.00  0.00    -0.246 OA
BRANCH  33  35
ATOM     35  C   UNL     1      -0.430   4.094  -2.187  1.00  0.00     0.060 A 
ATOM     36  C   UNL     1       0.184   4.510  -3.376  1.00  0.00     0.016 A 
ATOM     37  C   UNL     1       0.016   2.932  -1.548  1.00  0.00     0.016 A 
ATOM     38  C   UNL     1       1.212   3.758  -3.952  1.00  0.00     0.010 A 
ATOM     39  C   UNL     1       1.049   2.175  -2.129  1.00  0.00     0.010 A 
ATOM     40  C   UNL     1       1.637   2.570  -3.349  1.00  0.00    -0.014 A 
BRANCH  40  41
ATOM     41  C   UNL     1       2.588   1.679  -4.069  1.00  0.00     0.031 A 
ATOM     42  C   UNL     1       2.041   0.505  -4.832  1.00  0.00     0.074 A 
ATOM     43  C   UNL     1       3.915   1.912  -4.097  1.00  0.00     0.049 A 
ATOM     44  N   UNL     1       2.672  -0.327  -5.622  1.00  0.00    -0.248 NA
ATOM     45  C   UNL     1       0.593   0.263  -4.733  1.00  0.00     0.031 C 
ATOM     46  C   UNL     1       4.599   3.062  -3.516  1.00  0.00     0.029 A 
ATOM     47  N   UNL     1       4.938   1.159  -4.623  1.00  0.00    -0.354 N 
ATOM     48  C   UNL     1       1.689  -1.130  -6.181  1.00  0.00     0.074 A 
ATOM     49  C   UNL     1       0.434  -0.760  -5.561  1.00  0.00     0.031 C 
ATOM     50  C   UNL     1       5.928   2.874  -3.591  1.00  0.00     0.029 A 
ATOM     51  C   UNL     1       6.189   1.625  -4.297  1.00  0.00     0.049 A 
ATOM     52  H   UNL     1       4.789   0.361  -5.180  1.00  0.00     0.167 HD
ATOM     53  C   UNL     1       1.810  -2.050  -7.165  1.00  0.00     0.037 A 
ATOM     54  C   UNL     1       7.410   1.118  -4.554  1.00  0.00     0.037 A 
ATOM     55  C   UNL     1       3.057  -2.449  -7.759  1.00  0.00     0.049 A 
ATOM     56  C   UNL     1       7.537  -0.055  -5.484  1.00  0.00     0.074 A 
ATOM     57  C   UNL     1       3.275  -3.338  -8.797  1.00  0.00     0.029 A 
ATOM     58  N   UNL     1       4.303  -2.009  -7.342  1.00  0.00    -0.354 N 
ATOM     59  N   UNL     1       6.593  -0.714  -6.109  1.00  0.00    -0.248 NA
ATOM     60  C   UNL     1       8.899  -0.509  -5.802  1.00  0.00     0.031 C 
ATOM     61  C   UNL     1       4.657  -3.482  -8.967  1.00  0.00     0.029 A 
ATOM     62  C   UNL     1       5.297  -2.647  -8.065  1.00  0.00     0.049 A 
ATOM     63  H   UNL     1       4.459  -1.341  -6.636  1.00  0.00     0.167 HD
ATOM     64  C   UNL     1       7.246  -1.598  -6.958  1.00  0.00     0.074 A 
ATOM     65  C   UNL     1       8.666  -1.416  -6.741  1.00  0.00     0.031 C 
ATOM     66  C   UNL     1       6.710  -2.454  -7.862  1.00  0.00     0.037 A 
BRANCH  53  67
ATOM     67  C   UNL     1       0.545  -2.671  -7.672  1.00  0.00     0.057 A 
ATOM     68  C   UNL     1      -0.348  -1.948  -8.476  1.00  0.00     0.134 A 
ATOM     69  C   UNL     1       0.225  -4.000  -7.377  1.00  0.00     0.134 A 
ATOM     70  F   UNL     1      -0.100  -0.666  -8.784  1.00  0.00    -0.206 F 
ATOM     71  C   UNL     1      -1.528  -2.521  -8.950  1.00  0.00     0.040 A 
ATOM     72  C   UNL     1      -0.943  -4.589  -7.862  1.00  0.00     0.040 A 
ATOM     73  F   UNL     1       1.040  -4.743  -6.614  1.00  0.00    -0.206 F 
ATOM     74  C   UNL     1      -1.825  -3.848  -8.646  1.00  0.00     0.006 A 
ENDBRANCH  53  67
BRANCH  54  75
ATOM     75  C   UNL     1       8.619   1.746  -3.968  1.00  0.00     0.057 A 
ATOM     76  C   UNL     1       9.507   2.494  -4.748  1.00  0.00     0.134 A 
ATOM     77  C   UNL     1       8.938   1.567  -2.616  1.00  0.00     0.134 A 
ATOM     78  F   UNL     1       9.262   2.684  -6.052  1.00  0.00    -0.206 F 
ATOM     79  C   UNL     1      10.683   3.021  -4.212  1.00  0.00     0.040 A 
ATOM     80  C   UNL     1      10.104   2.099  -2.064  1.00  0.00     0.040 A 
ATOM     81  F   UNL     1       8.123   0.864  -1.816  1.00  0.00    -0.206 F 
ATOM     82  C   UNL     1      10.985   2.822  -2.866  1.00  0.00     0.006 A 
ENDBRANCH  54  75
BRANCH  66  83
ATOM     83  C   UNL     1       7.659  -3.217  -8.737  1.00  0.00     0.057 A 
ATOM     84  C   UNL     1       8.439  -4.272  -8.248  1.00  0.00     0.134 A 
ATOM     85  C   UNL     1       7.767  -2.911 -10.100  1.00  0.00     0.134 A 
ATOM     86  F   UNL     1       8.396  -4.604  -6.949  1.00  0.00    -0.206 F 
ATOM     87  C   UNL     1       9.306  -4.983  -9.080  1.00  0.00     0.040 A 
ATOM     88  C   UNL     1       8.609  -3.631 -10.947  1.00  0.00     0.040 A 
ATOM     89  F   UNL     1       7.044  -1.914 -10.634  1.00  0.00    -0.206 F 
ATOM     90  C   UNL     1       9.386  -4.668 -10.435  1.00  0.00     0.006 A 
ENDBRANCH  66  83
ENDBRANCH  40  41
ENDBRANCH  33  35
ENDBRANCH  32  33
ENDBRANCH  31  32
ENDBRANCH  30  31
ENDBRANCH  29  30
ENDBRANCH   1  29
TORSDOF 17
