REMARK SMILES Cc1ccc(-c2cc(C(=O)OCCOCCOC(=O)c3ccc(-c4c5nc(c(-c6c(F)cccc6F)c6ccc([nH]6)c(-c6c(F)cccc6F)c6nc(c(-c7c(F)cccc7F)c7ccc4[nH]7)C=C6)C=C5)cc3)c3cc(C)ccc3n2)c(C)c1
REMARK SMILES IDX 15 1 14 2 13 3 12 4 11 5 9 6 10 7 8 8 6 9 7 10 81 11 80 12
REMARK SMILES IDX 74 13 79 14 75 15 78 16 76 17 77 18 5 19 1 20 2 21 3 22
REMARK SMILES IDX 84 23 4 24 82 25 83 26 16 27 17 28 18 29 19 30 20 31 21 32
REMARK SMILES IDX 73 33 22 34 72 35 23 36 24 37 25 38 66 39 26 40 71 41 65 42
REMARK SMILES IDX 67 43 27 44 70 45 64 46 63 47 28 49 54 50 37 51 53 52 38 53
REMARK SMILES IDX 41 54 52 55 68 56 39 57 40 58 51 60 69 61 42 62 29 63 30 64
REMARK SMILES IDX 35 65 31 66 32 67 34 68 36 69 33 70 55 71 56 72 61 73 57 74
REMARK SMILES IDX 58 75 60 76 62 77 59 78 43 79 44 80 49 81 45 82 46 83 48 84
REMARK SMILES IDX 50 85 47 86
REMARK H PARENT 67 48 41 59
REMARK Flexibility Score: inf
ROOT
ATOM      1  C   UNL     1      -2.819  -6.183   2.241  1.00  0.00     0.202 C 
ENDROOT
BRANCH   1   2
ATOM      2  O   UNL     1      -3.309  -6.527   3.537  1.00  0.00    -0.374 OA
BRANCH   2   3
ATOM      3  C   UNL     1      -4.726  -6.516   3.727  1.00  0.00     0.202 C 
BRANCH   3   4
ATOM      4  C   UNL     1      -5.353  -5.129   3.869  1.00  0.00     0.261 C 
BRANCH   4   5
ATOM      5  O   UNL     1      -5.292  -4.442   2.607  1.00  0.00    -0.460 OA
BRANCH   5   6
ATOM      6  C   UNL     1      -4.813  -3.179   2.654  1.00  0.00     0.338 C 
ATOM      7  O   UNL     1      -4.596  -2.521   3.660  1.00  0.00    -0.246 OA
BRANCH   6   8
ATOM      8  C   UNL     1      -4.372  -2.744   1.310  1.00  0.00     0.071 A 
ATOM      9  C   UNL     1      -2.631  -1.669   0.081  1.00  0.00     0.072 A 
ATOM     10  C   UNL     1      -3.104  -2.159   1.281  1.00  0.00     0.045 A 
ATOM     11  N   UNL     1      -3.350  -1.739  -1.059  1.00  0.00    -0.248 NA
ATOM     12  C   UNL     1      -4.568  -2.307  -1.034  1.00  0.00     0.072 A 
ATOM     13  C   UNL     1      -5.146  -2.855   0.130  1.00  0.00     0.015 A 
ATOM     14  C   UNL     1      -5.286  -2.333  -2.219  1.00  0.00     0.029 A 
ATOM     15  C   UNL     1      -6.435  -3.444   0.033  1.00  0.00     0.014 A 
ATOM     16  C   UNL     1      -6.554  -2.911  -2.306  1.00  0.00     0.005 A 
ATOM     17  C   UNL     1      -7.138  -3.481  -1.179  1.00  0.00    -0.050 A 
ATOM     18  C   UNL     1      -8.468  -4.169  -1.265  1.00  0.00     0.044 C 
BRANCH   9  19
ATOM     19  C   UNL     1      -1.345  -0.969   0.003  1.00  0.00     0.003 A 
ATOM     20  C   UNL     1       2.507   1.013  -0.028  1.00  0.00     0.044 C 
ATOM     21  C   UNL     1       1.181   0.312  -0.029  1.00  0.00    -0.051 A 
ATOM     22  C   UNL     1       1.098  -1.081  -0.033  1.00  0.00     0.004 A 
ATOM     23  C   UNL     1      -0.001   1.061  -0.022  1.00  0.00     0.007 A 
ATOM     24  C   UNL     1      -0.149  -1.712  -0.019  1.00  0.00     0.011 A 
ATOM     25  C   UNL     1      -1.263   0.440   0.000  1.00  0.00    -0.041 A 
ATOM     26  C   UNL     1      -2.480   1.327  -0.002  1.00  0.00     0.045 C 
ENDBRANCH   9  19
ENDBRANCH   6   8
ENDBRANCH   5   6
ENDBRANCH   4   5
ENDBRANCH   3   4
ENDBRANCH   2   3
ENDBRANCH   1   2
BRANCH   1  27
ATOM     27  C   UNL     1      -2.858  -7.297   1.189  1.00  0.00     0.261 C 
BRANCH  27  28
ATOM     28  O   UNL     1      -4.202  -7.684   0.851  1.00  0.00    -0.460 OA
BRANCH  28  29
ATOM     29  C   UNL     1      -4.579  -8.895   1.321  1.00  0.00     0.338 C 
ATOM     30  O   UNL     1      -3.893  -9.700   1.937  1.00  0.00    -0.246 OA
BRANCH  29  31
ATOM     31  C   UNL     1      -6.029  -9.082   1.135  1.00  0.00     0.060 A 
ATOM     32  C   UNL     1      -6.782  -9.460   2.254  1.00  0.00     0.016 A 
ATOM     33  C   UNL     1      -6.630  -8.971  -0.120  1.00  0.00     0.016 A 
ATOM     34  C   UNL     1      -8.131  -9.777   2.113  1.00  0.00     0.010 A 
ATOM     35  C   UNL     1      -7.982  -9.300  -0.262  1.00  0.00     0.010 A 
ATOM     36  C   UNL     1      -8.729  -9.738   0.847  1.00  0.00    -0.014 A 
BRANCH  36  37
ATOM     37  C   UNL     1     -10.091 -10.293   0.664  1.00  0.00     0.031 A 
ATOM     38  C   UNL     1     -10.244 -11.692   0.132  1.00  0.00     0.074 A 
ATOM     39  C   UNL     1     -11.178  -9.577   1.002  1.00  0.00     0.049 A 
ATOM     40  N   UNL     1     -11.334 -12.364  -0.138  1.00  0.00    -0.248 NA
ATOM     41  C   UNL     1      -8.999 -12.434  -0.128  1.00  0.00     0.031 C 
ATOM     42  C   UNL     1     -11.160  -8.232   1.574  1.00  0.00     0.029 A 
ATOM     43  N   UNL     1     -12.511  -9.887   0.909  1.00  0.00    -0.354 N 
ATOM     44  C   UNL     1     -10.909 -13.605  -0.595  1.00  0.00     0.074 A 
ATOM     45  C   UNL     1      -9.462 -13.582  -0.600  1.00  0.00     0.031 C 
ATOM     46  C   UNL     1     -12.427  -7.828   1.774  1.00  0.00     0.029 A 
ATOM     47  C   UNL     1     -13.342  -8.873   1.317  1.00  0.00     0.049 A 
ATOM     48  H   UNL     1     -12.842 -10.755   0.580  1.00  0.00     0.167 HD
ATOM     49  C   UNL     1     -11.656 -14.672  -0.964  1.00  0.00     0.037 A 
ATOM     50  C   UNL     1     -14.686  -8.792   1.304  1.00  0.00     0.037 A 
ATOM     51  C   UNL     1     -13.095 -14.695  -0.966  1.00  0.00     0.049 A 
ATOM     52  C   UNL     1     -15.493  -9.960   0.800  1.00  0.00     0.074 A 
ATOM     53  C   UNL     1     -13.942 -15.726  -1.333  1.00  0.00     0.029 A 
ATOM     54  N   UNL     1     -13.899 -13.632  -0.585  1.00  0.00    -0.354 N 
ATOM     55  N   UNL     1     -15.081 -11.131   0.378  1.00  0.00    -0.248 NA
ATOM     56  C   UNL     1     -16.954  -9.793   0.772  1.00  0.00     0.031 C 
ATOM     57  C   UNL     1     -15.260 -15.274  -1.209  1.00  0.00     0.029 A 
ATOM     58  C   UNL     1     -15.234 -13.977  -0.724  1.00  0.00     0.049 A 
ATOM     59  H   UNL     1     -13.571 -12.762  -0.262  1.00  0.00     0.167 HD
ATOM     60  C   UNL     1     -16.229 -11.850   0.067  1.00  0.00     0.074 A 
ATOM     61  C   UNL     1     -17.355 -10.987   0.358  1.00  0.00     0.031 C 
ATOM     62  C   UNL     1     -16.343 -13.112  -0.414  1.00  0.00     0.037 A 
BRANCH  49  63
ATOM     63  C   UNL     1     -10.925 -15.903  -1.414  1.00  0.00     0.057 A 
ATOM     64  C   UNL     1     -10.246 -16.727  -0.507  1.00  0.00     0.134 A 
ATOM     65  C   UNL     1     -10.928 -16.286  -2.760  1.00  0.00     0.134 A 
ATOM     66  F   UNL     1     -10.194 -16.407   0.795  1.00  0.00    -0.206 F 
ATOM     67  C   UNL     1      -9.580 -17.880  -0.927  1.00  0.00     0.040 A 
ATOM     68  C   UNL     1     -10.285 -17.449  -3.189  1.00  0.00     0.040 A 
ATOM     69  F   UNL     1     -11.563 -15.543  -3.679  1.00  0.00    -0.206 F 
ATOM     70  C   UNL     1      -9.604 -18.247  -2.272  1.00  0.00     0.006 A 
ENDBRANCH  49  63
BRANCH  50  71
ATOM     71  C   UNL     1     -15.367  -7.557   1.769  1.00  0.00     0.057 A 
ATOM     72  C   UNL     1     -16.140  -7.551   2.936  1.00  0.00     0.134 A 
ATOM     73  C   UNL     1     -15.296  -6.367   1.036  1.00  0.00     0.134 A 
ATOM     74  F   UNL     1     -16.266  -8.668   3.667  1.00  0.00    -0.206 F 
ATOM     75  C   UNL     1     -16.836  -6.413   3.346  1.00  0.00     0.040 A 
ATOM     76  C   UNL     1     -15.967  -5.214   1.447  1.00  0.00     0.040 A 
ATOM     77  F   UNL     1     -14.572  -6.307  -0.092  1.00  0.00    -0.206 F 
ATOM     78  C   UNL     1     -16.747  -5.239   2.601  1.00  0.00     0.006 A 
ENDBRANCH  50  71
BRANCH  62  79
ATOM     79  C   UNL     1     -17.729 -13.652  -0.611  1.00  0.00     0.057 A 
ATOM     80  C   UNL     1     -18.549 -13.222  -1.661  1.00  0.00     0.134 A 
ATOM     81  C   UNL     1     -18.233 -14.644   0.240  1.00  0.00     0.134 A 
ATOM     82  F   UNL     1     -18.130 -12.265  -2.503  1.00  0.00    -0.206 F 
ATOM     83  C   UNL     1     -19.831 -13.743  -1.845  1.00  0.00     0.040 A 
ATOM     84  C   UNL     1     -19.503 -15.191   0.051  1.00  0.00     0.040 A 
ATOM     85  F   UNL     1     -17.494 -15.107   1.260  1.00  0.00    -0.206 F 
ATOM     86  C   UNL     1     -20.308 -14.736  -0.991  1.00  0.00     0.006 A 
ENDBRANCH  62  79
ENDBRANCH  36  37
ENDBRANCH  29  31
ENDBRANCH  28  29
ENDBRANCH  27  28
ENDBRANCH   1  27
TORSDOF 15
