REMARK SMILES O=C(OCCOCCOC(=O)[C@@H]1CCCC[C@H]1C(=O)Nc1cccc(-c2nnc(-c3ccccc3)o2)c1)c1ccc(-c2c3nc(c(-c4c(F)cccc4F)c4ccc([nH]4)c(-c4c(F)cccc4F)c4nc(c(-c5c(F)cccc5F)c5ccc2[nH]5)C=C4)C=C3)cc1
REMARK SMILES IDX 7 1 6 2 5 3 4 4 3 5 2 6 1 7 38 8 39 9 91 10 40 11 90 12
REMARK SMILES IDX 41 13 42 14 43 15 84 16 44 17 89 18 83 19 85 20 45 21 88 22
REMARK SMILES IDX 82 23 81 24 46 26 72 27 55 28 71 29 56 30 59 31 70 32 86 33
REMARK SMILES IDX 57 34 58 35 69 37 87 38 60 39 47 40 48 41 53 42 49 43 50 44
REMARK SMILES IDX 52 45 54 46 51 47 73 48 74 49 79 50 75 51 76 52 78 53 80 54
REMARK SMILES IDX 77 55 61 56 62 57 67 58 63 59 64 60 66 61 68 62 65 63 8 64
REMARK SMILES IDX 9 65 10 66 11 67 12 68 13 69 17 70 14 71 16 72 15 73 18 74
REMARK SMILES IDX 19 75 20 76 21 78 22 79 37 80 23 81 25 82 24 83 26 84 27 85
REMARK SMILES IDX 36 86 28 87 29 88 30 89 31 90 35 91 32 92 34 93 33 94
REMARK H PARENT 85 25 59 36 20 77
REMARK Flexibility Score: inf
ROOT
ATOM      1  C   UNL     1       2.854   1.995   1.136  1.00  0.00     0.202 C 
ENDROOT
BRANCH   1   2
ATOM      2  O   UNL     1       4.228   1.648   0.948  1.00  0.00    -0.374 OA
BRANCH   2   3
ATOM      3  C   UNL     1       4.667   1.144  -0.314  1.00  0.00     0.202 C 
BRANCH   3   4
ATOM      4  C   UNL     1       3.885   0.047  -1.071  1.00  0.00     0.261 C 
BRANCH   4   5
ATOM      5  O   UNL     1       2.485  -0.045  -0.746  1.00  0.00    -0.460 OA
BRANCH   5   6
ATOM      6  C   UNL     1       1.911  -1.094  -0.090  1.00  0.00     0.338 C 
ATOM      7  O   UNL     1       0.719  -1.342  -0.225  1.00  0.00    -0.246 OA
BRANCH   6   8
ATOM      8  C   UNL     1       2.732  -1.909   0.845  1.00  0.00     0.060 A 
ATOM      9  C   UNL     1       3.870  -1.381   1.431  1.00  0.00     0.016 A 
ATOM     10  C   UNL     1       2.354  -3.204   1.206  1.00  0.00     0.016 A 
ATOM     11  C   UNL     1       4.745  -2.131   2.162  1.00  0.00     0.010 A 
ATOM     12  C   UNL     1       3.146  -3.932   2.108  1.00  0.00     0.010 A 
ATOM     13  C   UNL     1       4.354  -3.391   2.572  1.00  0.00    -0.014 A 
BRANCH  13  14
ATOM     14  C   UNL     1       5.315  -4.069   3.451  1.00  0.00     0.031 A 
ATOM     15  C   UNL     1       6.094  -5.210   2.894  1.00  0.00     0.074 A 
ATOM     16  C   UNL     1       5.638  -3.475   4.620  1.00  0.00     0.049 A 
ATOM     17  N   UNL     1       7.003  -5.942   3.474  1.00  0.00    -0.248 NA
ATOM     18  C   UNL     1       5.832  -5.566   1.488  1.00  0.00     0.031 C 
ATOM     19  C   UNL     1       5.033  -2.237   5.137  1.00  0.00     0.029 A 
ATOM     20  N   UNL     1       6.597  -3.776   5.544  1.00  0.00    -0.354 N 
ATOM     21  C   UNL     1       7.394  -6.868   2.520  1.00  0.00     0.074 A 
ATOM     22  C   UNL     1       6.626  -6.612   1.323  1.00  0.00     0.031 C 
ATOM     23  C   UNL     1       5.673  -1.862   6.253  1.00  0.00     0.029 A 
ATOM     24  C   UNL     1       6.647  -2.887   6.592  1.00  0.00     0.049 A 
ATOM     25  H   UNL     1       7.196  -4.554   5.468  1.00  0.00     0.167 HD
ATOM     26  C   UNL     1       8.314  -7.848   2.654  1.00  0.00     0.037 A 
ATOM     27  C   UNL     1       7.365  -2.936   7.727  1.00  0.00     0.037 A 
ATOM     28  C   UNL     1       9.052  -8.059   3.868  1.00  0.00     0.049 A 
ATOM     29  C   UNL     1       8.286  -4.110   7.896  1.00  0.00     0.074 A 
ATOM     30  C   UNL     1       9.927  -9.079   4.187  1.00  0.00     0.029 A 
ATOM     31  N   UNL     1       8.998  -7.213   4.971  1.00  0.00    -0.354 N 
ATOM     32  N   UNL     1       8.564  -5.069   7.042  1.00  0.00    -0.248 NA
ATOM     33  C   UNL     1       8.975  -4.228   9.184  1.00  0.00     0.031 C 
ATOM     34  C   UNL     1      10.371  -8.870   5.498  1.00  0.00     0.029 A 
ATOM     35  C   UNL     1       9.817  -7.691   5.976  1.00  0.00     0.049 A 
ATOM     36  H   UNL     1       8.456  -6.393   5.026  1.00  0.00     0.167 HD
ATOM     37  C   UNL     1       9.465  -5.902   7.685  1.00  0.00     0.074 A 
ATOM     38  C   UNL     1       9.714  -5.310   8.987  1.00  0.00     0.031 C 
ATOM     39  C   UNL     1      10.030  -7.057   7.255  1.00  0.00     0.037 A 
BRANCH  26  40
ATOM     40  C   UNL     1       8.481  -8.782   1.496  1.00  0.00     0.057 A 
ATOM     41  C   UNL     1       9.098  -8.391   0.300  1.00  0.00     0.134 A 
ATOM     42  C   UNL     1       7.963 -10.082   1.560  1.00  0.00     0.134 A 
ATOM     43  F   UNL     1       9.574  -7.144   0.156  1.00  0.00    -0.206 F 
ATOM     44  C   UNL     1       9.177  -9.253  -0.796  1.00  0.00     0.040 A 
ATOM     45  C   UNL     1       8.056 -10.960   0.479  1.00  0.00     0.040 A 
ATOM     46  F   UNL     1       7.342 -10.513   2.668  1.00  0.00    -0.206 F 
ATOM     47  C   UNL     1       8.658 -10.543  -0.706  1.00  0.00     0.006 A 
ENDBRANCH  26  40
BRANCH  27  48
ATOM     48  C   UNL     1       7.165  -1.931   8.805  1.00  0.00     0.057 A 
ATOM     49  C   UNL     1       8.205  -1.111   9.255  1.00  0.00     0.134 A 
ATOM     50  C   UNL     1       5.925  -1.797   9.449  1.00  0.00     0.134 A 
ATOM     51  F   UNL     1       9.422  -1.196   8.698  1.00  0.00    -0.206 F 
ATOM     52  C   UNL     1       8.031  -0.222  10.320  1.00  0.00     0.040 A 
ATOM     53  C   UNL     1       5.727  -0.888  10.490  1.00  0.00     0.040 A 
ATOM     54  F   UNL     1       4.880  -2.549   9.073  1.00  0.00    -0.206 F 
ATOM     55  C   UNL     1       6.788  -0.107  10.938  1.00  0.00     0.006 A 
ENDBRANCH  27  48
BRANCH  39  56
ATOM     56  C   UNL     1      10.986  -7.717   8.199  1.00  0.00     0.057 A 
ATOM     57  C   UNL     1      10.549  -8.355   9.366  1.00  0.00     0.134 A 
ATOM     58  C   UNL     1      12.358  -7.729   7.921  1.00  0.00     0.134 A 
ATOM     59  F   UNL     1       9.248  -8.361   9.692  1.00  0.00    -0.206 F 
ATOM     60  C   UNL     1      11.450  -8.954  10.244  1.00  0.00     0.040 A 
ATOM     61  C   UNL     1      13.264  -8.354   8.774  1.00  0.00     0.040 A 
ATOM     62  F   UNL     1      12.835  -7.142   6.813  1.00  0.00    -0.206 F 
ATOM     63  C   UNL     1      12.812  -8.960   9.945  1.00  0.00     0.006 A 
ENDBRANCH  39  56
ENDBRANCH  13  14
ENDBRANCH   6   8
ENDBRANCH   5   6
ENDBRANCH   4   5
ENDBRANCH   3   4
ENDBRANCH   2   3
ENDBRANCH   1   2
BRANCH   1  64
ATOM     64  C   UNL     1       2.747   3.051   2.244  1.00  0.00     0.261 C 
BRANCH  64  65
ATOM     65  O   UNL     1       3.198   4.301   1.712  1.00  0.00    -0.463 OA
BRANCH  65  66
ATOM     66  C   UNL     1       4.548   4.405   1.596  1.00  0.00     0.309 C 
ATOM     67  O   UNL     1       5.346   4.069   2.462  1.00  0.00    -0.252 OA
BRANCH  66  68
ATOM     68  C   UNL     1       4.893   4.764   0.152  1.00  0.00     0.111 C 
ATOM     69  C   UNL     1       6.414   4.706  -0.046  1.00  0.00     0.016 C 
ATOM     70  C   UNL     1       4.176   6.042  -0.310  1.00  0.00     0.093 C 
ATOM     71  C   UNL     1       6.902   5.431  -1.287  1.00  0.00     0.001 C 
ATOM     72  C   UNL     1       4.878   6.871  -1.393  1.00  0.00     0.014 C 
ATOM     73  C   UNL     1       6.394   6.860  -1.277  1.00  0.00     0.001 C 
BRANCH  70  74
ATOM     74  C   UNL     1       2.693   5.799  -0.673  1.00  0.00     0.228 C 
ATOM     75  O   UNL     1       1.820   6.228   0.095  1.00  0.00    -0.274 OA
ATOM     76  N   UNL     1       2.223   5.217  -1.819  1.00  0.00    -0.326 N 
ATOM     77  H   UNL     1       1.244   5.112  -1.832  1.00  0.00     0.169 HD
BRANCH  76  78
ATOM     78  C   UNL     1       2.851   4.741  -2.980  1.00  0.00     0.041 A 
ATOM     79  C   UNL     1       2.432   5.253  -4.204  1.00  0.00     0.026 A 
ATOM     80  C   UNL     1       3.844   3.769  -2.978  1.00  0.00     0.040 A 
ATOM     81  C   UNL     1       3.102   4.897  -5.379  1.00  0.00     0.003 A 
ATOM     82  C   UNL     1       4.551   3.411  -4.136  1.00  0.00     0.041 A 
ATOM     83  C   UNL     1       4.178   4.005  -5.341  1.00  0.00     0.014 A 
BRANCH  82  84
ATOM     84  C   UNL     1       5.755   2.595  -4.038  1.00  0.00     0.248 A 
ATOM     85  N   UNL     1       7.007   2.993  -4.117  1.00  0.00    -0.107 NA
ATOM     86  O   UNL     1       5.639   1.267  -3.695  1.00  0.00    -0.416 OA
ATOM     87  N   UNL     1       7.786   1.911  -3.779  1.00  0.00    -0.107 NA
ATOM     88  C   UNL     1       6.964   0.905  -3.562  1.00  0.00     0.248 A 
BRANCH  88  89
ATOM     89  C   UNL     1       7.281  -0.456  -3.144  1.00  0.00     0.039 A 
ATOM     90  C   UNL     1       8.359  -0.673  -2.268  1.00  0.00     0.014 A 
ATOM     91  C   UNL     1       6.590  -1.569  -3.639  1.00  0.00     0.014 A 
ATOM     92  C   UNL     1       8.738  -1.967  -1.898  1.00  0.00     0.001 A 
ATOM     93  C   UNL     1       6.980  -2.867  -3.281  1.00  0.00     0.001 A 
ATOM     94  C   UNL     1       8.053  -3.064  -2.411  1.00  0.00     0.000 A 
ENDBRANCH  88  89
ENDBRANCH  82  84
ENDBRANCH  76  78
ENDBRANCH  70  74
ENDBRANCH  66  68
ENDBRANCH  65  66
ENDBRANCH  64  65
ENDBRANCH   1  64
TORSDOF 18
