REMARK SMILES Cn1ccc(NC(=O)[C@@H]2CCCC[C@@H]2C(=O)OCCOCCOC(=O)c2ccc(-c3c4nc(c(-c5c(F)cccc5F)c5ccc([nH]5)c(-c5c(F)cccc5F)c5nc(c(-c6c(F)cccc6F)c6ccc3[nH]6)C=C5)C=C4)cc2)n1
REMARK SMILES IDX 20 1 19 2 18 3 17 4 15 5 16 6 14 7 9 8 10 9 11 10 13 11
REMARK SMILES IDX 12 12 7 13 6 14 8 16 5 17 1 18 2 19 3 20 80 21 4 22 21 23
REMARK SMILES IDX 22 24 23 25 24 26 25 27 26 28 27 29 79 30 28 31 78 32 29 33
REMARK SMILES IDX 30 34 31 35 72 36 32 37 77 38 71 39 73 40 33 41 76 42 70 43
REMARK SMILES IDX 69 44 34 46 60 47 43 48 59 49 44 50 47 51 58 52 74 53 45 54
REMARK SMILES IDX 46 55 57 57 75 58 48 59 35 60 36 61 41 62 37 63 38 64 40 65
REMARK SMILES IDX 42 66 39 67 61 68 62 69 67 70 63 71 64 72 66 73 68 74 65 75
REMARK SMILES IDX 49 76 50 77 55 78 51 79 52 80 54 81 56 82 53 83
REMARK H PARENT 6 15 73 45 47 56
REMARK Flexibility Score: inf
ROOT
ATOM      1  O   UNL     1       1.819   4.174   4.739  1.00  0.00    -0.374 OA
ENDROOT
BRANCH   1   2
ATOM      2  C   UNL     1       2.510   2.960   4.446  1.00  0.00     0.202 C 
BRANCH   2   3
ATOM      3  C   UNL     1       1.679   1.829   3.836  1.00  0.00     0.261 C 
BRANCH   3   4
ATOM      4  O   UNL     1       1.162   2.158   2.535  1.00  0.00    -0.463 OA
BRANCH   4   5
ATOM      5  C   UNL     1      -0.153   2.486   2.496  1.00  0.00     0.309 C 
ATOM      6  O   UNL     1      -0.881   2.491   3.483  1.00  0.00    -0.252 OA
BRANCH   5   7
ATOM      7  C   UNL     1      -0.680   2.722   1.084  1.00  0.00     0.111 C 
ATOM      8  C   UNL     1       0.244   3.328  -0.014  1.00  0.00     0.093 C 
ATOM      9  C   UNL     1       0.277   4.878   0.023  1.00  0.00     0.014 C 
ATOM     10  C   UNL     1      -1.090   5.534   0.158  1.00  0.00     0.001 C 
ATOM     11  C   UNL     1      -2.034   3.455   1.141  1.00  0.00     0.016 C 
ATOM     12  C   UNL     1      -1.871   4.955   1.323  1.00  0.00     0.001 C 
BRANCH   8  13
ATOM     13  C   UNL     1       1.698   2.812  -0.084  1.00  0.00     0.229 C 
ATOM     14  N   UNL     1       2.007   1.501  -0.285  1.00  0.00    -0.309 N 
ATOM     15  H   UNL     1       2.969   1.288  -0.275  1.00  0.00     0.171 HD
ATOM     16  O   UNL     1       2.655   3.585   0.059  1.00  0.00    -0.274 OA
BRANCH  14  17
ATOM     17  C   UNL     1       1.173   0.437  -0.499  1.00  0.00     0.154 A 
ATOM     18  C   UNL     1      -2.035  -0.848  -0.679  1.00  0.00     0.173 C 
ATOM     19  N   UNL     1      -0.601  -0.689  -0.700  1.00  0.00    -0.274 N 
ATOM     20  C   UNL     1       0.346  -1.614  -0.380  1.00  0.00     0.110 A 
ATOM     21  N   UNL     1      -0.093   0.535  -0.896  1.00  0.00    -0.155 NA
ATOM     22  C   UNL     1       1.528  -0.914  -0.283  1.00  0.00     0.068 A 
ENDBRANCH  14  17
ENDBRANCH   8  13
ENDBRANCH   5   7
ENDBRANCH   4   5
ENDBRANCH   3   4
ENDBRANCH   2   3
ENDBRANCH   1   2
BRANCH   1  23
ATOM     23  C   UNL     1       1.582   5.049   3.636  1.00  0.00     0.202 C 
BRANCH  23  24
ATOM     24  C   UNL     1       2.741   5.968   3.238  1.00  0.00     0.261 C 
BRANCH  24  25
ATOM     25  O   UNL     1       3.882   5.217   2.796  1.00  0.00    -0.460 OA
BRANCH  25  26
ATOM     26  C   UNL     1       4.916   5.196   3.667  1.00  0.00     0.338 C 
ATOM     27  O   UNL     1       5.026   5.833   4.700  1.00  0.00    -0.246 OA
BRANCH  26  28
ATOM     28  C   UNL     1       5.875   4.138   3.287  1.00  0.00     0.060 A 
ATOM     29  C   UNL     1       6.397   3.356   4.325  1.00  0.00     0.016 A 
ATOM     30  C   UNL     1       6.302   3.946   1.970  1.00  0.00     0.016 A 
ATOM     31  C   UNL     1       7.408   2.438   4.065  1.00  0.00     0.010 A 
ATOM     32  C   UNL     1       7.324   3.027   1.710  1.00  0.00     0.010 A 
ATOM     33  C   UNL     1       7.912   2.307   2.764  1.00  0.00    -0.014 A 
BRANCH  33  34
ATOM     34  C   UNL     1       9.169   1.552   2.563  1.00  0.00     0.031 A 
ATOM     35  C   UNL     1      10.466   2.312   2.526  1.00  0.00     0.074 A 
ATOM     36  C   UNL     1       9.159   0.211   2.482  1.00  0.00     0.049 A 
ATOM     37  N   UNL     1      11.689   1.863   2.410  1.00  0.00    -0.248 NA
ATOM     38  C   UNL     1      10.371   3.778   2.636  1.00  0.00     0.031 C 
ATOM     39  C   UNL     1       7.963  -0.628   2.540  1.00  0.00     0.029 A 
ATOM     40  N   UNL     1      10.191  -0.679   2.341  1.00  0.00    -0.354 N 
ATOM     41  C   UNL     1      12.506   2.987   2.438  1.00  0.00     0.074 A 
ATOM     42  C   UNL     1      11.641   4.141   2.545  1.00  0.00     0.031 C 
ATOM     43  C   UNL     1       8.331  -1.917   2.432  1.00  0.00     0.029 A 
ATOM     44  C   UNL     1       9.783  -1.988   2.280  1.00  0.00     0.049 A 
ATOM     45  H   UNL     1      11.136  -0.406   2.288  1.00  0.00     0.167 HD
ATOM     46  C   UNL     1      13.858   3.049   2.393  1.00  0.00     0.037 A 
ATOM     47  C   UNL     1      10.504  -3.113   2.113  1.00  0.00     0.037 A 
ATOM     48  C   UNL     1      14.713   1.898   2.283  1.00  0.00     0.049 A 
ATOM     49  C   UNL     1      12.003  -3.014   2.009  1.00  0.00     0.074 A 
ATOM     50  C   UNL     1      16.094   1.847   2.242  1.00  0.00     0.029 A 
ATOM     51  N   UNL     1      14.259   0.590   2.190  1.00  0.00    -0.354 N 
ATOM     52  N   UNL     1      12.767  -1.950   2.071  1.00  0.00    -0.248 NA
ATOM     53  C   UNL     1      12.739  -4.272   1.819  1.00  0.00     0.031 C 
ATOM     54  C   UNL     1      16.476   0.511   2.082  1.00  0.00     0.029 A 
ATOM     55  C   UNL     1      15.334  -0.274   2.068  1.00  0.00     0.049 A 
ATOM     56  H   UNL     1      13.314   0.317   2.208  1.00  0.00     0.167 HD
ATOM     57  C   UNL     1      14.073  -2.410   1.953  1.00  0.00     0.074 A 
ATOM     58  C   UNL     1      13.997  -3.852   1.828  1.00  0.00     0.031 C 
ATOM     59  C   UNL     1      15.231  -1.706   1.949  1.00  0.00     0.037 A 
BRANCH  46  60
ATOM     60  C   UNL     1      14.487   4.410   2.440  1.00  0.00     0.057 A 
ATOM     61  C   UNL     1      14.513   5.171   3.616  1.00  0.00     0.134 A 
ATOM     62  C   UNL     1      15.087   4.961   1.301  1.00  0.00     0.134 A 
ATOM     63  F   UNL     1      13.941   4.708   4.739  1.00  0.00    -0.206 F 
ATOM     64  C   UNL     1      15.093   6.441   3.651  1.00  0.00     0.040 A 
ATOM     65  C   UNL     1      15.690   6.219   1.330  1.00  0.00     0.040 A 
ATOM     66  F   UNL     1      15.098   4.284   0.143  1.00  0.00    -0.206 F 
ATOM     67  C   UNL     1      15.689   6.966   2.506  1.00  0.00     0.006 A 
ENDBRANCH  46  60
BRANCH  47  68
ATOM     68  C   UNL     1       9.820  -4.428   2.038  1.00  0.00     0.057 A 
ATOM     69  C   UNL     1       9.940  -5.371   3.065  1.00  0.00     0.134 A 
ATOM     70  C   UNL     1       9.035  -4.776   0.932  1.00  0.00     0.134 A 
ATOM     71  F   UNL     1      10.695  -5.105   4.141  1.00  0.00    -0.206 F 
ATOM     72  C   UNL     1       9.314  -6.617   2.990  1.00  0.00     0.040 A 
ATOM     73  C   UNL     1       8.386  -6.009   0.853  1.00  0.00     0.040 A 
ATOM     74  F   UNL     1       8.878  -3.915  -0.085  1.00  0.00    -0.206 F 
ATOM     75  C   UNL     1       8.530  -6.936   1.883  1.00  0.00     0.006 A 
ENDBRANCH  47  68
BRANCH  59  76
ATOM     76  C   UNL     1      16.506  -2.486   1.830  1.00  0.00     0.057 A 
ATOM     77  C   UNL     1      16.909  -3.060   0.618  1.00  0.00     0.134 A 
ATOM     78  C   UNL     1      17.362  -2.624   2.931  1.00  0.00     0.134 A 
ATOM     79  F   UNL     1      16.127  -2.972  -0.468  1.00  0.00    -0.206 F 
ATOM     80  C   UNL     1      18.110  -3.762   0.510  1.00  0.00     0.040 A 
ATOM     81  C   UNL     1      18.576  -3.303   2.828  1.00  0.00     0.040 A 
ATOM     82  F   UNL     1      17.038  -2.089   4.117  1.00  0.00    -0.206 F 
ATOM     83  C   UNL     1      18.951  -3.879   1.615  1.00  0.00     0.006 A 
ENDBRANCH  59  76
ENDBRANCH  33  34
ENDBRANCH  26  28
ENDBRANCH  25  26
ENDBRANCH  24  25
ENDBRANCH  23  24
ENDBRANCH   1  23
TORSDOF 16
