REMARK SMILES Cc1cc(C(=O)N[C@H](C(=O)OCCOCCOC(=O)c2ccc(-c3c4nc(c(-c5c(F)cccc5F)c5ccc([nH]5)c(-c5c(F)cccc5F)c5nc(c(-c6c(F)cccc6F)c6ccc3[nH]6)C=C5)C=C4)cc2)C(C)C)c(C)s1
REMARK SMILES IDX 14 1 13 2 12 3 11 4 9 5 10 6 8 7 7 8 5 9 6 10 4 12 1 13 2 14
REMARK SMILES IDX 3 15 79 16 77 17 78 18 74 19 75 20 76 21 15 22 16 23 17 24
REMARK SMILES IDX 18 25 19 26 20 27 21 28 73 29 22 30 72 31 23 32 24 33 25 34
REMARK SMILES IDX 66 35 26 36 71 37 65 38 67 39 27 40 70 41 64 42 63 43 28 45
REMARK SMILES IDX 54 46 37 47 53 48 38 49 41 50 52 51 68 52 39 53 40 54 51 56
REMARK SMILES IDX 69 57 42 58 29 59 30 60 35 61 31 62 32 63 34 64 36 65 33 66
REMARK SMILES IDX 55 67 56 68 61 69 57 70 58 71 60 72 62 73 59 74 43 75 44 76
REMARK SMILES IDX 49 77 45 78 46 79 48 80 50 81 47 82
REMARK H PARENT 7 11 67 44 41 55
REMARK Flexibility Score: inf
ROOT
ATOM      1  O   UNL     1       3.222  -2.484   0.970  1.00  0.00    -0.374 OA
ENDROOT
BRANCH   1   2
ATOM      2  C   UNL     1       3.574  -2.988  -0.314  1.00  0.00     0.202 C 
BRANCH   2   3
ATOM      3  C   UNL     1       2.907  -4.266  -0.839  1.00  0.00     0.261 C 
BRANCH   3   4
ATOM      4  O   UNL     1       1.479  -4.196  -0.927  1.00  0.00    -0.462 OA
BRANCH   4   5
ATOM      5  C   UNL     1       0.848  -4.577   0.225  1.00  0.00     0.328 C 
ATOM      6  O   UNL     1       1.436  -4.823   1.268  1.00  0.00    -0.250 OA
BRANCH   5   7
ATOM      7  C   UNL     1      -0.685  -4.550   0.040  1.00  0.00     0.195 C 
BRANCH   7   8
ATOM      8  N   UNL     1      -1.052  -5.540  -0.976  1.00  0.00    -0.338 N 
ATOM      9  C   UNL     1      -0.952  -6.909  -1.057  1.00  0.00     0.253 C 
ATOM     10  O   UNL     1      -1.441  -7.389  -2.082  1.00  0.00    -0.269 OA
ATOM     11  H   UNL     1      -1.460  -5.137  -1.776  1.00  0.00     0.164 HD
BRANCH   9  12
ATOM     12  C   UNL     1      -0.273  -7.747  -0.044  1.00  0.00     0.053 A 
ATOM     13  C   UNL     1       1.412  -8.229   3.338  1.00  0.00     0.056 C 
ATOM     14  C   UNL     1       0.815  -8.370   1.981  1.00  0.00     0.003 A 
ATOM     15  C   UNL     1       0.140  -7.401   1.283  1.00  0.00     0.029 A 
ATOM     16  S   UNL     1       0.884  -9.802   1.090  1.00  0.00    -0.145 S 
ATOM     17  C   UNL     1       0.057  -9.091  -0.251  1.00  0.00     0.014 A 
ATOM     18  C   UNL     1      -0.186  -9.990  -1.422  1.00  0.00     0.057 C 
ENDBRANCH   9  12
ENDBRANCH   7   8
BRANCH   7  19
ATOM     19  C   UNL     1      -1.605  -4.587   1.291  1.00  0.00     0.017 C 
ATOM     20  C   UNL     1      -1.109  -3.728   2.459  1.00  0.00     0.010 C 
ATOM     21  C   UNL     1      -3.039  -4.159   0.946  1.00  0.00     0.010 C 
ENDBRANCH   7  19
ENDBRANCH   5   7
ENDBRANCH   4   5
ENDBRANCH   3   4
ENDBRANCH   2   3
ENDBRANCH   1   2
BRANCH   1  22
ATOM     22  C   UNL     1       1.992  -1.781   1.129  1.00  0.00     0.202 C 
BRANCH  22  23
ATOM     23  C   UNL     1       1.889  -0.355   0.583  1.00  0.00     0.261 C 
BRANCH  23  24
ATOM     24  O   UNL     1       2.034  -0.309  -0.843  1.00  0.00    -0.460 OA
BRANCH  24  25
ATOM     25  C   UNL     1       3.229   0.159  -1.268  1.00  0.00     0.338 C 
ATOM     26  O   UNL     1       4.147   0.594  -0.584  1.00  0.00    -0.246 OA
BRANCH  25  27
ATOM     27  C   UNL     1       3.367  -0.108  -2.707  1.00  0.00     0.060 A 
ATOM     28  C   UNL     1       4.508  -0.797  -3.145  1.00  0.00     0.016 A 
ATOM     29  C   UNL     1       2.417   0.359  -3.614  1.00  0.00     0.016 A 
ATOM     30  C   UNL     1       4.732  -0.977  -4.505  1.00  0.00     0.010 A 
ATOM     31  C   UNL     1       2.651   0.196  -4.976  1.00  0.00     0.010 A 
ATOM     32  C   UNL     1       3.828  -0.434  -5.424  1.00  0.00    -0.014 A 
BRANCH  32  33
ATOM     33  C   UNL     1       4.190  -0.322  -6.852  1.00  0.00     0.031 A 
ATOM     34  C   UNL     1       4.704   1.000  -7.342  1.00  0.00     0.074 A 
ATOM     35  C   UNL     1       4.022  -1.355  -7.693  1.00  0.00     0.049 A 
ATOM     36  N   UNL     1       4.896   1.415  -8.565  1.00  0.00    -0.248 NA
ATOM     37  C   UNL     1       5.033   1.995  -6.306  1.00  0.00     0.031 C 
ATOM     38  C   UNL     1       3.591  -2.698  -7.310  1.00  0.00     0.029 A 
ATOM     39  N   UNL     1       4.168  -1.418  -9.054  1.00  0.00    -0.354 N 
ATOM     40  C   UNL     1       5.345   2.724  -8.448  1.00  0.00     0.074 A 
ATOM     41  C   UNL     1       5.377   3.043  -7.038  1.00  0.00     0.031 C 
ATOM     42  C   UNL     1       3.476  -3.447  -8.420  1.00  0.00     0.029 A 
ATOM     43  C   UNL     1       3.777  -2.621  -9.588  1.00  0.00     0.049 A 
ATOM     44  H   UNL     1       4.518  -0.674  -9.596  1.00  0.00     0.167 HD
ATOM     45  C   UNL     1       5.698   3.581  -9.434  1.00  0.00     0.037 A 
ATOM     46  C   UNL     1       3.637  -2.988 -10.876  1.00  0.00     0.037 A 
ATOM     47  C   UNL     1       5.656   3.248 -10.832  1.00  0.00     0.049 A 
ATOM     48  C   UNL     1       3.947  -1.988 -11.960  1.00  0.00     0.074 A 
ATOM     49  C   UNL     1       5.990   4.037 -11.917  1.00  0.00     0.029 A 
ATOM     50  N   UNL     1       5.249   2.021 -11.334  1.00  0.00    -0.354 N 
ATOM     51  N   UNL     1       4.366  -0.750 -11.849  1.00  0.00    -0.248 NA
ATOM     52  C   UNL     1       3.758  -2.433 -13.348  1.00  0.00     0.031 C 
ATOM     53  C   UNL     1       5.737   3.303 -13.079  1.00  0.00     0.029 A 
ATOM     54  C   UNL     1       5.305   2.037 -12.716  1.00  0.00     0.049 A 
ATOM     55  H   UNL     1       4.962   1.253 -10.788  1.00  0.00     0.167 HD
ATOM     56  C   UNL     1       4.536  -0.285 -13.147  1.00  0.00     0.074 A 
ATOM     57  C   UNL     1       4.167  -1.372 -14.030  1.00  0.00     0.031 C 
ATOM     58  C   UNL     1       4.966   0.928 -13.572  1.00  0.00     0.037 A 
BRANCH  45  59
ATOM     59  C   UNL     1       6.125   4.962  -9.034  1.00  0.00     0.057 A 
ATOM     60  C   UNL     1       7.340   5.203  -8.380  1.00  0.00     0.134 A 
ATOM     61  C   UNL     1       5.320   6.070  -9.330  1.00  0.00     0.134 A 
ATOM     62  F   UNL     1       8.149   4.185  -8.051  1.00  0.00    -0.206 F 
ATOM     63  C   UNL     1       7.729   6.494  -8.015  1.00  0.00     0.040 A 
ATOM     64  C   UNL     1       5.711   7.367  -8.996  1.00  0.00     0.040 A 
ATOM     65  F   UNL     1       4.144   5.910  -9.955  1.00  0.00    -0.206 F 
ATOM     66  C   UNL     1       6.917   7.581  -8.331  1.00  0.00     0.006 A 
ENDBRANCH  45  59
BRANCH  46  67
ATOM     67  C   UNL     1       3.161  -4.353 -11.215  1.00  0.00     0.057 A 
ATOM     68  C   UNL     1       4.007  -5.277 -11.839  1.00  0.00     0.134 A 
ATOM     69  C   UNL     1       1.850  -4.762 -10.943  1.00  0.00     0.134 A 
ATOM     70  F   UNL     1       5.268  -4.938 -12.144  1.00  0.00    -0.206 F 
ATOM     71  C   UNL     1       3.562  -6.550 -12.200  1.00  0.00     0.040 A 
ATOM     72  C   UNL     1       1.399  -6.041 -11.273  1.00  0.00     0.040 A 
ATOM     73  F   UNL     1       0.989  -3.926 -10.344  1.00  0.00    -0.206 F 
ATOM     74  C   UNL     1       2.254  -6.936 -11.912  1.00  0.00     0.006 A 
ENDBRANCH  46  67
BRANCH  58  75
ATOM     75  C   UNL     1       5.139   1.131 -15.048  1.00  0.00     0.057 A 
ATOM     76  C   UNL     1       4.050   1.297 -15.910  1.00  0.00     0.134 A 
ATOM     77  C   UNL     1       6.424   1.251 -15.594  1.00  0.00     0.134 A 
ATOM     78  F   UNL     1       2.794   1.184 -15.451  1.00  0.00    -0.206 F 
ATOM     79  C   UNL     1       4.232   1.570 -17.267  1.00  0.00     0.040 A 
ATOM     80  C   UNL     1       6.619   1.549 -16.942  1.00  0.00     0.040 A 
ATOM     81  F   UNL     1       7.510   1.112 -14.818  1.00  0.00    -0.206 F 
ATOM     82  C   UNL     1       5.520   1.708 -17.784  1.00  0.00     0.006 A 
ENDBRANCH  58  75
ENDBRANCH  32  33
ENDBRANCH  25  27
ENDBRANCH  24  25
ENDBRANCH  23  24
ENDBRANCH  22  23
ENDBRANCH   1  22
TORSDOF 17
