REMARK SMILES Cc1ccc(NC(=O)c2ccccc2NC(=O)[C@H]2CCCC[C@H]2C(=O)OCCOCCOC(=O)c2ccc(-c3c4nc(c(-c5c(F)cccc5F)c5ccc([nH]5)c(-c5c(F)cccc5F)c5nc(c(-c6c(F)cccc6F)c6ccc3[nH]6)C=C5)C=C4)cc2)cc1
REMARK SMILES IDX 28 1 27 2 26 3 24 4 25 5 23 6 18 7 19 8 20 9 22 10 21 11
REMARK SMILES IDX 16 12 15 13 17 15 14 16 9 17 10 18 11 19 13 20 12 21 7 22
REMARK SMILES IDX 6 23 8 25 5 26 1 27 2 28 3 29 90 30 4 31 89 32 29 33 30 34
REMARK SMILES IDX 31 35 32 36 33 37 34 38 35 39 36 40 88 41 37 42 87 43 38 44
REMARK SMILES IDX 39 45 40 46 81 47 41 48 86 49 80 50 82 51 42 52 85 53 79 54
REMARK SMILES IDX 78 55 43 57 69 58 52 59 68 60 53 61 56 62 67 63 83 64 54 65
REMARK SMILES IDX 55 66 66 68 84 69 57 70 44 71 45 72 50 73 46 74 47 75 49 76
REMARK SMILES IDX 51 77 48 78 70 79 71 80 76 81 72 82 73 83 75 84 77 85 74 86
REMARK SMILES IDX 58 87 59 88 64 89 60 90 61 91 63 92 65 93 62 94
REMARK H PARENT 15 14 6 24 82 56 56 67
REMARK Flexibility Score: inf
ROOT
ATOM      1  C   UNL     1      -0.305   1.096   4.682  1.00  0.00     0.202 C 
ENDROOT
BRANCH   1   2
ATOM      2  C   UNL     1      -0.243   0.297   5.933  1.00  0.00     0.261 C 
BRANCH   2   3
ATOM      3  O   UNL     1      -0.415  -1.095   5.733  1.00  0.00    -0.463 OA
BRANCH   3   4
ATOM      4  C   UNL     1      -1.668  -1.512   5.421  1.00  0.00     0.309 C 
ATOM      5  O   UNL     1      -2.707  -0.969   5.719  1.00  0.00    -0.252 OA
BRANCH   4   6
ATOM      6  C   UNL     1      -1.560  -2.746   4.556  1.00  0.00     0.111 C 
ATOM      7  C   UNL     1      -0.538  -2.548   3.395  1.00  0.00     0.093 C 
ATOM      8  C   UNL     1      -0.409  -3.843   2.589  1.00  0.00     0.014 C 
ATOM      9  C   UNL     1      -0.163  -5.064   3.484  1.00  0.00     0.001 C 
ATOM     10  C   UNL     1      -1.356  -3.987   5.418  1.00  0.00     0.016 C 
ATOM     11  C   UNL     1      -1.240  -5.232   4.548  1.00  0.00     0.001 C 
BRANCH   7  12
ATOM     12  C   UNL     1       0.882  -2.114   3.795  1.00  0.00     0.228 C 
ATOM     13  N   UNL     1       1.580  -1.089   3.219  1.00  0.00    -0.325 N 
ATOM     14  H   UNL     1       2.409  -0.910   3.718  1.00  0.00     0.169 HD
ATOM     15  O   UNL     1       1.457  -2.683   4.733  1.00  0.00    -0.274 OA
BRANCH  13  16
ATOM     16  C   UNL     1       1.462  -0.208   2.111  1.00  0.00     0.054 A 
ATOM     17  C   UNL     1       2.343   0.906   1.976  1.00  0.00     0.063 A 
ATOM     18  C   UNL     1       2.058   1.898   1.008  1.00  0.00     0.016 A 
ATOM     19  C   UNL     1       0.968   1.786   0.152  1.00  0.00     0.001 A 
ATOM     20  C   UNL     1       0.438  -0.344   1.164  1.00  0.00     0.027 A 
ATOM     21  C   UNL     1       0.175   0.652   0.215  1.00  0.00     0.002 A 
BRANCH  17  22
ATOM     22  C   UNL     1       3.509   1.268   2.847  1.00  0.00     0.257 C 
ATOM     23  N   UNL     1       4.407   0.382   3.395  1.00  0.00    -0.322 N 
ATOM     24  H   UNL     1       5.024   0.793   4.042  1.00  0.00     0.170 HD
ATOM     25  O   UNL     1       3.663   2.457   3.140  1.00  0.00    -0.269 OA
BRANCH  23  26
ATOM     26  C   UNL     1       4.617  -0.989   3.213  1.00  0.00     0.041 A 
ATOM     27  C   UNL     1       3.938  -5.201   3.425  1.00  0.00     0.044 C 
ATOM     28  C   UNL     1       4.320  -3.757   3.309  1.00  0.00    -0.051 A 
ATOM     29  C   UNL     1       4.061  -3.060   2.123  1.00  0.00     0.005 A 
ATOM     30  C   UNL     1       4.879  -3.076   4.393  1.00  0.00     0.005 A 
ATOM     31  C   UNL     1       4.231  -1.677   2.068  1.00  0.00     0.026 A 
ATOM     32  C   UNL     1       5.069  -1.697   4.329  1.00  0.00     0.026 A 
ENDBRANCH  23  26
ENDBRANCH  17  22
ENDBRANCH  13  16
ENDBRANCH   7  12
ENDBRANCH   4   6
ENDBRANCH   3   4
ENDBRANCH   2   3
ENDBRANCH   1   2
BRANCH   1  33
ATOM     33  O   UNL     1      -1.637   1.496   4.431  1.00  0.00    -0.374 OA
BRANCH  33  34
ATOM     34  C   UNL     1      -1.788   2.179   3.195  1.00  0.00     0.202 C 
BRANCH  34  35
ATOM     35  C   UNL     1      -0.801   3.348   3.000  1.00  0.00     0.261 C 
BRANCH  35  36
ATOM     36  O   UNL     1      -0.992   4.338   4.037  1.00  0.00    -0.460 OA
BRANCH  36  37
ATOM     37  C   UNL     1      -0.006   4.444   4.978  1.00  0.00     0.338 C 
ATOM     38  O   UNL     1       1.188   4.538   4.744  1.00  0.00    -0.246 OA
BRANCH  37  39
ATOM     39  C   UNL     1      -0.554   4.088   6.325  1.00  0.00     0.060 A 
ATOM     40  C   UNL     1       0.315   3.823   7.405  1.00  0.00     0.016 A 
ATOM     41  C   UNL     1      -1.862   3.629   6.371  1.00  0.00     0.016 A 
ATOM     42  C   UNL     1      -0.076   2.943   8.432  1.00  0.00     0.010 A 
ATOM     43  C   UNL     1      -2.168   2.645   7.283  1.00  0.00     0.010 A 
ATOM     44  C   UNL     1      -1.282   2.267   8.311  1.00  0.00    -0.014 A 
BRANCH  44  45
ATOM     45  C   UNL     1      -1.744   1.097   9.084  1.00  0.00     0.031 A 
ATOM     46  C   UNL     1      -3.072   1.240   9.733  1.00  0.00     0.074 A 
ATOM     47  C   UNL     1      -1.177  -0.142   8.987  1.00  0.00     0.049 A 
ATOM     48  N   UNL     1      -3.574   0.362  10.520  1.00  0.00    -0.248 NA
ATOM     49  C   UNL     1      -3.953   2.402   9.580  1.00  0.00     0.031 C 
ATOM     50  C   UNL     1      -1.784  -1.450   9.272  1.00  0.00     0.029 A 
ATOM     51  N   UNL     1       0.126  -0.513   8.614  1.00  0.00    -0.354 N 
ATOM     52  C   UNL     1      -4.903   0.653  10.697  1.00  0.00     0.074 A 
ATOM     53  C   UNL     1      -5.064   1.986  10.191  1.00  0.00     0.031 C 
ATOM     54  C   UNL     1      -0.818  -2.378   9.415  1.00  0.00     0.029 A 
ATOM     55  C   UNL     1       0.452  -1.684   9.321  1.00  0.00     0.049 A 
ATOM     56  H   UNL     1       0.705  -0.040   7.974  1.00  0.00     0.167 HD
ATOM     57  C   UNL     1      -5.705  -0.343  11.159  1.00  0.00     0.037 A 
ATOM     58  C   UNL     1       1.498  -1.696  10.188  1.00  0.00     0.037 A 
ATOM     59  C   UNL     1      -4.876  -1.468  11.621  1.00  0.00     0.049 A 
ATOM     60  C   UNL     1       0.946  -1.934  11.559  1.00  0.00     0.074 A 
ATOM     61  C   UNL     1      -4.611  -2.733  11.129  1.00  0.00     0.029 A 
ATOM     62  N   UNL     1      -3.896  -1.215  12.585  1.00  0.00    -0.354 N 
ATOM     63  N   UNL     1      -0.302  -1.683  11.857  1.00  0.00    -0.248 NA
ATOM     64  C   UNL     1       1.667  -2.576  12.648  1.00  0.00     0.031 C 
ATOM     65  C   UNL     1      -3.404  -3.192  11.744  1.00  0.00     0.029 A 
ATOM     66  C   UNL     1      -2.959  -2.228  12.638  1.00  0.00     0.049 A 
ATOM     67  H   UNL     1      -3.876  -0.413  13.156  1.00  0.00     0.167 HD
ATOM     68  C   UNL     1      -0.589  -2.195  13.080  1.00  0.00     0.074 A 
ATOM     69  C   UNL     1       0.685  -2.707  13.559  1.00  0.00     0.031 C 
ATOM     70  C   UNL     1      -1.851  -2.171  13.595  1.00  0.00     0.037 A 
BRANCH  57  71
ATOM     71  C   UNL     1      -7.217  -0.372  11.082  1.00  0.00     0.057 A 
ATOM     72  C   UNL     1      -7.924  -1.462  11.627  1.00  0.00     0.134 A 
ATOM     73  C   UNL     1      -8.041   0.571  10.429  1.00  0.00     0.134 A 
ATOM     74  F   UNL     1      -7.290  -2.461  12.257  1.00  0.00    -0.206 F 
ATOM     75  C   UNL     1      -9.319  -1.594  11.540  1.00  0.00     0.040 A 
ATOM     76  C   UNL     1      -9.440   0.473  10.374  1.00  0.00     0.040 A 
ATOM     77  F   UNL     1      -7.554   1.616   9.756  1.00  0.00    -0.206 F 
ATOM     78  C   UNL     1     -10.086  -0.618  10.925  1.00  0.00     0.006 A 
ENDBRANCH  57  71
BRANCH  58  79
ATOM     79  C   UNL     1       2.587  -0.787   9.710  1.00  0.00     0.057 A 
ATOM     80  C   UNL     1       3.173  -1.147   8.476  1.00  0.00     0.134 A 
ATOM     81  C   UNL     1       2.622   0.573  10.039  1.00  0.00     0.134 A 
ATOM     82  F   UNL     1       3.205  -2.436   8.098  1.00  0.00    -0.206 F 
ATOM     83  C   UNL     1       3.543  -0.190   7.526  1.00  0.00     0.040 A 
ATOM     84  C   UNL     1       3.063   1.535   9.112  1.00  0.00     0.040 A 
ATOM     85  F   UNL     1       2.083   1.010  11.185  1.00  0.00    -0.206 F 
ATOM     86  C   UNL     1       3.454   1.161   7.827  1.00  0.00     0.006 A 
ENDBRANCH  58  79
BRANCH  70  87
ATOM     87  C   UNL     1      -2.130  -2.133  15.073  1.00  0.00     0.057 A 
ATOM     88  C   UNL     1      -1.178  -1.754  16.035  1.00  0.00     0.134 A 
ATOM     89  C   UNL     1      -3.443  -2.290  15.564  1.00  0.00     0.134 A 
ATOM     90  F   UNL     1       0.079  -1.432  15.705  1.00  0.00    -0.206 F 
ATOM     91  C   UNL     1      -1.490  -1.621  17.390  1.00  0.00     0.040 A 
ATOM     92  C   UNL     1      -3.780  -2.082  16.902  1.00  0.00     0.040 A 
ATOM     93  F   UNL     1      -4.471  -2.612  14.765  1.00  0.00    -0.206 F 
ATOM     94  C   UNL     1      -2.797  -1.770  17.826  1.00  0.00     0.006 A 
ENDBRANCH  70  87
ENDBRANCH  44  45
ENDBRANCH  37  39
ENDBRANCH  36  37
ENDBRANCH  35  36
ENDBRANCH  34  35
ENDBRANCH  33  34
ENDBRANCH   1  33
TORSDOF 18
