REMARK SMILES CC1=C(CC(=O)OCCOCCOC(=O)c2ccc(-c3c4nc(c(-c5c(F)cccc5F)c5ccc([nH]5)c(-c5c(F)cccc5F)c5nc(c(-c6c(F)cccc6F)c6ccc3[nH]6)C=C5)C=C4)cc2)c2cc(F)ccc2/C1=C\c1cccc(OCc2ccccc2)c1
REMARK SMILES IDX 8 1 7 2 5 3 6 4 4 5 3 6 1 7 2 8 77 9 70 10 76 11 78 12 71 13
REMARK SMILES IDX 75 14 72 15 74 16 73 17 79 18 80 19 92 20 81 21 83 22 82 23
REMARK SMILES IDX 84 24 85 25 86 26 87 27 91 28 88 29 90 30 89 31 9 32 10 33
REMARK SMILES IDX 11 34 12 35 13 36 14 37 15 38 16 39 17 40 69 41 18 42 68 43
REMARK SMILES IDX 19 44 20 45 21 46 62 47 22 48 67 49 61 50 63 51 23 52 66 53
REMARK SMILES IDX 60 54 59 55 24 57 50 58 33 59 49 60 34 61 37 62 48 63 64 64
REMARK SMILES IDX 35 65 36 66 47 68 65 69 38 70 25 71 26 72 31 73 27 74 28 75
REMARK SMILES IDX 30 76 32 77 29 78 51 79 52 80 57 81 53 82 54 83 56 84 58 85
REMARK SMILES IDX 55 86 39 87 40 88 45 89 41 90 42 91 44 92 46 93 43 94
REMARK H PARENT 63 56 37 67
REMARK Flexibility Score: inf
ROOT
ATOM      1  C   UNL     1      -2.824  -3.543  -1.007  1.00  0.00     0.261 C 
ENDROOT
BRANCH   1   2
ATOM      2  O   UNL     1      -1.710  -2.685  -1.326  1.00  0.00    -0.463 OA
BRANCH   2   3
ATOM      3  C   UNL     1      -0.490  -3.289  -1.311  1.00  0.00     0.310 C 
ATOM      4  O   UNL     1      -0.305  -4.466  -1.012  1.00  0.00    -0.252 OA
BRANCH   3   5
ATOM      5  C   UNL     1       0.683  -2.401  -1.716  1.00  0.00     0.159 C 
BRANCH   5   6
ATOM      6  C   UNL     1       0.439  -0.977  -2.097  1.00  0.00    -0.025 C 
ATOM      7  C   UNL     1       0.749   0.155   0.160  1.00  0.00     0.045 C 
ATOM      8  C   UNL     1       0.480   0.123  -1.308  1.00  0.00    -0.039 C 
ATOM      9  C   UNL     1       0.265   1.329  -2.124  1.00  0.00    -0.014 C 
ATOM     10  C   UNL     1       0.273  -0.519  -3.489  1.00  0.00    -0.011 A 
ATOM     11  C   UNL     1       0.091   0.875  -3.518  1.00  0.00    -0.010 A 
ATOM     12  C   UNL     1       0.291   2.593  -1.658  1.00  0.00     0.017 C 
ATOM     13  C   UNL     1       0.294  -1.245  -4.673  1.00  0.00     0.048 A 
ATOM     14  C   UNL     1      -0.171   1.532  -4.715  1.00  0.00     0.012 A 
ATOM     15  C   UNL     1       0.045  -0.573  -5.870  1.00  0.00     0.123 A 
ATOM     16  C   UNL     1      -0.209   0.796  -5.899  1.00  0.00     0.040 A 
ATOM     17  F   UNL     1      -0.009  -1.270  -7.013  1.00  0.00    -0.207 F 
BRANCH  12  18
ATOM     18  C   UNL     1       0.139   3.787  -2.493  1.00  0.00    -0.021 A 
ATOM     19  C   UNL     1      -1.137   4.284  -2.779  1.00  0.00     0.008 A 
ATOM     20  C   UNL     1       1.266   4.354  -3.105  1.00  0.00     0.054 A 
ATOM     21  C   UNL     1      -1.289   5.302  -3.719  1.00  0.00     0.004 A 
ATOM     22  C   UNL     1       1.117   5.388  -4.029  1.00  0.00     0.120 A 
ATOM     23  C   UNL     1      -0.166   5.839  -4.350  1.00  0.00     0.046 A 
BRANCH  22  24
ATOM     24  O   UNL     1       2.131   6.024  -4.694  1.00  0.00    -0.489 OA
BRANCH  24  25
ATOM     25  C   UNL     1       3.463   5.895  -4.180  1.00  0.00     0.265 C 
BRANCH  25  26
ATOM     26  C   UNL     1       3.648   6.516  -2.811  1.00  0.00    -0.011 A 
ATOM     27  C   UNL     1       2.984   7.702  -2.464  1.00  0.00     0.007 A 
ATOM     28  C   UNL     1       4.487   5.907  -1.867  1.00  0.00     0.007 A 
ATOM     29  C   UNL     1       3.112   8.237  -1.183  1.00  0.00     0.000 A 
ATOM     30  C   UNL     1       4.618   6.447  -0.587  1.00  0.00     0.000 A 
ATOM     31  C   UNL     1       3.924   7.606  -0.243  1.00  0.00     0.000 A 
ENDBRANCH  25  26
ENDBRANCH  24  25
ENDBRANCH  22  24
ENDBRANCH  12  18
ENDBRANCH   5   6
ENDBRANCH   3   5
ENDBRANCH   2   3
ENDBRANCH   1   2
BRANCH   1  32
ATOM     32  C   UNL     1      -3.883  -3.651  -2.114  1.00  0.00     0.202 C 
BRANCH  32  33
ATOM     33  O   UNL     1      -3.458  -4.020  -3.422  1.00  0.00    -0.374 OA
BRANCH  33  34
ATOM     34  C   UNL     1      -2.612  -3.118  -4.128  1.00  0.00     0.202 C 
BRANCH  34  35
ATOM     35  C   UNL     1      -3.203  -1.772  -4.565  1.00  0.00     0.261 C 
BRANCH  35  36
ATOM     36  O   UNL     1      -3.768  -1.016  -3.492  1.00  0.00    -0.460 OA
BRANCH  36  37
ATOM     37  C   UNL     1      -5.087  -0.759  -3.632  1.00  0.00     0.338 C 
ATOM     38  O   UNL     1      -5.814  -1.041  -4.576  1.00  0.00    -0.246 OA
BRANCH  37  39
ATOM     39  C   UNL     1      -5.604  -0.212  -2.374  1.00  0.00     0.060 A 
ATOM     40  C   UNL     1      -5.076   0.957  -1.825  1.00  0.00     0.016 A 
ATOM     41  C   UNL     1      -6.682  -0.874  -1.776  1.00  0.00     0.016 A 
ATOM     42  C   UNL     1      -5.670   1.493  -0.684  1.00  0.00     0.010 A 
ATOM     43  C   UNL     1      -7.277  -0.334  -0.642  1.00  0.00     0.010 A 
ATOM     44  C   UNL     1      -6.792   0.868  -0.108  1.00  0.00    -0.014 A 
BRANCH  44  45
ATOM     45  C   UNL     1      -7.555   1.550   0.958  1.00  0.00     0.031 A 
ATOM     46  C   UNL     1      -7.529   1.064   2.372  1.00  0.00     0.074 A 
ATOM     47  C   UNL     1      -8.319   2.600   0.608  1.00  0.00     0.049 A 
ATOM     48  N   UNL     1      -8.084   1.589   3.434  1.00  0.00    -0.248 NA
ATOM     49  C   UNL     1      -6.797  -0.185   2.623  1.00  0.00     0.031 C 
ATOM     50  C   UNL     1      -8.459   3.120  -0.754  1.00  0.00     0.029 A 
ATOM     51  N   UNL     1      -9.108   3.424   1.364  1.00  0.00    -0.354 N 
ATOM     52  C   UNL     1      -7.756   0.746   4.486  1.00  0.00     0.074 A 
ATOM     53  C   UNL     1      -7.006  -0.357   3.921  1.00  0.00     0.031 C 
ATOM     54  C   UNL     1      -9.240   4.210  -0.729  1.00  0.00     0.029 A 
ATOM     55  C   UNL     1      -9.681   4.441   0.641  1.00  0.00     0.049 A 
ATOM     56  H   UNL     1      -9.251   3.300   2.330  1.00  0.00     0.167 HD
ATOM     57  C   UNL     1      -8.043   0.892   5.804  1.00  0.00     0.037 A 
ATOM     58  C   UNL     1     -10.464   5.455   1.047  1.00  0.00     0.037 A 
ATOM     59  C   UNL     1      -8.833   1.973   6.342  1.00  0.00     0.049 A 
ATOM     60  C   UNL     1     -10.814   5.560   2.503  1.00  0.00     0.074 A 
ATOM     61  C   UNL     1      -9.162   2.236   7.660  1.00  0.00     0.029 A 
ATOM     62  N   UNL     1      -9.445   2.959   5.578  1.00  0.00    -0.354 N 
ATOM     63  N   UNL     1     -10.425   4.811   3.507  1.00  0.00    -0.248 NA
ATOM     64  C   UNL     1     -11.710   6.660   2.877  1.00  0.00     0.031 C 
ATOM     65  C   UNL     1     -10.020   3.344   7.687  1.00  0.00     0.029 A 
ATOM     66  C   UNL     1     -10.178   3.811   6.392  1.00  0.00     0.049 A 
ATOM     67  H   UNL     1      -9.370   3.042   4.600  1.00  0.00     0.167 HD
ATOM     68  C   UNL     1     -11.008   5.364   4.639  1.00  0.00     0.074 A 
ATOM     69  C   UNL     1     -11.752   6.527   4.194  1.00  0.00     0.031 C 
ATOM     70  C   UNL     1     -10.935   4.949   5.929  1.00  0.00     0.037 A 
BRANCH  57  71
ATOM     71  C   UNL     1      -7.514  -0.167   6.732  1.00  0.00     0.057 A 
ATOM     72  C   UNL     1      -8.383  -1.046   7.391  1.00  0.00     0.134 A 
ATOM     73  C   UNL     1      -6.139  -0.338   6.954  1.00  0.00     0.134 A 
ATOM     74  F   UNL     1      -9.711  -0.937   7.237  1.00  0.00    -0.206 F 
ATOM     75  C   UNL     1      -7.904  -2.067   8.215  1.00  0.00     0.040 A 
ATOM     76  C   UNL     1      -5.647  -1.376   7.749  1.00  0.00     0.040 A 
ATOM     77  F   UNL     1      -5.248   0.462   6.348  1.00  0.00    -0.206 F 
ATOM     78  C   UNL     1      -6.532  -2.245   8.383  1.00  0.00     0.006 A 
ENDBRANCH  57  71
BRANCH  58  79
ATOM     79  C   UNL     1     -10.916   6.481   0.077  1.00  0.00     0.057 A 
ATOM     80  C   UNL     1     -11.846   6.189  -0.928  1.00  0.00     0.134 A 
ATOM     81  C   UNL     1     -10.420   7.788   0.140  1.00  0.00     0.134 A 
ATOM     82  F   UNL     1     -12.349   4.952  -1.048  1.00  0.00    -0.206 F 
ATOM     83  C   UNL     1     -12.262   7.161  -1.839  1.00  0.00     0.040 A 
ATOM     84  C   UNL     1     -10.848   8.776  -0.747  1.00  0.00     0.040 A 
ATOM     85  F   UNL     1      -9.537   8.129   1.089  1.00  0.00    -0.206 F 
ATOM     86  C   UNL     1     -11.770   8.461  -1.744  1.00  0.00     0.006 A 
ENDBRANCH  58  79
BRANCH  70  87
ATOM     87  C   UNL     1     -11.670   5.787   6.939  1.00  0.00     0.057 A 
ATOM     88  C   UNL     1     -10.967   6.564   7.869  1.00  0.00     0.134 A 
ATOM     89  C   UNL     1     -13.071   5.858   6.968  1.00  0.00     0.134 A 
ATOM     90  F   UNL     1      -9.627   6.539   7.904  1.00  0.00    -0.206 F 
ATOM     91  C   UNL     1     -11.628   7.393   8.776  1.00  0.00     0.040 A 
ATOM     92  C   UNL     1     -13.741   6.711   7.847  1.00  0.00     0.040 A 
ATOM     93  F   UNL     1     -13.806   5.153   6.094  1.00  0.00    -0.206 F 
ATOM     94  C   UNL     1     -13.019   7.481   8.756  1.00  0.00     0.006 A 
ENDBRANCH  70  87
ENDBRANCH  44  45
ENDBRANCH  37  39
ENDBRANCH  36  37
ENDBRANCH  35  36
ENDBRANCH  34  35
ENDBRANCH  33  34
ENDBRANCH  32  33
ENDBRANCH   1  32
TORSDOF 19
