REMARK SMILES O=C(COc1ccc(/C=C2\SC(=O)N(Cc3cc4c(cc3Cl)OCO4)C2=O)cc1)OCCOCCOC(=O)c1ccc(-c2c3nc(c(-c4c(F)cccc4F)c4ccc([nH]4)c(-c4c(F)cccc4F)c4nc(c(-c5c(F)cccc5F)c5ccc2[nH]5)C=C4)C=C3)cc1
REMARK SMILES IDX 31 1 30 2 2 3 1 4 3 5 4 6 5 7 6 8 29 9 7 10 28 11 8 12 9 13
REMARK SMILES IDX 10 14 11 15 26 16 12 17 14 18 27 19 13 20 15 21 16 22 17 23
REMARK SMILES IDX 21 24 18 25 20 26 22 27 19 28 25 29 23 30 24 31 32 32 33 33
REMARK SMILES IDX 34 34 35 35 36 36 37 37 38 38 39 39 40 40 92 41 41 42 91 43
REMARK SMILES IDX 42 44 43 45 44 46 85 47 45 48 90 49 84 50 86 51 46 52 89 53
REMARK SMILES IDX 83 54 82 55 47 57 73 58 56 59 72 60 57 61 60 62 71 63 87 64
REMARK SMILES IDX 58 65 59 66 70 68 88 69 61 70 48 71 49 72 54 73 50 74 51 75
REMARK SMILES IDX 53 76 55 77 52 78 74 79 75 80 80 81 76 82 77 83 79 84 81 85
REMARK SMILES IDX 78 86 62 87 63 88 68 89 64 90 65 91 67 92 69 93 66 94
REMARK H PARENT 86 56 60 67
REMARK Flexibility Score: inf
ROOT
ATOM      1  C   UNL     1       4.153   0.387  -0.453  1.00  0.00     0.261 C 
ENDROOT
BRANCH   1   2
ATOM      2  O   UNL     1       2.722   0.416  -0.393  1.00  0.00    -0.461 OA
BRANCH   2   3
ATOM      3  C   UNL     1       1.965  -0.604   0.087  1.00  0.00     0.344 C 
ATOM      4  O   UNL     1       0.739  -0.486   0.111  1.00  0.00    -0.248 OA
BRANCH   3   5
ATOM      5  C   UNL     1       2.653  -1.856   0.645  1.00  0.00     0.351 C 
BRANCH   5   6
ATOM      6  O   UNL     1       3.707  -2.483  -0.081  1.00  0.00    -0.482 OA
BRANCH   6   7
ATOM      7  C   UNL     1       3.209  -3.129  -1.178  1.00  0.00     0.120 A 
ATOM      8  C   UNL     1       3.306  -4.517  -1.218  1.00  0.00     0.047 A 
ATOM      9  C   UNL     1       2.582  -2.426  -2.202  1.00  0.00     0.047 A 
ATOM     10  C   UNL     1       2.630  -5.218  -2.217  1.00  0.00     0.012 A 
ATOM     11  C   UNL     1       1.886  -3.118  -3.170  1.00  0.00     0.012 A 
ATOM     12  C   UNL     1       1.884  -4.514  -3.167  1.00  0.00    -0.024 A 
BRANCH  12  13
ATOM     13  C   UNL     1       0.927  -5.167  -4.046  1.00  0.00     0.029 C 
ATOM     14  C   UNL     1       0.828  -4.965  -5.363  1.00  0.00     0.083 C 
ATOM     15  S   UNL     1       1.910  -4.240  -6.478  1.00  0.00    -0.022 SA
ATOM     16  C   UNL     1      -0.351  -5.464  -6.085  1.00  0.00     0.268 C 
ATOM     17  C   UNL     1       1.067  -4.976  -7.841  1.00  0.00     0.293 C 
ATOM     18  N   UNL     1      -0.004  -5.691  -7.385  1.00  0.00    -0.264 N 
ATOM     19  O   UNL     1      -1.462  -5.556  -5.587  1.00  0.00    -0.268 OA
ATOM     20  O   UNL     1       1.418  -4.821  -9.000  1.00  0.00    -0.261 OA
BRANCH  18  21
ATOM     21  C   UNL     1      -0.787  -6.577  -8.214  1.00  0.00     0.167 C 
BRANCH  21  22
ATOM     22  C   UNL     1      -0.229  -7.993  -8.133  1.00  0.00    -0.005 A 
ATOM     23  C   UNL     1       0.506  -8.485  -9.230  1.00  0.00     0.057 A 
ATOM     24  C   UNL     1      -0.375  -8.829  -6.989  1.00  0.00     0.050 A 
ATOM     25  C   UNL     1       1.033  -9.758  -9.148  1.00  0.00     0.166 A 
ATOM     26  C   UNL     1       0.265 -10.068  -6.899  1.00  0.00     0.071 A 
ATOM     27  Cl  UNL     1      -1.422  -8.464  -5.670  1.00  0.00    -0.084 Cl
ATOM     28  C   UNL     1       0.937 -10.514  -8.005  1.00  0.00     0.167 A 
ATOM     29  O   UNL     1       1.662 -10.434 -10.148  1.00  0.00    -0.454 OA
ATOM     30  O   UNL     1       1.512 -11.738  -8.136  1.00  0.00    -0.454 OA
ATOM     31  C   UNL     1       1.745 -11.750  -9.557  1.00  0.00     0.468 C 
ENDBRANCH  21  22
ENDBRANCH  18  21
ENDBRANCH  12  13
ENDBRANCH   6   7
ENDBRANCH   5   6
ENDBRANCH   3   5
ENDBRANCH   2   3
ENDBRANCH   1   2
BRANCH   1  32
ATOM     32  C   UNL     1       4.872   0.785   0.837  1.00  0.00     0.202 C 
BRANCH  32  33
ATOM     33  O   UNL     1       4.271   0.462   2.082  1.00  0.00    -0.374 OA
BRANCH  33  34
ATOM     34  C   UNL     1       3.104   1.171   2.506  1.00  0.00     0.202 C 
BRANCH  34  35
ATOM     35  C   UNL     1       3.198   2.672   2.769  1.00  0.00     0.261 C 
BRANCH  35  36
ATOM     36  O   UNL     1       3.410   3.420   1.564  1.00  0.00    -0.460 OA
BRANCH  36  37
ATOM     37  C   UNL     1       4.614   4.032   1.482  1.00  0.00     0.338 C 
ATOM     38  O   UNL     1       5.519   4.010   2.297  1.00  0.00    -0.246 OA
BRANCH  37  39
ATOM     39  C   UNL     1       4.765   4.616   0.142  1.00  0.00     0.060 A 
ATOM     40  C   UNL     1       5.907   4.287  -0.601  1.00  0.00     0.016 A 
ATOM     41  C   UNL     1       3.843   5.552  -0.324  1.00  0.00     0.016 A 
ATOM     42  C   UNL     1       6.168   4.949  -1.796  1.00  0.00     0.010 A 
ATOM     43  C   UNL     1       4.111   6.222  -1.513  1.00  0.00     0.010 A 
ATOM     44  C   UNL     1       5.295   5.954  -2.224  1.00  0.00    -0.014 A 
BRANCH  44  45
ATOM     45  C   UNL     1       5.690   6.881  -3.303  1.00  0.00     0.031 A 
ATOM     46  C   UNL     1       6.228   8.226  -2.915  1.00  0.00     0.074 A 
ATOM     47  C   UNL     1       5.499   6.553  -4.589  1.00  0.00     0.049 A 
ATOM     48  N   UNL     1       6.448   9.279  -3.656  1.00  0.00    -0.248 NA
ATOM     49  C   UNL     1       6.539   8.413  -1.488  1.00  0.00     0.031 C 
ATOM     50  C   UNL     1       5.012   5.261  -5.066  1.00  0.00     0.029 A 
ATOM     51  N   UNL     1       5.653   7.304  -5.724  1.00  0.00    -0.354 N 
ATOM     52  C   UNL     1       6.891  10.263  -2.782  1.00  0.00     0.074 A 
ATOM     53  C   UNL     1       6.894   9.688  -1.455  1.00  0.00     0.031 C 
ATOM     54  C   UNL     1       4.861   5.324  -6.399  1.00  0.00     0.029 A 
ATOM     55  C   UNL     1       5.201   6.671  -6.854  1.00  0.00     0.049 A 
ATOM     56  H   UNL     1       6.047   8.206  -5.729  1.00  0.00     0.167 HD
ATOM     57  C   UNL     1       7.255  11.536  -3.066  1.00  0.00     0.037 A 
ATOM     58  C   UNL     1       5.035   7.146  -8.102  1.00  0.00     0.037 A 
ATOM     59  C   UNL     1       7.239  12.089  -4.394  1.00  0.00     0.049 A 
ATOM     60  C   UNL     1       5.403   8.575  -8.395  1.00  0.00     0.074 A 
ATOM     61  C   UNL     1       7.621  13.351  -4.809  1.00  0.00     0.029 A 
ATOM     62  N   UNL     1       6.803  11.407  -5.522  1.00  0.00    -0.354 N 
ATOM     63  N   UNL     1       5.848   9.497  -7.574  1.00  0.00    -0.248 NA
ATOM     64  C   UNL     1       5.250   9.028  -9.783  1.00  0.00     0.031 C 
ATOM     65  C   UNL     1       7.368  13.450  -6.182  1.00  0.00     0.029 A 
ATOM     66  C   UNL     1       6.882  12.231  -6.631  1.00  0.00     0.049 A 
ATOM     67  H   UNL     1       6.485  10.476  -5.532  1.00  0.00     0.167 HD
ATOM     68  C   UNL     1       6.055  10.632  -8.349  1.00  0.00     0.074 A 
ATOM     69  C   UNL     1       5.686  10.279  -9.706  1.00  0.00     0.031 C 
ATOM     70  C   UNL     1       6.515  11.851  -7.974  1.00  0.00     0.037 A 
BRANCH  57  71
ATOM     71  C   UNL     1       7.646  12.412  -1.912  1.00  0.00     0.057 A 
ATOM     72  C   UNL     1       8.823  12.205  -1.181  1.00  0.00     0.134 A 
ATOM     73  C   UNL     1       6.819  13.471  -1.514  1.00  0.00     0.134 A 
ATOM     74  F   UNL     1       9.652  11.198  -1.498  1.00  0.00    -0.206 F 
ATOM     75  C   UNL     1       9.145  12.993  -0.074  1.00  0.00     0.040 A 
ATOM     76  C   UNL     1       7.145  14.284  -0.427  1.00  0.00     0.040 A 
ATOM     77  F   UNL     1       5.677  13.728  -2.168  1.00  0.00    -0.206 F 
ATOM     78  C   UNL     1       8.306  14.039   0.303  1.00  0.00     0.006 A 
ENDBRANCH  57  71
BRANCH  58  79
ATOM     79  C   UNL     1       4.475   6.258  -9.148  1.00  0.00     0.057 A 
ATOM     80  C   UNL     1       5.282   5.740 -10.165  1.00  0.00     0.134 A 
ATOM     81  C   UNL     1       3.131   5.863  -9.123  1.00  0.00     0.134 A 
ATOM     82  F   UNL     1       6.573   6.095 -10.248  1.00  0.00    -0.206 F 
ATOM     83  C   UNL     1       4.775   4.860 -11.122  1.00  0.00     0.040 A 
ATOM     84  C   UNL     1       2.616   4.967 -10.061  1.00  0.00     0.040 A 
ATOM     85  F   UNL     1       2.309   6.319  -8.167  1.00  0.00    -0.206 F 
ATOM     86  C   UNL     1       3.440   4.464 -11.066  1.00  0.00     0.006 A 
ENDBRANCH  58  79
BRANCH  70  87
ATOM     87  C   UNL     1       6.690  12.882  -9.049  1.00  0.00     0.057 A 
ATOM     88  C   UNL     1       5.600  13.544  -9.627  1.00  0.00     0.134 A 
ATOM     89  C   UNL     1       7.974  13.267  -9.458  1.00  0.00     0.134 A 
ATOM     90  F   UNL     1       4.345  13.214  -9.287  1.00  0.00    -0.206 F 
ATOM     91  C   UNL     1       5.782  14.545 -10.583  1.00  0.00     0.040 A 
ATOM     92  C   UNL     1       8.168  14.283 -10.393  1.00  0.00     0.040 A 
ATOM     93  F   UNL     1       9.060  12.678  -8.934  1.00  0.00    -0.206 F 
ATOM     94  C   UNL     1       7.069  14.923 -10.961  1.00  0.00     0.006 A 
ENDBRANCH  70  87
ENDBRANCH  44  45
ENDBRANCH  37  39
ENDBRANCH  36  37
ENDBRANCH  35  36
ENDBRANCH  34  35
ENDBRANCH  33  34
ENDBRANCH  32  33
ENDBRANCH   1  32
TORSDOF 19
