REMARK SMILES NC(=O)c1c(-c2ccc(Cl)cc2)csc1NC(=O)[C@H]1[C@@H](C(=O)OCCOCCOC(=O)c2ccc(-c3c4nc(c(-c5c(F)cccc5F)c5ccc([nH]5)c(-c5c(F)cccc5F)c5nc(c(-c6c(F)cccc6F)c6ccc3[nH]6)C=C5)C=C4)cc2)[C@@H]2CC[C@H]1O2
REMARK SMILES IDX 25 1 24 2 23 3 21 4 22 5 20 6 19 7 89 8 86 9 88 10 90 11
REMARK SMILES IDX 87 12 17 13 16 14 18 16 15 17 4 18 5 19 13 20 14 21 2 22
REMARK SMILES IDX 1 23 3 26 6 27 7 28 12 29 8 30 11 31 9 32 10 33 26 34 27 35
REMARK SMILES IDX 28 36 29 37 30 38 31 39 32 40 33 41 85 42 34 43 84 44 35 45
REMARK SMILES IDX 36 46 37 47 78 48 38 49 83 50 77 51 79 52 39 53 82 54 76 55
REMARK SMILES IDX 75 56 40 58 66 59 49 60 65 61 50 62 53 63 64 64 80 65 51 66
REMARK SMILES IDX 52 67 63 69 81 70 54 71 41 72 42 73 47 74 43 75 44 76 46 77
REMARK SMILES IDX 48 78 45 79 67 80 68 81 73 82 69 83 70 84 72 85 74 86 71 87
REMARK SMILES IDX 55 88 56 89 61 90 57 91 58 92 60 93 62 94 59 95
REMARK H PARENT 16 15 1 24 1 25 79 57 53 68
REMARK Flexibility Score: inf
ROOT
ATOM      1  C   UNL     1       0.949   9.377   7.088  1.00  0.00     0.202 C 
ENDROOT
BRANCH   1   2
ATOM      2  C   UNL     1       1.641   9.384   5.714  1.00  0.00     0.261 C 
BRANCH   2   3
ATOM      3  O   UNL     1       1.111   8.591   4.653  1.00  0.00    -0.463 OA
BRANCH   3   4
ATOM      4  C   UNL     1       0.911   7.275   4.889  1.00  0.00     0.312 C 
ATOM      5  O   UNL     1       1.050   6.746   5.980  1.00  0.00    -0.252 OA
BRANCH   4   6
ATOM      6  C   UNL     1       0.329   6.591   3.678  1.00  0.00     0.143 C 
ATOM      7  C   UNL     1       0.764   5.136   3.452  1.00  0.00     0.124 C 
ATOM      8  C   UNL     1       1.227   5.153   2.000  1.00  0.00     0.132 C 
ATOM      9  C   UNL     1       0.665   7.234   2.320  1.00  0.00     0.133 C 
ATOM     10  C   UNL     1       0.022   5.319   1.060  1.00  0.00     0.035 C 
ATOM     11  O   UNL     1       1.804   6.473   1.881  1.00  0.00    -0.373 OA
ATOM     12  C   UNL     1      -0.334   6.800   1.246  1.00  0.00     0.036 C 
BRANCH   7  13
ATOM     13  C   UNL     1       1.651   4.387   4.458  1.00  0.00     0.231 C 
ATOM     14  N   UNL     1       2.810   4.812   5.026  1.00  0.00    -0.317 N 
ATOM     15  H   UNL     1       3.054   4.314   5.839  1.00  0.00     0.170 HD
ATOM     16  O   UNL     1       1.208   3.305   4.881  1.00  0.00    -0.274 OA
BRANCH  14  17
ATOM     17  C   UNL     1       3.712   5.799   4.695  1.00  0.00     0.108 A 
ATOM     18  C   UNL     1       4.392   6.649   5.564  1.00  0.00     0.082 A 
ATOM     19  C   UNL     1       5.216   7.570   4.804  1.00  0.00     0.007 A 
ATOM     20  C   UNL     1       5.239   7.250   3.460  1.00  0.00     0.076 A 
ATOM     21  S   UNL     1       4.327   5.854   3.122  1.00  0.00    -0.125 S 
BRANCH  18  22
ATOM     22  C   UNL     1       4.182   6.576   7.012  1.00  0.00     0.252 C 
ATOM     23  N   UNL     1       4.420   7.701   7.746  1.00  0.00    -0.365 N 
ATOM     24  H   UNL     1       4.289   7.689   8.722  1.00  0.00     0.159 HD
ATOM     25  H   UNL     1       4.722   8.525   7.300  1.00  0.00     0.159 HD
ATOM     26  O   UNL     1       3.804   5.553   7.577  1.00  0.00    -0.269 OA
ENDBRANCH  18  22
BRANCH  19  27
ATOM     27  C   UNL     1       6.029   8.680   5.274  1.00  0.00    -0.017 A 
ATOM     28  C   UNL     1       5.618   9.999   5.042  1.00  0.00     0.010 A 
ATOM     29  C   UNL     1       7.211   8.435   5.982  1.00  0.00     0.010 A 
ATOM     30  C   UNL     1       6.382  11.062   5.529  1.00  0.00     0.021 A 
ATOM     31  C   UNL     1       7.980   9.502   6.452  1.00  0.00     0.021 A 
ATOM     32  C   UNL     1       7.563  10.812   6.222  1.00  0.00     0.041 A 
ATOM     33  Cl  UNL     1       8.507  12.128   6.797  1.00  0.00    -0.084 Cl
ENDBRANCH  19  27
ENDBRANCH  14  17
ENDBRANCH   7  13
ENDBRANCH   4   6
ENDBRANCH   3   4
ENDBRANCH   2   3
ENDBRANCH   1   2
BRANCH   1  34
ATOM     34  O   UNL     1      -0.439   9.134   7.257  1.00  0.00    -0.374 OA
BRANCH  34  35
ATOM     35  C   UNL     1      -1.383   9.367   6.230  1.00  0.00     0.202 C 
BRANCH  35  36
ATOM     36  C   UNL     1      -1.764  10.822   5.987  1.00  0.00     0.261 C 
BRANCH  36  37
ATOM     37  O   UNL     1      -0.678  11.560   5.411  1.00  0.00    -0.460 OA
BRANCH  37  38
ATOM     38  C   UNL     1      -0.079  12.437   6.252  1.00  0.00     0.338 C 
ATOM     39  O   UNL     1      -0.359  12.664   7.411  1.00  0.00    -0.246 OA
BRANCH  38  40
ATOM     40  C   UNL     1       1.102  13.021   5.587  1.00  0.00     0.060 A 
ATOM     41  C   UNL     1       2.261  13.186   6.357  1.00  0.00     0.016 A 
ATOM     42  C   UNL     1       1.061  13.448   4.256  1.00  0.00     0.016 A 
ATOM     43  C   UNL     1       3.361  13.844   5.817  1.00  0.00     0.010 A 
ATOM     44  C   UNL     1       2.158  14.125   3.722  1.00  0.00     0.010 A 
ATOM     45  C   UNL     1       3.289  14.364   4.518  1.00  0.00    -0.014 A 
BRANCH  45  46
ATOM     46  C   UNL     1       4.296  15.357   4.087  1.00  0.00     0.031 A 
ATOM     47  C   UNL     1       4.053  16.799   4.426  1.00  0.00     0.074 A 
ATOM     48  C   UNL     1       5.404  14.982   3.429  1.00  0.00     0.049 A 
ATOM     49  N   UNL     1       4.773  17.851   4.139  1.00  0.00    -0.248 NA
ATOM     50  C   UNL     1       2.819  17.096   5.173  1.00  0.00     0.031 C 
ATOM     51  C   UNL     1       5.733  13.613   3.049  1.00  0.00     0.029 A 
ATOM     52  N   UNL     1       6.466  15.724   2.982  1.00  0.00    -0.354 N 
ATOM     53  C   UNL     1       4.060  18.936   4.629  1.00  0.00     0.074 A 
ATOM     54  C   UNL     1       2.863  18.417   5.252  1.00  0.00     0.031 C 
ATOM     55  C   UNL     1       6.949  13.601   2.477  1.00  0.00     0.029 A 
ATOM     56  C   UNL     1       7.452  14.971   2.396  1.00  0.00     0.049 A 
ATOM     57  H   UNL     1       6.516  16.703   3.073  1.00  0.00     0.167 HD
ATOM     58  C   UNL     1       4.363  20.251   4.540  1.00  0.00     0.037 A 
ATOM     59  C   UNL     1       8.620  15.355   1.845  1.00  0.00     0.037 A 
ATOM     60  C   UNL     1       5.552  20.760   3.915  1.00  0.00     0.049 A 
ATOM     61  C   UNL     1       8.955  16.821   1.790  1.00  0.00     0.074 A 
ATOM     62  C   UNL     1       5.955  22.074   3.765  1.00  0.00     0.029 A 
ATOM     63  N   UNL     1       6.530  19.969   3.330  1.00  0.00    -0.354 N 
ATOM     64  N   UNL     1       8.272  17.842   2.252  1.00  0.00    -0.248 NA
ATOM     65  C   UNL     1      10.205  17.192   1.112  1.00  0.00     0.031 C 
ATOM     66  C   UNL     1       7.160  22.080   3.054  1.00  0.00     0.029 A 
ATOM     67  C   UNL     1       7.526  20.767   2.798  1.00  0.00     0.049 A 
ATOM     68  H   UNL     1       6.517  18.985   3.298  1.00  0.00     0.167 HD
ATOM     69  C   UNL     1       9.000  18.974   1.911  1.00  0.00     0.074 A 
ATOM     70  C   UNL     1      10.196  18.513   1.234  1.00  0.00     0.031 C 
ATOM     71  C   UNL     1       8.700  20.280   2.120  1.00  0.00     0.037 A 
BRANCH  58  72
ATOM     72  C   UNL     1       3.348  21.219   5.065  1.00  0.00     0.057 A 
ATOM     73  C   UNL     1       3.142  21.417   6.436  1.00  0.00     0.134 A 
ATOM     74  C   UNL     1       2.546  21.948   4.177  1.00  0.00     0.134 A 
ATOM     75  F   UNL     1       3.859  20.728   7.336  1.00  0.00    -0.206 F 
ATOM     76  C   UNL     1       2.157  22.288   6.905  1.00  0.00     0.040 A 
ATOM     77  C   UNL     1       1.573  22.837   4.634  1.00  0.00     0.040 A 
ATOM     78  F   UNL     1       2.688  21.797   2.851  1.00  0.00    -0.206 F 
ATOM     79  C   UNL     1       1.371  23.003   6.002  1.00  0.00     0.006 A 
ENDBRANCH  58  72
BRANCH  59  80
ATOM     80  C   UNL     1       9.547  14.338   1.290  1.00  0.00     0.057 A 
ATOM     81  C   UNL     1      10.765  14.055   1.919  1.00  0.00     0.134 A 
ATOM     82  C   UNL     1       9.237  13.617   0.131  1.00  0.00     0.134 A 
ATOM     83  F   UNL     1      11.128  14.730   3.020  1.00  0.00    -0.206 F 
ATOM     84  C   UNL     1      11.642  13.094   1.415  1.00  0.00     0.040 A 
ATOM     85  C   UNL     1      10.095  12.637  -0.372  1.00  0.00     0.040 A 
ATOM     86  F   UNL     1       8.085  13.840  -0.517  1.00  0.00    -0.206 F 
ATOM     87  C   UNL     1      11.304  12.376   0.269  1.00  0.00     0.006 A 
ENDBRANCH  59  80
BRANCH  71  88
ATOM     88  C   UNL     1       9.667  21.299   1.599  1.00  0.00     0.057 A 
ATOM     89  C   UNL     1       9.728  21.614   0.236  1.00  0.00     0.134 A 
ATOM     90  C   UNL     1      10.489  22.020   2.472  1.00  0.00     0.134 A 
ATOM     91  F   UNL     1       8.969  20.952  -0.650  1.00  0.00    -0.206 F 
ATOM     92  C   UNL     1      10.583  22.608  -0.242  1.00  0.00     0.040 A 
ATOM     93  C   UNL     1      11.335  23.028   2.008  1.00  0.00     0.040 A 
ATOM     94  F   UNL     1      10.468  21.769   3.790  1.00  0.00    -0.206 F 
ATOM     95  C   UNL     1      11.384  23.323   0.647  1.00  0.00     0.006 A 
ENDBRANCH  71  88
ENDBRANCH  45  46
ENDBRANCH  38  40
ENDBRANCH  37  38
ENDBRANCH  36  37
ENDBRANCH  35  36
ENDBRANCH  34  35
ENDBRANCH   1  34
TORSDOF 18
