REMARK SMILES Cc1coc2c(C)c3oc(=O)c(CCC(=O)N[C@H](CC(C)C)C(=O)OCCOCCOC(=O)c4ccc(-c5c6nc(c(-c7c(F)cccc7F)c7ccc([nH]7)c(-c7c(F)cccc7F)c7nc(c(-c8c(F)cccc8F)c8ccc5[nH]8)C=C7)C=C6)cc4)c(C)c3cc12
REMARK SMILES IDX 27 1 26 2 25 3 23 4 24 5 18 6 17 7 15 8 16 9 14 11 13 12
REMARK SMILES IDX 12 13 1 14 2 15 3 16 92 17 4 18 5 19 91 20 6 21 90 22 7 23
REMARK SMILES IDX 8 24 88 25 9 26 89 27 10 28 11 29 19 30 20 31 21 32 22 33
REMARK SMILES IDX 28 34 29 35 30 36 31 37 32 38 33 39 34 40 35 41 87 42 36 43
REMARK SMILES IDX 86 44 37 45 38 46 39 47 80 48 40 49 85 50 79 51 81 52 41 53
REMARK SMILES IDX 84 54 78 55 77 56 42 58 68 59 51 60 67 61 52 62 55 63 66 64
REMARK SMILES IDX 82 65 53 66 54 67 65 69 83 70 56 71 43 72 44 73 49 74 45 75
REMARK SMILES IDX 46 76 48 77 50 78 47 79 69 80 70 81 75 82 71 83 72 84 74 85
REMARK SMILES IDX 76 86 73 87 57 88 58 89 63 90 59 91 60 92 62 93 64 94 61 95
REMARK H PARENT 17 10 81 57 55 68
REMARK Flexibility Score: inf
ROOT
ATOM      1  C   UNL     1       1.986  -0.632   6.558  1.00  0.00     0.202 C 
ENDROOT
BRANCH   1   2
ATOM      2  C   UNL     1       0.980  -1.263   5.586  1.00  0.00     0.261 C 
BRANCH   2   3
ATOM      3  O   UNL     1      -0.575  -0.507   5.300  1.00  0.00    -0.462 OA
BRANCH   3   4
ATOM      4  C   UNL     1      -2.399  -0.615   4.865  1.00  0.00     0.328 C 
ATOM      5  O   UNL     1      -3.263  -1.067   5.673  1.00  0.00    -0.250 OA
BRANCH   4   6
ATOM      6  C   UNL     1      -3.151  -0.372   3.426  1.00  0.00     0.192 C 
BRANCH   6   7
ATOM      7  N   UNL     1      -3.031  -1.330   2.305  1.00  0.00    -0.343 N 
ATOM      8  C   UNL     1      -2.945  -2.691   2.236  1.00  0.00     0.221 C 
ATOM      9  O   UNL     1      -3.050  -3.196   1.115  1.00  0.00    -0.275 OA
ATOM     10  H   UNL     1      -3.008  -0.894   1.422  1.00  0.00     0.164 HD
BRANCH   8  11
ATOM     11  C   UNL     1      -2.618  -3.575   3.436  1.00  0.00     0.105 C 
BRANCH  11  12
ATOM     12  C   UNL     1      -1.157  -3.492   3.868  1.00  0.00     0.053 C 
BRANCH  12  13
ATOM     13  C   UNL     1      -0.934  -2.105   4.331  1.00  0.00     0.042 A 
ATOM     14  C   UNL     1      -0.337   4.877   1.679  1.00  0.00     0.048 C 
ATOM     15  C   UNL     1      -0.741   4.553   3.072  1.00  0.00    -0.005 A 
ATOM     16  C   UNL     1      -1.242   5.441   3.997  1.00  0.00     0.199 A 
ATOM     17  C   UNL     1      -0.726   3.264   3.721  1.00  0.00     0.024 A 
ATOM     18  O   UNL     1      -1.579   4.809   5.142  1.00  0.00    -0.464 OA
ATOM     19  C   UNL     1      -1.316   3.469   4.998  1.00  0.00     0.140 A 
ATOM     20  C   UNL     1      -0.289   1.985   3.243  1.00  0.00     0.024 A 
ATOM     21  C   UNL     1      -1.595   2.543   6.051  1.00  0.00     0.036 A 
ATOM     22  C   UNL     1      -0.619   0.908   4.037  1.00  0.00     0.022 A 
ATOM     23  C   UNL     1      -2.149   2.942   7.364  1.00  0.00     0.052 C 
ATOM     24  C   UNL     1      -1.263   1.284   5.602  1.00  0.00     0.145 A 
ATOM     25  C   UNL     1      -0.536  -0.871   3.406  1.00  0.00    -0.030 A 
ATOM     26  O   UNL     1      -1.590  -0.144   6.694  1.00  0.00    -0.422 OA
ATOM     27  C   UNL     1      -0.085  -0.952   1.977  1.00  0.00     0.046 C 
ATOM     28  C   UNL     1      -1.358  -1.907   6.262  1.00  0.00     0.339 A 
ATOM     29  O   UNL     1      -1.409  -2.794   7.090  1.00  0.00    -0.246 OA
ENDBRANCH  12  13
ENDBRANCH  11  12
ENDBRANCH   8  11
ENDBRANCH   6   7
BRANCH   6  30
ATOM     30  C   UNL     1      -3.171   1.094   2.973  1.00  0.00     0.040 C 
BRANCH  30  31
ATOM     31  C   UNL     1      -4.244   1.801   2.138  1.00  0.00    -0.015 C 
ATOM     32  C   UNL     1      -5.427   2.297   2.970  1.00  0.00     0.007 C 
ATOM     33  C   UNL     1      -3.557   3.054   1.543  1.00  0.00     0.007 C 
ENDBRANCH  30  31
ENDBRANCH   6  30
ENDBRANCH   4   6
ENDBRANCH   3   4
ENDBRANCH   2   3
ENDBRANCH   1   2
BRANCH   1  34
ATOM     34  O   UNL     1       1.760  -0.776   7.959  1.00  0.00    -0.374 OA
BRANCH  34  35
ATOM     35  C   UNL     1       0.677  -0.018   8.461  1.00  0.00     0.202 C 
BRANCH  35  36
ATOM     36  C   UNL     1       0.947   1.387   8.963  1.00  0.00     0.261 C 
BRANCH  36  37
ATOM     37  O   UNL     1       1.362   2.217   7.880  1.00  0.00    -0.460 OA
BRANCH  37  38
ATOM     38  C   UNL     1       2.692   2.221   7.646  1.00  0.00     0.338 C 
ATOM     39  O   UNL     1       3.555   1.605   8.243  1.00  0.00    -0.246 OA
BRANCH  38  40
ATOM     40  C   UNL     1       2.962   3.216   6.604  1.00  0.00     0.060 A 
ATOM     41  C   UNL     1       4.229   3.758   6.596  1.00  0.00     0.016 A 
ATOM     42  C   UNL     1       1.932   3.777   5.844  1.00  0.00     0.016 A 
ATOM     43  C   UNL     1       4.350   5.040   6.116  1.00  0.00     0.010 A 
ATOM     44  C   UNL     1       2.081   5.020   5.272  1.00  0.00     0.010 A 
ATOM     45  C   UNL     1       3.243   5.701   5.541  1.00  0.00    -0.014 A 
BRANCH  45  46
ATOM     46  C   UNL     1       3.424   7.065   5.085  1.00  0.00     0.031 A 
ATOM     47  C   UNL     1       4.562   7.121   4.157  1.00  0.00     0.074 A 
ATOM     48  C   UNL     1       2.757   8.163   5.493  1.00  0.00     0.049 A 
ATOM     49  N   UNL     1       5.767   7.385   4.523  1.00  0.00    -0.248 NA
ATOM     50  C   UNL     1       4.443   6.512   2.828  1.00  0.00     0.031 C 
ATOM     51  C   UNL     1       1.506   8.300   6.236  1.00  0.00     0.029 A 
ATOM     52  N   UNL     1       3.135   9.462   5.295  1.00  0.00    -0.354 N 
ATOM     53  C   UNL     1       6.558   7.157   3.417  1.00  0.00     0.074 A 
ATOM     54  C   UNL     1       5.729   6.454   2.471  1.00  0.00     0.031 C 
ATOM     55  C   UNL     1       1.120   9.602   6.233  1.00  0.00     0.029 A 
ATOM     56  C   UNL     1       2.173  10.409   5.639  1.00  0.00     0.049 A 
ATOM     57  H   UNL     1       4.019   9.708   4.938  1.00  0.00     0.167 HD
ATOM     58  C   UNL     1       7.727   7.837   3.316  1.00  0.00     0.037 A 
ATOM     59  C   UNL     1       2.269  11.752   5.432  1.00  0.00     0.037 A 
ATOM     60  C   UNL     1       8.156   8.296   4.625  1.00  0.00     0.049 A 
ATOM     61  C   UNL     1       3.721  12.078   5.361  1.00  0.00     0.074 A 
ATOM     62  C   UNL     1       8.487   7.673   5.816  1.00  0.00     0.029 A 
ATOM     63  N   UNL     1       7.872   9.601   4.955  1.00  0.00    -0.354 N 
ATOM     64  N   UNL     1       4.519  12.005   6.390  1.00  0.00    -0.248 NA
ATOM     65  C   UNL     1       4.363  11.973   4.058  1.00  0.00     0.031 C 
ATOM     66  C   UNL     1       7.948   8.508   6.841  1.00  0.00     0.029 A 
ATOM     67  C   UNL     1       7.386   9.631   6.234  1.00  0.00     0.049 A 
ATOM     68  H   UNL     1       7.998  10.383   4.369  1.00  0.00     0.167 HD
ATOM     69  C   UNL     1       5.660  11.390   5.901  1.00  0.00     0.074 A 
ATOM     70  C   UNL     1       5.523  11.434   4.444  1.00  0.00     0.031 C 
ATOM     71  C   UNL     1       6.461  10.635   6.709  1.00  0.00     0.037 A 
BRANCH  58  72
ATOM     72  C   UNL     1       8.127   8.536   2.041  1.00  0.00     0.057 A 
ATOM     73  C   UNL     1       9.280   9.340   2.070  1.00  0.00     0.134 A 
ATOM     74  C   UNL     1       7.281   8.742   0.931  1.00  0.00     0.134 A 
ATOM     75  F   UNL     1      10.174   9.228   3.064  1.00  0.00    -0.206 F 
ATOM     76  C   UNL     1       9.496  10.367   1.149  1.00  0.00     0.040 A 
ATOM     77  C   UNL     1       7.511   9.738  -0.018  1.00  0.00     0.040 A 
ATOM     78  F   UNL     1       6.143   8.069   0.737  1.00  0.00    -0.206 F 
ATOM     79  C   UNL     1       8.598  10.582   0.113  1.00  0.00     0.006 A 
ENDBRANCH  58  72
BRANCH  59  80
ATOM     80  C   UNL     1       1.244  12.674   4.871  1.00  0.00     0.057 A 
ATOM     81  C   UNL     1       1.472  14.061   4.801  1.00  0.00     0.134 A 
ATOM     82  C   UNL     1       0.160  12.198   4.114  1.00  0.00     0.134 A 
ATOM     83  F   UNL     1       2.506  14.616   5.450  1.00  0.00    -0.206 F 
ATOM     84  C   UNL     1       0.694  14.912   4.000  1.00  0.00     0.040 A 
ATOM     85  C   UNL     1      -0.625  13.037   3.313  1.00  0.00     0.040 A 
ATOM     86  F   UNL     1      -0.118  10.888   4.053  1.00  0.00    -0.206 F 
ATOM     87  C   UNL     1      -0.350  14.397   3.240  1.00  0.00     0.006 A 
ENDBRANCH  59  80
BRANCH  71  88
ATOM     88  C   UNL     1       6.241  10.690   8.195  1.00  0.00     0.057 A 
ATOM     89  C   UNL     1       5.082  10.241   8.847  1.00  0.00     0.134 A 
ATOM     90  C   UNL     1       7.330  11.033   9.005  1.00  0.00     0.134 A 
ATOM     91  F   UNL     1       4.015   9.816   8.154  1.00  0.00    -0.206 F 
ATOM     92  C   UNL     1       5.013  10.150  10.242  1.00  0.00     0.040 A 
ATOM     93  C   UNL     1       7.286  10.915  10.394  1.00  0.00     0.040 A 
ATOM     94  F   UNL     1       8.484  11.433   8.447  1.00  0.00    -0.206 F 
ATOM     95  C   UNL     1       6.123  10.474  11.019  1.00  0.00     0.006 A 
ENDBRANCH  71  88
ENDBRANCH  45  46
ENDBRANCH  38  40
ENDBRANCH  37  38
ENDBRANCH  36  37
ENDBRANCH  35  36
ENDBRANCH  34  35
ENDBRANCH   1  34
TORSDOF 20
