REMARK SMILES CCC1(C(=O)OCCOCCOC(=O)c2ccc(-c3c4nc(c(-c5c(F)cccc5F)c5ccc([nH]5)c(-c5c(F)cccc5F)c5nc(c(-c6c(F)cccc6F)c6ccc3[nH]6)C=C5)C=C4)cc2)CCN(C(=O)C[C@H]2CSCC[NH2+]2)CC1
REMARK SMILES IDX 9 1 8 2 7 3 6 4 4 5 5 6 3 7 69 8 82 9 70 10 81 11 71 12
REMARK SMILES IDX 72 13 73 14 2 15 1 16 74 17 75 18 76 19 80 20 77 21 79 22
REMARK SMILES IDX 78 25 10 26 11 27 12 28 13 29 14 30 15 31 16 32 68 33 17 34
REMARK SMILES IDX 67 35 18 36 19 37 20 38 61 39 21 40 66 41 60 42 62 43 22 44
REMARK SMILES IDX 65 45 59 46 58 47 23 49 49 50 32 51 48 52 33 53 36 54 47 55
REMARK SMILES IDX 63 56 34 57 35 58 46 60 64 61 37 62 24 63 25 64 30 65 26 66
REMARK SMILES IDX 27 67 29 68 31 69 28 70 50 71 51 72 56 73 52 74 53 75 55 76
REMARK SMILES IDX 57 77 54 78 38 79 39 80 44 81 40 82 41 83 43 84 45 85 42 86
REMARK H PARENT 80 23 80 24 62 48 36 59
REMARK Flexibility Score: inf
ROOT
ATOM      1  O   UNL     1       9.493  -9.893  -3.171  1.00  0.00    -0.374 OA
ENDROOT
BRANCH   1   2
ATOM      2  C   UNL     1       8.527  -9.598  -4.179  1.00  0.00     0.202 C 
BRANCH   2   3
ATOM      3  C   UNL     1       7.060  -9.636  -3.744  1.00  0.00     0.261 C 
BRANCH   3   4
ATOM      4  O   UNL     1       6.794  -8.633  -2.749  1.00  0.00    -0.463 OA
BRANCH   4   5
ATOM      5  C   UNL     1       6.354  -9.089  -1.548  1.00  0.00     0.312 C 
ATOM      6  O   UNL     1       6.037 -10.253  -1.332  1.00  0.00    -0.252 OA
BRANCH   5   7
ATOM      7  C   UNL     1       6.273  -7.987  -0.472  1.00  0.00     0.071 C 
ATOM      8  C   UNL     1       6.898  -6.630  -0.937  1.00  0.00     0.040 C 
ATOM      9  C   UNL     1       4.766  -7.781  -0.234  1.00  0.00     0.040 C 
ATOM     10  C   UNL     1       6.479  -5.429  -0.077  1.00  0.00     0.120 C 
ATOM     11  C   UNL     1       4.470  -6.590   0.668  1.00  0.00     0.120 C 
ATOM     12  N   UNL     1       5.028  -5.389   0.066  1.00  0.00    -0.342 N 
ATOM     13  C   UNL     1       4.308  -4.343  -0.491  1.00  0.00     0.228 C 
ATOM     14  O   UNL     1       4.873  -3.394  -1.044  1.00  0.00    -0.275 OA
BRANCH   7  15
ATOM     15  C   UNL     1       7.041  -8.504   0.782  1.00  0.00     0.015 C 
ATOM     16  C   UNL     1       6.282  -9.482   1.679  1.00  0.00     0.005 C 
ENDBRANCH   7  15
BRANCH  13  17
ATOM     17  C   UNL     1       2.782  -4.347  -0.428  1.00  0.00     0.166 C 
BRANCH  17  18
ATOM     18  C   UNL     1       2.081  -5.007  -1.640  1.00  0.00     0.201 C 
ATOM     19  C   UNL     1       2.551  -4.348  -2.960  1.00  0.00     0.135 C 
ATOM     20  N   UNL     1       2.216  -6.471  -1.545  1.00  0.00    -0.342 N 
ATOM     21  S   UNL     1       1.836  -5.127  -4.443  1.00  0.00    -0.150 SA
ATOM     22  C   UNL     1       1.768  -7.242  -2.707  1.00  0.00     0.271 C 
ATOM     23  H   UNL     1       1.672  -6.781  -0.739  1.00  0.00     0.346 HD
ATOM     24  H   UNL     1       3.217  -6.648  -1.471  1.00  0.00     0.346 HD
ATOM     25  C   UNL     1       2.366  -6.813  -4.047  1.00  0.00     0.131 C 
ENDBRANCH  17  18
ENDBRANCH  13  17
ENDBRANCH   5   7
ENDBRANCH   4   5
ENDBRANCH   3   4
ENDBRANCH   2   3
ENDBRANCH   1   2
BRANCH   1  26
ATOM     26  C   UNL     1       9.781  -8.868  -2.221  1.00  0.00     0.202 C 
BRANCH  26  27
ATOM     27  C   UNL     1      10.666  -7.711  -2.701  1.00  0.00     0.261 C 
BRANCH  27  28
ATOM     28  O   UNL     1      10.030  -6.924  -3.725  1.00  0.00    -0.460 OA
BRANCH  28  29
ATOM     29  C   UNL     1      10.642  -6.957  -4.933  1.00  0.00     0.338 C 
ATOM     30  O   UNL     1      11.703  -7.498  -5.213  1.00  0.00    -0.246 OA
BRANCH  29  31
ATOM     31  C   UNL     1       9.753  -6.395  -5.965  1.00  0.00     0.060 A 
ATOM     32  C   UNL     1       9.403  -7.223  -7.040  1.00  0.00     0.016 A 
ATOM     33  C   UNL     1       9.319  -5.069  -5.920  1.00  0.00     0.016 A 
ATOM     34  C   UNL     1       8.632  -6.721  -8.086  1.00  0.00     0.010 A 
ATOM     35  C   UNL     1       8.558  -4.563  -6.980  1.00  0.00     0.010 A 
ATOM     36  C   UNL     1       8.227  -5.380  -8.076  1.00  0.00    -0.014 A 
BRANCH  36  37
ATOM     37  C   UNL     1       7.523  -4.812  -9.251  1.00  0.00     0.031 A 
ATOM     38  C   UNL     1       8.296  -4.023 -10.269  1.00  0.00     0.074 A 
ATOM     39  C   UNL     1       6.203  -5.011  -9.412  1.00  0.00     0.049 A 
ATOM     40  N   UNL     1       7.862  -3.388 -11.329  1.00  0.00    -0.248 NA
ATOM     41  C   UNL     1       9.751  -3.939 -10.069  1.00  0.00     0.031 C 
ATOM     42  C   UNL     1       5.353  -5.791  -8.514  1.00  0.00     0.029 A 
ATOM     43  N   UNL     1       5.345  -4.556 -10.381  1.00  0.00    -0.354 N 
ATOM     44  C   UNL     1       8.987  -2.827 -11.919  1.00  0.00     0.074 A 
ATOM     45  C   UNL     1      10.120  -3.178 -11.090  1.00  0.00     0.031 C 
ATOM     46  C   UNL     1       4.087  -5.743  -8.964  1.00  0.00     0.029 A 
ATOM     47  C   UNL     1       4.035  -4.901 -10.157  1.00  0.00     0.049 A 
ATOM     48  H   UNL     1       5.640  -4.033 -11.161  1.00  0.00     0.167 HD
ATOM     49  C   UNL     1       9.066  -2.091 -13.053  1.00  0.00     0.037 A 
ATOM     50  C   UNL     1       2.916  -4.546 -10.819  1.00  0.00     0.037 A 
ATOM     51  C   UNL     1       7.936  -1.738 -13.874  1.00  0.00     0.049 A 
ATOM     52  C   UNL     1       3.020  -3.643 -12.018  1.00  0.00     0.074 A 
ATOM     53  C   UNL     1       7.921  -1.022 -15.059  1.00  0.00     0.029 A 
ATOM     54  N   UNL     1       6.620  -2.063 -13.587  1.00  0.00    -0.354 N 
ATOM     55  N   UNL     1       4.090  -3.144 -12.589  1.00  0.00    -0.248 NA
ATOM     56  C   UNL     1       1.758  -3.245 -12.661  1.00  0.00     0.031 C 
ATOM     57  C   UNL     1       6.590  -0.869 -15.460  1.00  0.00     0.029 A 
ATOM     58  C   UNL     1       5.780  -1.528 -14.551  1.00  0.00     0.049 A 
ATOM     59  H   UNL     1       6.325  -2.594 -12.812  1.00  0.00     0.167 HD
ATOM     60  C   UNL     1       3.633  -2.386 -13.660  1.00  0.00     0.074 A 
ATOM     61  C   UNL     1       2.190  -2.508 -13.674  1.00  0.00     0.031 C 
ATOM     62  C   UNL     1       4.345  -1.651 -14.549  1.00  0.00     0.037 A 
BRANCH  49  63
ATOM     63  C   UNL     1      10.419  -1.593 -13.464  1.00  0.00     0.057 A 
ATOM     64  C   UNL     1      11.387  -2.448 -14.006  1.00  0.00     0.134 A 
ATOM     65  C   UNL     1      10.740  -0.234 -13.363  1.00  0.00     0.134 A 
ATOM     66  F   UNL     1      11.147  -3.763 -14.120  1.00  0.00    -0.206 F 
ATOM     67  C   UNL     1      12.633  -1.970 -14.418  1.00  0.00     0.040 A 
ATOM     68  C   UNL     1      11.973   0.260 -13.791  1.00  0.00     0.040 A 
ATOM     69  F   UNL     1       9.855   0.639 -12.857  1.00  0.00    -0.206 F 
ATOM     70  C   UNL     1      12.925  -0.611 -14.317  1.00  0.00     0.006 A 
ENDBRANCH  49  63
BRANCH  50  71
ATOM     71  C   UNL     1       1.592  -5.010 -10.336  1.00  0.00     0.057 A 
ATOM     72  C   UNL     1       0.829  -5.923 -11.072  1.00  0.00     0.134 A 
ATOM     73  C   UNL     1       1.050  -4.533  -9.136  1.00  0.00     0.134 A 
ATOM     74  F   UNL     1       1.282  -6.393 -12.243  1.00  0.00    -0.206 F 
ATOM     75  C   UNL     1      -0.432  -6.337 -10.638  1.00  0.00     0.040 A 
ATOM     76  C   UNL     1      -0.195  -4.961  -8.675  1.00  0.00     0.040 A 
ATOM     77  F   UNL     1       1.729  -3.647  -8.393  1.00  0.00    -0.206 F 
ATOM     78  C   UNL     1      -0.944  -5.860  -9.432  1.00  0.00     0.006 A 
ENDBRANCH  50  71
BRANCH  62  79
ATOM     79  C   UNL     1       3.577  -0.929 -15.617  1.00  0.00     0.057 A 
ATOM     80  C   UNL     1       2.825   0.217 -15.332  1.00  0.00     0.134 A 
ATOM     81  C   UNL     1       3.624  -1.358 -16.949  1.00  0.00     0.134 A 
ATOM     82  F   UNL     1       2.728   0.672 -14.074  1.00  0.00    -0.206 F 
ATOM     83  C   UNL     1       2.134   0.903 -16.333  1.00  0.00     0.040 A 
ATOM     84  C   UNL     1       2.957  -0.667 -17.962  1.00  0.00     0.040 A 
ATOM     85  F   UNL     1       4.332  -2.445 -17.291  1.00  0.00    -0.206 F 
ATOM     86  C   UNL     1       2.205   0.465 -17.654  1.00  0.00     0.006 A 
ENDBRANCH  62  79
ENDBRANCH  36  37
ENDBRANCH  29  31
ENDBRANCH  28  29
ENDBRANCH  27  28
ENDBRANCH  26  27
ENDBRANCH   1  26
TORSDOF 17
