REMARK SMILES Cc1ccccc1/C=C1\SC(=O)N(CC(=O)Nc2ccccc2C(=O)OCCOCCOC(=O)c2ccc(-c3c4nc(c(-c5c(F)cccc5F)c5ccc([nH]5)c(-c5c(F)cccc5F)c5nc(c(-c6c(F)cccc6F)c6ccc3[nH]6)C=C5)C=C4)cc2)C1=O
REMARK SMILES IDX 28 1 27 2 26 3 24 4 25 5 23 6 18 7 19 8 20 9 22 10 21 11
REMARK SMILES IDX 17 12 15 13 16 14 14 16 13 17 8 18 9 19 10 20 89 21 11 22
REMARK SMILES IDX 90 23 12 24 7 25 1 26 2 27 3 28 4 29 6 30 5 31 29 32 30 33
REMARK SMILES IDX 31 34 32 35 33 36 34 37 35 38 36 39 88 40 37 41 87 42 38 43
REMARK SMILES IDX 39 44 40 45 81 46 41 47 86 48 80 49 82 50 42 51 85 52 79 53
REMARK SMILES IDX 78 54 43 56 69 57 52 58 68 59 53 60 56 61 67 62 83 63 54 64
REMARK SMILES IDX 55 65 66 67 84 68 57 69 44 70 45 71 50 72 46 73 47 74 49 75
REMARK SMILES IDX 51 76 48 77 70 78 71 79 76 80 72 81 73 82 75 83 77 84 74 85
REMARK SMILES IDX 58 86 59 87 64 88 60 89 61 90 63 91 65 92 62 93
REMARK H PARENT 17 15 82 55 56 66
REMARK Flexibility Score: inf
ROOT
ATOM      1  C   UNL     1       5.737   2.789  -2.203  1.00  0.00     0.202 C 
ENDROOT
BRANCH   1   2
ATOM      2  C   UNL     1       4.318   2.020  -2.417  1.00  0.00     0.261 C 
BRANCH   2   3
ATOM      3  O   UNL     1       2.636   2.582  -3.428  1.00  0.00    -0.460 OA
BRANCH   3   4
ATOM      4  C   UNL     1       1.749   3.577  -4.045  1.00  0.00     0.340 C 
ATOM      5  O   UNL     1       0.868   4.141  -3.419  1.00  0.00    -0.246 OA
BRANCH   4   6
ATOM      6  C   UNL     1       1.956   4.093  -5.399  1.00  0.00     0.083 A 
ATOM      7  C   UNL     1       2.190   5.471  -5.609  1.00  0.00     0.055 A 
ATOM      8  C   UNL     1       2.141   5.988  -6.903  1.00  0.00     0.027 A 
ATOM      9  C   UNL     1       1.914   5.131  -7.976  1.00  0.00     0.002 A 
ATOM     10  C   UNL     1       1.621   3.263  -6.462  1.00  0.00     0.018 A 
ATOM     11  C   UNL     1       1.639   3.779  -7.754  1.00  0.00     0.001 A 
BRANCH   7  12
ATOM     12  N   UNL     1       2.469   6.392  -4.590  1.00  0.00    -0.324 N 
ATOM     13  C   UNL     1       3.413   6.276  -3.608  1.00  0.00     0.244 C 
ATOM     14  O   UNL     1       3.573   7.224  -2.832  1.00  0.00    -0.273 OA
ATOM     15  H   UNL     1       1.927   7.213  -4.581  1.00  0.00     0.170 HD
BRANCH  13  16
ATOM     16  C   UNL     1       4.428   5.125  -3.671  1.00  0.00     0.230 C 
BRANCH  16  17
ATOM     17  N   UNL     1       3.970   3.770  -3.375  1.00  0.00    -0.259 N 
ATOM     18  C   UNL     1       1.609   1.056  -0.812  1.00  0.00     0.029 C 
ATOM     19  C   UNL     1       2.304   1.636  -1.837  1.00  0.00     0.083 C 
ATOM     20  S   UNL     1       2.921   0.577  -3.718  1.00  0.00    -0.022 SA
ATOM     21  C   UNL     1       2.983   3.524  -1.894  1.00  0.00     0.268 C 
ATOM     22  C   UNL     1       4.127   2.402  -4.494  1.00  0.00     0.294 C 
ATOM     23  O   UNL     1       2.573   4.526  -1.319  1.00  0.00    -0.268 OA
ATOM     24  O   UNL     1       4.729   2.320  -5.555  1.00  0.00    -0.261 OA
BRANCH  18  25
ATOM     25  C   UNL     1       0.840  -0.024  -0.092  1.00  0.00    -0.021 A 
ATOM     26  C   UNL     1       2.836  -1.462   0.497  1.00  0.00     0.045 C 
ATOM     27  C   UNL     1       1.366  -1.192   0.461  1.00  0.00    -0.044 A 
ATOM     28  C   UNL     1       0.519  -2.107   1.154  1.00  0.00     0.004 A 
ATOM     29  C   UNL     1      -0.818  -1.823   1.429  1.00  0.00     0.000 A 
ATOM     30  C   UNL     1      -0.487   0.289   0.345  1.00  0.00     0.008 A 
ATOM     31  C   UNL     1      -1.308  -0.584   1.079  1.00  0.00     0.001 A 
ENDBRANCH  18  25
ENDBRANCH  16  17
ENDBRANCH  13  16
ENDBRANCH   7  12
ENDBRANCH   4   6
ENDBRANCH   3   4
ENDBRANCH   2   3
ENDBRANCH   1   2
BRANCH   1  32
ATOM     32  O   UNL     1       5.575   3.837  -1.253  1.00  0.00    -0.374 OA
BRANCH  32  33
ATOM     33  C   UNL     1       6.790   4.463  -0.855  1.00  0.00     0.202 C 
BRANCH  33  34
ATOM     34  C   UNL     1       7.552   3.579   0.137  1.00  0.00     0.261 C 
BRANCH  34  35
ATOM     35  O   UNL     1       6.766   3.478   1.351  1.00  0.00    -0.460 OA
BRANCH  35  36
ATOM     36  C   UNL     1       5.904   2.425   1.446  1.00  0.00     0.338 C 
ATOM     37  O   UNL     1       6.151   1.278   1.108  1.00  0.00    -0.246 OA
BRANCH  36  38
ATOM     38  C   UNL     1       4.521   2.915   1.776  1.00  0.00     0.060 A 
ATOM     39  C   UNL     1       3.450   2.054   2.043  1.00  0.00     0.016 A 
ATOM     40  C   UNL     1       4.218   4.237   1.519  1.00  0.00     0.016 A 
ATOM     41  C   UNL     1       2.099   2.482   1.863  1.00  0.00     0.010 A 
ATOM     42  C   UNL     1       2.908   4.579   1.183  1.00  0.00     0.010 A 
ATOM     43  C   UNL     1       1.814   3.684   1.200  1.00  0.00    -0.014 A 
BRANCH  43  44
ATOM     44  C   UNL     1       0.493   4.099   0.460  1.00  0.00     0.031 A 
ATOM     45  C   UNL     1      -0.176   5.205   1.168  1.00  0.00     0.074 A 
ATOM     46  C   UNL     1      -0.229   3.723  -0.678  1.00  0.00     0.049 A 
ATOM     47  N   UNL     1      -1.371   5.125   1.672  1.00  0.00    -0.248 NA
ATOM     48  C   UNL     1       0.541   6.437   1.502  1.00  0.00     0.031 C 
ATOM     49  C   UNL     1      -1.256   4.534  -1.361  1.00  0.00     0.029 A 
ATOM     50  N   UNL     1      -0.157   2.650  -1.620  1.00  0.00    -0.354 N 
ATOM     51  C   UNL     1      -1.631   6.412   2.082  1.00  0.00     0.074 A 
ATOM     52  C   UNL     1      -0.334   6.983   2.337  1.00  0.00     0.031 C 
ATOM     53  C   UNL     1      -1.825   3.853  -2.381  1.00  0.00     0.029 A 
ATOM     54  C   UNL     1      -1.287   2.495  -2.437  1.00  0.00     0.049 A 
ATOM     55  H   UNL     1       0.629   2.061  -1.690  1.00  0.00     0.167 HD
ATOM     56  C   UNL     1      -2.744   7.083   1.658  1.00  0.00     0.037 A 
ATOM     57  C   UNL     1      -1.922   1.354  -2.875  1.00  0.00     0.037 A 
ATOM     58  C   UNL     1      -3.526   6.303   0.683  1.00  0.00     0.049 A 
ATOM     59  C   UNL     1      -3.295   1.395  -2.242  1.00  0.00     0.074 A 
ATOM     60  C   UNL     1      -3.806   6.514  -0.661  1.00  0.00     0.029 A 
ATOM     61  N   UNL     1      -3.931   4.995   0.946  1.00  0.00    -0.354 N 
ATOM     62  N   UNL     1      -3.596   2.358  -1.425  1.00  0.00    -0.248 NA
ATOM     63  C   UNL     1      -4.390   0.435  -2.351  1.00  0.00     0.031 C 
ATOM     64  C   UNL     1      -4.480   5.380  -1.169  1.00  0.00     0.029 A 
ATOM     65  C   UNL     1      -4.580   4.452  -0.147  1.00  0.00     0.049 A 
ATOM     66  H   UNL     1      -3.775   4.522   1.795  1.00  0.00     0.167 HD
ATOM     67  C   UNL     1      -4.836   2.215  -0.923  1.00  0.00     0.074 A 
ATOM     68  C   UNL     1      -5.296   0.966  -1.500  1.00  0.00     0.031 C 
ATOM     69  C   UNL     1      -5.288   3.176  -0.073  1.00  0.00     0.037 A 
BRANCH  56  70
ATOM     70  C   UNL     1      -2.880   8.599   1.802  1.00  0.00     0.057 A 
ATOM     71  C   UNL     1      -3.806   9.326   1.034  1.00  0.00     0.134 A 
ATOM     72  C   UNL     1      -2.135   9.408   2.686  1.00  0.00     0.134 A 
ATOM     73  F   UNL     1      -4.745   8.721   0.297  1.00  0.00    -0.206 F 
ATOM     74  C   UNL     1      -3.864  10.726   1.019  1.00  0.00     0.040 A 
ATOM     75  C   UNL     1      -2.134  10.810   2.642  1.00  0.00     0.040 A 
ATOM     76  F   UNL     1      -1.442   8.891   3.708  1.00  0.00    -0.206 F 
ATOM     77  C   UNL     1      -2.996  11.477   1.793  1.00  0.00     0.006 A 
ENDBRANCH  56  70
BRANCH  57  78
ATOM     78  C   UNL     1      -1.223   0.074  -3.253  1.00  0.00     0.057 A 
ATOM     79  C   UNL     1      -0.560  -0.081  -4.483  1.00  0.00     0.134 A 
ATOM     80  C   UNL     1      -1.118  -1.034  -2.415  1.00  0.00     0.134 A 
ATOM     81  F   UNL     1      -0.755   0.804  -5.473  1.00  0.00    -0.206 F 
ATOM     82  C   UNL     1       0.308  -1.162  -4.753  1.00  0.00     0.040 A 
ATOM     83  C   UNL     1      -0.160  -2.048  -2.601  1.00  0.00     0.040 A 
ATOM     84  F   UNL     1      -1.979  -1.182  -1.404  1.00  0.00    -0.206 F 
ATOM     85  C   UNL     1       0.595  -2.092  -3.762  1.00  0.00     0.006 A 
ENDBRANCH  57  78
BRANCH  69  86
ATOM     86  C   UNL     1      -6.503   3.094   0.783  1.00  0.00     0.057 A 
ATOM     87  C   UNL     1      -7.045   1.894   1.250  1.00  0.00     0.134 A 
ATOM     88  C   UNL     1      -7.088   4.275   1.292  1.00  0.00     0.134 A 
ATOM     89  F   UNL     1      -6.509   0.708   0.932  1.00  0.00    -0.206 F 
ATOM     90  C   UNL     1      -8.143   1.872   2.113  1.00  0.00     0.040 A 
ATOM     91  C   UNL     1      -8.139   4.264   2.200  1.00  0.00     0.040 A 
ATOM     92  F   UNL     1      -6.655   5.497   0.947  1.00  0.00    -0.206 F 
ATOM     93  C   UNL     1      -8.687   3.058   2.597  1.00  0.00     0.006 A 
ENDBRANCH  69  86
ENDBRANCH  43  44
ENDBRANCH  36  38
ENDBRANCH  35  36
ENDBRANCH  34  35
ENDBRANCH  33  34
ENDBRANCH  32  33
ENDBRANCH   1  32
TORSDOF 18
