REMARK SMILES CN1C(=O)C(=Cc2ccc(OCc3cccc(C(=O)OCCOCCOC(=O)c4ccc(-c5c6nc(c(-c7c(F)cccc7F)c7ccc([nH]7)c(-c7c(F)cccc7F)c7nc(c(-c8c(F)cccc8F)c8ccc5[nH]8)C=C7)C=C6)cc4)c3)c(Cl)c2)C(=O)N(C)C1=S
REMARK SMILES IDX 22 1 21 2 20 3 18 4 19 5 17 6 13 7 14 8 83 9 15 10 16 11
REMARK SMILES IDX 12 12 11 13 10 14 7 15 8 16 86 17 9 18 84 19 85 20 6 21 1 22
REMARK SMILES IDX 2 23 3 24 91 25 4 26 5 27 89 28 92 29 87 30 90 31 88 32
REMARK SMILES IDX 23 33 24 34 25 35 26 36 27 37 28 38 29 39 30 40 82 41 31 42
REMARK SMILES IDX 81 43 32 44 33 45 34 46 75 47 35 48 80 49 74 50 76 51 36 52
REMARK SMILES IDX 79 53 73 54 72 55 37 57 63 58 46 59 62 60 47 61 50 62 61 63
REMARK SMILES IDX 77 64 48 65 49 66 60 68 78 69 51 70 38 71 39 72 44 73 40 74
REMARK SMILES IDX 41 75 43 76 45 77 42 78 64 79 65 80 70 81 66 82 67 83 69 84
REMARK SMILES IDX 71 85 68 86 52 87 53 88 58 89 54 90 55 91 57 92 59 93 56 94
REMARK H PARENT 76 56 50 67
REMARK Flexibility Score: inf
ROOT
ATOM      1  C   UNL     1      -7.207  -1.841  -0.021  1.00  0.00     0.202 C 
ENDROOT
BRANCH   1   2
ATOM      2  C   UNL     1      -7.540  -1.243  -1.386  1.00  0.00     0.261 C 
BRANCH   2   3
ATOM      3  O   UNL     1      -7.412   0.189  -1.342  1.00  0.00    -0.460 OA
BRANCH   3   4
ATOM      4  C   UNL     1      -8.586   0.862  -1.323  1.00  0.00     0.338 C 
ATOM      5  O   UNL     1      -9.703   0.387  -1.480  1.00  0.00    -0.246 OA
BRANCH   4   6
ATOM      6  C   UNL     1      -8.369   2.280  -0.957  1.00  0.00     0.060 A 
ATOM      7  C   UNL     1      -7.062   4.329  -0.894  1.00  0.00    -0.010 A 
ATOM      8  C   UNL     1      -8.122   4.957  -0.220  1.00  0.00     0.007 A 
ATOM      9  C   UNL     1      -7.197   2.982  -1.274  1.00  0.00     0.023 A 
ATOM     10  C   UNL     1      -9.278   4.255   0.108  1.00  0.00     0.001 A 
ATOM     11  C   UNL     1      -9.403   2.920  -0.262  1.00  0.00     0.016 A 
BRANCH   7  12
ATOM     12  C   UNL     1      -5.826   5.142  -1.219  1.00  0.00     0.265 C 
BRANCH  12  13
ATOM     13  O   UNL     1      -4.596   4.428  -1.179  1.00  0.00    -0.487 OA
BRANCH  13  14
ATOM     14  C   UNL     1      -4.192   3.791  -0.041  1.00  0.00     0.138 A 
ATOM     15  C   UNL     1      -3.113   2.181   1.994  1.00  0.00    -0.023 A 
ATOM     16  C   UNL     1      -2.781   1.940   0.660  1.00  0.00     0.012 A 
ATOM     17  C   UNL     1      -4.009   3.201   2.301  1.00  0.00     0.032 A 
ATOM     18  C   UNL     1      -3.303   2.750  -0.341  1.00  0.00     0.048 A 
ATOM     19  C   UNL     1      -4.524   4.029   1.299  1.00  0.00     0.083 A 
ATOM     20  Cl  UNL     1      -5.470   5.347   1.888  1.00  0.00    -0.080 Cl
BRANCH  15  21
ATOM     21  C   UNL     1      -2.619   1.364   3.097  1.00  0.00     0.027 C 
ATOM     22  C   UNL     1       1.488   0.119   1.041  1.00  0.00     0.156 C 
ATOM     23  N   UNL     1       0.651   0.117   2.248  1.00  0.00    -0.288 N 
ATOM     24  C   UNL     1      -0.234   1.173   2.381  1.00  0.00     0.265 C 
ATOM     25  C   UNL     1       0.761  -0.904   3.196  1.00  0.00     0.185 C 
ATOM     26  O   UNL     1      -0.100   2.249   1.808  1.00  0.00    -0.268 OA
ATOM     27  C   UNL     1      -1.369   0.905   3.281  1.00  0.00     0.106 C 
ATOM     28  N   UNL     1      -0.378  -1.136   3.969  1.00  0.00    -0.288 N 
ATOM     29  S   UNL     1       2.185  -1.760   3.437  1.00  0.00    -0.040 S 
ATOM     30  C   UNL     1      -1.282  -0.150   4.294  1.00  0.00     0.265 C 
ATOM     31  C   UNL     1      -0.736  -2.469   4.429  1.00  0.00     0.156 C 
ATOM     32  O   UNL     1      -2.018  -0.185   5.276  1.00  0.00    -0.268 OA
ENDBRANCH  15  21
ENDBRANCH  13  14
ENDBRANCH  12  13
ENDBRANCH   7  12
ENDBRANCH   4   6
ENDBRANCH   3   4
ENDBRANCH   2   3
ENDBRANCH   1   2
BRANCH   1  33
ATOM     33  O   UNL     1      -8.110  -1.453   1.014  1.00  0.00    -0.374 OA
BRANCH  33  34
ATOM     34  C   UNL     1      -7.677  -0.350   1.815  1.00  0.00     0.202 C 
BRANCH  34  35
ATOM     35  C   UNL     1      -6.729  -0.743   2.956  1.00  0.00     0.261 C 
BRANCH  35  36
ATOM     36  O   UNL     1      -5.455  -1.197   2.456  1.00  0.00    -0.460 OA
BRANCH  36  37
ATOM     37  C   UNL     1      -5.265  -2.539   2.417  1.00  0.00     0.338 C 
ATOM     38  O   UNL     1      -6.031  -3.395   2.843  1.00  0.00    -0.246 OA
BRANCH  37  39
ATOM     39  C   UNL     1      -3.995  -2.875   1.717  1.00  0.00     0.060 A 
ATOM     40  C   UNL     1      -3.740  -4.206   1.361  1.00  0.00     0.016 A 
ATOM     41  C   UNL     1      -3.042  -1.903   1.411  1.00  0.00     0.016 A 
ATOM     42  C   UNL     1      -2.510  -4.573   0.792  1.00  0.00     0.010 A 
ATOM     43  C   UNL     1      -1.810  -2.270   0.863  1.00  0.00     0.010 A 
ATOM     44  C   UNL     1      -1.510  -3.615   0.593  1.00  0.00    -0.014 A 
BRANCH  44  45
ATOM     45  C   UNL     1      -0.149  -3.973   0.103  1.00  0.00     0.031 A 
ATOM     46  C   UNL     1       0.895  -4.547   1.029  1.00  0.00     0.074 A 
ATOM     47  C   UNL     1       0.196  -3.648  -1.154  1.00  0.00     0.049 A 
ATOM     48  N   UNL     1       2.194  -4.631   0.875  1.00  0.00    -0.248 NA
ATOM     49  C   UNL     1       0.420  -5.020   2.330  1.00  0.00     0.031 C 
ATOM     50  C   UNL     1      -0.710  -3.101  -2.163  1.00  0.00     0.029 A 
ATOM     51  N   UNL     1       1.404  -3.738  -1.792  1.00  0.00    -0.354 N 
ATOM     52  C   UNL     1       2.705  -4.994   2.124  1.00  0.00     0.074 A 
ATOM     53  C   UNL     1       1.560  -5.177   2.991  1.00  0.00     0.031 C 
ATOM     54  C   UNL     1      -0.029  -2.934  -3.309  1.00  0.00     0.029 A 
ATOM     55  C   UNL     1       1.357  -3.349  -3.106  1.00  0.00     0.049 A 
ATOM     56  H   UNL     1       2.226  -4.052  -1.351  1.00  0.00     0.167 HD
ATOM     57  C   UNL     1       4.006  -5.096   2.511  1.00  0.00     0.037 A 
ATOM     58  C   UNL     1       2.319  -3.362  -4.046  1.00  0.00     0.037 A 
ATOM     59  C   UNL     1       5.106  -5.103   1.574  1.00  0.00     0.049 A 
ATOM     60  C   UNL     1       3.694  -3.849  -3.689  1.00  0.00     0.074 A 
ATOM     61  C   UNL     1       6.442  -5.384   1.806  1.00  0.00     0.029 A 
ATOM     62  N   UNL     1       4.980  -4.869   0.214  1.00  0.00    -0.354 N 
ATOM     63  N   UNL     1       4.178  -4.160  -2.511  1.00  0.00    -0.248 NA
ATOM     64  C   UNL     1       4.648  -4.016  -4.794  1.00  0.00     0.031 C 
ATOM     65  C   UNL     1       7.122  -5.331   0.583  1.00  0.00     0.029 A 
ATOM     66  C   UNL     1       6.201  -5.052  -0.413  1.00  0.00     0.049 A 
ATOM     67  H   UNL     1       4.146  -4.612  -0.240  1.00  0.00     0.167 HD
ATOM     68  C   UNL     1       5.482  -4.582  -2.735  1.00  0.00     0.074 A 
ATOM     69  C   UNL     1       5.707  -4.506  -4.163  1.00  0.00     0.031 C 
ATOM     70  C   UNL     1       6.409  -4.992  -1.836  1.00  0.00     0.037 A 
BRANCH  57  71
ATOM     71  C   UNL     1       4.335  -5.185   3.987  1.00  0.00     0.057 A 
ATOM     72  C   UNL     1       3.902  -6.228   4.814  1.00  0.00     0.134 A 
ATOM     73  C   UNL     1       5.148  -4.207   4.591  1.00  0.00     0.134 A 
ATOM     74  F   UNL     1       3.156  -7.227   4.317  1.00  0.00    -0.206 F 
ATOM     75  C   UNL     1       4.194  -6.260   6.182  1.00  0.00     0.040 A 
ATOM     76  C   UNL     1       5.488  -4.253   5.947  1.00  0.00     0.040 A 
ATOM     77  F   UNL     1       5.652  -3.193   3.870  1.00  0.00    -0.206 F 
ATOM     78  C   UNL     1       4.992  -5.272   6.752  1.00  0.00     0.006 A 
ENDBRANCH  57  71
BRANCH  58  79
ATOM     79  C   UNL     1       1.956  -3.037  -5.444  1.00  0.00     0.057 A 
ATOM     80  C   UNL     1       1.792  -4.066  -6.379  1.00  0.00     0.134 A 
ATOM     81  C   UNL     1       1.699  -1.729  -5.863  1.00  0.00     0.134 A 
ATOM     82  F   UNL     1       2.025  -5.339  -6.028  1.00  0.00    -0.206 F 
ATOM     83  C   UNL     1       1.399  -3.805  -7.690  1.00  0.00     0.040 A 
ATOM     84  C   UNL     1       1.284  -1.455  -7.167  1.00  0.00     0.040 A 
ATOM     85  F   UNL     1       1.809  -0.707  -5.001  1.00  0.00    -0.206 F 
ATOM     86  C   UNL     1       1.137  -2.495  -8.085  1.00  0.00     0.006 A 
ENDBRANCH  58  79
BRANCH  70  87
ATOM     87  C   UNL     1       7.743  -5.431  -2.363  1.00  0.00     0.057 A 
ATOM     88  C   UNL     1       8.684  -4.518  -2.853  1.00  0.00     0.134 A 
ATOM     89  C   UNL     1       8.110  -6.783  -2.324  1.00  0.00     0.134 A 
ATOM     90  F   UNL     1       8.390  -3.211  -2.924  1.00  0.00    -0.206 F 
ATOM     91  C   UNL     1       9.937  -4.936  -3.304  1.00  0.00     0.040 A 
ATOM     92  C   UNL     1       9.368  -7.210  -2.751  1.00  0.00     0.040 A 
ATOM     93  F   UNL     1       7.256  -7.708  -1.859  1.00  0.00    -0.206 F 
ATOM     94  C   UNL     1      10.284  -6.285  -3.247  1.00  0.00     0.006 A 
ENDBRANCH  70  87
ENDBRANCH  44  45
ENDBRANCH  37  39
ENDBRANCH  36  37
ENDBRANCH  35  36
ENDBRANCH  34  35
ENDBRANCH  33  34
ENDBRANCH   1  33
TORSDOF 18
