REMARK SMILES CCCC(=O)N(c1cc2sc(=O)oc2c2ccccc12)S(=O)(=O)c1ccc(C(=O)OCCOCCOC(=O)c2ccc(-c3c4nc(c(-c5c(F)cccc5F)c5ccc([nH]5)c(-c5c(F)cccc5F)c5nc(c(-c6c(F)cccc6F)c6ccc3[nH]6)C=C5)C=C4)cc2)cc1
REMARK SMILES IDX 31 1 30 2 28 3 29 4 27 5 24 6 25 7 94 8 26 9 93 10 21 11
REMARK SMILES IDX 22 12 23 13 6 14 4 15 5 16 3 17 2 18 1 19 7 20 8 21 20 22
REMARK SMILES IDX 9 23 15 24 19 25 10 26 14 27 16 28 18 29 11 30 13 31 17 32
REMARK SMILES IDX 12 33 32 34 33 35 34 36 35 37 36 38 37 39 38 40 39 41 40 42
REMARK SMILES IDX 92 43 41 44 91 45 42 46 43 47 44 48 85 49 45 50 90 51 84 52
REMARK SMILES IDX 86 53 46 54 89 55 83 56 82 57 47 59 73 60 56 61 72 62 57 63
REMARK SMILES IDX 60 64 71 65 87 66 58 67 59 68 70 70 88 71 61 72 48 73 49 74
REMARK SMILES IDX 54 75 50 76 51 77 53 78 55 79 52 80 74 81 75 82 80 83 76 84
REMARK SMILES IDX 77 85 79 86 81 87 78 88 62 89 63 90 68 91 64 92 65 93 67 94
REMARK SMILES IDX 69 95 66 96
REMARK H PARENT 86 58 60 69
REMARK Flexibility Score: inf
ROOT
ATOM      1  C   UNL     1       2.113   1.206  -9.439  1.00  0.00     0.261 C 
ENDROOT
BRANCH   1   2
ATOM      2  O   UNL     1       1.770   1.304  -8.049  1.00  0.00    -0.460 OA
BRANCH   2   3
ATOM      3  C   UNL     1       2.477   2.221  -7.343  1.00  0.00     0.338 C 
ATOM      4  O   UNL     1       3.462   2.837  -7.715  1.00  0.00    -0.246 OA
BRANCH   3   5
ATOM      5  C   UNL     1       1.791   2.510  -6.059  1.00  0.00     0.060 A 
ATOM      6  C   UNL     1       0.515   3.187  -3.668  1.00  0.00     0.088 A 
ATOM      7  C   UNL     1       1.297   4.142  -4.324  1.00  0.00     0.023 A 
ATOM      8  C   UNL     1       0.316   1.919  -4.234  1.00  0.00     0.023 A 
ATOM      9  C   UNL     1       1.937   3.798  -5.518  1.00  0.00     0.017 A 
ATOM     10  C   UNL     1       0.973   1.572  -5.418  1.00  0.00     0.017 A 
BRANCH   6  11
ATOM     11  S   UNL     1      -0.277   3.580  -2.104  1.00  0.00     0.270 S 
ATOM     12  O   UNL     1      -1.597   2.990  -2.181  1.00  0.00    -0.201 OA
ATOM     13  O   UNL     1      -0.091   5.006  -1.911  1.00  0.00    -0.201 OA
BRANCH  11  14
ATOM     14  N   UNL     1       0.636   2.794  -0.907  1.00  0.00    -0.202 N 
BRANCH  14  15
ATOM     15  C   UNL     1       0.285   2.939   0.472  1.00  0.00     0.241 C 
ATOM     16  O   UNL     1      -0.784   3.433   0.820  1.00  0.00    -0.273 OA
BRANCH  15  17
ATOM     17  C   UNL     1       1.302   2.528   1.532  1.00  0.00     0.101 C 
BRANCH  17  18
ATOM     18  C   UNL     1       1.002   1.180   2.189  1.00  0.00     0.006 C 
ATOM     19  C   UNL     1       2.193   0.231   2.134  1.00  0.00     0.004 C 
ENDBRANCH  17  18
ENDBRANCH  15  17
ENDBRANCH  14  15
BRANCH  14  20
ATOM     20  C   UNL     1       1.479   1.696  -1.281  1.00  0.00     0.070 A 
ATOM     21  C   UNL     1       2.747   2.043  -1.776  1.00  0.00     0.051 A 
ATOM     22  C   UNL     1       1.069   0.330  -1.179  1.00  0.00     0.010 A 
ATOM     23  C   UNL     1       3.601   1.044  -2.187  1.00  0.00     0.080 A 
ATOM     24  C   UNL     1       2.015  -0.673  -1.506  1.00  0.00     0.028 A 
ATOM     25  C   UNL     1      -0.209  -0.097  -0.737  1.00  0.00     0.011 A 
ATOM     26  S   UNL     1       5.180   1.218  -2.920  1.00  0.00    -0.052 S 
ATOM     27  C   UNL     1       3.252  -0.289  -2.040  1.00  0.00     0.157 A 
ATOM     28  C   UNL     1       1.708  -2.022  -1.262  1.00  0.00     0.013 A 
ATOM     29  C   UNL     1      -0.491  -1.446  -0.498  1.00  0.00     0.001 A 
ATOM     30  C   UNL     1       5.288  -0.544  -2.991  1.00  0.00     0.396 A 
ATOM     31  O   UNL     1       4.199  -1.231  -2.461  1.00  0.00    -0.413 OA
ATOM     32  C   UNL     1       0.479  -2.407  -0.736  1.00  0.00     0.001 A 
ATOM     33  O   UNL     1       6.262  -1.110  -3.467  1.00  0.00    -0.233 OA
ENDBRANCH  14  20
ENDBRANCH  11  14
ENDBRANCH   6  11
ENDBRANCH   3   5
ENDBRANCH   2   3
ENDBRANCH   1   2
BRANCH   1  34
ATOM     34  C   UNL     1       0.929   1.577 -10.342  1.00  0.00     0.202 C 
BRANCH  34  35
ATOM     35  O   UNL     1       0.365   2.873 -10.153  1.00  0.00    -0.374 OA
BRANCH  35  36
ATOM     36  C   UNL     1      -0.508   3.070  -9.036  1.00  0.00     0.202 C 
BRANCH  36  37
ATOM     37  C   UNL     1      -1.802   2.245  -9.008  1.00  0.00     0.261 C 
BRANCH  37  38
ATOM     38  O   UNL     1      -1.534   0.915  -8.529  1.00  0.00    -0.460 OA
BRANCH  38  39
ATOM     39  C   UNL     1      -1.956  -0.104  -9.323  1.00  0.00     0.338 C 
ATOM     40  O   UNL     1      -2.621  -0.053 -10.328  1.00  0.00    -0.246 OA
BRANCH  39  41
ATOM     41  C   UNL     1      -1.239  -1.300  -8.851  1.00  0.00     0.060 A 
ATOM     42  C   UNL     1      -1.510  -1.832  -7.593  1.00  0.00     0.016 A 
ATOM     43  C   UNL     1      -0.223  -1.823  -9.657  1.00  0.00     0.016 A 
ATOM     44  C   UNL     1      -0.736  -2.893  -7.132  1.00  0.00     0.010 A 
ATOM     45  C   UNL     1       0.574  -2.856  -9.176  1.00  0.00     0.010 A 
ATOM     46  C   UNL     1       0.317  -3.403  -7.914  1.00  0.00    -0.014 A 
BRANCH  46  47
ATOM     47  C   UNL     1       1.072  -4.555  -7.384  1.00  0.00     0.031 A 
ATOM     48  C   UNL     1       1.512  -5.575  -8.397  1.00  0.00     0.074 A 
ATOM     49  C   UNL     1       1.859  -4.361  -6.305  1.00  0.00     0.049 A 
ATOM     50  N   UNL     1       2.584  -5.491  -9.131  1.00  0.00    -0.248 NA
ATOM     51  C   UNL     1       0.602  -6.647  -8.805  1.00  0.00     0.031 C 
ATOM     52  C   UNL     1       2.772  -3.221  -6.165  1.00  0.00     0.029 A 
ATOM     53  N   UNL     1       2.208  -5.220  -5.285  1.00  0.00    -0.354 N 
ATOM     54  C   UNL     1       2.495  -6.479 -10.102  1.00  0.00     0.074 A 
ATOM     55  C   UNL     1       1.248  -7.169  -9.858  1.00  0.00     0.031 C 
ATOM     56  C   UNL     1       3.677  -3.515  -5.212  1.00  0.00     0.029 A 
ATOM     57  C   UNL     1       3.353  -4.809  -4.604  1.00  0.00     0.049 A 
ATOM     58  H   UNL     1       1.704  -6.035  -5.061  1.00  0.00     0.167 HD
ATOM     59  C   UNL     1       3.439  -6.697 -11.056  1.00  0.00     0.037 A 
ATOM     60  C   UNL     1       4.274  -5.665  -4.082  1.00  0.00     0.037 A 
ATOM     61  C   UNL     1       4.591  -5.853 -11.004  1.00  0.00     0.049 A 
ATOM     62  C   UNL     1       5.047  -6.054  -5.309  1.00  0.00     0.074 A 
ATOM     63  C   UNL     1       5.026  -4.684 -11.587  1.00  0.00     0.029 A 
ATOM     64  N   UNL     1       5.596  -6.202 -10.133  1.00  0.00    -0.354 N 
ATOM     65  N   UNL     1       5.979  -5.341  -5.879  1.00  0.00    -0.248 NA
ATOM     66  C   UNL     1       4.500  -7.123  -6.145  1.00  0.00     0.031 C 
ATOM     67  C   UNL     1       6.018  -4.163 -10.698  1.00  0.00     0.029 A 
ATOM     68  C   UNL     1       6.079  -5.032  -9.610  1.00  0.00     0.049 A 
ATOM     69  H   UNL     1       5.907  -7.113  -9.927  1.00  0.00     0.167 HD
ATOM     70  C   UNL     1       5.935  -5.687  -7.230  1.00  0.00     0.074 A 
ATOM     71  C   UNL     1       5.052  -6.833  -7.316  1.00  0.00     0.031 C 
ATOM     72  C   UNL     1       6.438  -4.894  -8.220  1.00  0.00     0.037 A 
BRANCH  59  73
ATOM     73  C   UNL     1       3.450  -7.845 -11.984  1.00  0.00     0.057 A 
ATOM     74  C   UNL     1       2.944  -7.768 -13.282  1.00  0.00     0.134 A 
ATOM     75  C   UNL     1       4.216  -8.968 -11.645  1.00  0.00     0.134 A 
ATOM     76  F   UNL     1       2.221  -6.707 -13.671  1.00  0.00    -0.206 F 
ATOM     77  C   UNL     1       3.226  -8.762 -14.224  1.00  0.00     0.040 A 
ATOM     78  C   UNL     1       4.512  -9.961 -12.575  1.00  0.00     0.040 A 
ATOM     79  F   UNL     1       4.747  -9.072 -10.415  1.00  0.00    -0.206 F 
ATOM     80  C   UNL     1       4.027  -9.852 -13.876  1.00  0.00     0.006 A 
ENDBRANCH  59  73
BRANCH  60  81
ATOM     81  C   UNL     1       3.807  -6.621  -3.035  1.00  0.00     0.057 A 
ATOM     82  C   UNL     1       3.961  -8.010  -3.032  1.00  0.00     0.134 A 
ATOM     83  C   UNL     1       3.178  -6.085  -1.898  1.00  0.00     0.134 A 
ATOM     84  F   UNL     1       4.649  -8.640  -3.991  1.00  0.00    -0.206 F 
ATOM     85  C   UNL     1       3.409  -8.818  -2.028  1.00  0.00     0.040 A 
ATOM     86  C   UNL     1       2.632  -6.871  -0.880  1.00  0.00     0.040 A 
ATOM     87  F   UNL     1       3.101  -4.759  -1.742  1.00  0.00    -0.206 F 
ATOM     88  C   UNL     1       2.727  -8.251  -0.957  1.00  0.00     0.006 A 
ENDBRANCH  60  81
BRANCH  72  89
ATOM     89  C   UNL     1       7.133  -3.661  -7.751  1.00  0.00     0.057 A 
ATOM     90  C   UNL     1       6.557  -2.392  -7.911  1.00  0.00     0.134 A 
ATOM     91  C   UNL     1       8.380  -3.732  -7.126  1.00  0.00     0.134 A 
ATOM     92  F   UNL     1       5.347  -2.247  -8.476  1.00  0.00    -0.206 F 
ATOM     93  C   UNL     1       7.215  -1.234  -7.498  1.00  0.00     0.040 A 
ATOM     94  C   UNL     1       9.035  -2.583  -6.683  1.00  0.00     0.040 A 
ATOM     95  F   UNL     1       8.986  -4.917  -6.948  1.00  0.00    -0.206 F 
ATOM     96  C   UNL     1       8.458  -1.329  -6.878  1.00  0.00     0.006 A 
ENDBRANCH  72  89
ENDBRANCH  46  47
ENDBRANCH  39  41
ENDBRANCH  38  39
ENDBRANCH  37  38
ENDBRANCH  36  37
ENDBRANCH  35  36
ENDBRANCH  34  35
ENDBRANCH   1  34
TORSDOF 20
