REMARK SMILES O=C(C[C@H]1C[C@H]2CC[C@@H](C1)N2C(=O)c1c[nH]c(=O)[nH]1)OCCOCCOC(=O)c1ccc(-c2c3nc(c(-c4c(F)cccc4F)c4ccc([nH]4)c(-c4c(F)cccc4F)c4nc(c(-c5c(F)cccc5F)c5ccc2[nH]5)C=C4)C=C3)cc1
REMARK SMILES IDX 22 1 21 2 20 3 2 4 1 5 3 6 4 7 5 8 10 9 6 10 9 11 7 12 11 13
REMARK SMILES IDX 8 14 12 15 13 16 14 17 15 18 19 19 16 20 17 21 18 24 23 25
REMARK SMILES IDX 24 26 25 27 26 28 27 29 28 30 29 31 30 32 82 33 31 34 81 35
REMARK SMILES IDX 32 36 33 37 34 38 75 39 35 40 80 41 74 42 76 43 36 44 79 45
REMARK SMILES IDX 73 46 72 47 37 49 63 50 46 51 62 52 47 53 50 54 61 55 77 56
REMARK SMILES IDX 48 57 49 58 60 60 78 61 51 62 38 63 39 64 44 65 40 66 41 67
REMARK SMILES IDX 43 68 45 69 42 70 64 71 65 72 70 73 66 74 67 75 69 76 71 77
REMARK SMILES IDX 68 78 52 79 53 80 58 81 54 82 55 83 57 84 59 85 56 86
REMARK H PARENT 19 22 16 23 76 48 50 59
REMARK Flexibility Score: inf
ROOT
ATOM      1  C   UNL     1       4.062   0.909  -1.150  1.00  0.00     0.202 C 
ENDROOT
BRANCH   1   2
ATOM      2  C   UNL     1       4.131  -0.613  -1.093  1.00  0.00     0.261 C 
BRANCH   2   3
ATOM      3  O   UNL     1       2.834  -1.211  -0.956  1.00  0.00    -0.463 OA
BRANCH   3   4
ATOM      4  C   UNL     1       2.160  -1.462   0.181  1.00  0.00     0.306 C 
ATOM      5  O   UNL     1       1.040  -1.969   0.094  1.00  0.00    -0.252 OA
BRANCH   4   6
ATOM      6  C   UNL     1       2.669  -1.030   1.545  1.00  0.00     0.126 C 
BRANCH   6   7
ATOM      7  C   UNL     1       4.049  -1.498   2.054  1.00  0.00     0.004 C 
ATOM      8  C   UNL     1       5.100  -0.350   2.119  1.00  0.00     0.029 C 
ATOM      9  C   UNL     1       3.975  -2.199   3.448  1.00  0.00     0.029 C 
ATOM     10  C   UNL     1       5.090   0.476   3.414  1.00  0.00     0.086 C 
ATOM     11  C   UNL     1       4.145  -1.244   4.654  1.00  0.00     0.086 C 
ATOM     12  C   UNL     1       3.730   1.019   3.856  1.00  0.00     0.027 C 
ATOM     13  N   UNL     1       5.369  -0.477   4.457  1.00  0.00    -0.331 N 
ATOM     14  C   UNL     1       3.085  -0.133   4.651  1.00  0.00     0.027 C 
BRANCH  13  15
ATOM     15  C   UNL     1       6.595  -0.541   5.060  1.00  0.00     0.272 C 
ATOM     16  O   UNL     1       7.502   0.261   4.848  1.00  0.00    -0.267 OA
BRANCH  15  17
ATOM     17  C   UNL     1       6.795  -1.623   6.031  1.00  0.00     0.125 A 
ATOM     18  C   UNL     1       6.905  -2.933   5.777  1.00  0.00     0.119 A 
ATOM     19  N   UNL     1       6.974  -1.405   7.373  1.00  0.00    -0.302 N 
ATOM     20  N   UNL     1       7.133  -3.578   6.967  1.00  0.00    -0.312 N 
ATOM     21  C   UNL     1       7.186  -2.632   8.004  1.00  0.00     0.323 A 
ATOM     22  H   UNL     1       6.957  -0.527   7.818  1.00  0.00     0.172 HD
ATOM     23  H   UNL     1       7.243  -4.550   7.076  1.00  0.00     0.171 HD
ATOM     24  O   UNL     1       7.372  -2.840   9.187  1.00  0.00    -0.248 OA
ENDBRANCH  15  17
ENDBRANCH  13  15
ENDBRANCH   6   7
ENDBRANCH   4   6
ENDBRANCH   3   4
ENDBRANCH   2   3
ENDBRANCH   1   2
BRANCH   1  25
ATOM     25  O   UNL     1       3.553   1.485   0.052  1.00  0.00    -0.374 OA
BRANCH  25  26
ATOM     26  C   UNL     1       2.350   2.243  -0.091  1.00  0.00     0.202 C 
BRANCH  26  27
ATOM     27  C   UNL     1       2.607   3.708  -0.448  1.00  0.00     0.261 C 
BRANCH  27  28
ATOM     28  O   UNL     1       3.142   3.798  -1.776  1.00  0.00    -0.460 OA
BRANCH  28  29
ATOM     29  C   UNL     1       4.485   3.948  -1.858  1.00  0.00     0.338 C 
ATOM     30  O   UNL     1       5.258   4.213  -0.953  1.00  0.00    -0.246 OA
BRANCH  29  31
ATOM     31  C   UNL     1       4.916   3.506  -3.203  1.00  0.00     0.060 A 
ATOM     32  C   UNL     1       6.154   2.857  -3.317  1.00  0.00     0.016 A 
ATOM     33  C   UNL     1       4.095   3.665  -4.323  1.00  0.00     0.016 A 
ATOM     34  C   UNL     1       6.587   2.392  -4.556  1.00  0.00     0.010 A 
ATOM     35  C   UNL     1       4.530   3.207  -5.564  1.00  0.00     0.010 A 
ATOM     36  C   UNL     1       5.790   2.599  -5.688  1.00  0.00    -0.014 A 
BRANCH  36  37
ATOM     37  C   UNL     1       6.354   2.391  -7.037  1.00  0.00     0.031 A 
ATOM     38  C   UNL     1       6.904   3.590  -7.754  1.00  0.00     0.074 A 
ATOM     39  C   UNL     1       6.361   1.177  -7.611  1.00  0.00     0.049 A 
ATOM     40  N   UNL     1       7.364   3.693  -8.973  1.00  0.00    -0.248 NA
ATOM     41  C   UNL     1       6.927   4.851  -6.991  1.00  0.00     0.031 C 
ATOM     42  C   UNL     1       5.882  -0.057  -6.991  1.00  0.00     0.029 A 
ATOM     43  N   UNL     1       6.776   0.790  -8.858  1.00  0.00    -0.354 N 
ATOM     44  C   UNL     1       7.723   5.026  -9.124  1.00  0.00     0.074 A 
ATOM     45  C   UNL     1       7.395   5.702  -7.889  1.00  0.00     0.031 C 
ATOM     46  C   UNL     1       6.020  -1.066  -7.869  1.00  0.00     0.029 A 
ATOM     47  C   UNL     1       6.564  -0.540  -9.119  1.00  0.00     0.049 A 
ATOM     48  H   UNL     1       7.187   1.408  -9.505  1.00  0.00     0.167 HD
ATOM     49  C   UNL     1       8.285   5.629 -10.196  1.00  0.00     0.037 A 
ATOM     50  C   UNL     1       6.770  -1.240 -10.252  1.00  0.00     0.037 A 
ATOM     51  C   UNL     1       8.599   4.948 -11.421  1.00  0.00     0.049 A 
ATOM     52  C   UNL     1       7.331  -0.531 -11.457  1.00  0.00     0.074 A 
ATOM     53  C   UNL     1       9.173   5.458 -12.571  1.00  0.00     0.029 A 
ATOM     54  N   UNL     1       8.355   3.602 -11.655  1.00  0.00    -0.354 N 
ATOM     55  N   UNL     1       7.685   0.725 -11.589  1.00  0.00    -0.248 NA
ATOM     56  C   UNL     1       7.523  -1.338 -12.670  1.00  0.00     0.031 C 
ATOM     57  C   UNL     1       9.238   4.430 -13.517  1.00  0.00     0.029 A 
ATOM     58  C   UNL     1       8.751   3.268 -12.938  1.00  0.00     0.049 A 
ATOM     59  H   UNL     1       7.959   2.978 -11.005  1.00  0.00     0.167 HD
ATOM     60  C   UNL     1       8.168   0.853 -12.885  1.00  0.00     0.074 A 
ATOM     61  C   UNL     1       8.071  -0.458 -13.496  1.00  0.00     0.031 C 
ATOM     62  C   UNL     1       8.652   1.952 -13.516  1.00  0.00     0.037 A 
BRANCH  49  63
ATOM     63  C   UNL     1       8.569   7.098 -10.087  1.00  0.00     0.057 A 
ATOM     64  C   UNL     1       9.585   7.595  -9.261  1.00  0.00     0.134 A 
ATOM     65  C   UNL     1       7.819   8.026 -10.819  1.00  0.00     0.134 A 
ATOM     66  F   UNL     1      10.325   6.760  -8.515  1.00  0.00    -0.206 F 
ATOM     67  C   UNL     1       9.831   8.965  -9.149  1.00  0.00     0.040 A 
ATOM     68  C   UNL     1       8.072   9.396 -10.736  1.00  0.00     0.040 A 
ATOM     69  F   UNL     1       6.827   7.618 -11.625  1.00  0.00    -0.206 F 
ATOM     70  C   UNL     1       9.076   9.869  -9.894  1.00  0.00     0.006 A 
ENDBRANCH  49  63
BRANCH  50  71
ATOM     71  C   UNL     1       6.443  -2.688 -10.306  1.00  0.00     0.057 A 
ATOM     72  C   UNL     1       7.451  -3.653 -10.408  1.00  0.00     0.134 A 
ATOM     73  C   UNL     1       5.119  -3.141 -10.276  1.00  0.00     0.134 A 
ATOM     74  F   UNL     1       8.739  -3.281 -10.463  1.00  0.00    -0.206 F 
ATOM     75  C   UNL     1       7.155  -5.015 -10.494  1.00  0.00     0.040 A 
ATOM     76  C   UNL     1       4.809  -4.501 -10.337  1.00  0.00     0.040 A 
ATOM     77  F   UNL     1       4.106  -2.267 -10.178  1.00  0.00    -0.206 F 
ATOM     78  C   UNL     1       5.830  -5.442 -10.454  1.00  0.00     0.006 A 
ENDBRANCH  50  71
BRANCH  62  79
ATOM     79  C   UNL     1       9.152   1.774 -14.919  1.00  0.00     0.057 A 
ATOM     80  C   UNL     1       8.280   1.584 -15.998  1.00  0.00     0.134 A 
ATOM     81  C   UNL     1      10.523   1.846 -15.198  1.00  0.00     0.134 A 
ATOM     82  F   UNL     1       6.957   1.496 -15.795  1.00  0.00    -0.206 F 
ATOM     83  C   UNL     1       8.756   1.450 -17.303  1.00  0.00     0.040 A 
ATOM     84  C   UNL     1      11.009   1.741 -16.502  1.00  0.00     0.040 A 
ATOM     85  F   UNL     1      11.410   2.038 -14.210  1.00  0.00    -0.206 F 
ATOM     86  C   UNL     1      10.124   1.536 -17.558  1.00  0.00     0.006 A 
ENDBRANCH  62  79
ENDBRANCH  36  37
ENDBRANCH  29  31
ENDBRANCH  28  29
ENDBRANCH  27  28
ENDBRANCH  26  27
ENDBRANCH  25  26
ENDBRANCH   1  25
TORSDOF 17
