REMARK SMILES O=C(OCCOCCOC(=O)[C@H]1CS[C@]2(c3ccccc3)CCC(=O)N12)c1ccc(-c2c3nc(c(-c4c(F)cccc4F)c4ccc([nH]4)c(-c4c(F)cccc4F)c4nc(c(-c5c(F)cccc5F)c5ccc2[nH]5)C=C4)C=C3)cc1
REMARK SMILES IDX 5 1 4 2 3 3 2 4 1 5 27 6 28 7 80 8 29 9 79 10 30 11 31 12
REMARK SMILES IDX 32 13 73 14 33 15 78 16 72 17 74 18 34 19 77 20 71 21 70 22
REMARK SMILES IDX 35 24 61 25 44 26 60 27 45 28 48 29 59 30 75 31 46 32 47 33
REMARK SMILES IDX 58 35 76 36 49 37 36 38 37 39 42 40 38 41 39 42 41 43 43 44
REMARK SMILES IDX 40 45 62 46 63 47 68 48 64 49 65 50 67 51 69 52 66 53 50 54
REMARK SMILES IDX 51 55 56 56 52 57 53 58 55 59 57 60 54 61 6 62 7 63 8 64
REMARK SMILES IDX 9 65 10 66 11 67 12 68 13 69 26 70 14 71 15 72 24 73 22 74
REMARK SMILES IDX 23 75 25 76 16 77 17 78 21 79 18 80 20 81 19 82
REMARK H PARENT 74 23 48 34
REMARK Flexibility Score: inf
ROOT
ATOM      1  C   UNL     1       3.257   0.069   1.728  1.00  0.00     0.202 C 
ENDROOT
BRANCH   1   2
ATOM      2  C   UNL     1       2.582   0.153   0.361  1.00  0.00     0.261 C 
BRANCH   2   3
ATOM      3  O   UNL     1       1.999   1.452   0.187  1.00  0.00    -0.460 OA
BRANCH   3   4
ATOM      4  C   UNL     1       0.724   1.823   0.434  1.00  0.00     0.338 C 
ATOM      5  O   UNL     1       0.435   3.017   0.362  1.00  0.00    -0.246 OA
BRANCH   4   6
ATOM      6  C   UNL     1      -0.366   0.869   0.798  1.00  0.00     0.060 A 
ATOM      7  C   UNL     1      -0.201  -0.295   1.554  1.00  0.00     0.016 A 
ATOM      8  C   UNL     1      -1.673   1.258   0.465  1.00  0.00     0.016 A 
ATOM      9  C   UNL     1      -1.277  -1.042   1.992  1.00  0.00     0.010 A 
ATOM     10  C   UNL     1      -2.769   0.512   0.898  1.00  0.00     0.010 A 
ATOM     11  C   UNL     1      -2.562  -0.632   1.675  1.00  0.00    -0.014 A 
BRANCH  11  12
ATOM     12  C   UNL     1      -3.663  -1.493   2.109  1.00  0.00     0.031 A 
ATOM     13  C   UNL     1      -4.239  -2.438   1.111  1.00  0.00     0.074 A 
ATOM     14  C   UNL     1      -4.024  -1.489   3.403  1.00  0.00     0.049 A 
ATOM     15  N   UNL     1      -5.280  -3.212   1.219  1.00  0.00    -0.248 NA
ATOM     16  C   UNL     1      -3.539  -2.534  -0.183  1.00  0.00     0.031 C 
ATOM     17  C   UNL     1      -3.381  -0.697   4.457  1.00  0.00     0.029 A 
ATOM     18  N   UNL     1      -5.006  -2.178   4.057  1.00  0.00    -0.354 N 
ATOM     19  C   UNL     1      -5.390  -3.851  -0.007  1.00  0.00     0.074 A 
ATOM     20  C   UNL     1      -4.298  -3.399  -0.837  1.00  0.00     0.031 C 
ATOM     21  C   UNL     1      -3.998  -0.939   5.625  1.00  0.00     0.029 A 
ATOM     22  C   UNL     1      -5.122  -1.833   5.381  1.00  0.00     0.049 A 
ATOM     23  H   UNL     1      -5.574  -2.854   3.621  1.00  0.00     0.167 HD
ATOM     24  C   UNL     1      -6.350  -4.718  -0.393  1.00  0.00     0.037 A 
ATOM     25  C   UNL     1      -6.081  -2.162   6.266  1.00  0.00     0.037 A 
ATOM     26  C   UNL     1      -7.410  -5.139   0.479  1.00  0.00     0.049 A 
ATOM     27  C   UNL     1      -7.197  -3.045   5.774  1.00  0.00     0.074 A 
ATOM     28  C   UNL     1      -8.463  -5.990   0.212  1.00  0.00     0.029 A 
ATOM     29  N   UNL     1      -7.543  -4.724   1.799  1.00  0.00    -0.354 N 
ATOM     30  N   UNL     1      -7.339  -3.617   4.600  1.00  0.00    -0.248 NA
ATOM     31  C   UNL     1      -8.298  -3.306   6.707  1.00  0.00     0.031 C 
ATOM     32  C   UNL     1      -9.268  -6.043   1.355  1.00  0.00     0.029 A 
ATOM     33  C   UNL     1      -8.687  -5.268   2.350  1.00  0.00     0.049 A 
ATOM     34  H   UNL     1      -6.916  -4.131   2.271  1.00  0.00     0.167 HD
ATOM     35  C   UNL     1      -8.539  -4.310   4.654  1.00  0.00     0.074 A 
ATOM     36  C   UNL     1      -9.070  -4.109   5.989  1.00  0.00     0.031 C 
ATOM     37  C   UNL     1      -9.160  -5.037   3.692  1.00  0.00     0.037 A 
BRANCH  24  38
ATOM     38  C   UNL     1      -6.342  -5.165  -1.821  1.00  0.00     0.057 A 
ATOM     39  C   UNL     1      -5.404  -6.075  -2.323  1.00  0.00     0.134 A 
ATOM     40  C   UNL     1      -7.292  -4.655  -2.715  1.00  0.00     0.134 A 
ATOM     41  F   UNL     1      -4.446  -6.573  -1.527  1.00  0.00    -0.206 F 
ATOM     42  C   UNL     1      -5.406  -6.454  -3.667  1.00  0.00     0.040 A 
ATOM     43  C   UNL     1      -7.318  -5.043  -4.055  1.00  0.00     0.040 A 
ATOM     44  F   UNL     1      -8.208  -3.766  -2.302  1.00  0.00    -0.206 F 
ATOM     45  C   UNL     1      -6.370  -5.943  -4.536  1.00  0.00     0.006 A 
ENDBRANCH  24  38
BRANCH  25  46
ATOM     46  C   UNL     1      -6.092  -1.578   7.633  1.00  0.00     0.057 A 
ATOM     47  C   UNL     1      -6.004  -2.381   8.775  1.00  0.00     0.134 A 
ATOM     48  C   UNL     1      -6.238  -0.198   7.834  1.00  0.00     0.134 A 
ATOM     49  F   UNL     1      -5.883  -3.712   8.658  1.00  0.00    -0.206 F 
ATOM     50  C   UNL     1      -6.086  -1.840  10.062  1.00  0.00     0.040 A 
ATOM     51  C   UNL     1      -6.290   0.361   9.113  1.00  0.00     0.040 A 
ATOM     52  F   UNL     1      -6.330   0.635   6.787  1.00  0.00    -0.206 F 
ATOM     53  C   UNL     1      -6.227  -0.464  10.232  1.00  0.00     0.006 A 
ENDBRANCH  25  46
BRANCH  37  54
ATOM     54  C   UNL     1     -10.465  -5.668   4.064  1.00  0.00     0.057 A 
ATOM     55  C   UNL     1     -11.636  -4.911   4.178  1.00  0.00     0.134 A 
ATOM     56  C   UNL     1     -10.561  -7.054   4.228  1.00  0.00     0.134 A 
ATOM     57  F   UNL     1     -11.600  -3.576   4.045  1.00  0.00    -0.206 F 
ATOM     58  C   UNL     1     -12.862  -5.513   4.452  1.00  0.00     0.040 A 
ATOM     59  C   UNL     1     -11.786  -7.671   4.473  1.00  0.00     0.040 A 
ATOM     60  F   UNL     1      -9.472  -7.831   4.119  1.00  0.00    -0.206 F 
ATOM     61  C   UNL     1     -12.940  -6.899   4.588  1.00  0.00     0.006 A 
ENDBRANCH  37  54
ENDBRANCH  11  12
ENDBRANCH   4   6
ENDBRANCH   3   4
ENDBRANCH   2   3
ENDBRANCH   1   2
BRANCH   1  62
ATOM     62  O   UNL     1       2.369   0.223   2.832  1.00  0.00    -0.374 OA
BRANCH  62  63
ATOM     63  C   UNL     1       2.115   1.548   3.311  1.00  0.00     0.202 C 
BRANCH  63  64
ATOM     64  C   UNL     1       2.182   1.495   4.834  1.00  0.00     0.261 C 
BRANCH  64  65
ATOM     65  O   UNL     1       3.524   1.117   5.141  1.00  0.00    -0.462 OA
BRANCH  65  66
ATOM     66  C   UNL     1       3.792  -0.223   5.092  1.00  0.00     0.329 C 
ATOM     67  O   UNL     1       2.998  -1.106   5.382  1.00  0.00    -0.250 OA
BRANCH  66  68
ATOM     68  C   UNL     1       5.225  -0.447   4.616  1.00  0.00     0.206 C 
ATOM     69  C   UNL     1       5.968   0.838   4.224  1.00  0.00     0.109 C 
ATOM     70  N   UNL     1       6.125  -1.128   5.540  1.00  0.00    -0.309 N 
ATOM     71  S   UNL     1       6.757   1.403   5.777  1.00  0.00    -0.126 SA
ATOM     72  C   UNL     1       6.726  -0.278   6.571  1.00  0.00     0.116 C 
ATOM     73  C   UNL     1       7.081  -1.926   4.884  1.00  0.00     0.224 C 
ATOM     74  C   UNL     1       8.162  -0.834   6.658  1.00  0.00     0.055 C 
ATOM     75  C   UNL     1       8.446  -1.471   5.316  1.00  0.00     0.104 C 
ATOM     76  O   UNL     1       6.873  -2.660   3.937  1.00  0.00    -0.275 OA
BRANCH  72  77
ATOM     77  C   UNL     1       5.983  -0.254   7.927  1.00  0.00    -0.012 A 
ATOM     78  C   UNL     1       4.646   0.159   8.067  1.00  0.00     0.007 A 
ATOM     79  C   UNL     1       6.608  -0.632   9.132  1.00  0.00     0.007 A 
ATOM     80  C   UNL     1       3.938   0.092   9.273  1.00  0.00     0.000 A 
ATOM     81  C   UNL     1       5.918  -0.679  10.354  1.00  0.00     0.000 A 
ATOM     82  C   UNL     1       4.574  -0.340  10.421  1.00  0.00     0.000 A 
ENDBRANCH  72  77
ENDBRANCH  66  68
ENDBRANCH  65  66
ENDBRANCH  64  65
ENDBRANCH  63  64
ENDBRANCH  62  63
ENDBRANCH   1  62
TORSDOF 15
