REMARK SMILES O=C(OCCOCCOC(=O)c1ccc(OCc2sccc2Br)cn1)c1ccc(-c2c3nc(c(-c4c(F)cccc4F)c4ccc([nH]4)c(-c4c(F)cccc4F)c4nc(c(-c5c(F)cccc5F)c5ccc2[nH]5)C=C4)C=C3)cc1
REMARK SMILES IDX 7 1 6 2 5 3 4 4 3 5 2 6 1 7 26 8 27 9 79 10 28 11 78 12
REMARK SMILES IDX 29 13 30 14 31 15 72 16 32 17 77 18 71 19 73 20 33 21 76 22
REMARK SMILES IDX 70 23 69 24 34 26 60 27 43 28 59 29 44 30 47 31 58 32 74 33
REMARK SMILES IDX 45 34 46 35 57 37 75 38 48 39 35 40 36 41 41 42 37 43 38 44
REMARK SMILES IDX 40 45 42 46 39 47 61 48 62 49 67 50 63 51 64 52 66 53 68 54
REMARK SMILES IDX 65 55 49 56 50 57 55 58 51 59 52 60 54 61 56 62 53 63 8 64
REMARK SMILES IDX 9 65 10 66 11 67 12 68 13 69 25 70 14 71 24 72 15 73 16 74
REMARK SMILES IDX 17 75 18 76 19 77 22 78 20 79 21 80 23 81
REMARK H PARENT 73 25 47 36
REMARK Flexibility Score: inf
ROOT
ATOM      1  C   UNL     1       2.644   1.244   1.920  1.00  0.00     0.202 C 
ENDROOT
BRANCH   1   2
ATOM      2  O   UNL     1       3.966   1.141   1.381  1.00  0.00    -0.374 OA
BRANCH   2   3
ATOM      3  C   UNL     1       4.211   1.906   0.199  1.00  0.00     0.202 C 
BRANCH   3   4
ATOM      4  C   UNL     1       3.942   1.130  -1.094  1.00  0.00     0.261 C 
BRANCH   4   5
ATOM      5  O   UNL     1       2.587   0.648  -1.122  1.00  0.00    -0.460 OA
BRANCH   5   6
ATOM      6  C   UNL     1       2.123  -0.600  -0.887  1.00  0.00     0.338 C 
ATOM      7  O   UNL     1       0.920  -0.808  -1.048  1.00  0.00    -0.246 OA
BRANCH   6   8
ATOM      8  C   UNL     1       2.968  -1.754  -0.437  1.00  0.00     0.060 A 
ATOM      9  C   UNL     1       4.200  -1.657   0.211  1.00  0.00     0.016 A 
ATOM     10  C   UNL     1       2.419  -3.041  -0.602  1.00  0.00     0.016 A 
ATOM     11  C   UNL     1       4.888  -2.786   0.642  1.00  0.00     0.010 A 
ATOM     12  C   UNL     1       3.085  -4.181  -0.137  1.00  0.00     0.010 A 
ATOM     13  C   UNL     1       4.331  -4.053   0.479  1.00  0.00    -0.014 A 
BRANCH  13  14
ATOM     14  C   UNL     1       5.117  -5.219   0.923  1.00  0.00     0.031 A 
ATOM     15  C   UNL     1       5.865  -6.019  -0.096  1.00  0.00     0.074 A 
ATOM     16  C   UNL     1       5.250  -5.459   2.240  1.00  0.00     0.049 A 
ATOM     17  N   UNL     1       6.644  -7.053   0.074  1.00  0.00    -0.248 NA
ATOM     18  C   UNL     1       5.733  -5.583  -1.496  1.00  0.00     0.031 C 
ATOM     19  C   UNL     1       4.631  -4.668   3.307  1.00  0.00     0.029 A 
ATOM     20  N   UNL     1       5.977  -6.409   2.907  1.00  0.00    -0.354 N 
ATOM     21  C   UNL     1       7.092  -7.395  -1.193  1.00  0.00     0.074 A 
ATOM     22  C   UNL     1       6.488  -6.470  -2.127  1.00  0.00     0.031 C 
ATOM     23  C   UNL     1       5.029  -5.150   4.496  1.00  0.00     0.029 A 
ATOM     24  C   UNL     1       5.886  -6.309   4.274  1.00  0.00     0.049 A 
ATOM     25  H   UNL     1       6.513  -7.097   2.451  1.00  0.00     0.167 HD
ATOM     26  C   UNL     1       7.933  -8.396  -1.541  1.00  0.00     0.037 A 
ATOM     27  C   UNL     1       6.427  -7.083   5.234  1.00  0.00     0.037 A 
ATOM     28  C   UNL     1       8.511  -9.314  -0.598  1.00  0.00     0.049 A 
ATOM     29  C   UNL     1       7.288  -8.242   4.811  1.00  0.00     0.074 A 
ATOM     30  C   UNL     1       9.315 -10.413  -0.838  1.00  0.00     0.029 A 
ATOM     31  N   UNL     1       8.338  -9.233   0.777  1.00  0.00    -0.354 N 
ATOM     32  N   UNL     1       7.665  -8.594   3.604  1.00  0.00    -0.248 NA
ATOM     33  C   UNL     1       7.786  -9.120   5.878  1.00  0.00     0.031 C 
ATOM     34  C   UNL     1       9.602 -11.016   0.393  1.00  0.00     0.029 A 
ATOM     35  C   UNL     1       9.008 -10.271   1.400  1.00  0.00     0.049 A 
ATOM     36  H   UNL     1       7.816  -8.539   1.241  1.00  0.00     0.167 HD
ATOM     37  C   UNL     1       8.448  -9.727   3.765  1.00  0.00     0.074 A 
ATOM     38  C   UNL     1       8.514  -9.988   5.190  1.00  0.00     0.031 C 
ATOM     39  C   UNL     1       9.050 -10.494   2.823  1.00  0.00     0.037 A 
BRANCH  26  40
ATOM     40  C   UNL     1       8.218  -8.566  -3.002  1.00  0.00     0.057 A 
ATOM     41  C   UNL     1       9.062  -7.692  -3.698  1.00  0.00     0.134 A 
ATOM     42  C   UNL     1       7.614  -9.599  -3.728  1.00  0.00     0.134 A 
ATOM     43  F   UNL     1       9.649  -6.665  -3.066  1.00  0.00    -0.206 F 
ATOM     44  C   UNL     1       9.280  -7.829  -5.071  1.00  0.00     0.040 A 
ATOM     45  C   UNL     1       7.838  -9.757  -5.096  1.00  0.00     0.040 A 
ATOM     46  F   UNL     1       6.788 -10.465  -3.121  1.00  0.00    -0.206 F 
ATOM     47  C   UNL     1       8.668  -8.866  -5.773  1.00  0.00     0.006 A 
ENDBRANCH  26  40
BRANCH  27  48
ATOM     48  C   UNL     1       6.144  -6.816   6.667  1.00  0.00     0.057 A 
ATOM     49  C   UNL     1       7.152  -6.414   7.551  1.00  0.00     0.134 A 
ATOM     50  C   UNL     1       4.856  -6.977   7.195  1.00  0.00     0.134 A 
ATOM     51  F   UNL     1       8.412  -6.264   7.114  1.00  0.00    -0.206 F 
ATOM     52  C   UNL     1       6.896  -6.199   8.907  1.00  0.00     0.040 A 
ATOM     53  C   UNL     1       4.579  -6.740   8.543  1.00  0.00     0.040 A 
ATOM     54  F   UNL     1       3.843  -7.362   6.405  1.00  0.00    -0.206 F 
ATOM     55  C   UNL     1       5.604  -6.357   9.405  1.00  0.00     0.006 A 
ENDBRANCH  27  48
BRANCH  39  56
ATOM     56  C   UNL     1       9.834 -11.671   3.315  1.00  0.00     0.057 A 
ATOM     57  C   UNL     1       9.200 -12.831   3.776  1.00  0.00     0.134 A 
ATOM     58  C   UNL     1      11.233 -11.656   3.293  1.00  0.00     0.134 A 
ATOM     59  F   UNL     1       7.861 -12.898   3.833  1.00  0.00    -0.206 F 
ATOM     60  C   UNL     1       9.933 -13.933   4.216  1.00  0.00     0.040 A 
ATOM     61  C   UNL     1      11.977 -12.760   3.711  1.00  0.00     0.040 A 
ATOM     62  F   UNL     1      11.897 -10.576   2.857  1.00  0.00    -0.206 F 
ATOM     63  C   UNL     1      11.326 -13.900   4.179  1.00  0.00     0.006 A 
ENDBRANCH  39  56
ENDBRANCH  13  14
ENDBRANCH   6   8
ENDBRANCH   5   6
ENDBRANCH   4   5
ENDBRANCH   3   4
ENDBRANCH   2   3
ENDBRANCH   1   2
BRANCH   1  64
ATOM     64  C   UNL     1       2.736   1.565   3.415  1.00  0.00     0.261 C 
BRANCH  64  65
ATOM     65  O   UNL     1       3.315   2.872   3.567  1.00  0.00    -0.459 OA
BRANCH  65  66
ATOM     66  C   UNL     1       4.676   2.892   3.644  1.00  0.00     0.357 C 
ATOM     67  O   UNL     1       5.407   1.982   3.997  1.00  0.00    -0.244 OA
BRANCH  66  68
ATOM     68  C   UNL     1       5.112   4.175   3.029  1.00  0.00     0.148 A 
ATOM     69  C   UNL     1       4.500   5.369   3.392  1.00  0.00     0.040 A 
ATOM     70  N   UNL     1       5.998   4.070   2.006  1.00  0.00    -0.245 NA
ATOM     71  C   UNL     1       4.761   6.507   2.630  1.00  0.00     0.050 A 
ATOM     72  C   UNL     1       6.205   5.186   1.274  1.00  0.00     0.158 A 
ATOM     73  C   UNL     1       5.595   6.412   1.518  1.00  0.00     0.138 A 
BRANCH  73  74
ATOM     74  O   UNL     1       5.815   7.376   0.578  1.00  0.00    -0.486 OA
BRANCH  74  75
ATOM     75  C   UNL     1       5.290   8.690   0.793  1.00  0.00     0.277 C 
BRANCH  75  76
ATOM     76  C   UNL     1       3.821   8.804   0.469  1.00  0.00     0.056 A 
ATOM     77  S   UNL     1       2.925   7.554  -0.303  1.00  0.00    -0.144 S 
ATOM     78  C   UNL     1       3.000   9.887   0.710  1.00  0.00     0.035 A 
ATOM     79  C   UNL     1       1.457   8.422  -0.180  1.00  0.00     0.066 A 
ATOM     80  C   UNL     1       1.644   9.676   0.355  1.00  0.00     0.028 A 
ATOM     81  Br  UNL     1       3.551  11.534   1.462  1.00  0.00    -0.049 Br
ENDBRANCH  75  76
ENDBRANCH  74  75
ENDBRANCH  73  74
ENDBRANCH  66  68
ENDBRANCH  65  66
ENDBRANCH  64  65
ENDBRANCH   1  64
TORSDOF 17
