REMARK SMILES C[NH2+][C@@]1(C(=O)OCCOCCOC(=O)c2ccc(-c3c4nc(c(-c5c(F)cccc5F)c5ccc([nH]5)c(-c5c(F)cccc5F)c5nc(c(-c6c(F)cccc6F)c6ccc3[nH]6)C=C5)C=C4)cc2)CC[C@H](SC2CCOCC2)C1
REMARK SMILES IDX 9 1 8 2 7 3 6 4 4 5 5 6 3 7 69 8 79 9 70 10 71 11 2 12 1 13
REMARK SMILES IDX 72 16 73 17 74 18 78 19 75 20 77 21 76 22 10 23 11 24 12 25
REMARK SMILES IDX 13 26 14 27 15 28 16 29 68 30 17 31 67 32 18 33 19 34 20 35
REMARK SMILES IDX 61 36 21 37 66 38 60 39 62 40 22 41 65 42 59 43 58 44 23 46
REMARK SMILES IDX 49 47 32 48 48 49 33 50 36 51 47 52 63 53 34 54 35 55 46 57
REMARK SMILES IDX 64 58 37 59 24 60 25 61 30 62 26 63 27 64 29 65 31 66 28 67
REMARK SMILES IDX 50 68 51 69 56 70 52 71 53 72 55 73 57 74 54 75 38 76 39 77
REMARK SMILES IDX 44 78 40 79 41 80 43 81 45 82 42 83
REMARK H PARENT 2 14 2 15 62 45 36 56
REMARK Flexibility Score: inf
ROOT
ATOM      1  O   UNL     1      -1.045   0.020   4.216  1.00  0.00    -0.374 OA
ENDROOT
BRANCH   1   2
ATOM      2  C   UNL     1      -2.263   0.759   4.107  1.00  0.00     0.202 C 
BRANCH   2   3
ATOM      3  C   UNL     1      -2.173   2.073   3.326  1.00  0.00     0.261 C 
BRANCH   3   4
ATOM      4  O   UNL     1      -2.028   1.818   1.916  1.00  0.00    -0.459 OA
BRANCH   4   5
ATOM      5  C   UNL     1      -0.874   2.223   1.332  1.00  0.00     0.368 C 
ATOM      6  O   UNL     1       0.003   2.870   1.899  1.00  0.00    -0.245 OA
BRANCH   5   7
ATOM      7  C   UNL     1      -0.767   1.801  -0.170  1.00  0.00     0.195 C 
ATOM      8  C   UNL     1      -1.396   2.907  -1.022  1.00  0.00     0.082 C 
ATOM      9  C   UNL     1      -1.583   0.563  -0.594  1.00  0.00     0.095 C 
ATOM     10  C   UNL     1      -2.888   2.590  -0.994  1.00  0.00     0.022 C 
ATOM     11  C   UNL     1      -2.983   1.063  -1.013  1.00  0.00     0.054 C 
BRANCH   7  12
ATOM     12  N   UNL     1       0.684   1.722  -0.508  1.00  0.00    -0.335 N 
ATOM     13  C   UNL     1       1.309   0.440  -0.211  1.00  0.00     0.331 C 
ATOM     14  H   UNL     1       0.788   1.902  -1.507  1.00  0.00     0.347 HD
ATOM     15  H   UNL     1       1.154   2.414   0.075  1.00  0.00     0.347 HD
ENDBRANCH   7  12
BRANCH  11  16
ATOM     16  S   UNL     1      -4.263   0.342   0.087  1.00  0.00    -0.155 SA
BRANCH  16  17
ATOM     17  C   UNL     1      -5.859   0.864  -0.658  1.00  0.00     0.051 C 
ATOM     18  C   UNL     1      -6.024   0.473  -2.125  1.00  0.00     0.043 C 
ATOM     19  C   UNL     1      -6.172   2.342  -0.433  1.00  0.00     0.043 C 
ATOM     20  C   UNL     1      -7.389   0.933  -2.628  1.00  0.00     0.161 C 
ATOM     21  C   UNL     1      -7.528   2.684  -1.036  1.00  0.00     0.161 C 
ATOM     22  O   UNL     1      -7.553   2.336  -2.420  1.00  0.00    -0.381 OA
ENDBRANCH  16  17
ENDBRANCH  11  16
ENDBRANCH   5   7
ENDBRANCH   4   5
ENDBRANCH   3   4
ENDBRANCH   2   3
ENDBRANCH   1   2
BRANCH   1  23
ATOM     23  C   UNL     1      -0.646  -0.727   3.069  1.00  0.00     0.202 C 
BRANCH  23  24
ATOM     24  C   UNL     1      -1.287  -2.109   2.906  1.00  0.00     0.261 C 
BRANCH  24  25
ATOM     25  O   UNL     1      -2.710  -2.022   2.729  1.00  0.00    -0.460 OA
BRANCH  25  26
ATOM     26  C   UNL     1      -3.435  -2.417   3.800  1.00  0.00     0.338 C 
ATOM     27  O   UNL     1      -3.015  -2.937   4.826  1.00  0.00    -0.246 OA
BRANCH  26  28
ATOM     28  C   UNL     1      -4.840  -1.992   3.659  1.00  0.00     0.060 A 
ATOM     29  C   UNL     1      -5.419  -1.340   4.755  1.00  0.00     0.016 A 
ATOM     30  C   UNL     1      -5.601  -2.287   2.526  1.00  0.00     0.016 A 
ATOM     31  C   UNL     1      -6.778  -1.038   4.749  1.00  0.00     0.010 A 
ATOM     32  C   UNL     1      -6.969  -1.986   2.523  1.00  0.00     0.010 A 
ATOM     33  C   UNL     1      -7.570  -1.400   3.652  1.00  0.00    -0.014 A 
BRANCH  33  34
ATOM     34  C   UNL     1      -9.045  -1.312   3.769  1.00  0.00     0.031 A 
ATOM     35  C   UNL     1      -9.824  -2.556   4.102  1.00  0.00     0.074 A 
ATOM     36  C   UNL     1      -9.680  -0.134   3.640  1.00  0.00     0.049 A 
ATOM     37  N   UNL     1     -11.114  -2.712   4.259  1.00  0.00    -0.248 NA
ATOM     38  C   UNL     1      -9.042  -3.790   4.283  1.00  0.00     0.031 C 
ATOM     39  C   UNL     1      -9.034   1.148   3.363  1.00  0.00     0.029 A 
ATOM     40  N   UNL     1     -11.014   0.171   3.731  1.00  0.00    -0.354 N 
ATOM     41  C   UNL     1     -11.298  -4.057   4.553  1.00  0.00     0.074 A 
ATOM     42  C   UNL     1      -9.993  -4.681   4.521  1.00  0.00     0.031 C 
ATOM     43  C   UNL     1      -9.977   2.105   3.305  1.00  0.00     0.029 A 
ATOM     44  C   UNL     1     -11.291   1.498   3.513  1.00  0.00     0.049 A 
ATOM     45  H   UNL     1     -11.708  -0.498   3.934  1.00  0.00     0.167 HD
ATOM     46  C   UNL     1     -12.449  -4.713   4.837  1.00  0.00     0.037 A 
ATOM     47  C   UNL     1     -12.473   2.143   3.472  1.00  0.00     0.037 A 
ATOM     48  C   UNL     1     -13.747  -4.094   4.877  1.00  0.00     0.049 A 
ATOM     49  C   UNL     1     -13.746   1.379   3.724  1.00  0.00     0.074 A 
ATOM     50  C   UNL     1     -14.969  -4.672   5.171  1.00  0.00     0.029 A 
ATOM     51  N   UNL     1     -13.990  -2.756   4.609  1.00  0.00    -0.354 N 
ATOM     52  N   UNL     1     -13.906   0.112   4.022  1.00  0.00    -0.248 NA
ATOM     53  C   UNL     1     -15.004   2.137   3.636  1.00  0.00     0.031 C 
ATOM     54  C   UNL     1     -15.959  -3.692   5.036  1.00  0.00     0.029 A 
ATOM     55  C   UNL     1     -15.347  -2.494   4.706  1.00  0.00     0.049 A 
ATOM     56  H   UNL     1     -13.301  -2.090   4.384  1.00  0.00     0.167 HD
ATOM     57  C   UNL     1     -15.274  -0.072   4.184  1.00  0.00     0.074 A 
ATOM     58  C   UNL     1     -15.899   1.215   3.962  1.00  0.00     0.031 C 
ATOM     59  C   UNL     1     -15.953  -1.206   4.489  1.00  0.00     0.037 A 
BRANCH  46  60
ATOM     60  C   UNL     1     -12.355  -6.186   5.105  1.00  0.00     0.057 A 
ATOM     61  C   UNL     1     -11.808  -6.689   6.292  1.00  0.00     0.134 A 
ATOM     62  C   UNL     1     -12.845  -7.111   4.175  1.00  0.00     0.134 A 
ATOM     63  F   UNL     1     -11.308  -5.856   7.217  1.00  0.00    -0.206 F 
ATOM     64  C   UNL     1     -11.732  -8.062   6.535  1.00  0.00     0.040 A 
ATOM     65  C   UNL     1     -12.797  -8.485   4.417  1.00  0.00     0.040 A 
ATOM     66  F   UNL     1     -13.384  -6.695   3.019  1.00  0.00    -0.206 F 
ATOM     67  C   UNL     1     -12.234  -8.964   5.598  1.00  0.00     0.006 A 
ENDBRANCH  46  60
BRANCH  47  68
ATOM     68  C   UNL     1     -12.514   3.596   3.167  1.00  0.00     0.057 A 
ATOM     69  C   UNL     1     -12.888   4.532   4.138  1.00  0.00     0.134 A 
ATOM     70  C   UNL     1     -12.205   4.078   1.890  1.00  0.00     0.134 A 
ATOM     71  F   UNL     1     -13.218   4.129   5.373  1.00  0.00    -0.206 F 
ATOM     72  C   UNL     1     -12.968   5.895   3.845  1.00  0.00     0.040 A 
ATOM     73  C   UNL     1     -12.259   5.439   1.589  1.00  0.00     0.040 A 
ATOM     74  F   UNL     1     -11.837   3.231   0.917  1.00  0.00    -0.206 F 
ATOM     75  C   UNL     1     -12.649   6.352   2.567  1.00  0.00     0.006 A 
ENDBRANCH  47  68
BRANCH  59  76
ATOM     76  C   UNL     1     -17.443  -1.100   4.634  1.00  0.00     0.057 A 
ATOM     77  C   UNL     1     -18.285  -0.941   3.526  1.00  0.00     0.134 A 
ATOM     78  C   UNL     1     -18.046  -1.206   5.895  1.00  0.00     0.134 A 
ATOM     79  F   UNL     1     -17.770  -0.822   2.293  1.00  0.00    -0.206 F 
ATOM     80  C   UNL     1     -19.672  -0.868   3.669  1.00  0.00     0.040 A 
ATOM     81  C   UNL     1     -19.432  -1.160   6.047  1.00  0.00     0.040 A 
ATOM     82  F   UNL     1     -17.298  -1.370   6.996  1.00  0.00    -0.206 F 
ATOM     83  C   UNL     1     -20.249  -0.985   4.932  1.00  0.00     0.006 A 
ENDBRANCH  59  76
ENDBRANCH  33  34
ENDBRANCH  26  28
ENDBRANCH  25  26
ENDBRANCH  24  25
ENDBRANCH  23  24
ENDBRANCH   1  23
TORSDOF 17
