REMARK SMILES Cc1ccccc1N(CCC(=O)OCCOCCOC(=O)c1ccc(-c2c3nc(c(-c4c(F)cccc4F)c4ccc([nH]4)c(-c4c(F)cccc4F)c4nc(c(-c5c(F)cccc5F)c5ccc2[nH]5)C=C4)C=C3)cc1)C(=O)[C@@H]1C=C[C@H]([NH3+])C1
REMARK SMILES IDX 14 1 13 2 11 3 12 4 10 5 9 6 8 7 7 8 1 9 2 10 3 11 4 12 6 13
REMARK SMILES IDX 5 14 76 15 77 16 78 17 79 18 83 19 80 20 81 21 82 22 15 26
REMARK SMILES IDX 16 27 17 28 18 29 19 30 20 31 21 32 22 33 23 34 75 35 24 36
REMARK SMILES IDX 74 37 25 38 26 39 27 40 68 41 28 42 73 43 67 44 69 45 29 46
REMARK SMILES IDX 72 47 66 48 65 49 30 51 56 52 39 53 55 54 40 55 43 56 54 57
REMARK SMILES IDX 70 58 41 59 42 60 53 62 71 63 44 64 31 65 32 66 37 67 33 68
REMARK SMILES IDX 34 69 36 70 38 71 35 72 57 73 58 74 63 75 59 76 60 77 62 78
REMARK SMILES IDX 64 79 61 80 45 81 46 82 51 83 47 84 48 85 50 86 52 87 49 88
REMARK H PARENT 82 23 82 24 82 25 69 50 43 61
REMARK Flexibility Score: inf
ROOT
ATOM      1  C   UNL     1       0.803   2.192  -0.539  1.00  0.00     0.261 C 
ENDROOT
BRANCH   1   2
ATOM      2  O   UNL     1       1.751   1.657   0.352  1.00  0.00    -0.463 OA
BRANCH   2   3
ATOM      3  C   UNL     1       1.437   0.486   0.935  1.00  0.00     0.307 C 
ATOM      4  O   UNL     1       0.383  -0.117   0.810  1.00  0.00    -0.252 OA
BRANCH   3   5
ATOM      5  C   UNL     1       2.605   0.008   1.734  1.00  0.00     0.144 C 
BRANCH   5   6
ATOM      6  C   UNL     1       3.937   0.577   1.226  1.00  0.00     0.137 C 
BRANCH   6   7
ATOM      7  N   UNL     1       4.340   1.900   1.738  1.00  0.00    -0.311 N 
BRANCH   7   8
ATOM      8  C   UNL     1       5.055   1.741   3.081  1.00  0.00     0.047 A 
ATOM      9  C   UNL     1       5.842   4.189   3.373  1.00  0.00     0.046 C 
ATOM     10  C   UNL     1       5.749   2.753   3.780  1.00  0.00    -0.027 A 
ATOM     11  C   UNL     1       6.474   2.449   4.971  1.00  0.00     0.005 A 
ATOM     12  C   UNL     1       6.515   1.175   5.517  1.00  0.00     0.000 A 
ATOM     13  C   UNL     1       5.086   0.464   3.724  1.00  0.00     0.026 A 
ATOM     14  C   UNL     1       5.811   0.176   4.890  1.00  0.00     0.002 A 
ENDBRANCH   7   8
BRANCH   7  15
ATOM     15  C   UNL     1       4.823   2.853   0.775  1.00  0.00     0.234 C 
ATOM     16  O   UNL     1       6.045   3.064   0.853  1.00  0.00    -0.274 OA
BRANCH  15  17
ATOM     17  C   UNL     1       3.847   3.828  -0.462  1.00  0.00     0.108 C 
ATOM     18  C   UNL     1       4.099   4.106  -2.513  1.00  0.00    -0.012 C 
ATOM     19  C   UNL     1       4.560   5.596   0.282  1.00  0.00     0.087 C 
ATOM     20  C   UNL     1       4.827   5.542  -2.912  1.00  0.00     0.033 C 
ATOM     21  C   UNL     1       5.178   6.673  -1.335  1.00  0.00     0.205 C 
BRANCH  21  22
ATOM     22  N   UNL     1       6.467   7.336  -1.115  1.00  0.00    -0.352 N 
ATOM     23  H   UNL     1       7.177   6.636  -0.900  1.00  0.00     0.345 HD
ATOM     24  H   UNL     1       6.386   7.988  -0.336  1.00  0.00     0.345 HD
ATOM     25  H   UNL     1       6.736   7.845  -1.958  1.00  0.00     0.345 HD
ENDBRANCH  21  22
ENDBRANCH  15  17
ENDBRANCH   7  15
ENDBRANCH   6   7
ENDBRANCH   5   6
ENDBRANCH   3   5
ENDBRANCH   2   3
ENDBRANCH   1   2
BRANCH   1  26
ATOM     26  C   UNL     1       1.113   2.085  -2.039  1.00  0.00     0.202 C 
BRANCH  26  27
ATOM     27  O   UNL     1       2.382   1.943  -2.680  1.00  0.00    -0.374 OA
BRANCH  27  28
ATOM     28  C   UNL     1       3.429   1.189  -2.109  1.00  0.00     0.202 C 
BRANCH  28  29
ATOM     29  C   UNL     1       4.945   1.745  -2.167  1.00  0.00     0.261 C 
BRANCH  29  30
ATOM     30  O   UNL     1       5.607   3.061  -1.565  1.00  0.00    -0.460 OA
BRANCH  30  31
ATOM     31  C   UNL     1       5.329   4.659  -1.232  1.00  0.00     0.338 C 
ATOM     32  O   UNL     1       6.496   4.995  -0.879  1.00  0.00    -0.246 OA
BRANCH  31  33
ATOM     33  C   UNL     1       3.397   5.598  -1.370  1.00  0.00     0.060 A 
ATOM     34  C   UNL     1       2.748   6.825  -0.775  1.00  0.00     0.016 A 
ATOM     35  C   UNL     1       2.227   5.301  -2.253  1.00  0.00     0.016 A 
ATOM     36  C   UNL     1       1.411   6.973  -0.361  1.00  0.00     0.010 A 
ATOM     37  C   UNL     1       0.885   5.438  -1.929  1.00  0.00     0.010 A 
ATOM     38  C   UNL     1       0.561   5.999  -0.734  1.00  0.00    -0.014 A 
BRANCH  38  39
ATOM     39  C   UNL     1      -0.443   5.378   0.110  1.00  0.00     0.031 A 
ATOM     40  C   UNL     1      -1.763   5.064  -0.486  1.00  0.00     0.074 A 
ATOM     41  C   UNL     1       0.041   4.814   1.261  1.00  0.00     0.049 A 
ATOM     42  N   UNL     1      -2.750   4.634   0.204  1.00  0.00    -0.248 NA
ATOM     43  C   UNL     1      -2.128   5.206  -1.902  1.00  0.00     0.031 C 
ATOM     44  C   UNL     1      -0.507   3.731   2.088  1.00  0.00     0.029 A 
ATOM     45  N   UNL     1       1.255   5.103   1.929  1.00  0.00    -0.354 N 
ATOM     46  C   UNL     1      -3.716   4.155  -0.657  1.00  0.00     0.074 A 
ATOM     47  C   UNL     1      -3.332   4.630  -1.952  1.00  0.00     0.031 C 
ATOM     48  C   UNL     1       0.170   3.663   3.255  1.00  0.00     0.029 A 
ATOM     49  C   UNL     1       1.085   4.798   3.294  1.00  0.00     0.049 A 
ATOM     50  H   UNL     1       2.074   5.456   1.513  1.00  0.00     0.167 HD
ATOM     51  C   UNL     1      -4.644   3.305  -0.139  1.00  0.00     0.037 A 
ATOM     52  C   UNL     1       1.022   5.821   4.201  1.00  0.00     0.037 A 
ATOM     53  C   UNL     1      -4.447   3.230   1.314  1.00  0.00     0.049 A 
ATOM     54  C   UNL     1      -0.405   5.996   4.667  1.00  0.00     0.074 A 
ATOM     55  C   UNL     1      -3.860   2.285   2.135  1.00  0.00     0.029 A 
ATOM     56  N   UNL     1      -4.507   4.410   2.055  1.00  0.00    -0.354 N 
ATOM     57  N   UNL     1      -1.430   5.591   3.964  1.00  0.00    -0.248 NA
ATOM     58  C   UNL     1      -0.797   6.546   5.960  1.00  0.00     0.031 C 
ATOM     59  C   UNL     1      -3.491   2.941   3.349  1.00  0.00     0.029 A 
ATOM     60  C   UNL     1      -3.862   4.276   3.270  1.00  0.00     0.049 A 
ATOM     61  H   UNL     1      -4.953   5.233   1.751  1.00  0.00     0.167 HD
ATOM     62  C   UNL     1      -2.573   5.764   4.675  1.00  0.00     0.074 A 
ATOM     63  C   UNL     1      -2.132   6.387   5.911  1.00  0.00     0.031 C 
ATOM     64  C   UNL     1      -3.796   5.411   4.188  1.00  0.00     0.037 A 
BRANCH  51  65
ATOM     65  C   UNL     1      -5.589   2.390  -0.895  1.00  0.00     0.057 A 
ATOM     66  C   UNL     1      -6.402   1.493  -0.169  1.00  0.00     0.134 A 
ATOM     67  C   UNL     1      -5.719   2.264  -2.294  1.00  0.00     0.134 A 
ATOM     68  F   UNL     1      -6.421   1.493   1.171  1.00  0.00    -0.206 F 
ATOM     69  C   UNL     1      -7.237   0.542  -0.773  1.00  0.00     0.040 A 
ATOM     70  C   UNL     1      -6.569   1.330  -2.912  1.00  0.00     0.040 A 
ATOM     71  F   UNL     1      -5.029   3.015  -3.155  1.00  0.00    -0.206 F 
ATOM     72  C   UNL     1      -7.326   0.457  -2.151  1.00  0.00     0.006 A 
ENDBRANCH  51  65
BRANCH  52  73
ATOM     73  C   UNL     1       1.999   6.914   3.905  1.00  0.00     0.057 A 
ATOM     74  C   UNL     1       3.359   6.692   4.183  1.00  0.00     0.134 A 
ATOM     75  C   UNL     1       1.711   7.923   2.980  1.00  0.00     0.134 A 
ATOM     76  F   UNL     1       3.716   5.748   5.068  1.00  0.00    -0.206 F 
ATOM     77  C   UNL     1       4.382   7.338   3.473  1.00  0.00     0.040 A 
ATOM     78  C   UNL     1       2.729   8.569   2.258  1.00  0.00     0.040 A 
ATOM     79  F   UNL     1       0.443   8.181   2.632  1.00  0.00    -0.206 F 
ATOM     80  C   UNL     1       4.065   8.242   2.466  1.00  0.00     0.006 A 
ENDBRANCH  52  73
BRANCH  64  81
ATOM     81  C   UNL     1      -5.050   6.126   4.602  1.00  0.00     0.057 A 
ATOM     82  C   UNL     1      -5.050   7.423   5.141  1.00  0.00     0.134 A 
ATOM     83  C   UNL     1      -6.324   5.598   4.310  1.00  0.00     0.134 A 
ATOM     84  F   UNL     1      -3.921   8.130   5.291  1.00  0.00    -0.206 F 
ATOM     85  C   UNL     1      -6.224   8.084   5.499  1.00  0.00     0.040 A 
ATOM     86  C   UNL     1      -7.503   6.290   4.575  1.00  0.00     0.040 A 
ATOM     87  F   UNL     1      -6.486   4.404   3.723  1.00  0.00    -0.206 F 
ATOM     88  C   UNL     1      -7.458   7.519   5.213  1.00  0.00     0.006 A 
ENDBRANCH  64  81
ENDBRANCH  38  39
ENDBRANCH  31  33
ENDBRANCH  30  31
ENDBRANCH  29  30
ENDBRANCH  28  29
ENDBRANCH  27  28
ENDBRANCH  26  27
ENDBRANCH   1  26
TORSDOF 20
