REMARK SMILES C/C(=N\NC(N)=O)c1nnn(-c2ccc(C(=O)OCCOCCOC(=O)c3ccc(-c4c5nc(c(-c6c(F)cccc6F)c6ccc([nH]6)c(-c6c(F)cccc6F)c6nc(c(-c7c(F)cccc7F)c7ccc4[nH]7)C=C6)C=C5)cc3)cc2)c1C
REMARK SMILES IDX 20 1 19 2 18 3 16 4 17 5 15 6 12 7 13 8 82 9 14 10 81 11
REMARK SMILES IDX 11 12 8 13 9 14 83 15 10 16 84 17 2 18 1 19 3 20 4 21 5 22
REMARK SMILES IDX 6 24 7 25 21 28 22 29 23 30 24 31 25 32 26 33 27 34 28 35
REMARK SMILES IDX 80 36 29 37 79 38 30 39 31 40 32 41 73 42 33 43 78 44 72 45
REMARK SMILES IDX 74 46 34 47 77 48 71 49 70 50 35 52 61 53 44 54 60 55 45 56
REMARK SMILES IDX 48 57 59 58 75 59 46 60 47 61 58 63 76 64 49 65 36 66 37 67
REMARK SMILES IDX 42 68 38 69 39 70 41 71 43 72 40 73 62 74 63 75 68 76 64 77
REMARK SMILES IDX 65 78 67 79 69 80 66 81 50 82 51 83 56 84 52 85 53 86 55 87
REMARK SMILES IDX 57 88 54 89
REMARK H PARENT 4 23 6 26 6 27 74 51 48 62
REMARK Flexibility Score: inf
ROOT
ATOM      1  C   UNL     1       9.579  -6.865   4.716  1.00  0.00     0.202 C 
ENDROOT
BRANCH   1   2
ATOM      2  C   UNL     1       9.403  -5.692   3.755  1.00  0.00     0.261 C 
BRANCH   2   3
ATOM      3  O   UNL     1       8.155  -5.012   3.964  1.00  0.00    -0.460 OA
BRANCH   3   4
ATOM      4  C   UNL     1       7.264  -5.160   2.955  1.00  0.00     0.338 C 
ATOM      5  O   UNL     1       7.432  -5.761   1.907  1.00  0.00    -0.246 OA
BRANCH   4   6
ATOM      6  C   UNL     1       5.955  -4.595   3.333  1.00  0.00     0.060 A 
ATOM      7  C   UNL     1       3.487  -3.364   3.516  1.00  0.00     0.067 A 
ATOM      8  C   UNL     1       3.557  -4.661   2.997  1.00  0.00     0.029 A 
ATOM      9  C   UNL     1       4.610  -2.750   4.087  1.00  0.00     0.029 A 
ATOM     10  C   UNL     1       4.806  -5.262   2.880  1.00  0.00     0.018 A 
ATOM     11  C   UNL     1       5.853  -3.376   4.008  1.00  0.00     0.018 A 
BRANCH   7  12
ATOM     12  N   UNL     1       2.341  -2.595   3.221  1.00  0.00    -0.217 N 
ATOM     13  C   UNL     1       0.982  -1.243   2.189  1.00  0.00     0.132 A 
ATOM     14  N   UNL     1       0.250  -2.258   2.741  1.00  0.00    -0.128 NA
ATOM     15  C   UNL     1       2.321  -1.426   2.476  1.00  0.00     0.071 A 
ATOM     16  N   UNL     1       1.093  -3.108   3.313  1.00  0.00    -0.061 NA
ATOM     17  C   UNL     1       3.518  -0.728   1.945  1.00  0.00     0.069 C 
BRANCH  13  18
ATOM     18  C   UNL     1       0.422  -0.284   1.257  1.00  0.00     0.087 C 
ATOM     19  C   UNL     1       0.537  -0.639  -0.204  1.00  0.00     0.071 C 
ATOM     20  N   UNL     1      -0.120   0.770   1.794  1.00  0.00    -0.174 NA
BRANCH  20  21
ATOM     21  N   UNL     1      -0.611   1.789   1.027  1.00  0.00    -0.229 N 
ATOM     22  C   UNL     1       0.045   2.399  -0.021  1.00  0.00     0.332 C 
ATOM     23  H   UNL     1      -1.514   2.116   1.242  1.00  0.00     0.195 HD
ATOM     24  N   UNL     1      -0.691   3.400  -0.581  1.00  0.00    -0.350 N 
ATOM     25  O   UNL     1       1.151   2.122  -0.463  1.00  0.00    -0.247 OA
ATOM     26  H   UNL     1      -1.581   3.618  -0.221  1.00  0.00     0.161 HD
ATOM     27  H   UNL     1      -0.332   3.905  -1.347  1.00  0.00     0.161 HD
ENDBRANCH  20  21
ENDBRANCH  13  18
ENDBRANCH   7  12
ENDBRANCH   4   6
ENDBRANCH   3   4
ENDBRANCH   2   3
ENDBRANCH   1   2
BRANCH   1  28
ATOM     28  O   UNL     1       8.739  -8.007   4.539  1.00  0.00    -0.374 OA
BRANCH  28  29
ATOM     29  C   UNL     1       7.343  -7.915   4.798  1.00  0.00     0.202 C 
BRANCH  29  30
ATOM     30  C   UNL     1       6.886  -7.831   6.246  1.00  0.00     0.261 C 
BRANCH  30  31
ATOM     31  O   UNL     1       7.478  -6.741   6.931  1.00  0.00    -0.460 OA
BRANCH  31  32
ATOM     32  C   UNL     1       8.548  -7.089   7.685  1.00  0.00     0.338 C 
ATOM     33  O   UNL     1       9.177  -8.129   7.646  1.00  0.00    -0.246 OA
BRANCH  32  34
ATOM     34  C   UNL     1       8.726  -6.064   8.717  1.00  0.00     0.060 A 
ATOM     35  C   UNL     1       9.632  -6.381   9.732  1.00  0.00     0.016 A 
ATOM     36  C   UNL     1       7.759  -5.059   8.858  1.00  0.00     0.016 A 
ATOM     37  C   UNL     1       9.398  -5.874  10.986  1.00  0.00     0.010 A 
ATOM     38  C   UNL     1       7.498  -4.591  10.118  1.00  0.00     0.010 A 
ATOM     39  C   UNL     1       8.271  -5.072  11.173  1.00  0.00    -0.014 A 
BRANCH  39  40
ATOM     40  C   UNL     1       7.936  -4.685  12.522  1.00  0.00     0.031 A 
ATOM     41  C   UNL     1       8.696  -3.510  12.989  1.00  0.00     0.074 A 
ATOM     42  C   UNL     1       6.923  -5.264  13.189  1.00  0.00     0.049 A 
ATOM     43  N   UNL     1       9.562  -3.448  13.943  1.00  0.00    -0.248 NA
ATOM     44  C   UNL     1       8.607  -2.289  12.171  1.00  0.00     0.031 C 
ATOM     45  C   UNL     1       5.920  -6.195  12.665  1.00  0.00     0.029 A 
ATOM     46  N   UNL     1       6.500  -5.035  14.458  1.00  0.00    -0.354 N 
ATOM     47  C   UNL     1       9.967  -2.117  13.975  1.00  0.00     0.074 A 
ATOM     48  C   UNL     1       9.544  -1.532  12.736  1.00  0.00     0.031 C 
ATOM     49  C   UNL     1       4.887  -6.262  13.536  1.00  0.00     0.029 A 
ATOM     50  C   UNL     1       5.206  -5.465  14.710  1.00  0.00     0.049 A 
ATOM     51  H   UNL     1       7.062  -4.601  15.140  1.00  0.00     0.167 HD
ATOM     52  C   UNL     1      10.328  -1.528  15.146  1.00  0.00     0.037 A 
ATOM     53  C   UNL     1       4.436  -5.093  15.762  1.00  0.00     0.037 A 
ATOM     54  C   UNL     1      10.702  -2.522  16.126  1.00  0.00     0.049 A 
ATOM     55  C   UNL     1       5.327  -4.477  16.781  1.00  0.00     0.074 A 
ATOM     56  C   UNL     1      11.626  -3.549  16.167  1.00  0.00     0.029 A 
ATOM     57  N   UNL     1       9.828  -2.771  17.157  1.00  0.00    -0.354 N 
ATOM     58  N   UNL     1       6.183  -5.138  17.508  1.00  0.00    -0.248 NA
ATOM     59  C   UNL     1       5.568  -3.042  16.693  1.00  0.00     0.031 C 
ATOM     60  C   UNL     1      11.000  -4.591  16.913  1.00  0.00     0.029 A 
ATOM     61  C   UNL     1       9.749  -4.128  17.320  1.00  0.00     0.049 A 
ATOM     62  H   UNL     1       9.345  -2.094  17.684  1.00  0.00     0.167 HD
ATOM     63  C   UNL     1       7.288  -4.302  17.603  1.00  0.00     0.074 A 
ATOM     64  C   UNL     1       6.811  -2.990  17.180  1.00  0.00     0.031 C 
ATOM     65  C   UNL     1       8.548  -4.814  17.732  1.00  0.00     0.037 A 
BRANCH  52  66
ATOM     66  C   UNL     1       9.911  -0.120  15.527  1.00  0.00     0.057 A 
ATOM     67  C   UNL     1      10.329   0.381  16.773  1.00  0.00     0.134 A 
ATOM     68  C   UNL     1       8.895   0.636  14.901  1.00  0.00     0.134 A 
ATOM     69  F   UNL     1      11.307  -0.223  17.466  1.00  0.00    -0.206 F 
ATOM     70  C   UNL     1       9.692   1.456  17.405  1.00  0.00     0.040 A 
ATOM     71  C   UNL     1       8.288   1.742  15.502  1.00  0.00     0.040 A 
ATOM     72  F   UNL     1       8.358   0.317  13.720  1.00  0.00    -0.206 F 
ATOM     73  C   UNL     1       8.653   2.128  16.777  1.00  0.00     0.006 A 
ENDBRANCH  52  66
BRANCH  53  74
ATOM     74  C   UNL     1       2.962  -4.970  15.833  1.00  0.00     0.057 A 
ATOM     75  C   UNL     1       2.307  -4.871  17.069  1.00  0.00     0.134 A 
ATOM     76  C   UNL     1       2.177  -4.695  14.699  1.00  0.00     0.134 A 
ATOM     77  F   UNL     1       2.978  -5.072  18.213  1.00  0.00    -0.206 F 
ATOM     78  C   UNL     1       0.960  -4.503  17.173  1.00  0.00     0.040 A 
ATOM     79  C   UNL     1       0.827  -4.342  14.787  1.00  0.00     0.040 A 
ATOM     80  F   UNL     1       2.712  -4.672  13.470  1.00  0.00    -0.206 F 
ATOM     81  C   UNL     1       0.216  -4.230  16.029  1.00  0.00     0.006 A 
ENDBRANCH  53  74
BRANCH  65  82
ATOM     82  C   UNL     1       8.678  -6.269  18.078  1.00  0.00     0.057 A 
ATOM     83  C   UNL     1       8.210  -7.315  17.268  1.00  0.00     0.134 A 
ATOM     84  C   UNL     1       9.414  -6.628  19.213  1.00  0.00     0.134 A 
ATOM     85  F   UNL     1       7.591  -7.069  16.105  1.00  0.00    -0.206 F 
ATOM     86  C   UNL     1       8.412  -8.655  17.607  1.00  0.00     0.040 A 
ATOM     87  C   UNL     1       9.655  -7.963  19.543  1.00  0.00     0.040 A 
ATOM     88  F   UNL     1       9.945  -5.680  20.003  1.00  0.00    -0.206 F 
ATOM     89  C   UNL     1       9.141  -8.982  18.747  1.00  0.00     0.006 A 
ENDBRANCH  65  82
ENDBRANCH  39  40
ENDBRANCH  32  34
ENDBRANCH  31  32
ENDBRANCH  30  31
ENDBRANCH  29  30
ENDBRANCH  28  29
ENDBRANCH   1  28
TORSDOF 17
