REMARK SMILES CN1CC[N@H+](CC(=O)OCCOCCOC(=O)c2ccc(-c3c4nc(c(-c5c(F)cccc5F)c5ccc([nH]5)c(-c5c(F)cccc5F)c5nc(c(-c6c(F)cccc6F)c6ccc3[nH]6)C=C5)C=C4)cc2)C(C)(C)C1=O
REMARK SMILES IDX 13 1 12 2 11 3 10 4 9 5 7 6 8 7 6 8 5 9 1 10 2 11 3 12 75 13
REMARK SMILES IDX 4 14 72 15 76 16 73 17 74 18 14 20 15 21 16 22 17 23 18 24
REMARK SMILES IDX 19 25 71 26 20 27 70 28 21 29 22 30 23 31 64 32 24 33 69 34
REMARK SMILES IDX 63 35 65 36 25 37 68 38 62 39 61 40 26 42 52 43 35 44 51 45
REMARK SMILES IDX 36 46 39 47 50 48 66 49 37 50 38 51 49 53 67 54 40 55 27 56
REMARK SMILES IDX 28 57 33 58 29 59 30 60 32 61 34 62 31 63 53 64 54 65 59 66
REMARK SMILES IDX 55 67 56 68 58 69 60 70 57 71 41 72 42 73 47 74 43 75 44 76
REMARK SMILES IDX 46 77 48 78 45 79
REMARK H PARENT 5 19 65 41 39 52
REMARK Flexibility Score: inf
ROOT
ATOM      1  C   UNL     1      -1.173   0.938  -3.010  1.00  0.00     0.202 C 
ENDROOT
BRANCH   1   2
ATOM      2  O   UNL     1      -2.578   0.886  -2.766  1.00  0.00    -0.374 OA
BRANCH   2   3
ATOM      3  C   UNL     1      -3.004  -0.005  -1.739  1.00  0.00     0.202 C 
BRANCH   3   4
ATOM      4  C   UNL     1      -3.063  -1.484  -2.128  1.00  0.00     0.261 C 
BRANCH   4   5
ATOM      5  O   UNL     1      -1.784  -2.108  -2.362  1.00  0.00    -0.459 OA
BRANCH   5   6
ATOM      6  C   UNL     1      -1.535  -2.466  -3.650  1.00  0.00     0.361 C 
ATOM      7  O   UNL     1      -2.120  -1.992  -4.620  1.00  0.00    -0.245 OA
BRANCH   6   8
ATOM      8  C   UNL     1      -0.597  -3.659  -3.784  1.00  0.00     0.387 C 
BRANCH   8   9
ATOM      9  N   UNL     1       0.689  -3.648  -3.084  1.00  0.00    -0.312 N 
ATOM     10  C   UNL     1       2.643  -0.608  -0.731  1.00  0.00     0.147 C 
ATOM     11  N   UNL     1       1.927  -1.611  -1.493  1.00  0.00    -0.335 N 
ATOM     12  C   UNL     1       1.968  -1.506  -2.942  1.00  0.00     0.180 C 
ATOM     13  C   UNL     1       1.046  -2.495  -0.866  1.00  0.00     0.283 C 
ATOM     14  C   UNL     1       1.741  -2.827  -3.670  1.00  0.00     0.285 C 
ATOM     15  C   UNL     1       0.778  -3.833  -1.619  1.00  0.00     0.172 C 
ATOM     16  O   UNL     1       0.674  -2.331   0.297  1.00  0.00    -0.268 OA
ATOM     17  C   UNL     1       2.031  -4.696  -1.308  1.00  0.00     0.090 C 
ATOM     18  C   UNL     1      -0.414  -4.596  -1.007  1.00  0.00     0.090 C 
ATOM     19  H   UNL     1       0.904  -4.614  -3.331  1.00  0.00     0.349 HD
ENDBRANCH   8   9
ENDBRANCH   6   8
ENDBRANCH   5   6
ENDBRANCH   4   5
ENDBRANCH   3   4
ENDBRANCH   2   3
ENDBRANCH   1   2
BRANCH   1  20
ATOM     20  C   UNL     1      -0.378   1.712  -1.956  1.00  0.00     0.261 C 
BRANCH  20  21
ATOM     21  O   UNL     1      -0.360   0.997  -0.708  1.00  0.00    -0.460 OA
BRANCH  21  22
ATOM     22  C   UNL     1      -0.432   1.788   0.387  1.00  0.00     0.338 C 
ATOM     23  O   UNL     1      -0.318   3.000   0.424  1.00  0.00    -0.246 OA
BRANCH  22  24
ATOM     24  C   UNL     1      -0.814   0.995   1.569  1.00  0.00     0.060 A 
ATOM     25  C   UNL     1      -2.000   1.325   2.229  1.00  0.00     0.016 A 
ATOM     26  C   UNL     1       0.040   0.030   2.100  1.00  0.00     0.016 A 
ATOM     27  C   UNL     1      -2.289   0.743   3.463  1.00  0.00     0.010 A 
ATOM     28  C   UNL     1      -0.265  -0.581   3.318  1.00  0.00     0.010 A 
ATOM     29  C   UNL     1      -1.397  -0.176   4.037  1.00  0.00    -0.014 A 
BRANCH  29  30
ATOM     30  C   UNL     1      -1.570  -0.582   5.452  1.00  0.00     0.031 A 
ATOM     31  C   UNL     1      -0.696   0.043   6.508  1.00  0.00     0.074 A 
ATOM     32  C   UNL     1      -2.514  -1.476   5.794  1.00  0.00     0.049 A 
ATOM     33  N   UNL     1      -0.761  -0.067   7.811  1.00  0.00    -0.248 NA
ATOM     34  C   UNL     1       0.408   0.894   6.035  1.00  0.00     0.031 C 
ATOM     35  C   UNL     1      -3.379  -2.188   4.856  1.00  0.00     0.029 A 
ATOM     36  N   UNL     1      -2.901  -1.932   7.027  1.00  0.00    -0.354 N 
ATOM     37  C   UNL     1       0.283   0.704   8.308  1.00  0.00     0.074 A 
ATOM     38  C   UNL     1       1.002   1.230   7.169  1.00  0.00     0.031 C 
ATOM     39  C   UNL     1      -4.208  -2.987   5.550  1.00  0.00     0.029 A 
ATOM     40  C   UNL     1      -3.932  -2.838   6.978  1.00  0.00     0.049 A 
ATOM     41  H   UNL     1      -2.481  -1.639   7.868  1.00  0.00     0.167 HD
ATOM     42  C   UNL     1       0.598   0.973   9.597  1.00  0.00     0.037 A 
ATOM     43  C   UNL     1      -4.588  -3.459   7.975  1.00  0.00     0.037 A 
ATOM     44  C   UNL     1      -0.127   0.452  10.725  1.00  0.00     0.049 A 
ATOM     45  C   UNL     1      -4.239  -3.130   9.401  1.00  0.00     0.074 A 
ATOM     46  C   UNL     1       0.063   0.712  12.071  1.00  0.00     0.029 A 
ATOM     47  N   UNL     1      -1.179  -0.447  10.634  1.00  0.00    -0.354 N 
ATOM     48  N   UNL     1      -3.322  -2.312   9.860  1.00  0.00    -0.248 NA
ATOM     49  C   UNL     1      -5.034  -3.789  10.447  1.00  0.00     0.031 C 
ATOM     50  C   UNL     1      -0.849  -0.063  12.797  1.00  0.00     0.029 A 
ATOM     51  C   UNL     1      -1.634  -0.771  11.900  1.00  0.00     0.049 A 
ATOM     52  H   UNL     1      -1.547  -0.803   9.793  1.00  0.00     0.167 HD
ATOM     53  C   UNL     1      -3.444  -2.338  11.243  1.00  0.00     0.074 A 
ATOM     54  C   UNL     1      -4.535  -3.242  11.547  1.00  0.00     0.031 C 
ATOM     55  C   UNL     1      -2.721  -1.674  12.178  1.00  0.00     0.037 A 
BRANCH  42  56
ATOM     56  C   UNL     1       1.770   1.876   9.852  1.00  0.00     0.057 A 
ATOM     57  C   UNL     1       1.721   3.248   9.565  1.00  0.00     0.134 A 
ATOM     58  C   UNL     1       2.950   1.379  10.418  1.00  0.00     0.134 A 
ATOM     59  F   UNL     1       0.625   3.787   9.010  1.00  0.00    -0.206 F 
ATOM     60  C   UNL     1       2.811   4.086   9.807  1.00  0.00     0.040 A 
ATOM     61  C   UNL     1       4.038   2.212  10.690  1.00  0.00     0.040 A 
ATOM     62  F   UNL     1       3.065   0.078  10.724  1.00  0.00    -0.206 F 
ATOM     63  C   UNL     1       3.972   3.569  10.378  1.00  0.00     0.006 A 
ENDBRANCH  42  56
BRANCH  43  64
ATOM     64  C   UNL     1      -5.679  -4.412   7.655  1.00  0.00     0.057 A 
ATOM     65  C   UNL     1      -7.020  -4.079   7.875  1.00  0.00     0.134 A 
ATOM     66  C   UNL     1      -5.408  -5.670   7.104  1.00  0.00     0.134 A 
ATOM     67  F   UNL     1      -7.342  -2.895   8.415  1.00  0.00    -0.206 F 
ATOM     68  C   UNL     1      -8.053  -4.967   7.570  1.00  0.00     0.040 A 
ATOM     69  C   UNL     1      -6.432  -6.559   6.775  1.00  0.00     0.040 A 
ATOM     70  F   UNL     1      -4.143  -6.045   6.863  1.00  0.00    -0.206 F 
ATOM     71  C   UNL     1      -7.760  -6.210   7.012  1.00  0.00     0.006 A 
ENDBRANCH  43  64
BRANCH  55  72
ATOM     72  C   UNL     1      -3.102  -1.887  13.613  1.00  0.00     0.057 A 
ATOM     73  C   UNL     1      -2.811  -3.081  14.284  1.00  0.00     0.134 A 
ATOM     74  C   UNL     1      -3.735  -0.871  14.341  1.00  0.00     0.134 A 
ATOM     75  F   UNL     1      -2.215  -4.095  13.639  1.00  0.00    -0.206 F 
ATOM     76  C   UNL     1      -3.159  -3.267  15.622  1.00  0.00     0.040 A 
ATOM     77  C   UNL     1      -4.065  -1.036  15.686  1.00  0.00     0.040 A 
ATOM     78  F   UNL     1      -4.032   0.301  13.760  1.00  0.00    -0.206 F 
ATOM     79  C   UNL     1      -3.783  -2.240  16.329  1.00  0.00     0.006 A 
ENDBRANCH  55  72
ENDBRANCH  29  30
ENDBRANCH  22  24
ENDBRANCH  21  22
ENDBRANCH  20  21
ENDBRANCH   1  20
TORSDOF 15
