REMARK SMILES CC(=O)OCC1=C(C(=O)OCCOCCOC(=O)c2ccc(-c3c4nc(c(-c5c(F)cccc5F)c5ccc([nH]5)c(-c5c(F)cccc5F)c5nc(c(-c6c(F)cccc6F)c6ccc3[nH]6)C=C5)C=C4)cc2)N2C(=O)[C@H](NC(=O)C3CCCCC3)[C@@H]2SC1
REMARK SMILES IDX 12 1 11 2 10 3 8 4 9 5 7 6 6 7 88 8 73 9 87 10 74 11 86 12
REMARK SMILES IDX 75 13 76 14 5 15 4 16 2 17 1 18 3 19 77 20 78 21 79 23 80 24
REMARK SMILES IDX 81 25 85 26 82 27 84 28 83 29 13 30 14 31 15 32 16 33 17 34
REMARK SMILES IDX 18 35 19 36 20 37 72 38 21 39 71 40 22 41 23 42 24 43 65 44
REMARK SMILES IDX 25 45 70 46 64 47 66 48 26 49 69 50 63 51 62 52 27 54 53 55
REMARK SMILES IDX 36 56 52 57 37 58 40 59 51 60 67 61 38 62 39 63 50 65 68 66
REMARK SMILES IDX 41 67 28 68 29 69 34 70 30 71 31 72 33 73 35 74 32 75 54 76
REMARK SMILES IDX 55 77 60 78 56 79 57 80 59 81 61 82 58 83 42 84 43 85 48 86
REMARK SMILES IDX 44 87 45 88 47 89 49 90 46 91
REMARK H PARENT 77 22 66 53 40 64
REMARK Flexibility Score: inf
ROOT
ATOM      1  C   UNL     1      -3.246   1.262   1.252  1.00  0.00     0.202 C 
ENDROOT
BRANCH   1   2
ATOM      2  C   UNL     1      -1.754   1.027   1.027  1.00  0.00     0.261 C 
BRANCH   2   3
ATOM      3  O   UNL     1      -1.073   0.650   2.230  1.00  0.00    -0.459 OA
BRANCH   3   4
ATOM      4  C   UNL     1      -0.011   1.433   2.555  1.00  0.00     0.355 C 
ATOM      5  O   UNL     1       0.396   2.393   1.921  1.00  0.00    -0.244 OA
BRANCH   4   6
ATOM      6  C   UNL     1       0.624   0.960   3.826  1.00  0.00     0.134 C 
ATOM      7  C   UNL     1       1.038  -0.321   3.998  1.00  0.00     0.008 C 
ATOM      8  C   UNL     1       1.888  -0.761   5.182  1.00  0.00     0.108 C 
ATOM      9  N   UNL     1       0.880   1.908   4.770  1.00  0.00    -0.289 N 
ATOM     10  S   UNL     1       2.850   0.586   5.939  1.00  0.00    -0.129 SA
ATOM     11  C   UNL     1       0.682   3.229   4.953  1.00  0.00     0.253 C 
ATOM     12  C   UNL     1       1.405   1.643   6.091  1.00  0.00     0.181 C 
ATOM     13  O   UNL     1       0.044   4.067   4.359  1.00  0.00    -0.272 OA
ATOM     14  C   UNL     1       1.609   3.179   6.225  1.00  0.00     0.205 C 
BRANCH   7  15
ATOM     15  C   UNL     1       0.790  -1.477   3.039  1.00  0.00     0.267 C 
BRANCH  15  16
ATOM     16  O   UNL     1       0.733  -1.167   1.642  1.00  0.00    -0.461 OA
BRANCH  16  17
ATOM     17  C   UNL     1       1.840  -0.626   1.069  1.00  0.00     0.302 C 
ATOM     18  C   UNL     1       1.594  -0.422  -0.396  1.00  0.00     0.139 C 
ATOM     19  O   UNL     1       2.860  -0.310   1.660  1.00  0.00    -0.253 OA
ENDBRANCH  16  17
ENDBRANCH  15  16
ENDBRANCH   7  15
BRANCH  14  20
ATOM     20  N   UNL     1       2.978   3.719   6.014  1.00  0.00    -0.342 N 
ATOM     21  C   UNL     1       3.612   4.731   6.679  1.00  0.00     0.223 C 
ATOM     22  H   UNL     1       3.499   3.288   5.298  1.00  0.00     0.164 HD
ATOM     23  O   UNL     1       4.740   5.066   6.321  1.00  0.00    -0.275 OA
BRANCH  21  24
ATOM     24  C   UNL     1       2.910   5.358   7.877  1.00  0.00     0.078 C 
ATOM     25  C   UNL     1       3.105   4.457   9.105  1.00  0.00     0.013 C 
ATOM     26  C   UNL     1       3.429   6.773   8.162  1.00  0.00     0.013 C 
ATOM     27  C   UNL     1       2.442   5.048  10.346  1.00  0.00     0.001 C 
ATOM     28  C   UNL     1       2.739   7.368   9.389  1.00  0.00     0.001 C 
ATOM     29  C   UNL     1       2.913   6.475  10.614  1.00  0.00     0.000 C 
ENDBRANCH  21  24
ENDBRANCH  14  20
ENDBRANCH   4   6
ENDBRANCH   3   4
ENDBRANCH   2   3
ENDBRANCH   1   2
BRANCH   1  30
ATOM     30  O   UNL     1      -3.655   2.128   2.302  1.00  0.00    -0.374 OA
BRANCH  30  31
ATOM     31  C   UNL     1      -3.252   1.841   3.636  1.00  0.00     0.202 C 
BRANCH  31  32
ATOM     32  C   UNL     1      -3.745   0.550   4.313  1.00  0.00     0.261 C 
BRANCH  32  33
ATOM     33  O   UNL     1      -3.562  -0.661   3.562  1.00  0.00    -0.460 OA
BRANCH  33  34
ATOM     34  C   UNL     1      -4.703  -1.146   3.008  1.00  0.00     0.338 C 
ATOM     35  O   UNL     1      -5.816  -0.652   3.043  1.00  0.00    -0.246 OA
BRANCH  34  36
ATOM     36  C   UNL     1      -4.413  -2.360   2.228  1.00  0.00     0.060 A 
ATOM     37  C   UNL     1      -4.593  -2.330   0.839  1.00  0.00     0.016 A 
ATOM     38  C   UNL     1      -4.121  -3.555   2.884  1.00  0.00     0.016 A 
ATOM     39  C   UNL     1      -4.510  -3.510   0.100  1.00  0.00     0.010 A 
ATOM     40  C   UNL     1      -4.043  -4.736   2.143  1.00  0.00     0.010 A 
ATOM     41  C   UNL     1      -4.268  -4.724   0.754  1.00  0.00    -0.014 A 
BRANCH  41  42
ATOM     42  C   UNL     1      -4.372  -6.008   0.019  1.00  0.00     0.031 A 
ATOM     43  C   UNL     1      -5.577  -6.880   0.234  1.00  0.00     0.074 A 
ATOM     44  C   UNL     1      -3.388  -6.402  -0.808  1.00  0.00     0.049 A 
ATOM     45  N   UNL     1      -5.810  -8.095  -0.192  1.00  0.00    -0.248 NA
ATOM     46  C   UNL     1      -6.662  -6.308   1.048  1.00  0.00     0.031 C 
ATOM     47  C   UNL     1      -2.194  -5.623  -1.131  1.00  0.00     0.029 A 
ATOM     48  N   UNL     1      -3.231  -7.570  -1.510  1.00  0.00    -0.354 N 
ATOM     49  C   UNL     1      -7.056  -8.440   0.316  1.00  0.00     0.074 A 
ATOM     50  C   UNL     1      -7.517  -7.319   1.105  1.00  0.00     0.031 C 
ATOM     51  C   UNL     1      -1.414  -6.345  -1.953  1.00  0.00     0.029 A 
ATOM     52  C   UNL     1      -2.032  -7.650  -2.175  1.00  0.00     0.049 A 
ATOM     53  H   UNL     1      -3.911  -8.281  -1.536  1.00  0.00     0.167 HD
ATOM     54  C   UNL     1      -7.753  -9.588   0.136  1.00  0.00     0.037 A 
ATOM     55  C   UNL     1      -1.481  -8.675  -2.853  1.00  0.00     0.037 A 
ATOM     56  C   UNL     1      -7.285 -10.699  -0.653  1.00  0.00     0.049 A 
ATOM     57  C   UNL     1      -2.239  -9.971  -2.973  1.00  0.00     0.074 A 
ATOM     58  C   UNL     1      -7.922 -11.899  -0.915  1.00  0.00     0.029 A 
ATOM     59  N   UNL     1      -6.058 -10.749  -1.299  1.00  0.00    -0.354 N 
ATOM     60  N   UNL     1      -3.422 -10.286  -2.502  1.00  0.00    -0.248 NA
ATOM     61  C   UNL     1      -1.585 -11.055  -3.721  1.00  0.00     0.031 C 
ATOM     62  C   UNL     1      -7.055 -12.700  -1.664  1.00  0.00     0.029 A 
ATOM     63  C   UNL     1      -5.908 -11.971  -1.934  1.00  0.00     0.049 A 
ATOM     64  H   UNL     1      -5.393 -10.023  -1.305  1.00  0.00     0.167 HD
ATOM     65  C   UNL     1      -3.671 -11.585  -2.932  1.00  0.00     0.074 A 
ATOM     66  C   UNL     1      -2.517 -11.996  -3.704  1.00  0.00     0.031 C 
ATOM     67  C   UNL     1      -4.760 -12.363  -2.713  1.00  0.00     0.037 A 
BRANCH  54  68
ATOM     68  C   UNL     1      -9.079  -9.716   0.830  1.00  0.00     0.057 A 
ATOM     69  C   UNL     1     -10.194  -8.955   0.456  1.00  0.00     0.134 A 
ATOM     70  C   UNL     1      -9.251 -10.642   1.868  1.00  0.00     0.134 A 
ATOM     71  F   UNL     1     -10.097  -8.041  -0.522  1.00  0.00    -0.206 F 
ATOM     72  C   UNL     1     -11.423  -9.091   1.105  1.00  0.00     0.040 A 
ATOM     73  C   UNL     1     -10.483 -10.810   2.502  1.00  0.00     0.040 A 
ATOM     74  F   UNL     1      -8.228 -11.409   2.274  1.00  0.00    -0.206 F 
ATOM     75  C   UNL     1     -11.572 -10.027   2.126  1.00  0.00     0.006 A 
ENDBRANCH  54  68
BRANCH  55  76
ATOM     76  C   UNL     1      -0.133  -8.526  -3.458  1.00  0.00     0.057 A 
ATOM     77  C   UNL     1       0.041  -8.523  -4.847  1.00  0.00     0.134 A 
ATOM     78  C   UNL     1       1.015  -8.400  -2.666  1.00  0.00     0.134 A 
ATOM     79  F   UNL     1      -1.017  -8.660  -5.659  1.00  0.00    -0.206 F 
ATOM     80  C   UNL     1       1.307  -8.423  -5.426  1.00  0.00     0.040 A 
ATOM     81  C   UNL     1       2.284  -8.269  -3.231  1.00  0.00     0.040 A 
ATOM     82  F   UNL     1       0.918  -8.389  -1.328  1.00  0.00    -0.206 F 
ATOM     83  C   UNL     1       2.433  -8.290  -4.616  1.00  0.00     0.006 A 
ENDBRANCH  55  76
BRANCH  67  84
ATOM     84  C   UNL     1      -4.791 -13.716  -3.368  1.00  0.00     0.057 A 
ATOM     85  C   UNL     1      -3.966 -14.768  -2.952  1.00  0.00     0.134 A 
ATOM     86  C   UNL     1      -5.702 -13.980  -4.400  1.00  0.00     0.134 A 
ATOM     87  F   UNL     1      -3.063 -14.581  -1.977  1.00  0.00    -0.206 F 
ATOM     88  C   UNL     1      -4.030 -16.026  -3.554  1.00  0.00     0.040 A 
ATOM     89  C   UNL     1      -5.798 -15.242  -4.987  1.00  0.00     0.040 A 
ATOM     90  F   UNL     1      -6.530 -13.020  -4.840  1.00  0.00    -0.206 F 
ATOM     91  C   UNL     1      -4.955 -16.268  -4.568  1.00  0.00     0.006 A 
ENDBRANCH  67  84
ENDBRANCH  41  42
ENDBRANCH  34  36
ENDBRANCH  33  34
ENDBRANCH  32  33
ENDBRANCH  31  32
ENDBRANCH  30  31
ENDBRANCH   1  30
TORSDOF 19
