REMARK SMILES CC1(C)[C@H](C(=O)N(Cc2ccccc2)Cc2ccccc2)CC[C@@]1(C)C(=O)OCCOCCOC(=O)c1ccc(-c2c3nc(c(-c4c(F)cccc4F)c4ccc([nH]4)c(-c4c(F)cccc4F)c4nc(c(-c5c(F)cccc5F)c5ccc2[nH]5)C=C4)C=C3)cc1
REMARK SMILES IDX 30 1 29 2 28 3 26 4 27 5 24 6 1 7 2 8 3 9 4 10 22 11 23 12
REMARK SMILES IDX 25 13 5 14 6 15 7 16 8 17 9 18 10 19 14 20 11 21 13 22 12 23
REMARK SMILES IDX 15 24 16 25 17 26 21 27 18 28 20 29 19 30 31 31 32 32 33 33
REMARK SMILES IDX 34 34 35 35 36 36 37 37 38 38 90 39 39 40 89 41 40 42 41 43
REMARK SMILES IDX 42 44 83 45 43 46 88 47 82 48 84 49 44 50 87 51 81 52 80 53
REMARK SMILES IDX 45 55 71 56 54 57 70 58 55 59 58 60 69 61 85 62 56 63 57 64
REMARK SMILES IDX 68 66 86 67 59 68 46 69 47 70 52 71 48 72 49 73 51 74 53 75
REMARK SMILES IDX 50 76 72 77 73 78 78 79 74 80 75 81 77 82 79 83 76 84 60 85
REMARK SMILES IDX 61 86 66 87 62 88 63 89 65 90 67 91 64 92
REMARK H PARENT 84 54 58 65
REMARK Flexibility Score: inf
ROOT
ATOM      1  C   UNL     1       1.111   2.945   3.163  1.00  0.00     0.202 C 
ENDROOT
BRANCH   1   2
ATOM      2  C   UNL     1       0.389   3.703   2.044  1.00  0.00     0.261 C 
BRANCH   2   3
ATOM      3  O   UNL     1       0.204   2.938   0.838  1.00  0.00    -0.463 OA
BRANCH   3   4
ATOM      4  C   UNL     1       1.101   3.208  -0.142  1.00  0.00     0.312 C 
ATOM      5  O   UNL     1       2.003   4.031  -0.009  1.00  0.00    -0.252 OA
BRANCH   4   6
ATOM      6  C   UNL     1       0.837   2.466  -1.470  1.00  0.00     0.071 C 
ATOM      7  C   UNL     1       0.245   0.187  -0.108  1.00  0.00     0.013 C 
ATOM      8  C   UNL     1       0.344   0.930  -1.451  1.00  0.00    -0.008 C 
ATOM      9  C   UNL     1       1.295   0.047  -2.253  1.00  0.00     0.013 C 
ATOM     10  C   UNL     1      -1.092   1.003  -2.046  1.00  0.00     0.085 C 
ATOM     11  C   UNL     1      -1.151   2.225  -2.937  1.00  0.00     0.015 C 
ATOM     12  C   UNL     1      -0.291   3.247  -2.206  1.00  0.00     0.020 C 
ATOM     13  C   UNL     1       2.147   2.683  -2.289  1.00  0.00     0.024 C 
BRANCH  10  14
ATOM     14  C   UNL     1      -1.866  -0.246  -2.529  1.00  0.00     0.226 C 
ATOM     15  O   UNL     1      -2.941  -0.444  -1.935  1.00  0.00    -0.275 OA
ATOM     16  N   UNL     1      -1.469  -1.134  -3.528  1.00  0.00    -0.334 N 
BRANCH  16  17
ATOM     17  C   UNL     1      -0.611  -0.810  -4.696  1.00  0.00     0.155 C 
BRANCH  17  18
ATOM     18  C   UNL     1       0.684  -1.592  -4.886  1.00  0.00    -0.029 A 
ATOM     19  C   UNL     1       0.782  -2.975  -4.723  1.00  0.00     0.005 A 
ATOM     20  C   UNL     1       1.866  -0.910  -5.241  1.00  0.00     0.005 A 
ATOM     21  C   UNL     1       2.016  -3.632  -4.746  1.00  0.00     0.000 A 
ATOM     22  C   UNL     1       3.108  -1.555  -5.243  1.00  0.00     0.000 A 
ATOM     23  C   UNL     1       3.185  -2.915  -4.971  1.00  0.00     0.000 A 
ENDBRANCH  17  18
ENDBRANCH  16  17
BRANCH  16  24
ATOM     24  C   UNL     1      -2.322  -2.337  -3.668  1.00  0.00     0.155 C 
BRANCH  24  25
ATOM     25  C   UNL     1      -2.014  -3.501  -2.735  1.00  0.00    -0.029 A 
ATOM     26  C   UNL     1      -1.964  -4.809  -3.252  1.00  0.00     0.005 A 
ATOM     27  C   UNL     1      -1.867  -3.345  -1.349  1.00  0.00     0.005 A 
ATOM     28  C   UNL     1      -1.719  -5.908  -2.423  1.00  0.00     0.000 A 
ATOM     29  C   UNL     1      -1.638  -4.445  -0.516  1.00  0.00     0.000 A 
ATOM     30  C   UNL     1      -1.556  -5.725  -1.054  1.00  0.00     0.000 A 
ENDBRANCH  24  25
ENDBRANCH  16  24
ENDBRANCH  10  14
ENDBRANCH   4   6
ENDBRANCH   3   4
ENDBRANCH   2   3
ENDBRANCH   1   2
BRANCH   1  31
ATOM     31  O   UNL     1       2.450   2.518   2.937  1.00  0.00    -0.374 OA
BRANCH  31  32
ATOM     32  C   UNL     1       2.640   1.325   2.178  1.00  0.00     0.202 C 
BRANCH  32  33
ATOM     33  C   UNL     1       2.227   0.004   2.852  1.00  0.00     0.261 C 
BRANCH  33  34
ATOM     34  O   UNL     1       0.798  -0.084   3.042  1.00  0.00    -0.460 OA
BRANCH  34  35
ATOM     35  C   UNL     1       0.403  -0.267   4.322  1.00  0.00     0.338 C 
ATOM     36  O   UNL     1       1.118  -0.533   5.283  1.00  0.00    -0.246 OA
BRANCH  35  37
ATOM     37  C   UNL     1      -1.009   0.123   4.495  1.00  0.00     0.060 A 
ATOM     38  C   UNL     1      -1.271   1.133   5.430  1.00  0.00     0.016 A 
ATOM     39  C   UNL     1      -2.062  -0.529   3.848  1.00  0.00     0.016 A 
ATOM     40  C   UNL     1      -2.582   1.440   5.781  1.00  0.00     0.010 A 
ATOM     41  C   UNL     1      -3.384  -0.221   4.209  1.00  0.00     0.010 A 
ATOM     42  C   UNL     1      -3.648   0.729   5.214  1.00  0.00    -0.014 A 
BRANCH  42  43
ATOM     43  C   UNL     1      -4.998   0.886   5.819  1.00  0.00     0.031 A 
ATOM     44  C   UNL     1      -5.499  -0.161   6.781  1.00  0.00     0.074 A 
ATOM     45  C   UNL     1      -5.722   2.002   5.612  1.00  0.00     0.049 A 
ATOM     46  N   UNL     1      -6.596  -0.175   7.496  1.00  0.00    -0.248 NA
ATOM     47  C   UNL     1      -4.646  -1.344   6.971  1.00  0.00     0.031 C 
ATOM     48  C   UNL     1      -5.331   3.113   4.745  1.00  0.00     0.029 A 
ATOM     49  N   UNL     1      -6.931   2.393   6.134  1.00  0.00    -0.354 N 
ATOM     50  C   UNL     1      -6.567  -1.366   8.213  1.00  0.00     0.074 A 
ATOM     51  C   UNL     1      -5.359  -2.062   7.827  1.00  0.00     0.031 C 
ATOM     52  C   UNL     1      -6.276   4.067   4.807  1.00  0.00     0.029 A 
ATOM     53  C   UNL     1      -7.351   3.624   5.692  1.00  0.00     0.049 A 
ATOM     54  H   UNL     1      -7.448   1.842   6.765  1.00  0.00     0.167 HD
ATOM     55  C   UNL     1      -7.459  -1.834   9.119  1.00  0.00     0.037 A 
ATOM     56  C   UNL     1      -8.478   4.311   5.965  1.00  0.00     0.037 A 
ATOM     57  C   UNL     1      -8.655  -1.139   9.519  1.00  0.00     0.049 A 
ATOM     58  C   UNL     1      -9.488   3.731   6.922  1.00  0.00     0.074 A 
ATOM     59  C   UNL     1      -9.598  -1.519  10.458  1.00  0.00     0.029 A 
ATOM     60  N   UNL     1      -9.077   0.073   8.996  1.00  0.00    -0.354 N 
ATOM     61  N   UNL     1      -9.426   2.626   7.624  1.00  0.00    -0.248 NA
ATOM     62  C   UNL     1     -10.725   4.500   7.125  1.00  0.00     0.031 C 
ATOM     63  C   UNL     1     -10.623  -0.567  10.460  1.00  0.00     0.029 A 
ATOM     64  C   UNL     1     -10.287   0.436   9.566  1.00  0.00     0.049 A 
ATOM     65  H   UNL     1      -8.590   0.598   8.321  1.00  0.00     0.167 HD
ATOM     66  C   UNL     1     -10.597   2.583   8.373  1.00  0.00     0.074 A 
ATOM     67  C   UNL     1     -11.341   3.783   8.054  1.00  0.00     0.031 C 
ATOM     68  C   UNL     1     -11.018   1.636   9.246  1.00  0.00     0.037 A 
BRANCH  55  69
ATOM     69  C   UNL     1      -7.196  -3.182   9.727  1.00  0.00     0.057 A 
ATOM     70  C   UNL     1      -6.182  -3.389  10.670  1.00  0.00     0.134 A 
ATOM     71  C   UNL     1      -8.011  -4.275   9.405  1.00  0.00     0.134 A 
ATOM     72  F   UNL     1      -5.358  -2.388  11.015  1.00  0.00    -0.206 F 
ATOM     73  C   UNL     1      -5.978  -4.639  11.260  1.00  0.00     0.040 A 
ATOM     74  C   UNL     1      -7.835  -5.522  10.007  1.00  0.00     0.040 A 
ATOM     75  F   UNL     1      -9.006  -4.144   8.514  1.00  0.00    -0.206 F 
ATOM     76  C   UNL     1      -6.812  -5.707  10.934  1.00  0.00     0.006 A 
ENDBRANCH  55  69
BRANCH  56  77
ATOM     77  C   UNL     1      -8.733   5.625   5.317  1.00  0.00     0.057 A 
ATOM     78  C   UNL     1      -8.789   6.808   6.064  1.00  0.00     0.134 A 
ATOM     79  C   UNL     1      -8.979   5.721   3.942  1.00  0.00     0.134 A 
ATOM     80  F   UNL     1      -8.589   6.779   7.390  1.00  0.00    -0.206 F 
ATOM     81  C   UNL     1      -9.104   8.033   5.473  1.00  0.00     0.040 A 
ATOM     82  C   UNL     1      -9.267   6.943   3.333  1.00  0.00     0.040 A 
ATOM     83  F   UNL     1      -8.945   4.625   3.169  1.00  0.00    -0.206 F 
ATOM     84  C   UNL     1      -9.341   8.102   4.102  1.00  0.00     0.006 A 
ENDBRANCH  56  77
BRANCH  68  85
ATOM     85  C   UNL     1     -12.325   1.875   9.947  1.00  0.00     0.057 A 
ATOM     86  C   UNL     1     -13.552   1.810   9.273  1.00  0.00     0.134 A 
ATOM     87  C   UNL     1     -12.359   2.149  11.321  1.00  0.00     0.134 A 
ATOM     88  F   UNL     1     -13.591   1.564   7.954  1.00  0.00    -0.206 F 
ATOM     89  C   UNL     1     -14.761   2.041   9.932  1.00  0.00     0.040 A 
ATOM     90  C   UNL     1     -13.564   2.350  11.997  1.00  0.00     0.040 A 
ATOM     91  F   UNL     1     -11.223   2.214  12.032  1.00  0.00    -0.206 F 
ATOM     92  C   UNL     1     -14.769   2.305  11.300  1.00  0.00     0.006 A 
ENDBRANCH  68  85
ENDBRANCH  42  43
ENDBRANCH  35  37
ENDBRANCH  34  35
ENDBRANCH  33  34
ENDBRANCH  32  33
ENDBRANCH  31  32
ENDBRANCH   1  31
TORSDOF 19
