REMARK SMILES CCNC(=O)N1CC[C@H](Cc2cccc(C(=O)OCCOCCOC(=O)c3ccc(-c4c5nc(c(-c6c(F)cccc6F)c6ccc([nH]6)c(-c6c(F)cccc6F)c6nc(c(-c7c(F)cccc7F)c7ccc4[nH]7)C=C6)C=C5)cc3)c2)C1
REMARK SMILES IDX 20 1 19 2 18 3 16 4 17 5 15 6 11 7 12 8 81 9 13 10 14 11
REMARK SMILES IDX 10 12 9 13 6 14 7 15 82 16 8 17 4 18 3 19 5 21 2 22 1 23
REMARK SMILES IDX 21 24 22 25 23 26 24 27 25 28 26 29 27 30 28 31 80 32 29 33
REMARK SMILES IDX 79 34 30 35 31 36 32 37 73 38 33 39 78 40 72 41 74 42 34 43
REMARK SMILES IDX 77 44 71 45 70 46 35 48 61 49 44 50 60 51 45 52 48 53 59 54
REMARK SMILES IDX 75 55 46 56 47 57 58 59 76 60 49 61 36 62 37 63 42 64 38 65
REMARK SMILES IDX 39 66 41 67 43 68 40 69 62 70 63 71 68 72 64 73 65 74 67 75
REMARK SMILES IDX 69 76 66 77 50 78 51 79 56 80 52 81 53 82 55 83 57 84 54 85
REMARK H PARENT 3 20 74 47 48 58
REMARK Flexibility Score: inf
ROOT
ATOM      1  C   UNL     1     -10.930  -3.106  -1.952  1.00  0.00     0.202 C 
ENDROOT
BRANCH   1   2
ATOM      2  C   UNL     1      -9.822  -2.470  -2.798  1.00  0.00     0.261 C 
BRANCH   2   3
ATOM      3  O   UNL     1      -8.647  -2.218  -2.015  1.00  0.00    -0.460 OA
BRANCH   3   4
ATOM      4  C   UNL     1      -8.399  -0.911  -1.755  1.00  0.00     0.338 C 
ATOM      5  O   UNL     1      -8.963   0.055  -2.246  1.00  0.00    -0.246 OA
BRANCH   4   6
ATOM      6  C   UNL     1      -7.429  -0.800  -0.640  1.00  0.00     0.060 A 
ATOM      7  C   UNL     1      -5.490  -1.580   0.598  1.00  0.00    -0.047 A 
ATOM      8  C   UNL     1      -5.636  -0.493   1.473  1.00  0.00     0.004 A 
ATOM      9  C   UNL     1      -6.431  -1.756  -0.429  1.00  0.00     0.019 A 
ATOM     10  C   UNL     1      -6.663   0.434   1.292  1.00  0.00     0.001 A 
ATOM     11  C   UNL     1      -7.546   0.293   0.225  1.00  0.00     0.016 A 
BRANCH   7  12
ATOM     12  C   UNL     1      -4.302  -2.507   0.736  1.00  0.00     0.041 C 
BRANCH  12  13
ATOM     13  C   UNL     1      -3.590  -2.774  -0.599  1.00  0.00     0.015 C 
ATOM     14  N   UNL     1      -1.314  -2.747  -1.244  1.00  0.00    -0.325 N 
ATOM     15  C   UNL     1      -2.038  -1.929  -2.195  1.00  0.00     0.121 C 
ATOM     16  C   UNL     1      -2.246  -3.504  -0.428  1.00  0.00     0.125 C 
ATOM     17  C   UNL     1      -3.220  -1.485  -1.366  1.00  0.00     0.027 C 
BRANCH  14  18
ATOM     18  C   UNL     1       0.025  -2.951  -1.157  1.00  0.00     0.317 C 
ATOM     19  N   UNL     1       0.865  -1.928  -1.451  1.00  0.00    -0.338 N 
ATOM     20  H   UNL     1       1.731  -2.180  -1.846  1.00  0.00     0.165 HD
ATOM     21  O   UNL     1       0.506  -4.016  -0.773  1.00  0.00    -0.249 OA
BRANCH  19  22
ATOM     22  C   UNL     1       0.646  -0.504  -1.254  1.00  0.00     0.114 C 
ATOM     23  C   UNL     1       1.325  -0.013   0.013  1.00  0.00     0.027 C 
ENDBRANCH  19  22
ENDBRANCH  14  18
ENDBRANCH  12  13
ENDBRANCH   7  12
ENDBRANCH   4   6
ENDBRANCH   3   4
ENDBRANCH   2   3
ENDBRANCH   1   2
BRANCH   1  24
ATOM     24  O   UNL     1     -11.433  -2.345  -0.855  1.00  0.00    -0.374 OA
BRANCH  24  25
ATOM     25  C   UNL     1     -10.655  -2.316   0.342  1.00  0.00     0.202 C 
BRANCH  25  26
ATOM     26  C   UNL     1     -10.689  -3.556   1.244  1.00  0.00     0.261 C 
BRANCH  26  27
ATOM     27  O   UNL     1     -10.154  -4.727   0.602  1.00  0.00    -0.460 OA
BRANCH  27  28
ATOM     28  C   UNL     1     -11.073  -5.665   0.272  1.00  0.00     0.338 C 
ATOM     29  O   UNL     1     -12.271  -5.652   0.511  1.00  0.00    -0.246 OA
BRANCH  28  30
ATOM     30  C   UNL     1     -10.454  -6.669  -0.610  1.00  0.00     0.060 A 
ATOM     31  C   UNL     1     -10.998  -6.842  -1.889  1.00  0.00     0.016 A 
ATOM     32  C   UNL     1      -9.390  -7.460  -0.175  1.00  0.00     0.016 A 
ATOM     33  C   UNL     1     -10.485  -7.820  -2.739  1.00  0.00     0.010 A 
ATOM     34  C   UNL     1      -8.886  -8.450  -1.024  1.00  0.00     0.010 A 
ATOM     35  C   UNL     1      -9.441  -8.644  -2.303  1.00  0.00    -0.014 A 
BRANCH  35  36
ATOM     36  C   UNL     1      -8.962  -9.757  -3.156  1.00  0.00     0.031 A 
ATOM     37  C   UNL     1      -9.378 -11.164  -2.845  1.00  0.00     0.074 A 
ATOM     38  C   UNL     1      -8.137  -9.508  -4.188  1.00  0.00     0.049 A 
ATOM     39  N   UNL     1      -8.992 -12.284  -3.399  1.00  0.00    -0.248 NA
ATOM     40  C   UNL     1     -10.355 -11.331  -1.759  1.00  0.00     0.031 C 
ATOM     41  C   UNL     1      -7.686  -8.181  -4.604  1.00  0.00     0.029 A 
ATOM     42  N   UNL     1      -7.511 -10.366  -5.056  1.00  0.00    -0.354 N 
ATOM     43  C   UNL     1      -9.663 -13.292  -2.719  1.00  0.00     0.074 A 
ATOM     44  C   UNL     1     -10.466 -12.650  -1.699  1.00  0.00     0.031 C 
ATOM     45  C   UNL     1      -6.831  -8.315  -5.631  1.00  0.00     0.029 A 
ATOM     46  C   UNL     1      -6.644  -9.737  -5.914  1.00  0.00     0.049 A 
ATOM     47  H   UNL     1      -7.669 -11.338  -5.063  1.00  0.00     0.167 HD
ATOM     48  C   UNL     1      -9.611 -14.629  -2.928  1.00  0.00     0.037 A 
ATOM     49  C   UNL     1      -5.765 -10.250  -6.796  1.00  0.00     0.037 A 
ATOM     50  C   UNL     1      -8.807 -15.258  -3.945  1.00  0.00     0.049 A 
ATOM     51  C   UNL     1      -5.669 -11.741  -6.963  1.00  0.00     0.074 A 
ATOM     52  C   UNL     1      -8.731 -16.600  -4.276  1.00  0.00     0.029 A 
ATOM     53  N   UNL     1      -7.921 -14.591  -4.778  1.00  0.00    -0.354 N 
ATOM     54  N   UNL     1      -6.346 -12.685  -6.355  1.00  0.00    -0.248 NA
ATOM     55  C   UNL     1      -4.685 -12.240  -7.934  1.00  0.00     0.031 C 
ATOM     56  C   UNL     1      -7.749 -16.752  -5.260  1.00  0.00     0.029 A 
ATOM     57  C   UNL     1      -7.256 -15.499  -5.587  1.00  0.00     0.049 A 
ATOM     58  H   UNL     1      -7.786 -13.616  -4.793  1.00  0.00     0.167 HD
ATOM     59  C   UNL     1      -5.878 -13.887  -6.873  1.00  0.00     0.074 A 
ATOM     60  C   UNL     1      -4.876 -13.550  -7.864  1.00  0.00     0.031 C 
ATOM     61  C   UNL     1      -6.245 -15.153  -6.556  1.00  0.00     0.037 A 
BRANCH  48  62
ATOM     62  C   UNL     1     -10.412 -15.505  -2.008  1.00  0.00     0.057 A 
ATOM     63  C   UNL     1     -11.812 -15.542  -2.040  1.00  0.00     0.134 A 
ATOM     64  C   UNL     1      -9.767 -16.343  -1.089  1.00  0.00     0.134 A 
ATOM     65  F   UNL     1     -12.495 -14.758  -2.888  1.00  0.00    -0.206 F 
ATOM     66  C   UNL     1     -12.541 -16.355  -1.169  1.00  0.00     0.040 A 
ATOM     67  C   UNL     1     -10.483 -17.182  -0.234  1.00  0.00     0.040 A 
ATOM     68  F   UNL     1      -8.428 -16.364  -1.009  1.00  0.00    -0.206 F 
ATOM     69  C   UNL     1     -11.876 -17.183  -0.266  1.00  0.00     0.006 A 
ENDBRANCH  48  62
BRANCH  49  70
ATOM     70  C   UNL     1      -4.878  -9.336  -7.558  1.00  0.00     0.057 A 
ATOM     71  C   UNL     1      -5.037  -9.146  -8.934  1.00  0.00     0.134 A 
ATOM     72  C   UNL     1      -3.860  -8.614  -6.919  1.00  0.00     0.134 A 
ATOM     73  F   UNL     1      -5.978  -9.825  -9.605  1.00  0.00    -0.206 F 
ATOM     74  C   UNL     1      -4.213  -8.275  -9.650  1.00  0.00     0.040 A 
ATOM     75  C   UNL     1      -3.047  -7.721  -7.617  1.00  0.00     0.040 A 
ATOM     76  F   UNL     1      -3.659  -8.751  -5.600  1.00  0.00    -0.206 F 
ATOM     77  C   UNL     1      -3.221  -7.553  -8.989  1.00  0.00     0.006 A 
ENDBRANCH  49  70
BRANCH  61  78
ATOM     78  C   UNL     1      -5.558 -16.273  -7.284  1.00  0.00     0.057 A 
ATOM     79  C   UNL     1      -4.221 -16.606  -7.030  1.00  0.00     0.134 A 
ATOM     80  C   UNL     1      -6.252 -17.058  -8.214  1.00  0.00     0.134 A 
ATOM     81  F   UNL     1      -3.494 -15.886  -6.161  1.00  0.00    -0.206 F 
ATOM     82  C   UNL     1      -3.594 -17.667  -7.686  1.00  0.00     0.040 A 
ATOM     83  C   UNL     1      -5.645 -18.139  -8.856  1.00  0.00     0.040 A 
ATOM     84  F   UNL     1      -7.537 -16.801  -8.499  1.00  0.00    -0.206 F 
ATOM     85  C   UNL     1      -4.310 -18.443  -8.596  1.00  0.00     0.006 A 
ENDBRANCH  61  78
ENDBRANCH  35  36
ENDBRANCH  28  30
ENDBRANCH  27  28
ENDBRANCH  26  27
ENDBRANCH  25  26
ENDBRANCH  24  25
ENDBRANCH   1  24
TORSDOF 18
