REMARK SMILES O=C(CS[C@H](C(=O)Nc1ccc(C(F)(F)F)cc1)c1ccccc1)OCCOCCOC(=O)c1ccc(-c2c3nc(c(-c4c(F)cccc4F)c4ccc([nH]4)c(-c4c(F)cccc4F)c4nc(c(-c5c(F)cccc5F)c5ccc2[nH]5)C=C4)C=C3)cc1
REMARK SMILES IDX 26 1 25 2 2 3 1 4 3 5 4 6 5 7 19 8 20 9 24 10 21 11 23 12
REMARK SMILES IDX 22 13 6 14 7 15 8 16 9 18 10 19 18 20 11 21 17 22 12 23
REMARK SMILES IDX 13 24 14 25 15 26 16 27 27 28 28 29 29 30 30 31 31 32 32 33
REMARK SMILES IDX 33 34 34 35 35 36 87 37 36 38 86 39 37 40 38 41 39 42 80 43
REMARK SMILES IDX 40 44 85 45 79 46 81 47 41 48 84 49 78 50 77 51 42 53 68 54
REMARK SMILES IDX 51 55 67 56 52 57 55 58 66 59 82 60 53 61 54 62 65 64 83 65
REMARK SMILES IDX 56 66 43 67 44 68 49 69 45 70 46 71 48 72 50 73 47 74 69 75
REMARK SMILES IDX 70 76 75 77 71 78 72 79 74 80 76 81 73 82 57 83 58 84 63 85
REMARK SMILES IDX 59 86 60 87 62 88 64 89 61 90
REMARK H PARENT 8 17 81 52 55 63
REMARK Flexibility Score: inf
ROOT
ATOM      1  C   UNL     1       2.226  -0.289  -2.275  1.00  0.00     0.261 C 
ENDROOT
BRANCH   1   2
ATOM      2  O   UNL     1       1.114   0.288  -1.561  1.00  0.00    -0.463 OA
BRANCH   2   3
ATOM      3  C   UNL     1       0.347   1.316  -2.006  1.00  0.00     0.316 C 
ATOM      4  O   UNL     1      -0.635   1.658  -1.348  1.00  0.00    -0.251 OA
BRANCH   3   5
ATOM      5  C   UNL     1       0.694   1.994  -3.310  1.00  0.00     0.193 C 
BRANCH   5   6
ATOM      6  S   UNL     1       1.122   3.759  -3.173  1.00  0.00    -0.132 SA
BRANCH   6   7
ATOM      7  C   UNL     1       2.601   3.804  -2.060  1.00  0.00     0.166 C 
BRANCH   7   8
ATOM      8  C   UNL     1       2.175   3.916  -0.601  1.00  0.00    -0.026 A 
ATOM      9  C   UNL     1       1.765   5.178  -0.121  1.00  0.00     0.005 A 
ATOM     10  C   UNL     1       2.136   2.834   0.287  1.00  0.00     0.005 A 
ATOM     11  C   UNL     1       1.325   5.348   1.191  1.00  0.00     0.000 A 
ATOM     12  C   UNL     1       1.668   2.999   1.596  1.00  0.00     0.000 A 
ATOM     13  C   UNL     1       1.266   4.254   2.048  1.00  0.00     0.000 A 
ENDBRANCH   7   8
BRANCH   7  14
ATOM     14  C   UNL     1       3.699   2.781  -2.409  1.00  0.00     0.242 C 
ATOM     15  O   UNL     1       3.597   1.947  -3.315  1.00  0.00    -0.273 OA
ATOM     16  N   UNL     1       4.936   2.832  -1.785  1.00  0.00    -0.325 N 
ATOM     17  H   UNL     1       5.338   2.025  -1.390  1.00  0.00     0.169 HD
BRANCH  16  18
ATOM     18  C   UNL     1       5.600   4.069  -1.733  1.00  0.00     0.041 A 
ATOM     19  C   UNL     1       6.410   4.395  -2.822  1.00  0.00     0.027 A 
ATOM     20  C   UNL     1       5.281   5.017  -0.769  1.00  0.00     0.027 A 
ATOM     21  C   UNL     1       6.736   5.727  -3.050  1.00  0.00     0.015 A 
ATOM     22  C   UNL     1       5.606   6.351  -1.000  1.00  0.00     0.015 A 
ATOM     23  C   UNL     1       6.269   6.724  -2.180  1.00  0.00     0.056 A 
BRANCH  23  24
ATOM     24  C   UNL     1       6.434   8.178  -2.548  1.00  0.00     0.416 C 
ATOM     25  F   UNL     1       7.671   8.658  -2.261  1.00  0.00    -0.166 F 
ATOM     26  F   UNL     1       6.239   8.398  -3.880  1.00  0.00    -0.166 F 
ATOM     27  F   UNL     1       5.548   8.992  -1.910  1.00  0.00    -0.166 F 
ENDBRANCH  23  24
ENDBRANCH  16  18
ENDBRANCH   7  14
ENDBRANCH   6   7
ENDBRANCH   5   6
ENDBRANCH   3   5
ENDBRANCH   2   3
ENDBRANCH   1   2
BRANCH   1  28
ATOM     28  C   UNL     1       2.511  -1.719  -1.835  1.00  0.00     0.202 C 
BRANCH  28  29
ATOM     29  O   UNL     1       1.570  -2.679  -2.293  1.00  0.00    -0.374 OA
BRANCH  29  30
ATOM     30  C   UNL     1       0.243  -2.573  -1.781  1.00  0.00     0.202 C 
BRANCH  30  31
ATOM     31  C   UNL     1       0.059  -3.018  -0.326  1.00  0.00     0.261 C 
BRANCH  31  32
ATOM     32  O   UNL     1       0.637  -2.119   0.644  1.00  0.00    -0.460 OA
BRANCH  32  33
ATOM     33  C   UNL     1       1.710  -2.603   1.307  1.00  0.00     0.338 C 
ATOM     34  O   UNL     1       2.299  -3.660   1.104  1.00  0.00    -0.246 OA
BRANCH  33  35
ATOM     35  C   UNL     1       2.171  -1.661   2.337  1.00  0.00     0.060 A 
ATOM     36  C   UNL     1       3.438  -1.077   2.210  1.00  0.00     0.016 A 
ATOM     37  C   UNL     1       1.459  -1.565   3.534  1.00  0.00     0.016 A 
ATOM     38  C   UNL     1       4.029  -0.454   3.312  1.00  0.00     0.010 A 
ATOM     39  C   UNL     1       2.055  -0.947   4.636  1.00  0.00     0.010 A 
ATOM     40  C   UNL     1       3.363  -0.439   4.545  1.00  0.00    -0.014 A 
BRANCH  40  41
ATOM     41  C   UNL     1       4.087  -0.079   5.791  1.00  0.00     0.031 A 
ATOM     42  C   UNL     1       4.625  -1.182   6.665  1.00  0.00     0.074 A 
ATOM     43  C   UNL     1       4.243   1.204   6.159  1.00  0.00     0.049 A 
ATOM     44  N   UNL     1       5.178  -1.111   7.849  1.00  0.00    -0.248 NA
ATOM     45  C   UNL     1       4.519  -2.550   6.131  1.00  0.00     0.031 C 
ATOM     46  C   UNL     1       3.808   2.366   5.388  1.00  0.00     0.029 A 
ATOM     47  N   UNL     1       4.798   1.737   7.295  1.00  0.00    -0.354 N 
ATOM     48  C   UNL     1       5.471  -2.421   8.209  1.00  0.00     0.074 A 
ATOM     49  C   UNL     1       5.020  -3.268   7.126  1.00  0.00     0.031 C 
ATOM     50  C   UNL     1       4.091   3.479   6.086  1.00  0.00     0.029 A 
ATOM     51  C   UNL     1       4.697   3.104   7.363  1.00  0.00     0.049 A 
ATOM     52  H   UNL     1       5.227   1.192   7.994  1.00  0.00     0.167 HD
ATOM     53  C   UNL     1       6.066  -2.878   9.337  1.00  0.00     0.037 A 
ATOM     54  C   UNL     1       5.031   3.952   8.355  1.00  0.00     0.037 A 
ATOM     55  C   UNL     1       6.519  -2.041  10.415  1.00  0.00     0.049 A 
ATOM     56  C   UNL     1       5.630   3.415   9.628  1.00  0.00     0.074 A 
ATOM     57  C   UNL     1       7.149  -2.413  11.591  1.00  0.00     0.029 A 
ATOM     58  N   UNL     1       6.386  -0.663  10.451  1.00  0.00    -0.354 N 
ATOM     59  N   UNL     1       5.914   2.178   9.953  1.00  0.00    -0.248 NA
ATOM     60  C   UNL     1       5.952   4.398  10.674  1.00  0.00     0.031 C 
ATOM     61  C   UNL     1       7.366  -1.260  12.354  1.00  0.00     0.029 A 
ATOM     62  C   UNL     1       6.906  -0.168  11.636  1.00  0.00     0.049 A 
ATOM     63  H   UNL     1       5.983  -0.115   9.739  1.00  0.00     0.167 HD
ATOM     64  C   UNL     1       6.473   2.236  11.225  1.00  0.00     0.074 A 
ATOM     65  C   UNL     1       6.493   3.631  11.610  1.00  0.00     0.031 C 
ATOM     66  C   UNL     1       6.930   1.224  12.002  1.00  0.00     0.037 A 
BRANCH  53  67
ATOM     67  C   UNL     1       6.239  -4.362   9.470  1.00  0.00     0.057 A 
ATOM     68  C   UNL     1       7.205  -5.061   8.737  1.00  0.00     0.134 A 
ATOM     69  C   UNL     1       5.447  -5.096  10.363  1.00  0.00     0.134 A 
ATOM     70  F   UNL     1       7.986  -4.418   7.855  1.00  0.00    -0.206 F 
ATOM     71  C   UNL     1       7.366  -6.441   8.872  1.00  0.00     0.040 A 
ATOM     72  C   UNL     1       5.613  -6.472  10.523  1.00  0.00     0.040 A 
ATOM     73  F   UNL     1       4.506  -4.485  11.099  1.00  0.00    -0.206 F 
ATOM     74  C   UNL     1       6.571  -7.150   9.771  1.00  0.00     0.006 A 
ENDBRANCH  53  67
BRANCH  54  75
ATOM     75  C   UNL     1       4.792   5.407   8.196  1.00  0.00     0.057 A 
ATOM     76  C   UNL     1       5.858   6.298   8.030  1.00  0.00     0.134 A 
ATOM     77  C   UNL     1       3.499   5.941   8.230  1.00  0.00     0.134 A 
ATOM     78  F   UNL     1       7.120   5.846   8.016  1.00  0.00    -0.206 F 
ATOM     79  C   UNL     1       5.647   7.673   7.916  1.00  0.00     0.040 A 
ATOM     80  C   UNL     1       3.273   7.311   8.096  1.00  0.00     0.040 A 
ATOM     81  F   UNL     1       2.438   5.137   8.389  1.00  0.00    -0.206 F 
ATOM     82  C   UNL     1       4.350   8.182   7.945  1.00  0.00     0.006 A 
ENDBRANCH  54  75
BRANCH  66  83
ATOM     83  C   UNL     1       7.530   1.591  13.327  1.00  0.00     0.057 A 
ATOM     84  C   UNL     1       6.738   1.980  14.414  1.00  0.00     0.134 A 
ATOM     85  C   UNL     1       8.915   1.519  13.526  1.00  0.00     0.134 A 
ATOM     86  F   UNL     1       5.407   2.080  14.284  1.00  0.00    -0.206 F 
ATOM     87  C   UNL     1       7.305   2.303  15.648  1.00  0.00     0.040 A 
ATOM     88  C   UNL     1       9.491   1.819  14.761  1.00  0.00     0.040 A 
ATOM     89  F   UNL     1       9.728   1.146  12.526  1.00  0.00    -0.206 F 
ATOM     90  C   UNL     1       8.685   2.218  15.825  1.00  0.00     0.006 A 
ENDBRANCH  66  83
ENDBRANCH  40  41
ENDBRANCH  33  35
ENDBRANCH  32  33
ENDBRANCH  31  32
ENDBRANCH  30  31
ENDBRANCH  29  30
ENDBRANCH  28  29
ENDBRANCH   1  28
TORSDOF 20
