REMARK SMILES C[C@H]1[C@@H](C(=O)OCCOCCOC(=O)c2ccc(-c3c4nc(c(-c5c(F)cccc5F)c5ccc([nH]5)c(-c5c(F)cccc5F)c5nc(c(-c6c(F)cccc6F)c6ccc3[nH]6)C=C5)C=C4)cc2)CC[N@@H+]1Cc1cc(F)c(F)c(F)c1
REMARK SMILES IDX 9 1 8 2 7 3 6 4 4 5 5 6 3 7 1 8 2 9 71 10 69 11 70 12 72 14
REMARK SMILES IDX 73 15 74 16 81 17 75 18 79 19 76 20 77 21 80 22 78 23 10 24
REMARK SMILES IDX 11 25 12 26 13 27 14 28 15 29 16 30 68 31 17 32 67 33 18 34
REMARK SMILES IDX 19 35 20 36 61 37 21 38 66 39 60 40 62 41 22 42 65 43 59 44
REMARK SMILES IDX 58 45 23 47 49 48 32 49 48 50 33 51 36 52 47 53 63 54 34 55
REMARK SMILES IDX 35 56 46 58 64 59 37 60 24 61 25 62 30 63 26 64 27 65 29 66
REMARK SMILES IDX 31 67 28 68 50 69 51 70 56 71 52 72 53 73 55 74 57 75 54 76
REMARK SMILES IDX 38 77 39 78 44 79 40 80 41 81 43 82 45 83 42 84
REMARK H PARENT 71 13 62 46 36 57
REMARK Flexibility Score: inf
ROOT
ATOM      1  O   UNL     1       0.154   2.198  -4.058  1.00  0.00    -0.374 OA
ENDROOT
BRANCH   1   2
ATOM      2  C   UNL     1       1.500   2.480  -3.657  1.00  0.00     0.202 C 
BRANCH   2   3
ATOM      3  C   UNL     1       1.622   3.224  -2.323  1.00  0.00     0.261 C 
BRANCH   3   4
ATOM      4  O   UNL     1       1.388   2.296  -1.243  1.00  0.00    -0.463 OA
BRANCH   4   5
ATOM      5  C   UNL     1       0.458   2.632  -0.325  1.00  0.00     0.315 C 
ATOM      6  O   UNL     1      -0.067   3.739  -0.253  1.00  0.00    -0.252 OA
BRANCH   5   7
ATOM      7  C   UNL     1      -0.011   1.472   0.541  1.00  0.00     0.162 C 
ATOM      8  C   UNL     1       1.965  -0.140  -0.178  1.00  0.00     0.076 C 
ATOM      9  C   UNL     1       0.795   0.173   0.752  1.00  0.00     0.195 C 
ATOM     10  N   UNL     1      -0.173  -0.935   0.617  1.00  0.00    -0.328 N 
ATOM     11  C   UNL     1      -1.400   1.025   0.071  1.00  0.00     0.083 C 
ATOM     12  C   UNL     1      -1.284  -0.463  -0.195  1.00  0.00     0.263 C 
ATOM     13  H   UNL     1       0.295  -1.702   0.134  1.00  0.00     0.348 HD
BRANCH  10  14
ATOM     14  C   UNL     1      -0.537  -1.651   1.841  1.00  0.00     0.299 C 
BRANCH  14  15
ATOM     15  C   UNL     1      -1.262  -0.860   2.908  1.00  0.00     0.012 A 
ATOM     16  C   UNL     1      -0.569  -0.374   4.028  1.00  0.00     0.052 A 
ATOM     17  C   UNL     1      -2.636  -0.585   2.802  1.00  0.00     0.052 A 
ATOM     18  C   UNL     1      -1.230   0.400   4.982  1.00  0.00     0.162 A 
ATOM     19  C   UNL     1      -3.272   0.216   3.747  1.00  0.00     0.162 A 
ATOM     20  F   UNL     1      -0.545   0.848   6.042  1.00  0.00    -0.204 F 
ATOM     21  C   UNL     1      -2.574   0.712   4.836  1.00  0.00     0.194 A 
ATOM     22  F   UNL     1      -4.568   0.514   3.581  1.00  0.00    -0.204 F 
ATOM     23  F   UNL     1      -3.191   1.485   5.740  1.00  0.00    -0.200 F 
ENDBRANCH  14  15
ENDBRANCH  10  14
ENDBRANCH   5   7
ENDBRANCH   4   5
ENDBRANCH   3   4
ENDBRANCH   2   3
ENDBRANCH   1   2
BRANCH   1  24
ATOM     24  C   UNL     1      -0.469   1.091  -3.410  1.00  0.00     0.202 C 
BRANCH  24  25
ATOM     25  C   UNL     1      -0.305  -0.255  -4.121  1.00  0.00     0.261 C 
BRANCH  25  26
ATOM     26  O   UNL     1       1.071  -0.666  -4.094  1.00  0.00    -0.460 OA
BRANCH  26  27
ATOM     27  C   UNL     1       1.721  -0.473  -5.261  1.00  0.00     0.338 C 
ATOM     28  O   UNL     1       1.232  -0.148  -6.335  1.00  0.00    -0.246 OA
BRANCH  27  29
ATOM     29  C   UNL     1       3.178  -0.547  -5.054  1.00  0.00     0.060 A 
ATOM     30  C   UNL     1       3.953   0.387  -5.749  1.00  0.00     0.016 A 
ATOM     31  C   UNL     1       3.785  -1.533  -4.269  1.00  0.00     0.016 A 
ATOM     32  C   UNL     1       5.336   0.274  -5.754  1.00  0.00     0.010 A 
ATOM     33  C   UNL     1       5.180  -1.643  -4.268  1.00  0.00     0.010 A 
ATOM     34  C   UNL     1       5.952  -0.779  -5.064  1.00  0.00    -0.014 A 
BRANCH  34  35
ATOM     35  C   UNL     1       7.373  -1.068  -5.371  1.00  0.00     0.031 A 
ATOM     36  C   UNL     1       7.690  -2.168  -6.349  1.00  0.00     0.074 A 
ATOM     37  C   UNL     1       8.350  -0.284  -4.885  1.00  0.00     0.049 A 
ATOM     38  N   UNL     1       8.842  -2.521  -6.858  1.00  0.00    -0.248 NA
ATOM     39  C   UNL     1       6.553  -2.977  -6.821  1.00  0.00     0.031 C 
ATOM     40  C   UNL     1       8.156   0.831  -3.960  1.00  0.00     0.029 A 
ATOM     41  N   UNL     1       9.700  -0.296  -5.123  1.00  0.00    -0.354 N 
ATOM     42  C   UNL     1       8.569  -3.585  -7.709  1.00  0.00     0.074 A 
ATOM     43  C   UNL     1       7.151  -3.852  -7.614  1.00  0.00     0.031 C 
ATOM     44  C   UNL     1       9.345   1.408  -3.719  1.00  0.00     0.029 A 
ATOM     45  C   UNL     1      10.383   0.692  -4.458  1.00  0.00     0.049 A 
ATOM     46  H   UNL     1      10.138  -0.950  -5.714  1.00  0.00     0.167 HD
ATOM     47  C   UNL     1       9.419  -4.266  -8.513  1.00  0.00     0.037 A 
ATOM     48  C   UNL     1      11.697   0.983  -4.452  1.00  0.00     0.037 A 
ATOM     49  C   UNL     1      10.828  -3.993  -8.609  1.00  0.00     0.049 A 
ATOM     50  C   UNL     1      12.630   0.179  -5.318  1.00  0.00     0.074 A 
ATOM     51  C   UNL     1      11.777  -4.616  -9.399  1.00  0.00     0.029 A 
ATOM     52  N   UNL     1      11.491  -3.013  -7.884  1.00  0.00    -0.354 N 
ATOM     53  N   UNL     1      12.356  -0.805  -6.141  1.00  0.00    -0.248 NA
ATOM     54  C   UNL     1      14.054   0.538  -5.265  1.00  0.00     0.031 C 
ATOM     55  C   UNL     1      13.023  -4.045  -9.117  1.00  0.00     0.029 A 
ATOM     56  C   UNL     1      12.841  -3.029  -8.192  1.00  0.00     0.049 A 
ATOM     57  H   UNL     1      11.064  -2.397  -7.246  1.00  0.00     0.167 HD
ATOM     58  C   UNL     1      13.566  -1.164  -6.723  1.00  0.00     0.074 A 
ATOM     59  C   UNL     1      14.571  -0.279  -6.171  1.00  0.00     0.031 C 
ATOM     60  C   UNL     1      13.824  -2.136  -7.632  1.00  0.00     0.037 A 
BRANCH  47  61
ATOM     61  C   UNL     1       8.846  -5.386  -9.333  1.00  0.00     0.057 A 
ATOM     62  C   UNL     1       8.003  -5.149 -10.427  1.00  0.00     0.134 A 
ATOM     63  C   UNL     1       9.156  -6.718  -9.035  1.00  0.00     0.134 A 
ATOM     64  F   UNL     1       7.652  -3.896 -10.757  1.00  0.00    -0.206 F 
ATOM     65  C   UNL     1       7.469  -6.197 -11.179  1.00  0.00     0.040 A 
ATOM     66  C   UNL     1       8.650  -7.774  -9.795  1.00  0.00     0.040 A 
ATOM     67  F   UNL     1       9.958  -7.016  -8.002  1.00  0.00    -0.206 F 
ATOM     68  C   UNL     1       7.799  -7.515 -10.867  1.00  0.00     0.006 A 
ENDBRANCH  47  61
BRANCH  48  69
ATOM     69  C   UNL     1      12.209   2.090  -3.606  1.00  0.00     0.057 A 
ATOM     70  C   UNL     1      12.721   3.264  -4.169  1.00  0.00     0.134 A 
ATOM     71  C   UNL     1      12.213   1.991  -2.209  1.00  0.00     0.134 A 
ATOM     72  F   UNL     1      12.763   3.410  -5.502  1.00  0.00    -0.206 F 
ATOM     73  C   UNL     1      13.237   4.291  -3.377  1.00  0.00     0.040 A 
ATOM     74  C   UNL     1      12.701   3.021  -1.403  1.00  0.00     0.040 A 
ATOM     75  F   UNL     1      11.733   0.893  -1.606  1.00  0.00    -0.206 F 
ATOM     76  C   UNL     1      13.223   4.172  -1.988  1.00  0.00     0.006 A 
ENDBRANCH  48  69
BRANCH  60  77
ATOM     77  C   UNL     1      15.242  -2.267  -8.109  1.00  0.00     0.057 A 
ATOM     78  C   UNL     1      16.259  -2.765  -7.285  1.00  0.00     0.134 A 
ATOM     79  C   UNL     1      15.588  -1.909  -9.419  1.00  0.00     0.134 A 
ATOM     80  F   UNL     1      15.995  -3.116  -6.017  1.00  0.00    -0.206 F 
ATOM     81  C   UNL     1      17.576  -2.870  -7.735  1.00  0.00     0.040 A 
ATOM     82  C   UNL     1      16.895  -2.038  -9.889  1.00  0.00     0.040 A 
ATOM     83  F   UNL     1      14.660  -1.437 -10.265  1.00  0.00    -0.206 F 
ATOM     84  C   UNL     1      17.895  -2.511  -9.043  1.00  0.00     0.006 A 
ENDBRANCH  60  77
ENDBRANCH  34  35
ENDBRANCH  27  29
ENDBRANCH  26  27
ENDBRANCH  25  26
ENDBRANCH  24  25
ENDBRANCH   1  24
TORSDOF 16
