REMARK SMILES O=C(OCCOCCOC(=O)c1cccc([C@@H]2CCC[N@@H+](Cc3cccc(OCCO)c3)C2)c1)c1ccc(-c2c3nc(c(-c4c(F)cccc4F)c4ccc([nH]4)c(-c4c(F)cccc4F)c4nc(c(-c5c(F)cccc5F)c5ccc2[nH]5)C=C4)C=C3)cc1
REMARK SMILES IDX 8 1 7 2 6 3 5 4 4 5 3 6 2 7 1 8 35 9 36 10 88 11 37 12 87 13
REMARK SMILES IDX 38 14 39 15 40 16 81 17 41 18 86 19 80 20 82 21 42 22 85 23
REMARK SMILES IDX 79 24 78 25 43 27 69 28 52 29 68 30 53 31 56 32 67 33 83 34
REMARK SMILES IDX 54 35 55 36 66 38 84 39 57 40 44 41 45 42 50 43 46 44 47 45
REMARK SMILES IDX 49 46 51 47 48 48 70 49 71 50 76 51 72 52 73 53 75 54 77 55
REMARK SMILES IDX 74 56 58 57 59 58 64 59 60 60 61 61 63 62 65 63 62 64 9 65
REMARK SMILES IDX 10 66 11 67 12 68 13 69 34 70 14 71 16 72 15 73 17 74 18 75
REMARK SMILES IDX 33 76 19 77 21 78 20 79 22 81 23 82 24 83 32 84 25 85 27 86
REMARK SMILES IDX 26 87 28 88 29 89 30 90 31 91
REMARK H PARENT 82 26 56 37 21 80 31 92
REMARK Flexibility Score: inf
ROOT
ATOM      1  C   UNL     1       2.951  -2.193   2.641  1.00  0.00     0.261 C 
ENDROOT
BRANCH   1   2
ATOM      2  C   UNL     1       2.744  -0.916   1.812  1.00  0.00     0.202 C 
BRANCH   2   3
ATOM      3  O   UNL     1       4.024  -0.495   1.351  1.00  0.00    -0.374 OA
BRANCH   3   4
ATOM      4  C   UNL     1       4.296   0.897   1.277  1.00  0.00     0.202 C 
BRANCH   4   5
ATOM      5  C   UNL     1       4.044   1.474  -0.113  1.00  0.00     0.261 C 
BRANCH   5   6
ATOM      6  O   UNL     1       2.668   1.282  -0.477  1.00  0.00    -0.460 OA
BRANCH   6   7
ATOM      7  C   UNL     1       2.163   0.337  -1.303  1.00  0.00     0.338 C 
ATOM      8  O   UNL     1       0.949   0.301  -1.493  1.00  0.00    -0.246 OA
BRANCH   7   9
ATOM      9  C   UNL     1       3.005  -0.669  -2.014  1.00  0.00     0.060 A 
ATOM     10  C   UNL     1       4.143  -1.271  -1.475  1.00  0.00     0.016 A 
ATOM     11  C   UNL     1       2.537  -1.136  -3.251  1.00  0.00     0.016 A 
ATOM     12  C   UNL     1       4.798  -2.303  -2.114  1.00  0.00     0.010 A 
ATOM     13  C   UNL     1       3.175  -2.198  -3.897  1.00  0.00     0.010 A 
ATOM     14  C   UNL     1       4.294  -2.795  -3.307  1.00  0.00    -0.014 A 
BRANCH  14  15
ATOM     15  C   UNL     1       5.011  -3.920  -3.913  1.00  0.00     0.031 A 
ATOM     16  C   UNL     1       5.910  -3.643  -5.068  1.00  0.00     0.074 A 
ATOM     17  C   UNL     1       4.939  -5.127  -3.323  1.00  0.00     0.049 A 
ATOM     18  N   UNL     1       6.566  -4.482  -5.816  1.00  0.00    -0.248 NA
ATOM     19  C   UNL     1       6.110  -2.226  -5.421  1.00  0.00     0.031 C 
ATOM     20  C   UNL     1       4.199  -5.422  -2.090  1.00  0.00     0.029 A 
ATOM     21  N   UNL     1       5.508  -6.323  -3.661  1.00  0.00    -0.354 N 
ATOM     22  C   UNL     1       7.219  -3.702  -6.758  1.00  0.00     0.074 A 
ATOM     23  C   UNL     1       6.902  -2.321  -6.478  1.00  0.00     0.031 C 
ATOM     24  C   UNL     1       4.359  -6.718  -1.780  1.00  0.00     0.029 A 
ATOM     25  C   UNL     1       5.134  -7.356  -2.834  1.00  0.00     0.049 A 
ATOM     26  H   UNL     1       6.124  -6.434  -4.420  1.00  0.00     0.167 HD
ATOM     27  C   UNL     1       7.993  -4.130  -7.778  1.00  0.00     0.037 A 
ATOM     28  C   UNL     1       5.346  -8.678  -2.969  1.00  0.00     0.037 A 
ATOM     29  C   UNL     1       8.288  -5.518  -8.002  1.00  0.00     0.049 A 
ATOM     30  C   UNL     1       6.119  -9.129  -4.179  1.00  0.00     0.074 A 
ATOM     31  C   UNL     1       9.036  -6.090  -9.012  1.00  0.00     0.029 A 
ATOM     32  N   UNL     1       7.835  -6.553  -7.194  1.00  0.00    -0.354 N 
ATOM     33  N   UNL     1       6.702  -8.401  -5.105  1.00  0.00    -0.248 NA
ATOM     34  C   UNL     1       6.242 -10.576  -4.386  1.00  0.00     0.031 C 
ATOM     35  C   UNL     1       8.981  -7.477  -8.851  1.00  0.00     0.029 A 
ATOM     36  C   UNL     1       8.250  -7.767  -7.707  1.00  0.00     0.049 A 
ATOM     37  H   UNL     1       7.297  -6.439  -6.377  1.00  0.00     0.167 HD
ATOM     38  C   UNL     1       7.268  -9.298  -5.997  1.00  0.00     0.074 A 
ATOM     39  C   UNL     1       6.986 -10.625  -5.482  1.00  0.00     0.031 C 
ATOM     40  C   UNL     1       7.947  -9.060  -7.145  1.00  0.00     0.037 A 
BRANCH  27  41
ATOM     41  C   UNL     1       8.476  -3.108  -8.758  1.00  0.00     0.057 A 
ATOM     42  C   UNL     1       9.491  -2.192  -8.457  1.00  0.00     0.134 A 
ATOM     43  C   UNL     1       7.908  -3.048 -10.037  1.00  0.00     0.134 A 
ATOM     44  F   UNL     1      10.053  -2.174  -7.239  1.00  0.00    -0.206 F 
ATOM     45  C   UNL     1       9.918  -1.247  -9.393  1.00  0.00     0.040 A 
ATOM     46  C   UNL     1       8.341  -2.124 -10.987  1.00  0.00     0.040 A 
ATOM     47  F   UNL     1       6.920  -3.887 -10.382  1.00  0.00    -0.206 F 
ATOM     48  C   UNL     1       9.349  -1.218 -10.665  1.00  0.00     0.006 A 
ENDBRANCH  27  41
BRANCH  28  49
ATOM     49  C   UNL     1       4.737  -9.655  -2.027  1.00  0.00     0.057 A 
ATOM     50  C   UNL     1       5.522 -10.532  -1.269  1.00  0.00     0.134 A 
ATOM     51  C   UNL     1       3.345  -9.781  -1.907  1.00  0.00     0.134 A 
ATOM     52  F   UNL     1       6.859 -10.481  -1.348  1.00  0.00    -0.206 F 
ATOM     53  C   UNL     1       4.949 -11.517  -0.460  1.00  0.00     0.040 A 
ATOM     54  C   UNL     1       2.759 -10.737  -1.076  1.00  0.00     0.040 A 
ATOM     55  F   UNL     1       2.527  -8.976  -2.603  1.00  0.00    -0.206 F 
ATOM     56  C   UNL     1       3.563 -11.621  -0.361  1.00  0.00     0.006 A 
ENDBRANCH  28  49
BRANCH  40  57
ATOM     57  C   UNL     1       8.437 -10.257  -7.898  1.00  0.00     0.057 A 
ATOM     58  C   UNL     1       7.561 -11.081  -8.615  1.00  0.00     0.134 A 
ATOM     59  C   UNL     1       9.806 -10.544  -7.961  1.00  0.00     0.134 A 
ATOM     60  F   UNL     1       6.238 -10.863  -8.578  1.00  0.00    -0.206 F 
ATOM     61  C   UNL     1       8.030 -12.161  -9.360  1.00  0.00     0.040 A 
ATOM     62  C   UNL     1      10.289 -11.601  -8.729  1.00  0.00     0.040 A 
ATOM     63  F   UNL     1      10.693  -9.783  -7.304  1.00  0.00    -0.206 F 
ATOM     64  C   UNL     1       9.400 -12.415  -9.428  1.00  0.00     0.006 A 
ENDBRANCH  40  57
ENDBRANCH  14  15
ENDBRANCH   7   9
ENDBRANCH   6   7
ENDBRANCH   5   6
ENDBRANCH   4   5
ENDBRANCH   3   4
ENDBRANCH   2   3
ENDBRANCH   1   2
BRANCH   1  65
ATOM     65  O   UNL     1       3.816  -1.909   3.748  1.00  0.00    -0.460 OA
BRANCH  65  66
ATOM     66  C   UNL     1       5.117  -1.630   3.433  1.00  0.00     0.338 C 
ATOM     67  O   UNL     1       5.813  -2.233   2.644  1.00  0.00    -0.246 OA
BRANCH  66  68
ATOM     68  C   UNL     1       5.526  -0.406   4.180  1.00  0.00     0.060 A 
ATOM     69  C   UNL     1       6.771   0.196   4.015  1.00  0.00     0.016 A 
ATOM     70  C   UNL     1       4.645   0.130   5.105  1.00  0.00     0.020 A 
ATOM     71  C   UNL     1       7.139   1.254   4.857  1.00  0.00     0.001 A 
ATOM     72  C   UNL     1       5.078   0.995   6.096  1.00  0.00    -0.038 A 
ATOM     73  C   UNL     1       6.320   1.612   5.936  1.00  0.00     0.004 A 
BRANCH  72  74
ATOM     74  C   UNL     1       4.272   1.052   7.378  1.00  0.00     0.074 C 
ATOM     75  C   UNL     1       4.168  -0.351   8.032  1.00  0.00     0.020 C 
ATOM     76  C   UNL     1       2.874   1.663   7.205  1.00  0.00     0.270 C 
ATOM     77  C   UNL     1       3.053  -1.238   7.464  1.00  0.00     0.062 C 
ATOM     78  N   UNL     1       1.858   0.798   6.578  1.00  0.00    -0.331 N 
ATOM     79  C   UNL     1       1.728  -0.493   7.272  1.00  0.00     0.262 C 
ATOM     80  H   UNL     1       2.194   0.593   5.638  1.00  0.00     0.348 HD
BRANCH  78  81
ATOM     81  C   UNL     1       0.550   1.483   6.404  1.00  0.00     0.299 C 
BRANCH  81  82
ATOM     82  C   UNL     1      -0.227   1.730   7.688  1.00  0.00     0.010 A 
ATOM     83  C   UNL     1      -1.334   0.946   8.027  1.00  0.00     0.010 A 
ATOM     84  C   UNL     1       0.255   2.659   8.624  1.00  0.00     0.056 A 
ATOM     85  C   UNL     1      -1.880   1.031   9.307  1.00  0.00     0.004 A 
ATOM     86  C   UNL     1      -0.178   2.637   9.944  1.00  0.00     0.119 A 
ATOM     87  C   UNL     1      -1.279   1.845  10.272  1.00  0.00     0.046 A 
BRANCH  86  88
ATOM     88  O   UNL     1       0.428   3.282  10.989  1.00  0.00    -0.491 OA
BRANCH  88  89
ATOM     89  C   UNL     1       1.778   3.745  10.828  1.00  0.00     0.257 C 
BRANCH  89  90
ATOM     90  C   UNL     1       2.825   2.708  11.256  1.00  0.00     0.197 C 
BRANCH  90  91
ATOM     91  O   UNL     1       2.715   1.476  10.557  1.00  0.00    -0.393 OA
ATOM     92  H   UNL     1       1.851   1.076  10.740  1.00  0.00     0.210 HD
ENDBRANCH  90  91
ENDBRANCH  89  90
ENDBRANCH  88  89
ENDBRANCH  86  88
ENDBRANCH  81  82
ENDBRANCH  78  81
ENDBRANCH  72  74
ENDBRANCH  66  68
ENDBRANCH  65  66
ENDBRANCH   1  65
TORSDOF 21
