REMARK SMILES CCNC(=O)c1cccc(-c2ccc(Cl)c(C(=O)OCCOCCOC(=O)c3ccc(-c4c5nc(c(-c6c(F)cccc6F)c6ccc([nH]6)c(-c6c(F)cccc6F)c6nc(c(-c7c(F)cccc7F)c7ccc4[nH]7)C=C6)C=C5)cc3)c2)c1
REMARK SMILES IDX 21 1 20 2 19 3 17 4 18 5 16 6 11 7 12 8 82 9 13 10 14 11
REMARK SMILES IDX 15 12 10 13 6 14 7 15 83 16 8 17 9 18 4 19 3 20 5 22 2 23
REMARK SMILES IDX 1 24 22 25 23 26 24 27 25 28 26 29 27 30 28 31 29 32 81 33
REMARK SMILES IDX 30 34 80 35 31 36 32 37 33 38 74 39 34 40 79 41 73 42 75 43
REMARK SMILES IDX 35 44 78 45 72 46 71 47 36 49 62 50 45 51 61 52 46 53 49 54
REMARK SMILES IDX 60 55 76 56 47 57 48 58 59 60 77 61 50 62 37 63 38 64 43 65
REMARK SMILES IDX 39 66 40 67 42 68 44 69 41 70 63 71 64 72 69 73 65 74 66 75
REMARK SMILES IDX 68 76 70 77 67 78 51 79 52 80 57 81 53 82 54 83 56 84 58 85
REMARK SMILES IDX 55 86
REMARK H PARENT 3 21 75 48 49 59
REMARK Flexibility Score: inf
ROOT
ATOM      1  C   UNL     1      -3.665   7.369   5.961  1.00  0.00     0.202 C 
ENDROOT
BRANCH   1   2
ATOM      2  C   UNL     1      -2.542   6.337   5.827  1.00  0.00     0.261 C 
BRANCH   2   3
ATOM      3  O   UNL     1      -2.840   5.393   4.789  1.00  0.00    -0.460 OA
BRANCH   3   4
ATOM      4  C   UNL     1      -2.950   4.101   5.189  1.00  0.00     0.339 C 
ATOM      5  O   UNL     1      -2.613   3.639   6.264  1.00  0.00    -0.246 OA
BRANCH   4   6
ATOM      6  C   UNL     1      -3.625   3.333   4.119  1.00  0.00     0.079 A 
ATOM      7  C   UNL     1      -3.794   2.794   1.732  1.00  0.00    -0.017 A 
ATOM      8  C   UNL     1      -4.796   1.864   2.053  1.00  0.00     0.010 A 
ATOM      9  C   UNL     1      -3.231   3.536   2.786  1.00  0.00     0.026 A 
ATOM     10  C   UNL     1      -5.225   1.688   3.372  1.00  0.00     0.022 A 
ATOM     11  C   UNL     1      -4.643   2.420   4.409  1.00  0.00     0.055 A 
ATOM     12  Cl  UNL     1      -5.291   2.193   5.992  1.00  0.00    -0.083 Cl
BRANCH   7  13
ATOM     13  C   UNL     1      -3.285   2.929   0.355  1.00  0.00    -0.018 A 
ATOM     14  C   UNL     1      -1.373   3.028  -1.164  1.00  0.00     0.040 A 
ATOM     15  C   UNL     1      -2.228   3.026  -2.266  1.00  0.00     0.014 A 
ATOM     16  C   UNL     1      -1.903   3.034   0.129  1.00  0.00     0.022 A 
ATOM     17  C   UNL     1      -3.606   2.967  -2.067  1.00  0.00     0.001 A 
ATOM     18  C   UNL     1      -4.128   2.904  -0.769  1.00  0.00     0.009 A 
BRANCH  14  19
ATOM     19  C   UNL     1       0.091   3.065  -1.377  1.00  0.00     0.251 C 
ATOM     20  N   UNL     1       0.927   2.265  -0.637  1.00  0.00    -0.352 N 
ATOM     21  H   UNL     1       1.885   2.469  -0.733  1.00  0.00     0.163 HD
ATOM     22  O   UNL     1       0.557   3.819  -2.227  1.00  0.00    -0.269 OA
BRANCH  20  23
ATOM     23  C   UNL     1       0.623   1.165   0.265  1.00  0.00     0.112 C 
ATOM     24  C   UNL     1       1.258  -0.127  -0.212  1.00  0.00     0.027 C 
ENDBRANCH  20  23
ENDBRANCH  14  19
ENDBRANCH   7  13
ENDBRANCH   4   6
ENDBRANCH   3   4
ENDBRANCH   2   3
ENDBRANCH   1   2
BRANCH   1  25
ATOM     25  O   UNL     1      -4.969   6.882   6.272  1.00  0.00    -0.374 OA
BRANCH  25  26
ATOM     26  C   UNL     1      -5.709   6.231   5.241  1.00  0.00     0.202 C 
BRANCH  26  27
ATOM     27  C   UNL     1      -6.322   7.102   4.136  1.00  0.00     0.261 C 
BRANCH  27  28
ATOM     28  O   UNL     1      -5.340   7.808   3.361  1.00  0.00    -0.460 OA
BRANCH  28  29
ATOM     29  C   UNL     1      -5.272   9.138   3.617  1.00  0.00     0.338 C 
ATOM     30  O   UNL     1      -5.960   9.782   4.389  1.00  0.00    -0.246 OA
BRANCH  29  31
ATOM     31  C   UNL     1      -4.101   9.713   2.934  1.00  0.00     0.060 A 
ATOM     32  C   UNL     1      -3.154  10.393   3.712  1.00  0.00     0.016 A 
ATOM     33  C   UNL     1      -3.981   9.664   1.545  1.00  0.00     0.016 A 
ATOM     34  C   UNL     1      -2.102  11.069   3.098  1.00  0.00     0.010 A 
ATOM     35  C   UNL     1      -2.932  10.351   0.930  1.00  0.00     0.010 A 
ATOM     36  C   UNL     1      -2.011  11.086   1.701  1.00  0.00    -0.014 A 
BRANCH  36  37
ATOM     37  C   UNL     1      -1.060  11.999   1.024  1.00  0.00     0.031 A 
ATOM     38  C   UNL     1      -1.589  13.270   0.420  1.00  0.00     0.074 A 
ATOM     39  C   UNL     1       0.246  11.696   0.934  1.00  0.00     0.049 A 
ATOM     40  N   UNL     1      -0.980  14.150  -0.331  1.00  0.00    -0.248 NA
ATOM     41  C   UNL     1      -3.001  13.585   0.696  1.00  0.00     0.031 C 
ATOM     42  C   UNL     1       0.885  10.521   1.521  1.00  0.00     0.029 A 
ATOM     43  N   UNL     1       1.266  12.350   0.289  1.00  0.00    -0.354 N 
ATOM     44  C   UNL     1      -1.937  15.110  -0.635  1.00  0.00     0.074 A 
ATOM     45  C   UNL     1      -3.173  14.692  -0.010  1.00  0.00     0.031 C 
ATOM     46  C   UNL     1       2.188  10.523   1.190  1.00  0.00     0.029 A 
ATOM     47  C   UNL     1       2.462  11.675   0.333  1.00  0.00     0.049 A 
ATOM     48  H   UNL     1       1.153  13.218  -0.161  1.00  0.00     0.167 HD
ATOM     49  C   UNL     1      -1.795  16.240  -1.368  1.00  0.00     0.037 A 
ATOM     50  C   UNL     1       3.631  11.940  -0.281  1.00  0.00     0.037 A 
ATOM     51  C   UNL     1      -0.561  16.649  -1.985  1.00  0.00     0.049 A 
ATOM     52  C   UNL     1       3.744  13.159  -1.160  1.00  0.00     0.074 A 
ATOM     53  C   UNL     1      -0.307  17.783  -2.735  1.00  0.00     0.029 A 
ATOM     54  N   UNL     1       0.624  15.931  -1.929  1.00  0.00    -0.354 N 
ATOM     55  N   UNL     1       2.841  14.070  -1.432  1.00  0.00    -0.248 NA
ATOM     56  C   UNL     1       5.039  13.387  -1.818  1.00  0.00     0.031 C 
ATOM     57  C   UNL     1       1.016  17.724  -3.180  1.00  0.00     0.029 A 
ATOM     58  C   UNL     1       1.606  16.587  -2.651  1.00  0.00     0.049 A 
ATOM     59  H   UNL     1       0.749  15.082  -1.447  1.00  0.00     0.167 HD
ATOM     60  C   UNL     1       3.469  14.999  -2.254  1.00  0.00     0.074 A 
ATOM     61  C   UNL     1       4.830  14.541  -2.437  1.00  0.00     0.031 C 
ATOM     62  C   UNL     1       2.966  16.133  -2.801  1.00  0.00     0.037 A 
BRANCH  49  63
ATOM     63  C   UNL     1      -3.012  17.097  -1.568  1.00  0.00     0.057 A 
ATOM     64  C   UNL     1      -3.584  17.833  -0.522  1.00  0.00     0.134 A 
ATOM     65  C   UNL     1      -3.600  17.212  -2.834  1.00  0.00     0.134 A 
ATOM     66  F   UNL     1      -3.079  17.757   0.719  1.00  0.00    -0.206 F 
ATOM     67  C   UNL     1      -4.711  18.631  -0.723  1.00  0.00     0.040 A 
ATOM     68  C   UNL     1      -4.708  18.031  -3.054  1.00  0.00     0.040 A 
ATOM     69  F   UNL     1      -3.100  16.540  -3.882  1.00  0.00    -0.206 F 
ATOM     70  C   UNL     1      -5.272  18.738  -1.994  1.00  0.00     0.006 A 
ENDBRANCH  49  63
BRANCH  50  71
ATOM     71  C   UNL     1       4.788  11.025  -0.106  1.00  0.00     0.057 A 
ATOM     72  C   UNL     1       5.938  11.434   0.580  1.00  0.00     0.134 A 
ATOM     73  C   UNL     1       4.784   9.730  -0.638  1.00  0.00     0.134 A 
ATOM     74  F   UNL     1       6.012  12.671   1.094  1.00  0.00    -0.206 F 
ATOM     75  C   UNL     1       7.047  10.598   0.714  1.00  0.00     0.040 A 
ATOM     76  C   UNL     1       5.875   8.872  -0.487  1.00  0.00     0.040 A 
ATOM     77  F   UNL     1       3.713   9.275  -1.304  1.00  0.00    -0.206 F 
ATOM     78  C   UNL     1       7.015   9.310   0.183  1.00  0.00     0.006 A 
ENDBRANCH  50  71
BRANCH  62  79
ATOM     79  C   UNL     1       3.900  17.003  -3.591  1.00  0.00     0.057 A 
ATOM     80  C   UNL     1       4.355  16.648  -4.865  1.00  0.00     0.134 A 
ATOM     81  C   UNL     1       4.285  18.256  -3.092  1.00  0.00     0.134 A 
ATOM     82  F   UNL     1       4.033  15.459  -5.396  1.00  0.00    -0.206 F 
ATOM     83  C   UNL     1       5.170  17.502  -5.612  1.00  0.00     0.040 A 
ATOM     84  C   UNL     1       5.074  19.130  -3.840  1.00  0.00     0.040 A 
ATOM     85  F   UNL     1       3.874  18.663  -1.881  1.00  0.00    -0.206 F 
ATOM     86  C   UNL     1       5.522  18.751  -5.103  1.00  0.00     0.006 A 
ENDBRANCH  62  79
ENDBRANCH  36  37
ENDBRANCH  29  31
ENDBRANCH  28  29
ENDBRANCH  27  28
ENDBRANCH  26  27
ENDBRANCH  25  26
ENDBRANCH   1  25
TORSDOF 17
