REMARK SMILES CC[C@@H]1CCCN1C(=O)N(CC(=O)OCCOCCOC(=O)c1ccc(-c2c3nc(c(-c4c(F)cccc4F)c4ccc([nH]4)c(-c4c(F)cccc4F)c4nc(c(-c5c(F)cccc5F)c5ccc2[nH]5)C=C4)C=C3)cc1)CC(F)(F)F
REMARK SMILES IDX 16 1 15 2 14 3 12 4 13 5 11 6 10 7 8 8 9 9 7 10 3 11 4 12
REMARK SMILES IDX 5 13 6 14 2 15 1 16 77 17 78 18 79 19 80 20 81 21 17 22
REMARK SMILES IDX 18 23 19 24 20 25 21 26 22 27 23 28 24 29 76 30 25 31 75 32
REMARK SMILES IDX 26 33 27 34 28 35 69 36 29 37 74 38 68 39 70 40 30 41 73 42
REMARK SMILES IDX 67 43 66 44 31 46 57 47 40 48 56 49 41 50 44 51 55 52 71 53
REMARK SMILES IDX 42 54 43 55 54 57 72 58 45 59 32 60 33 61 38 62 34 63 35 64
REMARK SMILES IDX 37 65 39 66 36 67 58 68 59 69 64 70 60 71 61 72 63 73 65 74
REMARK SMILES IDX 62 75 46 76 47 77 52 78 48 79 49 80 51 81 53 82 50 83
REMARK H PARENT 70 45 44 56
REMARK Flexibility Score: inf
ROOT
ATOM      1  C   UNL     1       0.855   2.391   3.812  1.00  0.00     0.202 C 
ENDROOT
BRANCH   1   2
ATOM      2  C   UNL     1       0.562   1.650   2.506  1.00  0.00     0.261 C 
BRANCH   2   3
ATOM      3  O   UNL     1       0.679   2.471   1.327  1.00  0.00    -0.462 OA
BRANCH   3   4
ATOM      4  C   UNL     1      -0.447   2.575   0.564  1.00  0.00     0.325 C 
ATOM      5  O   UNL     1      -1.560   2.188   0.906  1.00  0.00    -0.250 OA
BRANCH   4   6
ATOM      6  C   UNL     1      -0.191   3.165  -0.828  1.00  0.00     0.244 C 
BRANCH   6   7
ATOM      7  N   UNL     1       1.151   3.657  -1.142  1.00  0.00    -0.304 N 
BRANCH   7   8
ATOM      8  C   UNL     1       1.984   3.199  -2.127  1.00  0.00     0.321 C 
ATOM      9  O   UNL     1       2.794   4.004  -2.603  1.00  0.00    -0.248 OA
BRANCH   8  10
ATOM     10  N   UNL     1       1.978   1.918  -2.609  1.00  0.00    -0.322 N 
ATOM     11  C   UNL     1       1.289   0.642  -2.289  1.00  0.00     0.086 C 
ATOM     12  C   UNL     1       2.094  -0.409  -3.075  1.00  0.00     0.027 C 
ATOM     13  C   UNL     1       2.543   0.339  -4.308  1.00  0.00     0.024 C 
ATOM     14  C   UNL     1       2.888   1.697  -3.739  1.00  0.00     0.122 C 
BRANCH  11  15
ATOM     15  C   UNL     1       1.160   0.272  -0.809  1.00  0.00     0.022 C 
ATOM     16  C   UNL     1       1.317  -1.192  -0.422  1.00  0.00     0.006 C 
ENDBRANCH  11  15
ENDBRANCH   8  10
ENDBRANCH   7   8
BRANCH   7  17
ATOM     17  C   UNL     1       1.445   5.023  -0.630  1.00  0.00     0.237 C 
BRANCH  17  18
ATOM     18  C   UNL     1       2.888   5.377  -0.215  1.00  0.00     0.406 C 
ATOM     19  F   UNL     1       3.626   5.913  -1.207  1.00  0.00    -0.169 F 
ATOM     20  F   UNL     1       2.842   6.326   0.761  1.00  0.00    -0.169 F 
ATOM     21  F   UNL     1       3.552   4.322   0.303  1.00  0.00    -0.169 F 
ENDBRANCH  17  18
ENDBRANCH   7  17
ENDBRANCH   6   7
ENDBRANCH   4   6
ENDBRANCH   3   4
ENDBRANCH   2   3
ENDBRANCH   1   2
BRANCH   1  22
ATOM     22  O   UNL     1       0.002   3.483   4.136  1.00  0.00    -0.374 OA
BRANCH  22  23
ATOM     23  C   UNL     1       0.093   4.655   3.332  1.00  0.00     0.202 C 
BRANCH  23  24
ATOM     24  C   UNL     1       1.362   5.505   3.481  1.00  0.00     0.261 C 
BRANCH  24  25
ATOM     25  O   UNL     1       2.570   4.780   3.184  1.00  0.00    -0.460 OA
BRANCH  25  26
ATOM     26  C   UNL     1       3.442   4.706   4.218  1.00  0.00     0.338 C 
ATOM     27  O   UNL     1       3.323   5.231   5.319  1.00  0.00    -0.246 OA
BRANCH  26  28
ATOM     28  C   UNL     1       4.546   3.767   3.944  1.00  0.00     0.060 A 
ATOM     29  C   UNL     1       4.769   2.755   4.887  1.00  0.00     0.016 A 
ATOM     30  C   UNL     1       5.441   3.956   2.889  1.00  0.00     0.016 A 
ATOM     31  C   UNL     1       5.925   1.978   4.821  1.00  0.00     0.010 A 
ATOM     32  C   UNL     1       6.603   3.174   2.825  1.00  0.00     0.010 A 
ATOM     33  C   UNL     1       6.874   2.215   3.818  1.00  0.00    -0.014 A 
BRANCH  33  34
ATOM     34  C   UNL     1       8.201   1.555   3.915  1.00  0.00     0.031 A 
ATOM     35  C   UNL     1       9.368   2.318   4.485  1.00  0.00     0.074 A 
ATOM     36  C   UNL     1       8.360   0.269   3.557  1.00  0.00     0.049 A 
ATOM     37  N   UNL     1      10.593   1.915   4.712  1.00  0.00    -0.248 NA
ATOM     38  C   UNL     1       9.119   3.721   4.848  1.00  0.00     0.031 C 
ATOM     39  C   UNL     1       7.312  -0.588   3.007  1.00  0.00     0.029 A 
ATOM     40  N   UNL     1       9.469  -0.539   3.604  1.00  0.00    -0.354 N 
ATOM     41  C   UNL     1      11.261   3.013   5.240  1.00  0.00     0.074 A 
ATOM     42  C   UNL     1      10.315   4.107   5.270  1.00  0.00     0.031 C 
ATOM     43  C   UNL     1       7.831  -1.802   2.757  1.00  0.00     0.029 A 
ATOM     44  C   UNL     1       9.249  -1.802   3.113  1.00  0.00     0.049 A 
ATOM     45  H   UNL     1      10.338  -0.241   3.956  1.00  0.00     0.167 HD
ATOM     46  C   UNL     1      12.543   3.101   5.670  1.00  0.00     0.037 A 
ATOM     47  C   UNL     1      10.097  -2.837   2.955  1.00  0.00     0.037 A 
ATOM     48  C   UNL     1      13.488   2.015   5.647  1.00  0.00     0.049 A 
ATOM     49  C   UNL     1      11.528  -2.706   3.403  1.00  0.00     0.074 A 
ATOM     50  C   UNL     1      14.792   1.996   6.111  1.00  0.00     0.029 A 
ATOM     51  N   UNL     1      13.234   0.759   5.119  1.00  0.00    -0.354 N 
ATOM     52  N   UNL     1      12.130  -1.683   3.958  1.00  0.00    -0.248 NA
ATOM     53  C   UNL     1      12.394  -3.879   3.211  1.00  0.00     0.031 C 
ATOM     54  C   UNL     1      15.344   0.744   5.816  1.00  0.00     0.029 A 
ATOM     55  C   UNL     1      14.368  -0.032   5.213  1.00  0.00     0.049 A 
ATOM     56  H   UNL     1      12.375   0.471   4.733  1.00  0.00     0.167 HD
ATOM     57  C   UNL     1      13.437  -2.092   4.197  1.00  0.00     0.074 A 
ATOM     58  C   UNL     1      13.536  -3.462   3.741  1.00  0.00     0.031 C 
ATOM     59  C   UNL     1      14.460  -1.393   4.748  1.00  0.00     0.037 A 
BRANCH  46  60
ATOM     60  C   UNL     1      13.006   4.433   6.183  1.00  0.00     0.057 A 
ATOM     61  C   UNL     1      12.579   4.943   7.415  1.00  0.00     0.134 A 
ATOM     62  C   UNL     1      13.907   5.207   5.440  1.00  0.00     0.134 A 
ATOM     63  F   UNL     1      11.708   4.256   8.171  1.00  0.00    -0.206 F 
ATOM     64  C   UNL     1      13.009   6.188   7.878  1.00  0.00     0.040 A 
ATOM     65  C   UNL     1      14.363   6.442   5.903  1.00  0.00     0.040 A 
ATOM     66  F   UNL     1      14.361   4.773   4.255  1.00  0.00    -0.206 F 
ATOM     67  C   UNL     1      13.908   6.939   7.123  1.00  0.00     0.006 A 
ENDBRANCH  46  60
BRANCH  47  68
ATOM     68  C   UNL     1       9.611  -4.091   2.330  1.00  0.00     0.057 A 
ATOM     69  C   UNL     1       9.433  -5.259   3.079  1.00  0.00     0.134 A 
ATOM     70  C   UNL     1       9.307  -4.146   0.964  1.00  0.00     0.134 A 
ATOM     71  F   UNL     1       9.729  -5.274   4.387  1.00  0.00    -0.206 F 
ATOM     72  C   UNL     1       8.977  -6.440   2.491  1.00  0.00     0.040 A 
ATOM     73  C   UNL     1       8.831  -5.313   0.368  1.00  0.00     0.040 A 
ATOM     74  F   UNL     1       9.457  -3.059   0.194  1.00  0.00    -0.206 F 
ATOM     75  C   UNL     1       8.668  -6.467   1.132  1.00  0.00     0.006 A 
ENDBRANCH  47  68
BRANCH  59  76
ATOM     76  C   UNL     1      15.775  -2.101   4.902  1.00  0.00     0.057 A 
ATOM     77  C   UNL     1      16.600  -2.370   3.803  1.00  0.00     0.134 A 
ATOM     78  C   UNL     1      16.240  -2.480   6.168  1.00  0.00     0.134 A 
ATOM     79  F   UNL     1      16.208  -2.044   2.562  1.00  0.00    -0.206 F 
ATOM     80  C   UNL     1      17.834  -3.007   3.956  1.00  0.00     0.040 A 
ATOM     81  C   UNL     1      17.481  -3.096   6.336  1.00  0.00     0.040 A 
ATOM     82  F   UNL     1      15.502  -2.245   7.263  1.00  0.00    -0.206 F 
ATOM     83  C   UNL     1      18.280  -3.366   5.226  1.00  0.00     0.006 A 
ENDBRANCH  59  76
ENDBRANCH  33  34
ENDBRANCH  26  28
ENDBRANCH  25  26
ENDBRANCH  24  25
ENDBRANCH  23  24
ENDBRANCH  22  23
ENDBRANCH   1  22
TORSDOF 20
