REMARK SMILES Cc1ccc(-c2cc(Cl)cc3c2O[C@@H](C(F)(F)F)C(C(=O)OCCOCCOC(=O)c2ccc(-c4c5nc(c(-c6c(F)cccc6F)c6ccc([nH]6)c(-c6c(F)cccc6F)c6nc(c(-c7c(F)cccc7F)c7ccc4[nH]7)C=C6)C=C5)cc2)=C3)cc1
REMARK SMILES IDX 26 1 25 2 24 3 23 4 22 5 20 6 21 7 19 8 6 9 7 10 12 11 8 12
REMARK SMILES IDX 11 13 13 14 9 15 10 16 85 17 14 18 5 19 1 20 2 21 3 22 87 23
REMARK SMILES IDX 4 24 86 25 15 26 16 27 17 28 18 29 27 30 28 31 29 32 30 33
REMARK SMILES IDX 31 34 32 35 84 36 33 37 83 38 34 39 35 40 36 41 77 42 37 43
REMARK SMILES IDX 82 44 76 45 78 46 38 47 81 48 75 49 74 50 39 52 65 53 48 54
REMARK SMILES IDX 64 55 49 56 52 57 63 58 79 59 50 60 51 61 62 63 80 64 53 65
REMARK SMILES IDX 40 66 41 67 46 68 42 69 43 70 45 71 47 72 44 73 66 74 67 75
REMARK SMILES IDX 72 76 68 77 69 78 71 79 73 80 70 81 54 82 55 83 60 84 56 85
REMARK SMILES IDX 57 86 59 87 61 88 58 89
REMARK H PARENT 78 51 52 62
REMARK Flexibility Score: inf
ROOT
ATOM      1  C   UNL     1      -3.016  -4.827   0.671  1.00  0.00     0.202 C 
ENDROOT
BRANCH   1   2
ATOM      2  O   UNL     1      -2.818  -3.508   1.187  1.00  0.00    -0.374 OA
BRANCH   2   3
ATOM      3  C   UNL     1      -3.445  -3.279   2.443  1.00  0.00     0.202 C 
BRANCH   3   4
ATOM      4  C   UNL     1      -3.461  -1.782   2.772  1.00  0.00     0.261 C 
BRANCH   4   5
ATOM      5  O   UNL     1      -4.681  -1.370   3.414  1.00  0.00    -0.460 OA
BRANCH   5   6
ATOM      6  C   UNL     1      -5.179  -0.162   2.989  1.00  0.00     0.338 C 
ATOM      7  O   UNL     1      -4.549   0.837   2.731  1.00  0.00    -0.246 OA
BRANCH   6   8
ATOM      8  C   UNL     1      -6.624  -0.378   2.549  1.00  0.00     0.087 C 
ATOM      9  C   UNL     1      -4.494  -0.605  -0.797  1.00  0.00     0.026 A 
ATOM     10  C   UNL     1      -4.825   0.224  -1.896  1.00  0.00     0.033 A 
ATOM     11  C   UNL     1      -5.508  -0.782   0.176  1.00  0.00     0.135 A 
ATOM     12  C   UNL     1      -5.963   1.027  -1.891  1.00  0.00     0.042 A 
ATOM     13  C   UNL     1      -6.483   0.245   0.306  1.00  0.00     0.019 A 
ATOM     14  O   UNL     1      -5.617  -1.919   1.022  1.00  0.00    -0.475 OA
ATOM     15  Cl  UNL     1      -6.277   2.063  -3.224  1.00  0.00    -0.084 Cl
ATOM     16  C   UNL     1      -6.750   1.105  -0.753  1.00  0.00     0.032 A 
ATOM     17  C   UNL     1      -7.136   0.471   1.633  1.00  0.00     0.027 C 
ATOM     18  C   UNL     1      -6.736  -1.793   2.015  1.00  0.00     0.316 C 
BRANCH   9  19
ATOM     19  C   UNL     1      -3.007  -0.632  -0.570  1.00  0.00    -0.015 A 
ATOM     20  C   UNL     1       1.340  -0.080  -0.604  1.00  0.00     0.044 C 
ATOM     21  C   UNL     1      -0.155  -0.250  -0.634  1.00  0.00    -0.051 A 
ATOM     22  C   UNL     1      -0.747  -1.437  -1.086  1.00  0.00     0.004 A 
ATOM     23  C   UNL     1      -0.993   0.742  -0.128  1.00  0.00     0.004 A 
ATOM     24  C   UNL     1      -2.151  -1.616  -1.074  1.00  0.00     0.009 A 
ATOM     25  C   UNL     1      -2.383   0.544  -0.077  1.00  0.00     0.009 A 
ENDBRANCH   9  19
BRANCH  18  26
ATOM     26  C   UNL     1      -6.980  -2.778   3.212  1.00  0.00     0.430 C 
ATOM     27  F   UNL     1      -7.214  -2.111   4.376  1.00  0.00    -0.167 F 
ATOM     28  F   UNL     1      -8.112  -3.500   2.983  1.00  0.00    -0.167 F 
ATOM     29  F   UNL     1      -6.021  -3.677   3.478  1.00  0.00    -0.167 F 
ENDBRANCH  18  26
ENDBRANCH   6   8
ENDBRANCH   5   6
ENDBRANCH   4   5
ENDBRANCH   3   4
ENDBRANCH   2   3
ENDBRANCH   1   2
BRANCH   1  30
ATOM     30  C   UNL     1      -2.134  -5.864   1.370  1.00  0.00     0.261 C 
BRANCH  30  31
ATOM     31  O   UNL     1      -0.783  -5.367   1.398  1.00  0.00    -0.460 OA
BRANCH  31  32
ATOM     32  C   UNL     1      -0.209  -5.384   2.628  1.00  0.00     0.338 C 
ATOM     33  O   UNL     1      -0.238  -6.329   3.402  1.00  0.00    -0.246 OA
BRANCH  32  34
ATOM     34  C   UNL     1       0.194  -4.003   3.027  1.00  0.00     0.060 A 
ATOM     35  C   UNL     1       0.456  -3.738   4.379  1.00  0.00     0.016 A 
ATOM     36  C   UNL     1       0.023  -2.940   2.147  1.00  0.00     0.016 A 
ATOM     37  C   UNL     1       0.356  -2.429   4.877  1.00  0.00     0.010 A 
ATOM     38  C   UNL     1      -0.118  -1.654   2.654  1.00  0.00     0.010 A 
ATOM     39  C   UNL     1      -0.034  -1.392   4.026  1.00  0.00    -0.014 A 
BRANCH  39  40
ATOM     40  C   UNL     1      -0.683  -0.146   4.490  1.00  0.00     0.031 A 
ATOM     41  C   UNL     1      -0.299   1.205   3.997  1.00  0.00     0.074 A 
ATOM     42  C   UNL     1      -1.879  -0.252   5.130  1.00  0.00     0.049 A 
ATOM     43  N   UNL     1      -0.783   2.298   4.487  1.00  0.00    -0.248 NA
ATOM     44  C   UNL     1       0.674   1.476   2.943  1.00  0.00     0.031 C 
ATOM     45  C   UNL     1      -2.943   0.753   5.205  1.00  0.00     0.029 A 
ATOM     46  N   UNL     1      -2.471  -1.330   5.769  1.00  0.00    -0.354 N 
ATOM     47  C   UNL     1      -0.554   3.309   3.589  1.00  0.00     0.074 A 
ATOM     48  C   UNL     1       0.500   2.793   2.751  1.00  0.00     0.031 C 
ATOM     49  C   UNL     1      -3.926   0.328   6.013  1.00  0.00     0.029 A 
ATOM     50  C   UNL     1      -3.473  -0.895   6.631  1.00  0.00     0.049 A 
ATOM     51  H   UNL     1      -2.218  -2.272   5.631  1.00  0.00     0.167 HD
ATOM     52  C   UNL     1      -1.377   4.401   3.601  1.00  0.00     0.037 A 
ATOM     53  C   UNL     1      -3.372  -1.082   7.979  1.00  0.00     0.037 A 
ATOM     54  C   UNL     1      -2.276   4.387   4.771  1.00  0.00     0.049 A 
ATOM     55  C   UNL     1      -3.072   0.229   8.683  1.00  0.00     0.074 A 
ATOM     56  C   UNL     1      -3.650   4.361   4.948  1.00  0.00     0.029 A 
ATOM     57  N   UNL     1      -1.728   4.178   6.041  1.00  0.00    -0.354 N 
ATOM     58  N   UNL     1      -2.770   1.316   8.022  1.00  0.00    -0.248 NA
ATOM     59  C   UNL     1      -3.128   0.486  10.119  1.00  0.00     0.031 C 
ATOM     60  C   UNL     1      -3.911   4.023   6.312  1.00  0.00     0.029 A 
ATOM     61  C   UNL     1      -2.701   3.888   6.976  1.00  0.00     0.049 A 
ATOM     62  H   UNL     1      -0.766   4.231   6.242  1.00  0.00     0.167 HD
ATOM     63  C   UNL     1      -2.626   2.378   8.855  1.00  0.00     0.074 A 
ATOM     64  C   UNL     1      -2.836   1.804  10.172  1.00  0.00     0.031 C 
ATOM     65  C   UNL     1      -2.344   3.626   8.374  1.00  0.00     0.037 A 
BRANCH  52  66
ATOM     66  C   UNL     1      -1.468   5.450   2.499  1.00  0.00     0.057 A 
ATOM     67  C   UNL     1      -2.197   6.643   2.695  1.00  0.00     0.134 A 
ATOM     68  C   UNL     1      -0.921   5.328   1.205  1.00  0.00     0.134 A 
ATOM     69  F   UNL     1      -2.823   6.898   3.853  1.00  0.00    -0.206 F 
ATOM     70  C   UNL     1      -2.329   7.638   1.710  1.00  0.00     0.040 A 
ATOM     71  C   UNL     1      -0.999   6.338   0.231  1.00  0.00     0.040 A 
ATOM     72  F   UNL     1      -0.329   4.205   0.783  1.00  0.00    -0.206 F 
ATOM     73  C   UNL     1      -1.706   7.501   0.479  1.00  0.00     0.006 A 
ENDBRANCH  52  66
BRANCH  53  74
ATOM     74  C   UNL     1      -2.993  -2.491   8.283  1.00  0.00     0.057 A 
ATOM     75  C   UNL     1      -3.990  -3.442   7.971  1.00  0.00     0.134 A 
ATOM     76  C   UNL     1      -1.665  -2.929   8.204  1.00  0.00     0.134 A 
ATOM     77  F   UNL     1      -5.286  -3.095   8.038  1.00  0.00    -0.206 F 
ATOM     78  C   UNL     1      -3.683  -4.681   7.401  1.00  0.00     0.040 A 
ATOM     79  C   UNL     1      -1.348  -4.184   7.653  1.00  0.00     0.040 A 
ATOM     80  F   UNL     1      -0.653  -2.087   8.455  1.00  0.00    -0.206 F 
ATOM     81  C   UNL     1      -2.355  -5.035   7.195  1.00  0.00     0.006 A 
ENDBRANCH  53  74
BRANCH  65  82
ATOM     82  C   UNL     1      -1.741   4.737   9.194  1.00  0.00     0.057 A 
ATOM     83  C   UNL     1      -0.939   4.518  10.324  1.00  0.00     0.134 A 
ATOM     84  C   UNL     1      -1.785   6.074   8.739  1.00  0.00     0.134 A 
ATOM     85  F   UNL     1      -0.722   3.287  10.806  1.00  0.00    -0.206 F 
ATOM     86  C   UNL     1      -0.266   5.555  10.980  1.00  0.00     0.040 A 
ATOM     87  C   UNL     1      -1.072   7.107   9.352  1.00  0.00     0.040 A 
ATOM     88  F   UNL     1      -2.493   6.430   7.657  1.00  0.00    -0.206 F 
ATOM     89  C   UNL     1      -0.317   6.852  10.486  1.00  0.00     0.006 A 
ENDBRANCH  65  82
ENDBRANCH  39  40
ENDBRANCH  32  34
ENDBRANCH  31  32
ENDBRANCH  30  31
ENDBRANCH   1  30
TORSDOF 16
