REMARK SMILES O=C(OCCOCCOC(=O)[C@H]1CSC2(CCCCC2)[NH2+]1)c1ccc(-c2c3nc(c(-c4c(F)cccc4F)c4ccc([nH]4)c(-c4c(F)cccc4F)c4nc(c(-c5c(F)cccc5F)c5ccc2[nH]5)C=C4)C=C3)cc1
REMARK SMILES IDX 5 1 4 2 3 3 2 4 1 5 22 6 23 7 75 8 24 9 74 10 25 11 26 12
REMARK SMILES IDX 27 13 68 14 28 15 73 16 67 17 69 18 29 19 72 20 66 21 65 22
REMARK SMILES IDX 30 24 56 25 39 26 55 27 40 28 43 29 54 30 70 31 41 32 42 33
REMARK SMILES IDX 53 35 71 36 44 37 31 38 32 39 37 40 33 41 34 42 36 43 38 44
REMARK SMILES IDX 35 45 57 46 58 47 63 48 59 49 60 50 62 51 64 52 61 53 45 54
REMARK SMILES IDX 46 55 51 56 47 57 48 58 50 59 52 60 49 61 6 62 7 63 8 64
REMARK SMILES IDX 9 65 10 66 11 67 12 68 13 69 21 70 14 71 15 72 16 75 20 76
REMARK SMILES IDX 17 77 19 78 18 79
REMARK H PARENT 69 23 43 34 21 73 21 74
REMARK Flexibility Score: inf
ROOT
ATOM      1  C   UNL     1       4.489   4.762  -4.409  1.00  0.00     0.202 C 
ENDROOT
BRANCH   1   2
ATOM      2  C   UNL     1       4.903   5.703  -5.553  1.00  0.00     0.261 C 
BRANCH   2   3
ATOM      3  O   UNL     1       4.909   7.080  -5.129  1.00  0.00    -0.460 OA
BRANCH   3   4
ATOM      4  C   UNL     1       3.961   8.015  -5.401  1.00  0.00     0.338 C 
ATOM      5  O   UNL     1       4.120   9.176  -5.043  1.00  0.00    -0.246 OA
BRANCH   4   6
ATOM      6  C   UNL     1       2.741   7.661  -6.172  1.00  0.00     0.060 A 
ATOM      7  C   UNL     1       2.119   6.427  -6.044  1.00  0.00     0.016 A 
ATOM      8  C   UNL     1       2.169   8.601  -7.034  1.00  0.00     0.016 A 
ATOM      9  C   UNL     1       1.092   6.037  -6.859  1.00  0.00     0.010 A 
ATOM     10  C   UNL     1       1.028   8.265  -7.776  1.00  0.00     0.010 A 
ATOM     11  C   UNL     1       0.506   6.967  -7.699  1.00  0.00    -0.014 A 
BRANCH  11  12
ATOM     12  C   UNL     1      -0.605   6.463  -8.516  1.00  0.00     0.031 A 
ATOM     13  C   UNL     1      -0.381   6.280  -9.979  1.00  0.00     0.074 A 
ATOM     14  C   UNL     1      -1.693   5.975  -7.887  1.00  0.00     0.049 A 
ATOM     15  N   UNL     1      -1.221   5.891 -10.895  1.00  0.00    -0.248 NA
ATOM     16  C   UNL     1       0.978   6.556 -10.479  1.00  0.00     0.031 C 
ATOM     17  C   UNL     1      -1.893   5.958  -6.430  1.00  0.00     0.029 A 
ATOM     18  N   UNL     1      -2.800   5.341  -8.375  1.00  0.00    -0.354 N 
ATOM     19  C   UNL     1      -0.510   5.921 -12.085  1.00  0.00     0.074 A 
ATOM     20  C   UNL     1       0.833   6.359 -11.779  1.00  0.00     0.031 C 
ATOM     21  C   UNL     1      -3.024   5.297  -6.147  1.00  0.00     0.029 A 
ATOM     22  C   UNL     1      -3.683   4.954  -7.396  1.00  0.00     0.049 A 
ATOM     23  H   UNL     1      -2.950   5.177  -9.334  1.00  0.00     0.167 HD
ATOM     24  C   UNL     1      -0.962   5.618 -13.322  1.00  0.00     0.037 A 
ATOM     25  C   UNL     1      -4.917   4.434  -7.513  1.00  0.00     0.037 A 
ATOM     26  C   UNL     1      -2.308   5.177 -13.568  1.00  0.00     0.049 A 
ATOM     27  C   UNL     1      -5.437   4.221  -8.905  1.00  0.00     0.074 A 
ATOM     28  C   UNL     1      -2.941   4.942 -14.773  1.00  0.00     0.029 A 
ATOM     29  N   UNL     1      -3.228   4.893 -12.564  1.00  0.00    -0.354 N 
ATOM     30  N   UNL     1      -4.814   4.383 -10.050  1.00  0.00    -0.248 NA
ATOM     31  C   UNL     1      -6.831   3.788  -9.030  1.00  0.00     0.031 C 
ATOM     32  C   UNL     1      -4.256   4.550 -14.497  1.00  0.00     0.029 A 
ATOM     33  C   UNL     1      -4.428   4.493 -13.121  1.00  0.00     0.049 A 
ATOM     34  H   UNL     1      -3.051   4.967 -11.599  1.00  0.00     0.167 HD
ATOM     35  C   UNL     1      -5.736   4.063 -11.034  1.00  0.00     0.074 A 
ATOM     36  C   UNL     1      -6.952   3.670 -10.345  1.00  0.00     0.031 C 
ATOM     37  C   UNL     1      -5.603   4.100 -12.383  1.00  0.00     0.037 A 
BRANCH  24  38
ATOM     38  C   UNL     1      -0.020   5.846 -14.464  1.00  0.00     0.057 A 
ATOM     39  C   UNL     1       1.091   5.024 -14.695  1.00  0.00     0.134 A 
ATOM     40  C   UNL     1      -0.197   6.945 -15.313  1.00  0.00     0.134 A 
ATOM     41  F   UNL     1       1.340   3.977 -13.894  1.00  0.00    -0.206 F 
ATOM     42  C   UNL     1       2.006   5.304 -15.713  1.00  0.00     0.040 A 
ATOM     43  C   UNL     1       0.698   7.222 -16.349  1.00  0.00     0.040 A 
ATOM     44  F   UNL     1      -1.232   7.781 -15.139  1.00  0.00    -0.206 F 
ATOM     45  C   UNL     1       1.808   6.404 -16.545  1.00  0.00     0.006 A 
ENDBRANCH  24  38
BRANCH  25  46
ATOM     46  C   UNL     1      -5.756   4.186  -6.311  1.00  0.00     0.057 A 
ATOM     47  C   UNL     1      -6.204   2.902  -5.980  1.00  0.00     0.134 A 
ATOM     48  C   UNL     1      -6.152   5.236  -5.470  1.00  0.00     0.134 A 
ATOM     49  F   UNL     1      -5.878   1.854  -6.749  1.00  0.00    -0.206 F 
ATOM     50  C   UNL     1      -7.030   2.676  -4.875  1.00  0.00     0.040 A 
ATOM     51  C   UNL     1      -6.948   5.021  -4.344  1.00  0.00     0.040 A 
ATOM     52  F   UNL     1      -5.760   6.494  -5.723  1.00  0.00    -0.206 F 
ATOM     53  C   UNL     1      -7.399   3.737  -4.050  1.00  0.00     0.006 A 
ENDBRANCH  25  46
BRANCH  37  54
ATOM     54  C   UNL     1      -6.794   3.664 -13.177  1.00  0.00     0.057 A 
ATOM     55  C   UNL     1      -7.934   4.466 -13.297  1.00  0.00     0.134 A 
ATOM     56  C   UNL     1      -6.779   2.439 -13.854  1.00  0.00     0.134 A 
ATOM     57  F   UNL     1      -8.010   5.642 -12.655  1.00  0.00    -0.206 F 
ATOM     58  C   UNL     1      -9.032   4.053 -14.049  1.00  0.00     0.040 A 
ATOM     59  C   UNL     1      -7.859   2.028 -14.631  1.00  0.00     0.040 A 
ATOM     60  F   UNL     1      -5.710   1.631 -13.779  1.00  0.00    -0.206 F 
ATOM     61  C   UNL     1      -8.993   2.834 -14.725  1.00  0.00     0.006 A 
ENDBRANCH  37  54
ENDBRANCH  11  12
ENDBRANCH   4   6
ENDBRANCH   3   4
ENDBRANCH   2   3
ENDBRANCH   1   2
BRANCH   1  62
ATOM     62  O   UNL     1       3.323   5.102  -3.661  1.00  0.00    -0.374 OA
BRANCH  62  63
ATOM     63  C   UNL     1       3.525   6.072  -2.632  1.00  0.00     0.202 C 
BRANCH  63  64
ATOM     64  C   UNL     1       3.446   5.389  -1.272  1.00  0.00     0.261 C 
BRANCH  64  65
ATOM     65  O   UNL     1       4.503   4.410  -1.202  1.00  0.00    -0.459 OA
BRANCH  65  66
ATOM     66  C   UNL     1       4.119   3.114  -1.399  1.00  0.00     0.365 C 
ATOM     67  O   UNL     1       2.958   2.721  -1.372  1.00  0.00    -0.245 OA
BRANCH  66  68
ATOM     68  C   UNL     1       5.328   2.186  -1.634  1.00  0.00     0.304 C 
ATOM     69  C   UNL     1       4.971   1.153  -2.702  1.00  0.00     0.153 C 
ATOM     70  N   UNL     1       6.593   2.925  -1.954  1.00  0.00    -0.320 N 
ATOM     71  S   UNL     1       5.886   1.646  -4.168  1.00  0.00    -0.089 SA
ATOM     72  C   UNL     1       7.202   2.455  -3.207  1.00  0.00     0.143 C 
ATOM     73  H   UNL     1       7.257   2.787  -1.192  1.00  0.00     0.348 HD
ATOM     74  H   UNL     1       6.362   3.913  -2.066  1.00  0.00     0.348 HD
ATOM     75  C   UNL     1       7.864   3.619  -3.985  1.00  0.00     0.081 C 
ATOM     76  C   UNL     1       8.309   1.431  -2.888  1.00  0.00     0.081 C 
ATOM     77  C   UNL     1       8.552   3.173  -5.275  1.00  0.00     0.007 C 
ATOM     78  C   UNL     1       9.060   0.952  -4.140  1.00  0.00     0.007 C 
ATOM     79  C   UNL     1       9.596   2.101  -4.994  1.00  0.00     0.001 C 
ENDBRANCH  66  68
ENDBRANCH  65  66
ENDBRANCH  64  65
ENDBRANCH  63  64
ENDBRANCH  62  63
ENDBRANCH   1  62
TORSDOF 14
