REMARK SMILES CC[C@@H](C)N(C)c1ccc(/C=C/C(=O)OCCOCCOC(=O)c2ccc(-c3c4nc(c(-c5c(F)cccc5F)c5ccc([nH]5)c(-c5c(F)cccc5F)c5nc(c(-c6c(F)cccc6F)c6ccc3[nH]6)C=C5)C=C4)cc2)cc1F
REMARK SMILES IDX 17 1 16 2 15 3 13 4 14 5 12 6 11 7 10 8 7 9 8 10 79 11 9 12
REMARK SMILES IDX 78 13 80 14 5 15 6 16 3 17 4 18 2 19 1 20 18 21 19 22 20 23
REMARK SMILES IDX 21 24 22 25 23 26 24 27 25 28 77 29 26 30 76 31 27 32 28 33
REMARK SMILES IDX 29 34 70 35 30 36 75 37 69 38 71 39 31 40 74 41 68 42 67 43
REMARK SMILES IDX 32 45 58 46 41 47 57 48 42 49 45 50 56 51 72 52 43 53 44 54
REMARK SMILES IDX 55 56 73 57 46 58 33 59 34 60 39 61 35 62 36 63 38 64 40 65
REMARK SMILES IDX 37 66 59 67 60 68 65 69 61 70 62 71 64 72 66 73 63 74 47 75
REMARK SMILES IDX 48 76 53 77 49 78 50 79 52 80 54 81 51 82
REMARK H PARENT 71 44 45 55
REMARK Flexibility Score: inf
ROOT
ATOM      1  C   UNL     1      -9.713  -1.939   6.127  1.00  0.00     0.202 C 
ENDROOT
BRANCH   1   2
ATOM      2  C   UNL     1      -9.340  -0.631   5.426  1.00  0.00     0.261 C 
BRANCH   2   3
ATOM      3  O   UNL     1      -7.958  -0.640   5.030  1.00  0.00    -0.460 OA
BRANCH   3   4
ATOM      4  C   UNL     1      -7.171   0.256   5.667  1.00  0.00     0.330 C 
ATOM      5  O   UNL     1      -7.538   1.134   6.434  1.00  0.00    -0.247 OA
BRANCH   4   6
ATOM      6  C   UNL     1      -5.736   0.041   5.392  1.00  0.00     0.094 C 
ATOM      7  C   UNL     1      -5.209  -0.884   4.573  1.00  0.00     0.016 C 
BRANCH   7   8
ATOM      8  C   UNL     1      -3.759  -1.024   4.344  1.00  0.00    -0.022 A 
ATOM      9  C   UNL     1      -0.960  -1.164   3.756  1.00  0.00     0.073 A 
ATOM     10  C   UNL     1      -1.429  -0.665   4.979  1.00  0.00     0.029 A 
ATOM     11  C   UNL     1      -1.935  -1.680   2.885  1.00  0.00     0.147 A 
ATOM     12  C   UNL     1      -2.800  -0.604   5.273  1.00  0.00     0.010 A 
ATOM     13  C   UNL     1      -3.305  -1.608   3.162  1.00  0.00     0.049 A 
ATOM     14  F   UNL     1      -1.574  -2.294   1.747  1.00  0.00    -0.205 F 
BRANCH   9  15
ATOM     15  N   UNL     1       0.397  -1.113   3.428  1.00  0.00    -0.370 N 
ATOM     16  C   UNL     1       1.359  -1.470   4.468  1.00  0.00     0.144 C 
BRANCH  15  17
ATOM     17  C   UNL     1       0.870  -0.167   2.381  1.00  0.00     0.078 C 
ATOM     18  C   UNL     1       0.391   1.263   2.654  1.00  0.00     0.031 C 
BRANCH  17  19
ATOM     19  C   UNL     1       0.521  -0.650   0.965  1.00  0.00     0.021 C 
ATOM     20  C   UNL     1       1.317   0.050  -0.129  1.00  0.00     0.006 C 
ENDBRANCH  17  19
ENDBRANCH  15  17
ENDBRANCH   9  15
ENDBRANCH   7   8
ENDBRANCH   4   6
ENDBRANCH   3   4
ENDBRANCH   2   3
ENDBRANCH   1   2
BRANCH   1  21
ATOM     21  O   UNL     1      -9.031  -2.190   7.355  1.00  0.00    -0.374 OA
BRANCH  21  22
ATOM     22  C   UNL     1      -7.736  -2.788   7.261  1.00  0.00     0.202 C 
BRANCH  22  23
ATOM     23  C   UNL     1      -7.724  -4.306   7.046  1.00  0.00     0.261 C 
BRANCH  23  24
ATOM     24  O   UNL     1      -8.160  -4.657   5.719  1.00  0.00    -0.460 OA
BRANCH  24  25
ATOM     25  C   UNL     1      -9.364  -5.271   5.651  1.00  0.00     0.338 C 
ATOM     26  O   UNL     1     -10.070  -5.630   6.583  1.00  0.00    -0.246 OA
BRANCH  25  27
ATOM     27  C   UNL     1      -9.827  -5.301   4.251  1.00  0.00     0.060 A 
ATOM     28  C   UNL     1     -11.111  -4.812   3.979  1.00  0.00     0.016 A 
ATOM     29  C   UNL     1      -9.043  -5.845   3.232  1.00  0.00     0.016 A 
ATOM     30  C   UNL     1     -11.636  -4.904   2.692  1.00  0.00     0.010 A 
ATOM     31  C   UNL     1      -9.575  -5.946   1.943  1.00  0.00     0.010 A 
ATOM     32  C   UNL     1     -10.883  -5.504   1.674  1.00  0.00    -0.014 A 
BRANCH  32  33
ATOM     33  C   UNL     1     -11.506  -5.793   0.361  1.00  0.00     0.031 A 
ATOM     34  C   UNL     1     -12.002  -7.182   0.079  1.00  0.00     0.074 A 
ATOM     35  C   UNL     1     -11.627  -4.830  -0.569  1.00  0.00     0.049 A 
ATOM     36  N   UNL     1     -12.501  -7.675  -1.025  1.00  0.00    -0.248 NA
ATOM     37  C   UNL     1     -11.921  -8.145   1.189  1.00  0.00     0.031 C 
ATOM     38  C   UNL     1     -11.224  -3.436  -0.396  1.00  0.00     0.029 A 
ATOM     39  N   UNL     1     -12.113  -4.887  -1.851  1.00  0.00    -0.354 N 
ATOM     40  C   UNL     1     -12.780  -9.007  -0.749  1.00  0.00     0.074 A 
ATOM     41  C   UNL     1     -12.376  -9.251   0.619  1.00  0.00     0.031 C 
ATOM     42  C   UNL     1     -11.466  -2.770  -1.538  1.00  0.00     0.029 A 
ATOM     43  C   UNL     1     -12.006  -3.699  -2.530  1.00  0.00     0.049 A 
ATOM     44  H   UNL     1     -12.501  -5.701  -2.245  1.00  0.00     0.167 HD
ATOM     45  C   UNL     1     -13.327  -9.939  -1.563  1.00  0.00     0.037 A 
ATOM     46  C   UNL     1     -12.285  -3.401  -3.814  1.00  0.00     0.037 A 
ATOM     47  C   UNL     1     -13.737  -9.688  -2.919  1.00  0.00     0.049 A 
ATOM     48  C   UNL     1     -12.825  -4.470  -4.725  1.00  0.00     0.074 A 
ATOM     49  C   UNL     1     -14.340 -10.559  -3.809  1.00  0.00     0.029 A 
ATOM     50  N   UNL     1     -13.577  -8.482  -3.582  1.00  0.00    -0.354 N 
ATOM     51  N   UNL     1     -13.105  -5.721  -4.450  1.00  0.00    -0.248 NA
ATOM     52  C   UNL     1     -13.085  -4.091  -6.122  1.00  0.00     0.031 C 
ATOM     53  C   UNL     1     -14.496  -9.896  -5.029  1.00  0.00     0.029 A 
ATOM     54  C   UNL     1     -14.039  -8.595  -4.882  1.00  0.00     0.049 A 
ATOM     55  H   UNL     1     -13.192  -7.666  -3.188  1.00  0.00     0.167 HD
ATOM     56  C   UNL     1     -13.590  -6.273  -5.630  1.00  0.00     0.074 A 
ATOM     57  C   UNL     1     -13.572  -5.219  -6.623  1.00  0.00     0.031 C 
ATOM     58  C   UNL     1     -14.016  -7.538  -5.863  1.00  0.00     0.037 A 
BRANCH  45  59
ATOM     59  C   UNL     1     -13.492 -11.327  -1.020  1.00  0.00     0.057 A 
ATOM     60  C   UNL     1     -12.695 -12.376  -1.497  1.00  0.00     0.134 A 
ATOM     61  C   UNL     1     -14.468 -11.638  -0.065  1.00  0.00     0.134 A 
ATOM     62  F   UNL     1     -11.745 -12.146  -2.415  1.00  0.00    -0.206 F 
ATOM     63  C   UNL     1     -12.869 -13.686  -1.050  1.00  0.00     0.040 A 
ATOM     64  C   UNL     1     -14.636 -12.941   0.408  1.00  0.00     0.040 A 
ATOM     65  F   UNL     1     -15.255 -10.677   0.441  1.00  0.00    -0.206 F 
ATOM     66  C   UNL     1     -13.840 -13.971  -0.091  1.00  0.00     0.006 A 
ENDBRANCH  45  59
BRANCH  46  67
ATOM     67  C   UNL     1     -12.045  -2.023  -4.307  1.00  0.00     0.057 A 
ATOM     68  C   UNL     1     -10.746  -1.527  -4.480  1.00  0.00     0.134 A 
ATOM     69  C   UNL     1     -13.109  -1.155  -4.571  1.00  0.00     0.134 A 
ATOM     70  F   UNL     1      -9.685  -2.312  -4.241  1.00  0.00    -0.206 F 
ATOM     71  C   UNL     1     -10.514  -0.208  -4.871  1.00  0.00     0.040 A 
ATOM     72  C   UNL     1     -12.891   0.161  -4.982  1.00  0.00     0.040 A 
ATOM     73  F   UNL     1     -14.374  -1.580  -4.443  1.00  0.00    -0.206 F 
ATOM     74  C   UNL     1     -11.590   0.641  -5.123  1.00  0.00     0.006 A 
ENDBRANCH  46  67
BRANCH  58  75
ATOM     75  C   UNL     1     -14.518  -7.870  -7.237  1.00  0.00     0.057 A 
ATOM     76  C   UNL     1     -15.882  -8.103  -7.459  1.00  0.00     0.134 A 
ATOM     77  C   UNL     1     -13.643  -8.069  -8.310  1.00  0.00     0.134 A 
ATOM     78  F   UNL     1     -16.771  -7.941  -6.467  1.00  0.00    -0.206 F 
ATOM     79  C   UNL     1     -16.355  -8.546  -8.695  1.00  0.00     0.040 A 
ATOM     80  C   UNL     1     -14.107  -8.490  -9.558  1.00  0.00     0.040 A 
ATOM     81  F   UNL     1     -12.327  -7.855  -8.164  1.00  0.00    -0.206 F 
ATOM     82  C   UNL     1     -15.465  -8.742  -9.749  1.00  0.00     0.006 A 
ENDBRANCH  58  75
ENDBRANCH  32  33
ENDBRANCH  25  27
ENDBRANCH  24  25
ENDBRANCH  23  24
ENDBRANCH  22  23
ENDBRANCH  21  22
ENDBRANCH   1  21
TORSDOF 18
