REMARK SMILES Cc1ccc(S(=O)(=O)n2cc(C(=O)C(=O)NCC(=O)N[C@H](Cc3c[nH]c4ccccc34)C(=O)OCCOCCOC(=O)c3ccc(-c4c5nc(c(-c6c(F)cccc6F)c6ccc([nH]6)c(-c6c(F)cccc6F)c6nc(c(-c7c(F)cccc7F)c7ccc4[nH]7)C=C6)C=C5)cc3)c3ccccc32)cc1
REMARK SMILES IDX 35 1 34 2 32 3 33 4 21 5 20 6 18 7 19 8 17 10 16 11 14 12
REMARK SMILES IDX 15 13 12 15 13 16 11 17 9 18 10 19 102 20 97 21 101 22 98 23
REMARK SMILES IDX 100 24 99 25 6 26 7 27 8 28 5 29 1 30 2 31 3 32 104 33 4 34
REMARK SMILES IDX 103 35 22 36 23 37 24 38 31 39 25 40 26 41 30 42 27 44 29 45
REMARK SMILES IDX 28 46 36 47 37 48 38 49 39 50 40 51 41 52 42 53 43 54 44 55
REMARK SMILES IDX 96 56 45 57 95 58 46 59 47 60 48 61 89 62 49 63 94 64 88 65
REMARK SMILES IDX 90 66 50 67 93 68 87 69 86 70 51 72 77 73 60 74 76 75 61 76
REMARK SMILES IDX 64 77 75 78 91 79 62 80 63 81 74 83 92 84 65 85 52 86 53 87
REMARK SMILES IDX 58 88 54 89 55 90 57 91 59 92 56 93 78 94 79 95 84 96 80 97
REMARK SMILES IDX 81 98 83 99 85 100 82 101 66 102 67 103 72 104 68 105 69 106
REMARK SMILES IDX 71 107 73 108 70 109
REMARK H PARENT 20 9 16 14 25 43 90 71 64 82
REMARK Flexibility Score: inf
ROOT
ATOM      1  C   UNL     1     -10.349  -0.504   3.836  1.00  0.00     0.261 C 
ENDROOT
BRANCH   1   2
ATOM      2  O   UNL     1     -10.210   0.854   3.446  1.00  0.00    -0.462 OA
BRANCH   2   3
ATOM      3  C   UNL     1      -9.933   1.059   2.125  1.00  0.00     0.329 C 
ATOM      4  O   UNL     1      -9.541   0.250   1.320  1.00  0.00    -0.250 OA
BRANCH   3   5
ATOM      5  C   UNL     1     -10.270   2.487   1.764  1.00  0.00     0.196 C 
BRANCH   5   6
ATOM      6  N   UNL     1      -9.558   3.368   2.692  1.00  0.00    -0.341 N 
ATOM      7  C   UNL     1      -8.197   3.555   2.785  1.00  0.00     0.240 C 
ATOM      8  O   UNL     1      -7.794   4.351   3.637  1.00  0.00    -0.273 OA
ATOM      9  H   UNL     1     -10.115   3.883   3.320  1.00  0.00     0.164 HD
BRANCH   7  10
ATOM     10  C   UNL     1      -7.194   2.774   1.872  1.00  0.00     0.216 C 
BRANCH  10  11
ATOM     11  N   UNL     1      -6.884   1.398   2.276  1.00  0.00    -0.340 N 
ATOM     12  C   UNL     1      -6.544   0.290   1.509  1.00  0.00     0.292 C 
ATOM     13  O   UNL     1      -6.272  -0.793   2.018  1.00  0.00    -0.265 OA
ATOM     14  H   UNL     1      -6.924   1.233   3.246  1.00  0.00     0.164 HD
BRANCH  12  15
ATOM     15  C   UNL     1      -6.459   0.429  -0.006  1.00  0.00     0.252 C 
ATOM     16  O   UNL     1      -5.721   1.330  -0.415  1.00  0.00    -0.283 OA
BRANCH  15  17
ATOM     17  C   UNL     1      -7.333  -0.325  -0.920  1.00  0.00     0.054 A 
ATOM     18  N   UNL     1      -8.692  -1.801  -1.969  1.00  0.00    -0.240 N 
ATOM     19  C   UNL     1      -7.697  -1.681  -0.997  1.00  0.00     0.117 A 
ATOM     20  C   UNL     1      -9.059  -0.490  -2.348  1.00  0.00     0.065 A 
ATOM     21  C   UNL     1      -7.960   0.300  -2.033  1.00  0.00     0.012 A 
ATOM     22  C   UNL     1     -10.057  -0.036  -3.234  1.00  0.00     0.028 A 
ATOM     23  C   UNL     1      -7.744   1.485  -2.764  1.00  0.00     0.011 A 
ATOM     24  C   UNL     1      -9.763   1.074  -4.024  1.00  0.00     0.002 A 
ATOM     25  C   UNL     1      -8.600   1.803  -3.820  1.00  0.00     0.001 A 
BRANCH  18  26
ATOM     26  S   UNL     1      -8.744  -2.834  -3.372  1.00  0.00     0.268 S 
ATOM     27  O   UNL     1      -7.748  -2.213  -4.235  1.00  0.00    -0.201 OA
ATOM     28  O   UNL     1     -10.166  -2.771  -3.697  1.00  0.00    -0.201 OA
BRANCH  26  29
ATOM     29  C   UNL     1      -8.476  -4.548  -3.629  1.00  0.00     0.088 A 
ATOM     30  C   UNL     1      -8.791  -8.553  -5.244  1.00  0.00     0.044 C 
ATOM     31  C   UNL     1      -8.603  -7.182  -4.658  1.00  0.00    -0.051 A 
ATOM     32  C   UNL     1      -8.782  -6.110  -5.516  1.00  0.00     0.005 A 
ATOM     33  C   UNL     1      -8.320  -6.925  -3.295  1.00  0.00     0.005 A 
ATOM     34  C   UNL     1      -8.703  -4.829  -5.007  1.00  0.00     0.022 A 
ATOM     35  C   UNL     1      -8.262  -5.603  -2.763  1.00  0.00     0.022 A 
ENDBRANCH  26  29
ENDBRANCH  18  26
ENDBRANCH  15  17
ENDBRANCH  12  15
ENDBRANCH  10  11
ENDBRANCH   7  10
ENDBRANCH   5   6
BRANCH   5  36
ATOM     36  C   UNL     1     -11.825   2.648   1.675  1.00  0.00     0.074 C 
BRANCH  36  37
ATOM     37  C   UNL     1     -12.724   1.996   2.727  1.00  0.00    -0.020 A 
ATOM     38  C   UNL     1     -12.609   2.096   4.104  1.00  0.00     0.087 A 
ATOM     39  C   UNL     1     -13.850   1.101   2.497  1.00  0.00     0.003 A 
ATOM     40  N   UNL     1     -13.463   1.196   4.685  1.00  0.00    -0.361 N 
ATOM     41  C   UNL     1     -14.242   0.584   3.737  1.00  0.00     0.046 A 
ATOM     42  C   UNL     1     -14.520   0.606   1.354  1.00  0.00     0.010 A 
ATOM     43  H   UNL     1     -13.512   1.014   5.651  1.00  0.00     0.166 HD
ATOM     44  C   UNL     1     -15.226  -0.405   3.892  1.00  0.00     0.026 A 
ATOM     45  C   UNL     1     -15.536  -0.356   1.494  1.00  0.00     0.001 A 
ATOM     46  C   UNL     1     -15.876  -0.860   2.745  1.00  0.00     0.002 A 
ENDBRANCH  36  37
ENDBRANCH   5  36
ENDBRANCH   3   5
ENDBRANCH   2   3
ENDBRANCH   1   2
BRANCH   1  47
ATOM     47  C   UNL     1     -11.364  -1.282   3.066  1.00  0.00     0.202 C 
BRANCH  47  48
ATOM     48  O   UNL     1     -10.678  -1.990   2.051  1.00  0.00    -0.374 OA
BRANCH  48  49
ATOM     49  C   UNL     1     -11.559  -2.572   1.109  1.00  0.00     0.202 C 
BRANCH  49  50
ATOM     50  C   UNL     1     -12.425  -3.650   1.770  1.00  0.00     0.261 C 
BRANCH  50  51
ATOM     51  O   UNL     1     -11.560  -4.559   2.498  1.00  0.00    -0.460 OA
BRANCH  51  52
ATOM     52  C   UNL     1     -11.656  -4.522   3.859  1.00  0.00     0.338 C 
ATOM     53  O   UNL     1     -12.702  -4.494   4.489  1.00  0.00    -0.246 OA
BRANCH  52  54
ATOM     54  C   UNL     1     -10.327  -4.186   4.474  1.00  0.00     0.060 A 
ATOM     55  C   UNL     1     -10.266  -3.763   5.818  1.00  0.00     0.016 A 
ATOM     56  C   UNL     1      -9.248  -3.931   3.637  1.00  0.00     0.016 A 
ATOM     57  C   UNL     1      -9.224  -2.924   6.263  1.00  0.00     0.010 A 
ATOM     58  C   UNL     1      -8.285  -3.026   4.055  1.00  0.00     0.010 A 
ATOM     59  C   UNL     1      -8.282  -2.463   5.351  1.00  0.00    -0.014 A 
BRANCH  59  60
ATOM     60  C   UNL     1      -7.329  -1.342   5.563  1.00  0.00     0.031 A 
ATOM     61  C   UNL     1      -5.888  -1.625   5.278  1.00  0.00     0.074 A 
ATOM     62  C   UNL     1      -7.717  -0.045   5.756  1.00  0.00     0.049 A 
ATOM     63  N   UNL     1      -4.920  -0.803   5.487  1.00  0.00    -0.248 NA
ATOM     64  C   UNL     1      -5.411  -2.896   4.738  1.00  0.00     0.031 C 
ATOM     65  C   UNL     1      -6.907   1.164   5.552  1.00  0.00     0.029 A 
ATOM     66  N   UNL     1      -8.950   0.510   6.171  1.00  0.00    -0.354 N 
ATOM     67  C   UNL     1      -3.790  -1.279   4.858  1.00  0.00     0.074 A 
ATOM     68  C   UNL     1      -4.137  -2.616   4.464  1.00  0.00     0.031 C 
ATOM     69  C   UNL     1      -7.542   2.246   6.035  1.00  0.00     0.029 A 
ATOM     70  C   UNL     1      -8.674   1.750   6.788  1.00  0.00     0.049 A 
ATOM     71  H   UNL     1      -9.839   0.106   6.051  1.00  0.00     0.167 HD
ATOM     72  C   UNL     1      -2.739  -0.426   4.684  1.00  0.00     0.037 A 
ATOM     73  C   UNL     1      -8.894   1.955   8.116  1.00  0.00     0.037 A 
ATOM     74  C   UNL     1      -2.972   0.812   5.455  1.00  0.00     0.049 A 
ATOM     75  C   UNL     1      -7.586   2.199   8.817  1.00  0.00     0.074 A 
ATOM     76  C   UNL     1      -3.331   2.104   5.110  1.00  0.00     0.029 A 
ATOM     77  N   UNL     1      -3.167   0.718   6.839  1.00  0.00    -0.354 N 
ATOM     78  N   UNL     1      -6.444   1.861   8.282  1.00  0.00    -0.248 NA
ATOM     79  C   UNL     1      -7.422   2.858  10.105  1.00  0.00     0.031 C 
ATOM     80  C   UNL     1      -3.856   2.739   6.278  1.00  0.00     0.029 A 
ATOM     81  C   UNL     1      -3.780   1.852   7.345  1.00  0.00     0.049 A 
ATOM     82  H   UNL     1      -2.902  -0.058   7.384  1.00  0.00     0.167 HD
ATOM     83  C   UNL     1      -5.423   2.241   9.083  1.00  0.00     0.074 A 
ATOM     84  C   UNL     1      -6.081   2.850  10.227  1.00  0.00     0.031 C 
ATOM     85  C   UNL     1      -4.130   1.958   8.764  1.00  0.00     0.037 A 
BRANCH  72  86
ATOM     86  C   UNL     1      -1.583  -0.613   3.701  1.00  0.00     0.057 A 
ATOM     87  C   UNL     1      -0.701   0.454   3.427  1.00  0.00     0.134 A 
ATOM     88  C   UNL     1      -1.299  -1.768   2.939  1.00  0.00     0.134 A 
ATOM     89  F   UNL     1      -0.794   1.625   4.072  1.00  0.00    -0.206 F 
ATOM     90  C   UNL     1       0.330   0.386   2.470  1.00  0.00     0.040 A 
ATOM     91  C   UNL     1      -0.279  -1.849   1.977  1.00  0.00     0.040 A 
ATOM     92  F   UNL     1      -1.968  -2.911   3.075  1.00  0.00    -0.206 F 
ATOM     93  C   UNL     1       0.540  -0.766   1.732  1.00  0.00     0.006 A 
ENDBRANCH  72  86
BRANCH  73  94
ATOM     94  C   UNL     1     -10.089   1.223   8.613  1.00  0.00     0.057 A 
ATOM     95  C   UNL     1     -11.357   1.747   8.302  1.00  0.00     0.134 A 
ATOM     96  C   UNL     1     -10.029  -0.145   8.901  1.00  0.00     0.134 A 
ATOM     97  F   UNL     1     -11.496   3.048   8.003  1.00  0.00    -0.206 F 
ATOM     98  C   UNL     1     -12.486   0.930   8.164  1.00  0.00     0.040 A 
ATOM     99  C   UNL     1     -11.146  -0.976   8.728  1.00  0.00     0.040 A 
ATOM    100  F   UNL     1      -8.858  -0.727   9.197  1.00  0.00    -0.206 F 
ATOM    101  C   UNL     1     -12.367  -0.447   8.315  1.00  0.00     0.006 A 
ENDBRANCH  73  94
BRANCH  85 102
ATOM    102  C   UNL     1      -3.100   1.802   9.836  1.00  0.00     0.057 A 
ATOM    103  C   UNL     1      -3.418   1.356  11.131  1.00  0.00     0.134 A 
ATOM    104  C   UNL     1      -1.731   1.939   9.556  1.00  0.00     0.134 A 
ATOM    105  F   UNL     1      -4.673   1.031  11.477  1.00  0.00    -0.206 F 
ATOM    106  C   UNL     1      -2.452   1.174  12.118  1.00  0.00     0.040 A 
ATOM    107  C   UNL     1      -0.750   1.696  10.517  1.00  0.00     0.040 A 
ATOM    108  F   UNL     1      -1.294   2.280   8.335  1.00  0.00    -0.206 F 
ATOM    109  C   UNL     1      -1.109   1.341  11.811  1.00  0.00     0.006 A 
ENDBRANCH  85 102
ENDBRANCH  59  60
ENDBRANCH  52  54
ENDBRANCH  51  52
ENDBRANCH  50  51
ENDBRANCH  49  50
ENDBRANCH  48  49
ENDBRANCH  47  48
ENDBRANCH   1  47
TORSDOF 23
