REMARK SMILES C[C@@H]1[C@H](C)CCC[C@H]1NC(=O)C[N@@H+]1CCC[C@@H]1C(=O)OCCOCCOCCOC(=O)c1ccc(-c2c3nc(c(-c4c(F)cccc4F)c4ccc([nH]4)c(-c4c(F)cccc4F)c4nc(c(-c5c(F)cccc5F)c5ccc2[nH]5)C=C4)C=C3)cc1
REMARK SMILES IDX 24 1 23 2 22 3 21 4 20 5 18 6 19 7 17 8 13 9 14 10 15 12
REMARK SMILES IDX 16 13 12 14 10 15 9 16 11 18 8 19 1 20 2 21 3 22 4 23 5 24
REMARK SMILES IDX 7 25 6 26 25 27 26 28 27 29 28 30 29 31 30 32 31 33 32 34
REMARK SMILES IDX 33 35 85 36 34 37 84 38 35 39 36 40 37 41 78 42 38 43 83 44
REMARK SMILES IDX 77 45 79 46 39 47 82 48 76 49 75 50 40 52 66 53 49 54 65 55
REMARK SMILES IDX 50 56 53 57 64 58 80 59 51 60 52 61 63 63 81 64 54 65 41 66
REMARK SMILES IDX 42 67 47 68 43 69 44 70 46 71 48 72 45 73 67 74 68 75 73 76
REMARK SMILES IDX 69 77 70 78 72 79 74 80 71 81 55 82 56 83 61 84 57 85 58 86
REMARK SMILES IDX 60 87 62 88 59 89
REMARK H PARENT 13 11 9 17 79 51 53 62
REMARK Flexibility Score: inf
ROOT
ATOM      1  C   UNL     1      -1.851   5.908   4.376  1.00  0.00     0.188 C 
ENDROOT
BRANCH   1   2
ATOM      2  O   UNL     1      -3.196   6.315   4.183  1.00  0.00    -0.376 OA
BRANCH   2   3
ATOM      3  C   UNL     1      -4.255   5.402   4.463  1.00  0.00     0.202 C 
BRANCH   3   4
ATOM      4  C   UNL     1      -4.201   3.972   3.894  1.00  0.00     0.261 C 
BRANCH   4   5
ATOM      5  O   UNL     1      -3.104   3.160   4.366  1.00  0.00    -0.459 OA
BRANCH   5   6
ATOM      6  C   UNL     1      -2.186   2.770   3.443  1.00  0.00     0.365 C 
ATOM      7  O   UNL     1      -2.256   3.040   2.247  1.00  0.00    -0.245 OA
BRANCH   6   8
ATOM      8  C   UNL     1      -1.038   1.917   4.032  1.00  0.00     0.295 C 
ATOM      9  N   UNL     1      -1.093   0.501   3.595  1.00  0.00    -0.315 N 
ATOM     10  C   UNL     1      -0.240  -0.223   4.550  1.00  0.00     0.263 C 
ATOM     11  H   UNL     1      -0.763   0.386   2.637  1.00  0.00     0.349 HD
ATOM     12  C   UNL     1      -0.538   0.408   5.889  1.00  0.00     0.068 C 
ATOM     13  C   UNL     1      -0.776   1.866   5.544  1.00  0.00     0.083 C 
BRANCH   9  14
ATOM     14  C   UNL     1      -2.479  -0.020   3.568  1.00  0.00     0.364 C 
BRANCH  14  15
ATOM     15  C   UNL     1      -2.502  -1.476   3.130  1.00  0.00     0.275 C 
ATOM     16  N   UNL     1      -1.921  -1.821   1.945  1.00  0.00    -0.348 N 
ATOM     17  H   UNL     1      -1.934  -2.783   1.734  1.00  0.00     0.163 HD
ATOM     18  O   UNL     1      -3.042  -2.348   3.813  1.00  0.00    -0.268 OA
BRANCH  16  19
ATOM     19  C   UNL     1      -1.277  -0.964   0.938  1.00  0.00     0.085 C 
ATOM     20  C   UNL     1       0.959  -0.068   0.117  1.00  0.00     0.010 C 
ATOM     21  C   UNL     1       0.260  -1.167   0.935  1.00  0.00     0.011 C 
ATOM     22  C   UNL     1       0.613  -2.600   0.462  1.00  0.00    -0.009 C 
ATOM     23  C   UNL     1       2.121  -2.856   0.410  1.00  0.00     0.008 C 
ATOM     24  C   UNL     1      -0.041  -2.944  -0.886  1.00  0.00     0.004 C 
ATOM     25  C   UNL     1      -1.891  -1.264  -0.432  1.00  0.00     0.025 C 
ATOM     26  C   UNL     1      -1.544  -2.670  -0.913  1.00  0.00     0.002 C 
ENDBRANCH  16  19
ENDBRANCH  14  15
ENDBRANCH   9  14
ENDBRANCH   6   8
ENDBRANCH   5   6
ENDBRANCH   4   5
ENDBRANCH   3   4
ENDBRANCH   2   3
ENDBRANCH   1   2
BRANCH   1  27
ATOM     27  C   UNL     1      -1.481   5.144   5.652  1.00  0.00     0.188 C 
BRANCH  27  28
ATOM     28  O   UNL     1      -2.559   4.847   6.504  1.00  0.00    -0.376 OA
BRANCH  28  29
ATOM     29  C   UNL     1      -2.619   5.476   7.773  1.00  0.00     0.202 C 
BRANCH  29  30
ATOM     30  C   UNL     1      -2.352   6.987   7.913  1.00  0.00     0.261 C 
BRANCH  30  31
ATOM     31  O   UNL     1      -1.287   7.545   7.126  1.00  0.00    -0.460 OA
BRANCH  31  32
ATOM     32  C   UNL     1      -0.016   7.296   7.519  1.00  0.00     0.338 C 
ATOM     33  O   UNL     1       0.340   6.660   8.499  1.00  0.00    -0.246 OA
BRANCH  32  34
ATOM     34  C   UNL     1       0.873   7.697   6.402  1.00  0.00     0.060 A 
ATOM     35  C   UNL     1       1.672   6.726   5.775  1.00  0.00     0.016 A 
ATOM     36  C   UNL     1       0.881   9.015   5.944  1.00  0.00     0.016 A 
ATOM     37  C   UNL     1       2.493   7.074   4.700  1.00  0.00     0.010 A 
ATOM     38  C   UNL     1       1.727   9.369   4.891  1.00  0.00     0.010 A 
ATOM     39  C   UNL     1       2.558   8.409   4.283  1.00  0.00    -0.014 A 
BRANCH  39  40
ATOM     40  C   UNL     1       3.642   8.863   3.379  1.00  0.00     0.031 A 
ATOM     41  C   UNL     1       4.856   9.492   4.004  1.00  0.00     0.074 A 
ATOM     42  C   UNL     1       3.551   8.755   2.042  1.00  0.00     0.049 A 
ATOM     43  N   UNL     1       5.864  10.103   3.440  1.00  0.00    -0.248 NA
ATOM     44  C   UNL     1       4.932   9.431   5.473  1.00  0.00     0.031 C 
ATOM     45  C   UNL     1       2.458   8.119   1.314  1.00  0.00     0.029 A 
ATOM     46  N   UNL     1       4.396   9.211   1.059  1.00  0.00    -0.354 N 
ATOM     47  C   UNL     1       6.681  10.519   4.484  1.00  0.00     0.074 A 
ATOM     48  C   UNL     1       6.040  10.112   5.715  1.00  0.00     0.031 C 
ATOM     49  C   UNL     1       2.683   8.248  -0.006  1.00  0.00     0.029 A 
ATOM     50  C   UNL     1       3.913   9.014  -0.212  1.00  0.00     0.049 A 
ATOM     51  H   UNL     1       5.263   9.636   1.246  1.00  0.00     0.167 HD
ATOM     52  C   UNL     1       7.860  11.182   4.423  1.00  0.00     0.037 A 
ATOM     53  C   UNL     1       4.390   9.439  -1.399  1.00  0.00     0.037 A 
ATOM     54  C   UNL     1       8.490  11.591   3.196  1.00  0.00     0.049 A 
ATOM     55  C   UNL     1       5.661  10.250  -1.443  1.00  0.00     0.074 A 
ATOM     56  C   UNL     1       9.693  12.252   3.026  1.00  0.00     0.029 A 
ATOM     57  N   UNL     1       7.960  11.389   1.931  1.00  0.00    -0.354 N 
ATOM     58  N   UNL     1       6.437  10.629  -0.455  1.00  0.00    -0.248 NA
ATOM     59  C   UNL     1       6.122  10.696  -2.767  1.00  0.00     0.031 C 
ATOM     60  C   UNL     1       9.861  12.506   1.661  1.00  0.00     0.029 A 
ATOM     61  C   UNL     1       8.798  11.940   0.976  1.00  0.00     0.049 A 
ATOM     62  H   UNL     1       7.114  10.923   1.740  1.00  0.00     0.167 HD
ATOM     63  C   UNL     1       7.493  11.321  -1.040  1.00  0.00     0.074 A 
ATOM     64  C   UNL     1       7.260  11.308  -2.468  1.00  0.00     0.031 C 
ATOM     65  C   UNL     1       8.563  11.907  -0.447  1.00  0.00     0.037 A 
BRANCH  52  66
ATOM     66  C   UNL     1       8.515  11.543   5.724  1.00  0.00     0.057 A 
ATOM     67  C   UNL     1       9.070  10.576   6.574  1.00  0.00     0.134 A 
ATOM     68  C   UNL     1       8.601  12.882   6.127  1.00  0.00     0.134 A 
ATOM     69  F   UNL     1       9.006   9.274   6.256  1.00  0.00    -0.206 F 
ATOM     70  C   UNL     1       9.656  10.925   7.792  1.00  0.00     0.040 A 
ATOM     71  C   UNL     1       9.214  13.246   7.327  1.00  0.00     0.040 A 
ATOM     72  F   UNL     1       8.094  13.859   5.361  1.00  0.00    -0.206 F 
ATOM     73  C   UNL     1       9.735  12.265   8.167  1.00  0.00     0.006 A 
ENDBRANCH  52  66
BRANCH  53  74
ATOM     74  C   UNL     1       3.653   9.126  -2.651  1.00  0.00     0.057 A 
ATOM     75  C   UNL     1       4.186   8.255  -3.608  1.00  0.00     0.134 A 
ATOM     76  C   UNL     1       2.407   9.703  -2.929  1.00  0.00     0.134 A 
ATOM     77  F   UNL     1       5.387   7.692  -3.414  1.00  0.00    -0.206 F 
ATOM     78  C   UNL     1       3.514   7.978  -4.801  1.00  0.00     0.040 A 
ATOM     79  C   UNL     1       1.712   9.414  -4.105  1.00  0.00     0.040 A 
ATOM     80  F   UNL     1       1.843  10.550  -2.056  1.00  0.00    -0.206 F 
ATOM     81  C   UNL     1       2.269   8.553  -5.048  1.00  0.00     0.006 A 
ENDBRANCH  53  74
BRANCH  65  82
ATOM     82  C   UNL     1       9.600  12.535  -1.334  1.00  0.00     0.057 A 
ATOM     83  C   UNL     1       9.368  13.730  -2.026  1.00  0.00     0.134 A 
ATOM     84  C   UNL     1      10.877  11.967  -1.440  1.00  0.00     0.134 A 
ATOM     85  F   UNL     1       8.165  14.322  -1.976  1.00  0.00    -0.206 F 
ATOM     86  C   UNL     1      10.362  14.328  -2.804  1.00  0.00     0.040 A 
ATOM     87  C   UNL     1      11.888  12.571  -2.189  1.00  0.00     0.040 A 
ATOM     88  F   UNL     1      11.172  10.829  -0.794  1.00  0.00    -0.206 F 
ATOM     89  C   UNL     1      11.630  13.753  -2.878  1.00  0.00     0.006 A 
ENDBRANCH  65  82
ENDBRANCH  39  40
ENDBRANCH  32  34
ENDBRANCH  31  32
ENDBRANCH  30  31
ENDBRANCH  29  30
ENDBRANCH  28  29
ENDBRANCH  27  28
ENDBRANCH   1  27
TORSDOF 20
