REMARK SMILES Cc1ccc(-c2c(C)sc(NC(=O)[C@H]3CC=CC[C@H]3C(=O)OCCOCCOCCOC(=O)c3ccc(-c4c5nc(c(-c6c(F)cccc6F)c6ccc([nH]6)c(-c6c(F)cccc6F)c6nc(c(-c7c(F)cccc7F)c7ccc4[nH]7)C=C6)C=C5)cc3)c2C(N)=O)cc1
REMARK SMILES IDX 26 1 25 2 24 3 23 4 22 5 20 6 21 7 19 8 14 9 15 10 16 11
REMARK SMILES IDX 18 12 17 13 12 14 11 15 13 17 10 18 6 19 7 20 88 21 8 22
REMARK SMILES IDX 9 23 5 24 1 25 2 26 3 27 93 28 4 29 92 30 89 31 90 32 91 33
REMARK SMILES IDX 27 36 28 37 29 38 30 39 31 40 32 41 33 42 34 43 35 44 87 45
REMARK SMILES IDX 36 46 86 47 37 48 38 49 39 50 80 51 40 52 85 53 79 54 81 55
REMARK SMILES IDX 41 56 84 57 78 58 77 59 42 61 68 62 51 63 67 64 52 65 55 66
REMARK SMILES IDX 66 67 82 68 53 69 54 70 65 72 83 73 56 74 43 75 44 76 49 77
REMARK SMILES IDX 45 78 46 79 48 80 50 81 47 82 69 83 70 84 75 85 71 86 72 87
REMARK SMILES IDX 74 88 76 89 73 90 57 91 58 92 63 93 59 94 60 95 62 96 64 97
REMARK SMILES IDX 61 98
REMARK H PARENT 11 16 90 34 90 35 81 60 55 71
REMARK Flexibility Score: inf
ROOT
ATOM      1  C   UNL     1     -13.940  -2.581  -0.942  1.00  0.00     0.188 C 
ENDROOT
BRANCH   1   2
ATOM      2  O   UNL     1     -13.745  -3.961  -0.733  1.00  0.00    -0.376 OA
BRANCH   2   3
ATOM      3  C   UNL     1     -12.371  -4.325  -0.696  1.00  0.00     0.202 C 
BRANCH   3   4
ATOM      4  C   UNL     1     -11.292  -3.213  -0.491  1.00  0.00     0.261 C 
BRANCH   4   5
ATOM      5  O   UNL     1     -10.691  -2.115  -1.632  1.00  0.00    -0.463 OA
BRANCH   5   6
ATOM      6  C   UNL     1      -9.429  -1.711  -2.226  1.00  0.00     0.310 C 
ATOM      7  O   UNL     1      -9.272  -2.119  -3.381  1.00  0.00    -0.252 OA
BRANCH   6   8
ATOM      8  C   UNL     1      -8.230  -0.636  -1.800  1.00  0.00     0.116 C 
ATOM      9  C   UNL     1      -7.982   0.621  -0.826  1.00  0.00     0.097 C 
ATOM     10  C   UNL     1      -7.378   1.778  -1.653  1.00  0.00     0.041 C 
ATOM     11  C   UNL     1      -6.330   1.339  -2.636  1.00  0.00    -0.030 C 
ATOM     12  C   UNL     1      -6.828  -1.103  -2.294  1.00  0.00     0.043 C 
ATOM     13  C   UNL     1      -6.046   0.051  -2.885  1.00  0.00    -0.030 C 
BRANCH   9  14
ATOM     14  C   UNL     1      -7.383   0.551   0.659  1.00  0.00     0.229 C 
ATOM     15  N   UNL     1      -6.226  -0.002   1.135  1.00  0.00    -0.317 N 
ATOM     16  H   UNL     1      -6.344  -0.720   1.799  1.00  0.00     0.170 HD
ATOM     17  O   UNL     1      -8.084   1.021   1.577  1.00  0.00    -0.274 OA
BRANCH  15  18
ATOM     18  C   UNL     1      -4.908   0.302   0.820  1.00  0.00     0.109 A 
ATOM     19  C   UNL     1      -2.647   0.349   0.307  1.00  0.00     0.010 A 
ATOM     20  C   UNL     1      -3.214   1.171  -0.655  1.00  0.00     0.012 A 
ATOM     21  C   UNL     1      -3.647  -0.088   1.299  1.00  0.00     0.082 A 
ATOM     22  C   UNL     1      -2.721   1.695  -1.957  1.00  0.00     0.057 C 
ATOM     23  S   UNL     1      -4.668   1.759  -0.028  1.00  0.00    -0.122 S 
BRANCH  19  24
ATOM     24  C   UNL     1      -1.205   0.137   0.272  1.00  0.00    -0.016 A 
ATOM     25  C   UNL     1       3.067  -0.249  -0.084  1.00  0.00     0.044 C 
ATOM     26  C   UNL     1       1.579  -0.117   0.033  1.00  0.00    -0.051 A 
ATOM     27  C   UNL     1       0.752  -1.249  -0.024  1.00  0.00     0.004 A 
ATOM     28  C   UNL     1       1.005   1.141   0.229  1.00  0.00     0.004 A 
ATOM     29  C   UNL     1      -0.639  -1.124   0.086  1.00  0.00     0.009 A 
ATOM     30  C   UNL     1      -0.373   1.262   0.364  1.00  0.00     0.009 A 
ENDBRANCH  19  24
BRANCH  21  31
ATOM     31  C   UNL     1      -3.258  -0.814   2.524  1.00  0.00     0.252 C 
ATOM     32  N   UNL     1      -4.225  -1.162   3.434  1.00  0.00    -0.365 N 
ATOM     33  O   UNL     1      -2.113  -1.073   2.832  1.00  0.00    -0.269 OA
ATOM     34  H   UNL     1      -5.172  -0.977   3.241  1.00  0.00     0.159 HD
ATOM     35  H   UNL     1      -3.971  -1.596   4.280  1.00  0.00     0.159 HD
ENDBRANCH  21  31
ENDBRANCH  15  18
ENDBRANCH   9  14
ENDBRANCH   6   8
ENDBRANCH   5   6
ENDBRANCH   4   5
ENDBRANCH   3   4
ENDBRANCH   2   3
ENDBRANCH   1   2
BRANCH   1  36
ATOM     36  C   UNL     1     -13.966  -1.764   0.361  1.00  0.00     0.188 C 
BRANCH  36  37
ATOM     37  O   UNL     1     -13.040  -2.211   1.336  1.00  0.00    -0.376 OA
BRANCH  37  38
ATOM     38  C   UNL     1     -13.467  -2.718   2.581  1.00  0.00     0.202 C 
BRANCH  38  39
ATOM     39  C   UNL     1     -13.892  -1.568   3.491  1.00  0.00     0.261 C 
BRANCH  39  40
ATOM     40  O   UNL     1     -12.719  -0.852   3.944  1.00  0.00    -0.460 OA
BRANCH  40  41
ATOM     41  C   UNL     1     -12.241   0.034   3.036  1.00  0.00     0.338 C 
ATOM     42  O   UNL     1     -12.893   0.921   2.507  1.00  0.00    -0.246 OA
BRANCH  41  43
ATOM     43  C   UNL     1     -10.946  -0.495   2.517  1.00  0.00     0.060 A 
ATOM     44  C   UNL     1     -10.694  -0.173   1.223  1.00  0.00     0.016 A 
ATOM     45  C   UNL     1     -10.205  -1.554   3.063  1.00  0.00     0.016 A 
ATOM     46  C   UNL     1      -9.845  -1.016   0.489  1.00  0.00     0.010 A 
ATOM     47  C   UNL     1      -9.361  -2.398   2.259  1.00  0.00     0.010 A 
ATOM     48  C   UNL     1      -9.154  -2.197   0.884  1.00  0.00    -0.014 A 
BRANCH  48  49
ATOM     49  C   UNL     1      -8.412  -3.380  -0.026  1.00  0.00     0.031 A 
ATOM     50  C   UNL     1      -6.981  -3.600   0.325  1.00  0.00     0.074 A 
ATOM     51  C   UNL     1      -8.789  -4.284  -1.070  1.00  0.00     0.049 A 
ATOM     52  N   UNL     1      -6.096  -4.049  -0.507  1.00  0.00    -0.248 NA
ATOM     53  C   UNL     1      -6.422  -3.251   1.624  1.00  0.00     0.031 C 
ATOM     54  C   UNL     1      -8.280  -5.658  -1.286  1.00  0.00     0.029 A 
ATOM     55  N   UNL     1      -9.810  -4.327  -2.061  1.00  0.00    -0.354 N 
ATOM     56  C   UNL     1      -4.999  -4.379   0.244  1.00  0.00     0.074 A 
ATOM     57  C   UNL     1      -5.178  -3.709   1.506  1.00  0.00     0.031 C 
ATOM     58  C   UNL     1      -8.849  -6.236  -2.374  1.00  0.00     0.029 A 
ATOM     59  C   UNL     1      -9.707  -5.279  -3.042  1.00  0.00     0.049 A 
ATOM     60  H   UNL     1     -10.564  -3.694  -2.043  1.00  0.00     0.167 HD
ATOM     61  C   UNL     1      -4.169  -5.395  -0.111  1.00  0.00     0.037 A 
ATOM     62  C   UNL     1      -9.987  -5.068  -4.372  1.00  0.00     0.037 A 
ATOM     63  C   UNL     1      -4.677  -6.143  -1.252  1.00  0.00     0.049 A 
ATOM     64  C   UNL     1      -8.732  -5.404  -5.116  1.00  0.00     0.074 A 
ATOM     65  C   UNL     1      -5.376  -7.339  -1.320  1.00  0.00     0.029 A 
ATOM     66  N   UNL     1      -4.782  -5.564  -2.514  1.00  0.00    -0.354 N 
ATOM     67  N   UNL     1      -7.580  -5.421  -4.511  1.00  0.00    -0.248 NA
ATOM     68  C   UNL     1      -8.635  -5.770  -6.521  1.00  0.00     0.031 C 
ATOM     69  C   UNL     1      -5.807  -7.532  -2.649  1.00  0.00     0.029 A 
ATOM     70  C   UNL     1      -5.383  -6.446  -3.395  1.00  0.00     0.049 A 
ATOM     71  H   UNL     1      -4.473  -4.658  -2.745  1.00  0.00     0.167 HD
ATOM     72  C   UNL     1      -6.636  -5.937  -5.339  1.00  0.00     0.074 A 
ATOM     73  C   UNL     1      -7.329  -6.088  -6.607  1.00  0.00     0.031 C 
ATOM     74  C   UNL     1      -5.400  -6.219  -4.838  1.00  0.00     0.037 A 
BRANCH  61  75
ATOM     75  C   UNL     1      -3.170  -5.921   0.892  1.00  0.00     0.057 A 
ATOM     76  C   UNL     1      -2.965  -7.292   1.106  1.00  0.00     0.134 A 
ATOM     77  C   UNL     1      -2.433  -5.074   1.740  1.00  0.00     0.134 A 
ATOM     78  F   UNL     1      -3.492  -8.223   0.303  1.00  0.00    -0.206 F 
ATOM     79  C   UNL     1      -2.212  -7.783   2.178  1.00  0.00     0.040 A 
ATOM     80  C   UNL     1      -1.719  -5.546   2.848  1.00  0.00     0.040 A 
ATOM     81  F   UNL     1      -2.415  -3.749   1.534  1.00  0.00    -0.206 F 
ATOM     82  C   UNL     1      -1.623  -6.911   3.081  1.00  0.00     0.006 A 
ENDBRANCH  61  75
BRANCH  62  83
ATOM     83  C   UNL     1     -10.977  -4.007  -4.816  1.00  0.00     0.057 A 
ATOM     84  C   UNL     1     -12.315  -4.086  -4.395  1.00  0.00     0.134 A 
ATOM     85  C   UNL     1     -10.618  -2.787  -5.410  1.00  0.00     0.134 A 
ATOM     86  F   UNL     1     -12.816  -5.256  -3.972  1.00  0.00    -0.206 F 
ATOM     87  C   UNL     1     -13.162  -2.965  -4.339  1.00  0.00     0.040 A 
ATOM     88  C   UNL     1     -11.425  -1.633  -5.282  1.00  0.00     0.040 A 
ATOM     89  F   UNL     1      -9.410  -2.628  -5.972  1.00  0.00    -0.206 F 
ATOM     90  C   UNL     1     -12.682  -1.710  -4.694  1.00  0.00     0.006 A 
ENDBRANCH  62  83
BRANCH  74  91
ATOM     91  C   UNL     1      -4.132  -6.493  -5.599  1.00  0.00     0.057 A 
ATOM     92  C   UNL     1      -3.968  -6.317  -6.976  1.00  0.00     0.134 A 
ATOM     93  C   UNL     1      -2.944  -6.833  -4.902  1.00  0.00     0.134 A 
ATOM     94  F   UNL     1      -4.961  -5.904  -7.768  1.00  0.00    -0.206 F 
ATOM     95  C   UNL     1      -2.737  -6.506  -7.614  1.00  0.00     0.040 A 
ATOM     96  C   UNL     1      -1.703  -6.962  -5.518  1.00  0.00     0.040 A 
ATOM     97  F   UNL     1      -2.909  -7.028  -3.577  1.00  0.00    -0.206 F 
ATOM     98  C   UNL     1      -1.597  -6.811  -6.885  1.00  0.00     0.006 A 
ENDBRANCH  74  91
ENDBRANCH  48  49
ENDBRANCH  41  43
ENDBRANCH  40  41
ENDBRANCH  39  40
ENDBRANCH  38  39
ENDBRANCH  37  38
ENDBRANCH  36  37
ENDBRANCH   1  36
TORSDOF 21
