REMARK SMILES Cc1nc(=O)[nH]c(C)c1CC(=O)Nc1sccc1C(=O)OCCOCCOCCOC(=O)c1ccc(-c2c3nc(c(-c4c(F)cccc4F)c4ccc([nH]4)c(-c4c(F)cccc4F)c4nc(c(-c5c(F)cccc5F)c5ccc2[nH]5)C=C4)C=C3)cc1
REMARK SMILES IDX 25 1 24 2 23 3 22 4 21 5 19 6 20 7 18 8 14 9 15 10 16 11
REMARK SMILES IDX 17 12 13 13 11 14 12 15 10 17 9 18 1 19 2 20 3 21 4 22 7 23
REMARK SMILES IDX 5 24 6 25 8 26 26 28 27 29 28 30 29 31 30 32 31 33 32 34
REMARK SMILES IDX 33 35 34 36 86 37 35 38 85 39 36 40 37 41 38 42 79 43 39 44
REMARK SMILES IDX 84 45 78 46 80 47 40 48 83 49 77 50 76 51 41 53 67 54 50 55
REMARK SMILES IDX 66 56 51 57 54 58 65 59 81 60 52 61 53 62 64 64 82 65 55 66
REMARK SMILES IDX 42 67 43 68 48 69 44 70 45 71 47 72 49 73 46 74 68 75 69 76
REMARK SMILES IDX 74 77 70 78 71 79 73 80 75 81 72 82 56 83 57 84 62 85 58 86
REMARK SMILES IDX 59 87 61 88 63 89 60 90
REMARK H PARENT 13 16 6 27 80 52 54 63
REMARK Flexibility Score: inf
ROOT
ATOM      1  C   UNL     1       0.154   2.636   1.647  1.00  0.00     0.188 C 
ENDROOT
BRANCH   1   2
ATOM      2  O   UNL     1      -0.782   3.048   0.667  1.00  0.00    -0.376 OA
BRANCH   2   3
ATOM      3  C   UNL     1      -1.119   2.086  -0.317  1.00  0.00     0.202 C 
BRANCH   3   4
ATOM      4  C   UNL     1      -2.072   1.010   0.196  1.00  0.00     0.261 C 
BRANCH   4   5
ATOM      5  O   UNL     1      -1.574  -0.116   0.956  1.00  0.00    -0.460 OA
BRANCH   5   6
ATOM      6  C   UNL     1      -0.295  -0.564   0.903  1.00  0.00     0.341 C 
ATOM      7  O   UNL     1       0.589  -0.107   0.196  1.00  0.00    -0.246 OA
BRANCH   6   8
ATOM      8  C   UNL     1      -0.019  -1.591   1.903  1.00  0.00     0.094 A 
ATOM      9  C   UNL     1      -0.934  -2.462   2.457  1.00  0.00     0.110 A 
ATOM     10  S   UNL     1      -0.362  -3.225   3.862  1.00  0.00    -0.126 S 
ATOM     11  C   UNL     1       1.224  -2.645   3.591  1.00  0.00     0.068 A 
ATOM     12  C   UNL     1       1.268  -1.772   2.526  1.00  0.00     0.029 A 
BRANCH   9  13
ATOM     13  N   UNL     1      -2.227  -2.783   2.132  1.00  0.00    -0.317 N 
ATOM     14  C   UNL     1      -2.684  -3.114   0.882  1.00  0.00     0.229 C 
ATOM     15  O   UNL     1      -3.897  -3.104   0.663  1.00  0.00    -0.274 OA
ATOM     16  H   UNL     1      -2.887  -2.775   2.863  1.00  0.00     0.170 HD
BRANCH  14  17
ATOM     17  C   UNL     1      -1.701  -3.698  -0.149  1.00  0.00     0.139 C 
BRANCH  17  18
ATOM     18  C   UNL     1      -1.042  -2.771  -1.129  1.00  0.00     0.002 A 
ATOM     19  C   UNL     1       1.259  -3.962  -0.739  1.00  0.00     0.067 C 
ATOM     20  C   UNL     1       0.446  -2.849  -1.370  1.00  0.00     0.049 A 
ATOM     21  N   UNL     1       1.124  -2.021  -2.097  1.00  0.00    -0.198 NA
ATOM     22  C   UNL     1       0.472  -0.996  -2.717  1.00  0.00     0.345 A 
ATOM     23  C   UNL     1      -1.655  -1.844  -1.891  1.00  0.00     0.022 A 
ATOM     24  O   UNL     1       1.043  -0.119  -3.357  1.00  0.00    -0.246 OA
ATOM     25  N   UNL     1      -0.897  -0.981  -2.641  1.00  0.00    -0.310 N 
ATOM     26  C   UNL     1      -3.142  -1.640  -1.968  1.00  0.00     0.065 C 
ATOM     27  H   UNL     1      -1.373  -0.297  -3.165  1.00  0.00     0.171 HD
ENDBRANCH  17  18
ENDBRANCH  14  17
ENDBRANCH   9  13
ENDBRANCH   6   8
ENDBRANCH   5   6
ENDBRANCH   4   5
ENDBRANCH   3   4
ENDBRANCH   2   3
ENDBRANCH   1   2
BRANCH   1  28
ATOM     28  C   UNL     1      -0.465   2.057   2.936  1.00  0.00     0.188 C 
BRANCH  28  29
ATOM     29  O   UNL     1      -1.768   2.454   3.341  1.00  0.00    -0.376 OA
BRANCH  29  30
ATOM     30  C   UNL     1      -2.163   3.806   3.157  1.00  0.00     0.202 C 
BRANCH  30  31
ATOM     31  C   UNL     1      -1.387   4.883   3.926  1.00  0.00     0.261 C 
BRANCH  31  32
ATOM     32  O   UNL     1       0.022   4.889   3.633  1.00  0.00    -0.460 OA
BRANCH  32  33
ATOM     33  C   UNL     1       0.839   4.486   4.637  1.00  0.00     0.338 C 
ATOM     34  O   UNL     1       0.525   4.263   5.794  1.00  0.00    -0.246 OA
BRANCH  33  35
ATOM     35  C   UNL     1       2.165   4.110   4.087  1.00  0.00     0.060 A 
ATOM     36  C   UNL     1       2.695   2.864   4.463  1.00  0.00     0.016 A 
ATOM     37  C   UNL     1       2.882   4.942   3.224  1.00  0.00     0.016 A 
ATOM     38  C   UNL     1       3.960   2.472   4.031  1.00  0.00     0.010 A 
ATOM     39  C   UNL     1       4.170   4.565   2.819  1.00  0.00     0.010 A 
ATOM     40  C   UNL     1       4.732   3.354   3.266  1.00  0.00    -0.014 A 
BRANCH  40  41
ATOM     41  C   UNL     1       6.206   3.175   3.250  1.00  0.00     0.031 A 
ATOM     42  C   UNL     1       6.985   3.827   4.365  1.00  0.00     0.074 A 
ATOM     43  C   UNL     1       6.847   2.440   2.325  1.00  0.00     0.049 A 
ATOM     44  N   UNL     1       8.275   3.875   4.569  1.00  0.00    -0.248 NA
ATOM     45  C   UNL     1       6.188   4.519   5.394  1.00  0.00     0.031 C 
ATOM     46  C   UNL     1       6.217   1.702   1.233  1.00  0.00     0.029 A 
ATOM     47  N   UNL     1       8.191   2.203   2.163  1.00  0.00    -0.354 N 
ATOM     48  C   UNL     1       8.442   4.609   5.737  1.00  0.00     0.074 A 
ATOM     49  C   UNL     1       7.128   5.001   6.190  1.00  0.00     0.031 C 
ATOM     50  C   UNL     1       7.178   1.107   0.501  1.00  0.00     0.029 A 
ATOM     51  C   UNL     1       8.489   1.446   1.056  1.00  0.00     0.049 A 
ATOM     52  H   UNL     1       8.876   2.544   2.782  1.00  0.00     0.167 HD
ATOM     53  C   UNL     1       9.586   4.931   6.382  1.00  0.00     0.037 A 
ATOM     54  C   UNL     1       9.685   1.095   0.542  1.00  0.00     0.037 A 
ATOM     55  C   UNL     1      10.897   4.553   5.937  1.00  0.00     0.049 A 
ATOM     56  C   UNL     1      10.953   1.543   1.227  1.00  0.00     0.074 A 
ATOM     57  C   UNL     1      12.119   4.828   6.524  1.00  0.00     0.029 A 
ATOM     58  N   UNL     1      11.155   3.826   4.786  1.00  0.00    -0.354 N 
ATOM     59  N   UNL     1      11.101   2.226   2.337  1.00  0.00    -0.248 NA
ATOM     60  C   UNL     1      12.223   1.175   0.580  1.00  0.00     0.031 C 
ATOM     61  C   UNL     1      13.122   4.303   5.703  1.00  0.00     0.029 A 
ATOM     62  C   UNL     1      12.521   3.663   4.632  1.00  0.00     0.049 A 
ATOM     63  H   UNL     1      10.470   3.478   4.171  1.00  0.00     0.167 HD
ATOM     64  C   UNL     1      12.473   2.341   2.536  1.00  0.00     0.074 A 
ATOM     65  C   UNL     1      13.115   1.653   1.436  1.00  0.00     0.031 C 
ATOM     66  C   UNL     1      13.142   2.960   3.539  1.00  0.00     0.037 A 
BRANCH  53  67
ATOM     67  C   UNL     1       9.459   5.770   7.616  1.00  0.00     0.057 A 
ATOM     68  C   UNL     1       8.966   5.247   8.819  1.00  0.00     0.134 A 
ATOM     69  C   UNL     1       9.829   7.120   7.598  1.00  0.00     0.134 A 
ATOM     70  F   UNL     1       8.568   3.968   8.892  1.00  0.00    -0.206 F 
ATOM     71  C   UNL     1       8.826   6.045   9.955  1.00  0.00     0.040 A 
ATOM     72  C   UNL     1       9.717   7.921   8.734  1.00  0.00     0.040 A 
ATOM     73  F   UNL     1      10.303   7.681   6.475  1.00  0.00    -0.206 F 
ATOM     74  C   UNL     1       9.208   7.385   9.915  1.00  0.00     0.006 A 
ENDBRANCH  53  67
BRANCH  54  75
ATOM     75  C   UNL     1       9.760   0.293  -0.706  1.00  0.00     0.057 A 
ATOM     76  C   UNL     1      10.231  -1.026  -0.695  1.00  0.00     0.134 A 
ATOM     77  C   UNL     1       9.413   0.842  -1.946  1.00  0.00     0.134 A 
ATOM     78  F   UNL     1      10.612  -1.596   0.458  1.00  0.00    -0.206 F 
ATOM     79  C   UNL     1      10.369  -1.764  -1.872  1.00  0.00     0.040 A 
ATOM     80  C   UNL     1       9.523   0.108  -3.128  1.00  0.00     0.040 A 
ATOM     81  F   UNL     1       8.968   2.105  -2.027  1.00  0.00    -0.206 F 
ATOM     82  C   UNL     1      10.009  -1.198  -3.094  1.00  0.00     0.006 A 
ENDBRANCH  54  75
BRANCH  66  83
ATOM     83  C   UNL     1      14.641   2.887   3.526  1.00  0.00     0.057 A 
ATOM     84  C   UNL     1      15.411   3.639   2.630  1.00  0.00     0.134 A 
ATOM     85  C   UNL     1      15.322   2.102   4.465  1.00  0.00     0.134 A 
ATOM     86  F   UNL     1      14.819   4.405   1.701  1.00  0.00    -0.206 F 
ATOM     87  C   UNL     1      16.806   3.598   2.657  1.00  0.00     0.040 A 
ATOM     88  C   UNL     1      16.716   2.071   4.518  1.00  0.00     0.040 A 
ATOM     89  F   UNL     1      14.643   1.368   5.360  1.00  0.00    -0.206 F 
ATOM     90  C   UNL     1      17.462   2.818   3.609  1.00  0.00     0.006 A 
ENDBRANCH  66  83
ENDBRANCH  40  41
ENDBRANCH  33  35
ENDBRANCH  32  33
ENDBRANCH  31  32
ENDBRANCH  30  31
ENDBRANCH  29  30
ENDBRANCH  28  29
ENDBRANCH   1  28
TORSDOF 20
