REMARK SMILES C=C1C(=O)O[C@H]2[C@@H]1[C@@H](OC(=O)[C@]1(C)O[C@@H]1C)[C@@H](OC(C)=O)/C(C(=O)OCCOCCOCCOC(=O)c1ccc(-c3c4nc(c(-c5c(F)cccc5F)c5ccc([nH]5)c(-c5c(F)cccc5F)c5nc(c(-c6c(F)cccc6F)c6ccc3[nH]6)C=C5)C=C4)cc1)=C/[C@@H]1O[C@@H]1[C@]1(C)O[C@H]21
REMARK SMILES IDX 28 1 27 2 26 3 25 4 23 5 24 6 22 7 91 8 92 9 94 10 93 11
REMARK SMILES IDX 95 12 98 13 97 14 96 15 6 16 1 17 2 18 3 19 7 20 5 21 4 22
REMARK SMILES IDX 17 24 8 25 9 27 10 28 11 29 12 30 14 31 15 32 13 33 16 34
REMARK SMILES IDX 18 35 19 36 20 37 21 38 29 39 30 40 31 41 32 42 33 43 34 44
REMARK SMILES IDX 35 45 36 46 37 47 38 48 90 49 39 50 89 51 40 52 41 53 42 54
REMARK SMILES IDX 83 55 43 56 88 57 82 58 84 59 44 60 87 61 81 62 80 63 45 65
REMARK SMILES IDX 71 66 54 67 70 68 55 69 58 70 69 71 85 72 56 73 57 74 68 76
REMARK SMILES IDX 86 77 59 78 46 79 47 80 52 81 48 82 49 83 51 84 53 85 50 86
REMARK SMILES IDX 72 87 73 88 78 89 74 90 75 91 77 92 79 93 76 94 60 95 61 96
REMARK SMILES IDX 66 97 62 98 63 99 65 100 67 101 64 102
REMARK H PARENT 84 64 58 75
REMARK Flexibility Score: 90.00
ROOT
ATOM      1  O   UNL     1      -3.175   0.269   5.092  1.00  0.00    -0.376 OA
ENDROOT
BRANCH   1   2
ATOM      2  C   UNL     1      -2.394   1.192   4.332  1.00  0.00     0.202 C 
BRANCH   2   3
ATOM      3  C   UNL     1      -1.625   2.342   5.018  1.00  0.00     0.261 C 
BRANCH   3   4
ATOM      4  O   UNL     1      -2.334   3.026   6.067  1.00  0.00    -0.460 OA
BRANCH   4   5
ATOM      5  C   UNL     1      -3.491   3.619   5.698  1.00  0.00     0.337 C 
ATOM      6  O   UNL     1      -3.827   3.848   4.550  1.00  0.00    -0.246 OA
BRANCH   5   7
ATOM      7  C   UNL     1      -4.340   3.868   6.889  1.00  0.00     0.080 C 
ATOM      8  C   UNL     1      -3.904   4.532   7.978  1.00  0.00     0.022 C 
BRANCH   8   9
ATOM      9  C   UNL     1      -2.726   5.360   8.200  1.00  0.00     0.174 C 
ATOM     10  C   UNL     1      -2.250   6.472   7.291  1.00  0.00     0.186 C 
ATOM     11  O   UNL     1      -3.036   6.757   8.438  1.00  0.00    -0.362 OA
BRANCH  10  12
ATOM     12  C   UNL     1      -2.855   6.550   5.886  1.00  0.00     0.125 C 
ATOM     13  C   UNL     1      -4.281   6.631   5.245  1.00  0.00     0.195 C 
ATOM     14  O   UNL     1      -3.532   7.788   5.628  1.00  0.00    -0.359 OA
ATOM     15  C   UNL     1      -1.772   6.257   4.853  1.00  0.00     0.048 C 
BRANCH  13  16
ATOM     16  C   UNL     1      -5.654   6.546   5.899  1.00  0.00     0.220 C 
ATOM     17  C   UNL     1      -6.555   5.955   2.804  1.00  0.00     0.021 C 
ATOM     18  C   UNL     1      -6.915   6.217   4.058  1.00  0.00     0.041 C 
ATOM     19  C   UNL     1      -7.119   7.636   4.440  1.00  0.00     0.334 C 
ATOM     20  C   UNL     1      -6.658   5.495   5.330  1.00  0.00     0.115 CG0
ATOM     21  O   UNL     1      -6.373   7.789   5.587  1.00  0.00    -0.455 OA
ATOM     22  O   UNL     1      -7.782   8.453   3.871  1.00  0.00    -0.247 OA
ATOM     23  G   UNL     1      -6.564   3.921   5.459  1.00  0.00     0.000 G0
ENDBRANCH  13  16
ENDBRANCH  10  12
ENDBRANCH   8   9
BRANCH   7  24
ATOM     24  C   UNL     1      -5.819   3.578   6.805  1.00  0.00     0.255 C 
BRANCH  24  25
ATOM     25  C   UNL     1      -6.564   3.921   5.459  1.00  0.00     0.234 CG0
ATOM     26  G   UNL     1      -6.658   5.495   5.330  1.00  0.00     0.000 G0
BRANCH  25  27
ATOM     27  O   UNL     1      -6.277   3.252   4.179  1.00  0.00    -0.455 OA
BRANCH  27  28
ATOM     28  C   UNL     1      -6.298   1.883   4.101  1.00  0.00     0.341 C 
ATOM     29  O   UNL     1      -6.332   1.169   5.089  1.00  0.00    -0.249 OA
BRANCH  28  30
ATOM     30  C   UNL     1      -6.439   1.255   2.726  1.00  0.00     0.188 C 
ATOM     31  O   UNL     1      -5.152   1.020   2.098  1.00  0.00    -0.354 OA
ATOM     32  C   UNL     1      -6.080   1.815   1.372  1.00  0.00     0.160 C 
ATOM     33  C   UNL     1      -7.364   0.076   2.596  1.00  0.00     0.058 C 
ATOM     34  C   UNL     1      -5.690   3.197   1.103  1.00  0.00     0.042 C 
ENDBRANCH  28  30
ENDBRANCH  27  28
ENDBRANCH  25  27
ENDBRANCH  24  25
BRANCH  24  35
ATOM     35  O   UNL     1      -6.101   2.279   7.371  1.00  0.00    -0.453 OA
BRANCH  35  36
ATOM     36  C   UNL     1      -6.529   2.014   8.630  1.00  0.00     0.303 C 
ATOM     37  C   UNL     1      -7.088   3.106   9.493  1.00  0.00     0.139 C 
ATOM     38  O   UNL     1      -6.454   0.875   9.082  1.00  0.00    -0.253 OA
ENDBRANCH  35  36
ENDBRANCH  24  35
ENDBRANCH   7  24
ENDBRANCH   5   7
ENDBRANCH   4   5
ENDBRANCH   3   4
ENDBRANCH   2   3
ENDBRANCH   1   2
BRANCH   1  39
ATOM     39  C   UNL     1      -3.312   0.488   6.487  1.00  0.00     0.188 C 
BRANCH  39  40
ATOM     40  C   UNL     1      -4.190  -0.531   7.209  1.00  0.00     0.188 C 
BRANCH  40  41
ATOM     41  O   UNL     1      -3.639  -1.837   7.306  1.00  0.00    -0.376 OA
BRANCH  41  42
ATOM     42  C   UNL     1      -3.529  -2.531   6.073  1.00  0.00     0.202 C 
BRANCH  42  43
ATOM     43  C   UNL     1      -4.822  -3.143   5.514  1.00  0.00     0.261 C 
BRANCH  43  44
ATOM     44  O   UNL     1      -5.938  -2.251   5.335  1.00  0.00    -0.460 OA
BRANCH  44  45
ATOM     45  C   UNL     1      -6.947  -2.364   6.242  1.00  0.00     0.338 C 
ATOM     46  O   UNL     1      -6.978  -3.065   7.238  1.00  0.00    -0.246 OA
BRANCH  45  47
ATOM     47  C   UNL     1      -8.094  -1.537   5.805  1.00  0.00     0.060 A 
ATOM     48  C   UNL     1      -8.434  -0.367   6.490  1.00  0.00     0.016 A 
ATOM     49  C   UNL     1      -8.859  -1.944   4.714  1.00  0.00     0.016 A 
ATOM     50  C   UNL     1      -9.480   0.453   6.035  1.00  0.00     0.010 A 
ATOM     51  C   UNL     1      -9.909  -1.133   4.262  1.00  0.00     0.010 A 
ATOM     52  C   UNL     1     -10.221   0.086   4.904  1.00  0.00    -0.014 A 
BRANCH  52  53
ATOM     53  C   UNL     1     -11.430   0.848   4.471  1.00  0.00     0.031 A 
ATOM     54  C   UNL     1     -12.772   0.230   4.756  1.00  0.00     0.074 A 
ATOM     55  C   UNL     1     -11.378   2.020   3.803  1.00  0.00     0.049 A 
ATOM     56  N   UNL     1     -13.966   0.619   4.393  1.00  0.00    -0.248 NA
ATOM     57  C   UNL     1     -12.753  -1.012   5.546  1.00  0.00     0.031 C 
ATOM     58  C   UNL     1     -10.169   2.765   3.462  1.00  0.00     0.029 A 
ATOM     59  N   UNL     1     -12.393   2.786   3.267  1.00  0.00    -0.354 N 
ATOM     60  C   UNL     1     -14.837  -0.335   4.901  1.00  0.00     0.074 A 
ATOM     61  C   UNL     1     -14.030  -1.351   5.540  1.00  0.00     0.031 C 
ATOM     62  C   UNL     1     -10.506   3.864   2.759  1.00  0.00     0.029 A 
ATOM     63  C   UNL     1     -11.958   3.899   2.582  1.00  0.00     0.049 A 
ATOM     64  H   UNL     1     -13.345   2.556   3.365  1.00  0.00     0.167 HD
ATOM     65  C   UNL     1     -16.189  -0.360   4.871  1.00  0.00     0.037 A 
ATOM     66  C   UNL     1     -12.649   4.830   1.888  1.00  0.00     0.037 A 
ATOM     67  C   UNL     1     -17.011   0.638   4.248  1.00  0.00     0.049 A 
ATOM     68  C   UNL     1     -14.157   4.739   1.798  1.00  0.00     0.074 A 
ATOM     69  C   UNL     1     -18.391   0.703   4.193  1.00  0.00     0.029 A 
ATOM     70  N   UNL     1     -16.528   1.742   3.565  1.00  0.00    -0.354 N 
ATOM     71  N   UNL     1     -14.970   3.864   2.337  1.00  0.00    -0.248 NA
ATOM     72  C   UNL     1     -14.844   5.775   1.005  1.00  0.00     0.031 C 
ATOM     73  C   UNL     1     -18.745   1.820   3.431  1.00  0.00     0.029 A 
ATOM     74  C   UNL     1     -17.585   2.481   3.062  1.00  0.00     0.049 A 
ATOM     75  H   UNL     1     -15.576   1.968   3.454  1.00  0.00     0.167 HD
ATOM     76  C   UNL     1     -16.257   4.268   1.987  1.00  0.00     0.074 A 
ATOM     77  C   UNL     1     -16.119   5.470   1.196  1.00  0.00     0.031 C 
ATOM     78  C   UNL     1     -17.445   3.693   2.297  1.00  0.00     0.037 A 
BRANCH  65  79
ATOM     79  C   UNL     1     -16.854  -1.528   5.534  1.00  0.00     0.057 A 
ATOM     80  C   UNL     1     -16.846  -1.686   6.926  1.00  0.00     0.134 A 
ATOM     81  C   UNL     1     -17.491  -2.513   4.771  1.00  0.00     0.134 A 
ATOM     82  F   UNL     1     -16.231  -0.786   7.709  1.00  0.00    -0.206 F 
ATOM     83  C   UNL     1     -17.415  -2.804   7.535  1.00  0.00     0.040 A 
ATOM     84  C   UNL     1     -18.091  -3.620   5.370  1.00  0.00     0.040 A 
ATOM     85  F   UNL     1     -17.533  -2.420   3.433  1.00  0.00    -0.206 F 
ATOM     86  C   UNL     1     -18.045  -3.772   6.755  1.00  0.00     0.006 A 
ENDBRANCH  65  79
BRANCH  66  87
ATOM     87  C   UNL     1     -11.949   5.954   1.202  1.00  0.00     0.057 A 
ATOM     88  C   UNL     1     -12.129   7.280   1.621  1.00  0.00     0.134 A 
ATOM     89  C   UNL     1     -11.171   5.745   0.057  1.00  0.00     0.134 A 
ATOM     90  F   UNL     1     -12.894   7.550   2.688  1.00  0.00    -0.206 F 
ATOM     91  C   UNL     1     -11.592   8.355   0.909  1.00  0.00     0.040 A 
ATOM     92  C   UNL     1     -10.608   6.811  -0.652  1.00  0.00     0.040 A 
ATOM     93  F   UNL     1     -10.962   4.503  -0.404  1.00  0.00    -0.206 F 
ATOM     94  C   UNL     1     -10.829   8.121  -0.233  1.00  0.00     0.006 A 
ENDBRANCH  66  87
BRANCH  78  95
ATOM     95  C   UNL     1     -18.703   4.373   1.833  1.00  0.00     0.057 A 
ATOM     96  C   UNL     1     -19.092   4.385   0.488  1.00  0.00     0.134 A 
ATOM     97  C   UNL     1     -19.577   4.959   2.760  1.00  0.00     0.134 A 
ATOM     98  F   UNL     1     -18.300   3.849  -0.454  1.00  0.00    -0.206 F 
ATOM     99  C   UNL     1     -20.295   4.966   0.080  1.00  0.00     0.040 A 
ATOM    100  C   UNL     1     -20.795   5.518   2.369  1.00  0.00     0.040 A 
ATOM    101  F   UNL     1     -19.273   4.973   4.067  1.00  0.00    -0.206 F 
ATOM    102  C   UNL     1     -21.155   5.526   1.024  1.00  0.00     0.006 A 
ENDBRANCH  78  95
ENDBRANCH  52  53
ENDBRANCH  45  47
ENDBRANCH  44  45
ENDBRANCH  43  44
ENDBRANCH  42  43
ENDBRANCH  41  42
ENDBRANCH  40  41
ENDBRANCH  39  40
ENDBRANCH   1  39
TORSDOF 22
