REMARK SMILES CC[C@@](C)(Nc1nccn(C2CC2)c1=O)C(=O)OCCOCCOCCOC(=O)c1ccc(-c2c3nc(c(-c4c(F)cccc4F)c4ccc([nH]4)c(-c4c(F)cccc4F)c4nc(c(-c5c(F)cccc5F)c5ccc2[nH]5)C=C4)C=C3)cc1
REMARK SMILES IDX 22 1 21 2 20 3 19 4 18 5 16 6 17 7 3 8 4 9 2 10 1 11 5 12
REMARK SMILES IDX 6 14 7 15 14 16 8 17 10 18 15 19 9 20 11 21 12 22 13 23
REMARK SMILES IDX 23 24 24 25 25 26 26 27 27 28 28 29 29 30 30 31 31 32 83 33
REMARK SMILES IDX 32 34 82 35 33 36 34 37 35 38 76 39 36 40 81 41 75 42 77 43
REMARK SMILES IDX 37 44 80 45 74 46 73 47 38 49 64 50 47 51 63 52 48 53 51 54
REMARK SMILES IDX 62 55 78 56 49 57 50 58 61 60 79 61 52 62 39 63 40 64 45 65
REMARK SMILES IDX 41 66 42 67 44 68 46 69 43 70 65 71 66 72 71 73 67 74 68 75
REMARK SMILES IDX 70 76 72 77 69 78 53 79 54 80 59 81 55 82 56 83 58 84 60 85
REMARK SMILES IDX 57 86
REMARK H PARENT 5 13 77 48 51 59
REMARK Flexibility Score: inf
ROOT
ATOM      1  C   UNL     1       4.662   1.422  -1.295  1.00  0.00     0.188 C 
ENDROOT
BRANCH   1   2
ATOM      2  O   UNL     1       5.794   0.813  -1.903  1.00  0.00    -0.376 OA
BRANCH   2   3
ATOM      3  C   UNL     1       5.558   0.166  -3.162  1.00  0.00     0.202 C 
BRANCH   3   4
ATOM      4  C   UNL     1       4.379  -0.807  -3.189  1.00  0.00     0.261 C 
BRANCH   4   5
ATOM      5  O   UNL     1       3.134  -0.079  -3.183  1.00  0.00    -0.462 OA
BRANCH   5   6
ATOM      6  C   UNL     1       2.060  -0.778  -2.758  1.00  0.00     0.331 C 
ATOM      7  O   UNL     1       2.149  -1.934  -2.341  1.00  0.00    -0.249 OA
BRANCH   6   8
ATOM      8  C   UNL     1       0.728   0.006  -2.704  1.00  0.00     0.134 C 
ATOM      9  C   UNL     1      -0.376  -1.012  -3.051  1.00  0.00     0.047 C 
BRANCH   8  10
ATOM     10  C   UNL     1       0.502   0.587  -1.271  1.00  0.00     0.037 C 
ATOM     11  C   UNL     1       0.759  -0.321  -0.079  1.00  0.00     0.007 C 
ENDBRANCH   8  10
BRANCH   8  12
ATOM     12  N   UNL     1       0.514   1.161  -3.580  1.00  0.00    -0.350 N 
ATOM     13  H   UNL     1      -0.319   1.641  -3.366  1.00  0.00     0.163 HD
BRANCH  12  14
ATOM     14  C   UNL     1       1.193   1.738  -4.632  1.00  0.00     0.193 A 
ATOM     15  N   UNL     1       2.138   1.181  -5.329  1.00  0.00    -0.233 NA
ATOM     16  C   UNL     1       0.666   3.175  -4.977  1.00  0.00     0.293 A 
ATOM     17  C   UNL     1       2.733   1.949  -6.298  1.00  0.00     0.131 A 
ATOM     18  N   UNL     1       1.352   3.841  -5.986  1.00  0.00    -0.308 N 
ATOM     19  O   UNL     1      -0.328   3.562  -4.363  1.00  0.00    -0.265 OA
ATOM     20  C   UNL     1       2.394   3.204  -6.619  1.00  0.00     0.110 A 
BRANCH  18  21
ATOM     21  C   UNL     1       0.927   5.130  -6.486  1.00  0.00     0.090 C 
ATOM     22  C   UNL     1       0.366   6.223  -5.610  1.00  0.00     0.028 C 
ATOM     23  C   UNL     1       1.712   6.398  -6.243  1.00  0.00     0.028 C 
ENDBRANCH  18  21
ENDBRANCH  12  14
ENDBRANCH   8  12
ENDBRANCH   6   8
ENDBRANCH   5   6
ENDBRANCH   4   5
ENDBRANCH   3   4
ENDBRANCH   2   3
ENDBRANCH   1   2
BRANCH   1  24
ATOM     24  C   UNL     1       4.161   2.718  -1.933  1.00  0.00     0.188 C 
BRANCH  24  25
ATOM     25  O   UNL     1       4.360   2.851  -3.336  1.00  0.00    -0.376 OA
BRANCH  25  26
ATOM     26  C   UNL     1       5.504   3.635  -3.686  1.00  0.00     0.202 C 
BRANCH  26  27
ATOM     27  C   UNL     1       5.149   5.109  -3.909  1.00  0.00     0.261 C 
BRANCH  27  28
ATOM     28  O   UNL     1       4.640   5.697  -2.700  1.00  0.00    -0.460 OA
BRANCH  28  29
ATOM     29  C   UNL     1       3.293   5.623  -2.564  1.00  0.00     0.338 C 
ATOM     30  O   UNL     1       2.492   5.318  -3.429  1.00  0.00    -0.246 OA
BRANCH  29  31
ATOM     31  C   UNL     1       2.895   5.761  -1.147  1.00  0.00     0.060 A 
ATOM     32  C   UNL     1       3.771   6.246  -0.172  1.00  0.00     0.016 A 
ATOM     33  C   UNL     1       1.618   5.301  -0.789  1.00  0.00     0.016 A 
ATOM     34  C   UNL     1       3.362   6.280   1.158  1.00  0.00     0.010 A 
ATOM     35  C   UNL     1       1.203   5.353   0.537  1.00  0.00     0.010 A 
ATOM     36  C   UNL     1       2.071   5.853   1.513  1.00  0.00    -0.014 A 
BRANCH  36  37
ATOM     37  C   UNL     1       1.585   6.090   2.885  1.00  0.00     0.031 A 
ATOM     38  C   UNL     1       1.506   4.988   3.890  1.00  0.00     0.074 A 
ATOM     39  C   UNL     1       1.214   7.345   3.196  1.00  0.00     0.049 A 
ATOM     40  N   UNL     1       1.253   5.065   5.170  1.00  0.00    -0.248 NA
ATOM     41  C   UNL     1       1.728   3.622   3.396  1.00  0.00     0.031 C 
ATOM     42  C   UNL     1       1.201   8.471   2.257  1.00  0.00     0.029 A 
ATOM     43  N   UNL     1       0.798   7.889   4.379  1.00  0.00    -0.354 N 
ATOM     44  C   UNL     1       1.309   3.763   5.646  1.00  0.00     0.074 A 
ATOM     45  C   UNL     1       1.568   2.909   4.505  1.00  0.00     0.031 C 
ATOM     46  C   UNL     1       0.838   9.582   2.913  1.00  0.00     0.029 A 
ATOM     47  C   UNL     1       0.584   9.242   4.307  1.00  0.00     0.049 A 
ATOM     48  H   UNL     1       0.666   7.362   5.200  1.00  0.00     0.167 HD
ATOM     49  C   UNL     1       1.172   3.333   6.923  1.00  0.00     0.037 A 
ATOM     50  C   UNL     1       0.244  10.114   5.272  1.00  0.00     0.037 A 
ATOM     51  C   UNL     1       0.881   4.201   8.037  1.00  0.00     0.049 A 
ATOM     52  C   UNL     1       0.085   9.605   6.674  1.00  0.00     0.074 A 
ATOM     53  C   UNL     1       0.763   3.882   9.379  1.00  0.00     0.029 A 
ATOM     54  N   UNL     1       0.640   5.565   7.929  1.00  0.00    -0.354 N 
ATOM     55  N   UNL     1       0.250   8.389   7.136  1.00  0.00    -0.248 NA
ATOM     56  C   UNL     1      -0.293  10.594   7.689  1.00  0.00     0.031 C 
ATOM     57  C   UNL     1       0.407   5.045  10.075  1.00  0.00     0.029 A 
ATOM     58  C   UNL     1       0.346   6.097   9.175  1.00  0.00     0.049 A 
ATOM     59  H   UNL     1       0.673   6.079   7.090  1.00  0.00     0.167 HD
ATOM     60  C   UNL     1       0.017   8.468   8.501  1.00  0.00     0.074 A 
ATOM     61  C   UNL     1      -0.277   9.858   8.791  1.00  0.00     0.031 C 
ATOM     62  C   UNL     1       0.042   7.482   9.432  1.00  0.00     0.037 A 
BRANCH  49  63
ATOM     63  C   UNL     1       1.334   1.861   7.175  1.00  0.00     0.057 A 
ATOM     64  C   UNL     1       0.239   1.067   7.537  1.00  0.00     0.134 A 
ATOM     65  C   UNL     1       2.583   1.232   7.078  1.00  0.00     0.134 A 
ATOM     66  F   UNL     1      -0.984   1.604   7.653  1.00  0.00    -0.206 F 
ATOM     67  C   UNL     1       0.380  -0.300   7.788  1.00  0.00     0.040 A 
ATOM     68  C   UNL     1       2.732  -0.138   7.305  1.00  0.00     0.040 A 
ATOM     69  F   UNL     1       3.671   1.933   6.726  1.00  0.00    -0.206 F 
ATOM     70  C   UNL     1       1.629  -0.907   7.666  1.00  0.00     0.006 A 
ENDBRANCH  49  63
BRANCH  50  71
ATOM     71  C   UNL     1       0.100  11.553   4.952  1.00  0.00     0.057 A 
ATOM     72  C   UNL     1      -0.969  12.029   4.184  1.00  0.00     0.134 A 
ATOM     73  C   UNL     1       1.040  12.486   5.401  1.00  0.00     0.134 A 
ATOM     74  F   UNL     1      -1.894  11.181   3.712  1.00  0.00    -0.206 F 
ATOM     75  C   UNL     1      -1.097  13.383   3.872  1.00  0.00     0.040 A 
ATOM     76  C   UNL     1       0.913  13.846   5.117  1.00  0.00     0.040 A 
ATOM     77  F   UNL     1       2.082  12.089   6.148  1.00  0.00    -0.206 F 
ATOM     78  C   UNL     1      -0.157  14.297   4.346  1.00  0.00     0.006 A 
ENDBRANCH  50  71
BRANCH  62  79
ATOM     79  C   UNL     1      -0.247   7.897  10.844  1.00  0.00     0.057 A 
ATOM     80  C   UNL     1       0.777   7.949  11.797  1.00  0.00     0.134 A 
ATOM     81  C   UNL     1      -1.536   8.263  11.254  1.00  0.00     0.134 A 
ATOM     82  F   UNL     1       2.032   7.608  11.469  1.00  0.00    -0.206 F 
ATOM     83  C   UNL     1       0.531   8.360  13.107  1.00  0.00     0.040 A 
ATOM     84  C   UNL     1      -1.789   8.701  12.554  1.00  0.00     0.040 A 
ATOM     85  F   UNL     1      -2.555   8.253  10.382  1.00  0.00    -0.206 F 
ATOM     86  C   UNL     1      -0.753   8.748  13.486  1.00  0.00     0.006 A 
ENDBRANCH  62  79
ENDBRANCH  36  37
ENDBRANCH  29  31
ENDBRANCH  28  29
ENDBRANCH  27  28
ENDBRANCH  26  27
ENDBRANCH  25  26
ENDBRANCH  24  25
ENDBRANCH   1  24
TORSDOF 21
