REMARK SMILES Cc1ccc(NC(=O)C[N@H+]2CCC[C@@H](C(=O)OCCOCCOCCOC(=O)c3ccc(-c4c5nc(c(-c6c(F)cccc6F)c6ccc([nH]6)c(-c6c(F)cccc6F)c6nc(c(-c7c(F)cccc7F)c7ccc4[nH]7)C=C6)C=C5)cc3)C2)cc1F
REMARK SMILES IDX 21 1 20 2 19 3 18 4 17 5 15 6 16 7 14 8 10 9 11 10 83 11
REMARK SMILES IDX 12 13 13 14 9 15 7 16 6 17 8 19 5 20 1 21 2 22 3 23 85 24
REMARK SMILES IDX 4 25 84 26 86 27 22 28 23 29 24 30 25 31 26 32 27 33 28 34
REMARK SMILES IDX 29 35 30 36 82 37 31 38 81 39 32 40 33 41 34 42 75 43 35 44
REMARK SMILES IDX 80 45 74 46 76 47 36 48 79 49 73 50 72 51 37 53 63 54 46 55
REMARK SMILES IDX 62 56 47 57 50 58 61 59 77 60 48 61 49 62 60 64 78 65 51 66
REMARK SMILES IDX 38 67 39 68 44 69 40 70 41 71 43 72 45 73 42 74 64 75 65 76
REMARK SMILES IDX 70 77 66 78 67 79 69 80 71 81 68 82 52 83 53 84 58 85 54 86
REMARK SMILES IDX 55 87 57 88 59 89 56 90
REMARK H PARENT 10 12 6 18 76 52 50 63
REMARK Flexibility Score: inf
ROOT
ATOM      1  C   UNL     1      -0.702   0.734  -4.591  1.00  0.00     0.188 C 
ENDROOT
BRANCH   1   2
ATOM      2  O   UNL     1      -1.678   1.708  -4.922  1.00  0.00    -0.376 OA
BRANCH   2   3
ATOM      3  C   UNL     1      -2.238   2.466  -3.861  1.00  0.00     0.202 C 
BRANCH   3   4
ATOM      4  C   UNL     1      -2.777   1.732  -2.618  1.00  0.00     0.261 C 
BRANCH   4   5
ATOM      5  O   UNL     1      -2.133   0.493  -2.292  1.00  0.00    -0.463 OA
BRANCH   5   6
ATOM      6  C   UNL     1      -2.642  -0.652  -2.847  1.00  0.00     0.314 C 
ATOM      7  O   UNL     1      -3.702  -0.736  -3.446  1.00  0.00    -0.252 OA
BRANCH   6   8
ATOM      8  C   UNL     1      -1.655  -1.799  -2.633  1.00  0.00     0.154 C 
ATOM      9  N   UNL     1      -1.293  -3.539  -1.012  1.00  0.00    -0.326 N 
ATOM     10  C   UNL     1      -1.123  -4.579  -2.049  1.00  0.00     0.262 C 
ATOM     11  C   UNL     1      -2.270  -2.577  -1.507  1.00  0.00     0.278 C 
ATOM     12  H   UNL     1      -0.404  -3.066  -0.849  1.00  0.00     0.348 HD
ATOM     13  C   UNL     1      -0.586  -3.972  -3.359  1.00  0.00     0.062 C 
ATOM     14  C   UNL     1      -1.357  -2.723  -3.818  1.00  0.00     0.027 C 
BRANCH   9  15
ATOM     15  C   UNL     1      -1.643  -4.101   0.316  1.00  0.00     0.363 C 
BRANCH  15  16
ATOM     16  C   UNL     1      -2.706  -3.310   1.109  1.00  0.00     0.279 C 
ATOM     17  N   UNL     1      -2.563  -2.005   1.515  1.00  0.00    -0.321 N 
ATOM     18  H   UNL     1      -3.331  -1.660   2.025  1.00  0.00     0.170 HD
ATOM     19  O   UNL     1      -3.814  -3.829   1.310  1.00  0.00    -0.268 OA
BRANCH  17  20
ATOM     20  C   UNL     1      -1.525  -1.068   1.341  1.00  0.00     0.044 A 
ATOM     21  C   UNL     1       1.425   1.899   0.262  1.00  0.00     0.047 C 
ATOM     22  C   UNL     1       0.392   0.902   0.690  1.00  0.00    -0.015 A 
ATOM     23  C   UNL     1      -0.955   1.248   0.808  1.00  0.00     0.008 A 
ATOM     24  C   UNL     1       0.762  -0.418   0.956  1.00  0.00     0.128 A 
ATOM     25  C   UNL     1      -1.902   0.274   1.151  1.00  0.00     0.026 A 
ATOM     26  C   UNL     1      -0.178  -1.398   1.275  1.00  0.00     0.065 A 
ATOM     27  F   UNL     1       2.055  -0.767   0.886  1.00  0.00    -0.207 F 
ENDBRANCH  17  20
ENDBRANCH  15  16
ENDBRANCH   9  15
ENDBRANCH   6   8
ENDBRANCH   5   6
ENDBRANCH   4   5
ENDBRANCH   3   4
ENDBRANCH   2   3
ENDBRANCH   1   2
BRANCH   1  28
ATOM     28  C   UNL     1       0.417   1.045  -3.571  1.00  0.00     0.188 C 
BRANCH  28  29
ATOM     29  O   UNL     1       0.446   2.404  -3.195  1.00  0.00    -0.376 OA
BRANCH  29  30
ATOM     30  C   UNL     1       1.459   3.250  -3.692  1.00  0.00     0.202 C 
BRANCH  30  31
ATOM     31  C   UNL     1       1.816   3.330  -5.180  1.00  0.00     0.261 C 
BRANCH  31  32
ATOM     32  O   UNL     1       0.958   2.676  -6.101  1.00  0.00    -0.460 OA
BRANCH  32  33
ATOM     33  C   UNL     1       1.366   1.432  -6.402  1.00  0.00     0.338 C 
ATOM     34  O   UNL     1       2.226   0.783  -5.802  1.00  0.00    -0.246 OA
BRANCH  33  35
ATOM     35  C   UNL     1       0.685   0.856  -7.565  1.00  0.00     0.060 A 
ATOM     36  C   UNL     1       1.024  -0.493  -7.787  1.00  0.00     0.016 A 
ATOM     37  C   UNL     1       0.448   1.765  -8.584  1.00  0.00     0.016 A 
ATOM     38  C   UNL     1       1.615  -0.795  -8.982  1.00  0.00     0.010 A 
ATOM     39  C   UNL     1       1.038   1.466  -9.774  1.00  0.00     0.010 A 
ATOM     40  C   UNL     1       1.717   0.246  -9.897  1.00  0.00    -0.014 A 
BRANCH  40  41
ATOM     41  C   UNL     1       2.498   0.116 -11.089  1.00  0.00     0.031 A 
ATOM     42  C   UNL     1       1.889  -0.680 -12.150  1.00  0.00     0.074 A 
ATOM     43  C   UNL     1       3.686   0.746 -11.157  1.00  0.00     0.049 A 
ATOM     44  N   UNL     1       2.556  -1.347 -13.016  1.00  0.00    -0.248 NA
ATOM     45  C   UNL     1       0.442  -0.895 -12.223  1.00  0.00     0.031 C 
ATOM     46  C   UNL     1       4.460   1.049 -12.344  1.00  0.00     0.029 A 
ATOM     47  N   UNL     1       4.505   1.139 -10.101  1.00  0.00    -0.354 N 
ATOM     48  C   UNL     1       1.645  -1.773 -13.953  1.00  0.00     0.074 A 
ATOM     49  C   UNL     1       0.349  -1.623 -13.338  1.00  0.00     0.031 C 
ATOM     50  C   UNL     1       5.709   1.385 -11.975  1.00  0.00     0.029 A 
ATOM     51  C   UNL     1       5.839   1.150 -10.546  1.00  0.00     0.049 A 
ATOM     52  H   UNL     1       4.201   1.370  -9.193  1.00  0.00     0.167 HD
ATOM     53  C   UNL     1       2.086  -2.002 -15.218  1.00  0.00     0.037 A 
ATOM     54  C   UNL     1       6.755   0.294  -9.990  1.00  0.00     0.037 A 
ATOM     55  C   UNL     1       3.524  -1.754 -15.303  1.00  0.00     0.049 A 
ATOM     56  C   UNL     1       7.097  -0.884 -10.863  1.00  0.00     0.074 A 
ATOM     57  C   UNL     1       4.266  -0.615 -15.576  1.00  0.00     0.029 A 
ATOM     58  N   UNL     1       4.384  -2.623 -14.665  1.00  0.00    -0.354 N 
ATOM     59  N   UNL     1       6.574  -1.098 -12.036  1.00  0.00    -0.248 NA
ATOM     60  C   UNL     1       7.989  -1.960 -10.433  1.00  0.00     0.031 C 
ATOM     61  C   UNL     1       5.576  -0.805 -15.047  1.00  0.00     0.029 A 
ATOM     62  C   UNL     1       5.633  -2.064 -14.475  1.00  0.00     0.049 A 
ATOM     63  H   UNL     1       4.138  -3.533 -14.380  1.00  0.00     0.167 HD
ATOM     64  C   UNL     1       7.006  -2.302 -12.505  1.00  0.00     0.074 A 
ATOM     65  C   UNL     1       7.877  -2.816 -11.460  1.00  0.00     0.031 C 
ATOM     66  C   UNL     1       6.617  -2.808 -13.707  1.00  0.00     0.037 A 
BRANCH  53  67
ATOM     67  C   UNL     1       1.175  -2.117 -16.405  1.00  0.00     0.057 A 
ATOM     68  C   UNL     1       1.604  -1.660 -17.663  1.00  0.00     0.134 A 
ATOM     69  C   UNL     1      -0.132  -2.635 -16.378  1.00  0.00     0.134 A 
ATOM     70  F   UNL     1       2.848  -1.204 -17.860  1.00  0.00    -0.206 F 
ATOM     71  C   UNL     1       0.774  -1.644 -18.788  1.00  0.00     0.040 A 
ATOM     72  C   UNL     1      -0.991  -2.579 -17.485  1.00  0.00     0.040 A 
ATOM     73  F   UNL     1      -0.620  -3.260 -15.299  1.00  0.00    -0.206 F 
ATOM     74  C   UNL     1      -0.539  -2.076 -18.696  1.00  0.00     0.006 A 
ENDBRANCH  53  67
BRANCH  54  75
ATOM     75  C   UNL     1       6.621   0.208  -8.514  1.00  0.00     0.057 A 
ATOM     76  C   UNL     1       6.900   1.389  -7.808  1.00  0.00     0.134 A 
ATOM     77  C   UNL     1       5.712  -0.702  -7.966  1.00  0.00     0.134 A 
ATOM     78  F   UNL     1       7.828   2.247  -8.258  1.00  0.00    -0.206 F 
ATOM     79  C   UNL     1       6.097   1.786  -6.750  1.00  0.00     0.040 A 
ATOM     80  C   UNL     1       4.910  -0.318  -6.900  1.00  0.00     0.040 A 
ATOM     81  F   UNL     1       5.475  -1.882  -8.556  1.00  0.00    -0.206 F 
ATOM     82  C   UNL     1       5.074   0.948  -6.331  1.00  0.00     0.006 A 
ENDBRANCH  54  75
BRANCH  66  83
ATOM     83  C   UNL     1       7.189  -4.083 -14.233  1.00  0.00     0.057 A 
ATOM     84  C   UNL     1       8.568  -4.328 -14.204  1.00  0.00     0.134 A 
ATOM     85  C   UNL     1       6.400  -5.055 -14.871  1.00  0.00     0.134 A 
ATOM     86  F   UNL     1       9.421  -3.425 -13.695  1.00  0.00    -0.206 F 
ATOM     87  C   UNL     1       9.121  -5.506 -14.705  1.00  0.00     0.040 A 
ATOM     88  C   UNL     1       6.949  -6.204 -15.436  1.00  0.00     0.040 A 
ATOM     89  F   UNL     1       5.066  -4.947 -14.950  1.00  0.00    -0.206 F 
ATOM     90  C   UNL     1       8.311  -6.446 -15.332  1.00  0.00     0.006 A 
ENDBRANCH  66  83
ENDBRANCH  40  41
ENDBRANCH  33  35
ENDBRANCH  32  33
ENDBRANCH  31  32
ENDBRANCH  30  31
ENDBRANCH  29  30
ENDBRANCH  28  29
ENDBRANCH   1  28
TORSDOF 20
