REMARK SMILES O=C(OCCOCCOCCOC(=O)c1ccc(-n2cc(CSc3nc4ccccc4c(=O)n3-c3ccccc3)nn2)cc1)c1ccc(-c2c3nc(c(-c4c(F)cccc4F)c4ccc([nH]4)c(-c4c(F)cccc4F)c4nc(c(-c5c(F)cccc5F)c5ccc2[nH]5)C=C4)C=C3)cc1
REMARK SMILES IDX 9 1 8 2 7 3 6 4 5 5 4 6 3 7 2 8 1 9 45 10 46 11 98 12 47 13
REMARK SMILES IDX 97 14 48 15 49 16 50 17 91 18 51 19 96 20 90 21 92 22 52 23
REMARK SMILES IDX 95 24 89 25 88 26 53 28 79 29 62 30 78 31 63 32 66 33 77 34
REMARK SMILES IDX 93 35 64 36 65 37 76 39 94 40 67 41 54 42 55 43 60 44 56 45
REMARK SMILES IDX 57 46 59 47 61 48 58 49 80 50 81 51 86 52 82 53 83 54 85 55
REMARK SMILES IDX 87 56 84 57 68 58 69 59 74 60 70 61 71 62 73 63 75 64 72 65
REMARK SMILES IDX 10 66 11 67 12 68 13 69 14 70 15 71 16 72 44 73 17 74 43 75
REMARK SMILES IDX 18 76 19 77 20 78 42 79 21 80 41 81 22 82 23 83 24 84 25 85
REMARK SMILES IDX 34 86 26 87 32 88 27 89 31 90 33 91 28 92 30 93 29 94 35 95
REMARK SMILES IDX 36 96 40 97 37 98 39 99 38 100
REMARK H PARENT 92 27 66 38
REMARK Flexibility Score: inf
ROOT
ATOM      1  O   UNL     1       3.059  -3.062  -1.384  1.00  0.00    -0.376 OA
ENDROOT
BRANCH   1   2
ATOM      2  C   UNL     1       2.525  -1.759  -1.584  1.00  0.00     0.188 C 
BRANCH   2   3
ATOM      3  C   UNL     1       3.464  -0.529  -1.605  1.00  0.00     0.188 C 
BRANCH   3   4
ATOM      4  O   UNL     1       4.817  -0.832  -1.349  1.00  0.00    -0.376 OA
BRANCH   4   5
ATOM      5  C   UNL     1       5.431  -0.423  -0.144  1.00  0.00     0.202 C 
BRANCH   5   6
ATOM      6  C   UNL     1       4.753  -0.624   1.219  1.00  0.00     0.261 C 
BRANCH   6   7
ATOM      7  O   UNL     1       3.352  -0.909   1.199  1.00  0.00    -0.460 OA
BRANCH   7   8
ATOM      8  C   UNL     1       2.285  -0.116   1.405  1.00  0.00     0.338 C 
ATOM      9  O   UNL     1       1.212  -0.640   1.702  1.00  0.00    -0.246 OA
BRANCH   8  10
ATOM     10  C   UNL     1       2.276   1.353   1.145  1.00  0.00     0.060 A 
ATOM     11  C   UNL     1       3.384   2.203   1.135  1.00  0.00     0.016 A 
ATOM     12  C   UNL     1       0.997   1.907   0.933  1.00  0.00     0.016 A 
ATOM     13  C   UNL     1       3.203   3.579   1.113  1.00  0.00     0.010 A 
ATOM     14  C   UNL     1       0.811   3.278   0.885  1.00  0.00     0.010 A 
ATOM     15  C   UNL     1       1.912   4.102   1.074  1.00  0.00    -0.014 A 
BRANCH  15  16
ATOM     16  C   UNL     1       1.750   5.528   1.307  1.00  0.00     0.031 A 
ATOM     17  C   UNL     1       2.248   6.426   0.236  1.00  0.00     0.074 A 
ATOM     18  C   UNL     1       1.125   5.976   2.414  1.00  0.00     0.049 A 
ATOM     19  N   UNL     1       3.173   7.326   0.314  1.00  0.00    -0.248 NA
ATOM     20  C   UNL     1       1.709   6.233  -1.119  1.00  0.00     0.031 C 
ATOM     21  C   UNL     1       0.369   5.194   3.400  1.00  0.00     0.029 A 
ATOM     22  N   UNL     1       0.944   7.255   2.840  1.00  0.00    -0.354 N 
ATOM     23  C   UNL     1       3.206   7.947  -0.933  1.00  0.00     0.074 A 
ATOM     24  C   UNL     1       2.390   7.147  -1.810  1.00  0.00     0.031 C 
ATOM     25  C   UNL     1      -0.376   6.030   4.155  1.00  0.00     0.029 A 
ATOM     26  C   UNL     1      -0.048   7.399   3.799  1.00  0.00     0.049 A 
ATOM     27  H   UNL     1       1.472   8.013   2.498  1.00  0.00     0.167 HD
ATOM     28  C   UNL     1       3.720   9.197  -1.095  1.00  0.00     0.037 A 
ATOM     29  C   UNL     1      -0.613   8.561   4.208  1.00  0.00     0.037 A 
ATOM     30  C   UNL     1       4.587   9.563  -0.007  1.00  0.00     0.049 A 
ATOM     31  C   UNL     1       0.298   9.666   3.821  1.00  0.00     0.074 A 
ATOM     32  C   UNL     1       5.761   9.057   0.515  1.00  0.00     0.029 A 
ATOM     33  N   UNL     1       4.102  10.429   0.940  1.00  0.00    -0.354 N 
ATOM     34  N   UNL     1       1.462   9.879   4.368  1.00  0.00    -0.248 NA
ATOM     35  C   UNL     1       0.104  10.276   2.513  1.00  0.00     0.031 C 
ATOM     36  C   UNL     1       5.659   9.265   1.921  1.00  0.00     0.029 A 
ATOM     37  C   UNL     1       4.454   9.924   2.164  1.00  0.00     0.049 A 
ATOM     38  H   UNL     1       3.597  11.257   0.772  1.00  0.00     0.167 HD
ATOM     39  C   UNL     1       2.281  10.267   3.318  1.00  0.00     0.074 A 
ATOM     40  C   UNL     1       1.370  10.588   2.222  1.00  0.00     0.031 C 
ATOM     41  C   UNL     1       3.623  10.019   3.341  1.00  0.00     0.037 A 
BRANCH  28  42
ATOM     42  C   UNL     1       3.155  10.222  -2.046  1.00  0.00     0.057 A 
ATOM     43  C   UNL     1       3.852  11.425  -2.262  1.00  0.00     0.134 A 
ATOM     44  C   UNL     1       1.824  10.208  -2.510  1.00  0.00     0.134 A 
ATOM     45  F   UNL     1       5.120  11.570  -1.848  1.00  0.00    -0.206 F 
ATOM     46  C   UNL     1       3.244  12.553  -2.827  1.00  0.00     0.040 A 
ATOM     47  C   UNL     1       1.224  11.311  -3.123  1.00  0.00     0.040 A 
ATOM     48  F   UNL     1       1.002   9.173  -2.299  1.00  0.00    -0.206 F 
ATOM     49  C   UNL     1       1.923  12.500  -3.253  1.00  0.00     0.006 A 
ENDBRANCH  28  42
BRANCH  29  50
ATOM     50  C   UNL     1      -2.017   8.794   4.616  1.00  0.00     0.057 A 
ATOM     51  C   UNL     1      -2.392   9.956   5.304  1.00  0.00     0.134 A 
ATOM     52  C   UNL     1      -3.071   8.009   4.112  1.00  0.00     0.134 A 
ATOM     53  F   UNL     1      -1.461  10.792   5.784  1.00  0.00    -0.206 F 
ATOM     54  C   UNL     1      -3.735  10.325   5.465  1.00  0.00     0.040 A 
ATOM     55  C   UNL     1      -4.414   8.360   4.275  1.00  0.00     0.040 A 
ATOM     56  F   UNL     1      -2.833   6.920   3.367  1.00  0.00    -0.206 F 
ATOM     57  C   UNL     1      -4.750   9.531   4.941  1.00  0.00     0.006 A 
ENDBRANCH  29  50
BRANCH  41  58
ATOM     58  C   UNL     1       4.229   9.552   4.634  1.00  0.00     0.057 A 
ATOM     59  C   UNL     1       3.907   8.335   5.253  1.00  0.00     0.134 A 
ATOM     60  C   UNL     1       5.286  10.283   5.187  1.00  0.00     0.134 A 
ATOM     61  F   UNL     1       2.983   7.516   4.735  1.00  0.00    -0.206 F 
ATOM     62  C   UNL     1       4.575   7.891   6.398  1.00  0.00     0.040 A 
ATOM     63  C   UNL     1       5.984   9.834   6.310  1.00  0.00     0.040 A 
ATOM     64  F   UNL     1       5.691  11.426   4.612  1.00  0.00    -0.206 F 
ATOM     65  C   UNL     1       5.622   8.639   6.926  1.00  0.00     0.006 A 
ENDBRANCH  41  58
ENDBRANCH  15  16
ENDBRANCH   8  10
ENDBRANCH   7   8
ENDBRANCH   6   7
ENDBRANCH   5   6
ENDBRANCH   4   5
ENDBRANCH   3   4
ENDBRANCH   2   3
ENDBRANCH   1   2
BRANCH   1  66
ATOM     66  C   UNL     1       4.268  -3.428  -2.033  1.00  0.00     0.202 C 
BRANCH  66  67
ATOM     67  C   UNL     1       4.362  -3.290  -3.561  1.00  0.00     0.261 C 
BRANCH  67  68
ATOM     68  O   UNL     1       4.020  -1.992  -4.085  1.00  0.00    -0.460 OA
BRANCH  68  69
ATOM     69  C   UNL     1       2.951  -1.941  -4.921  1.00  0.00     0.338 C 
ATOM     70  O   UNL     1       2.263  -2.864  -5.308  1.00  0.00    -0.246 OA
BRANCH  69  71
ATOM     71  C   UNL     1       2.636  -0.524  -5.213  1.00  0.00     0.060 A 
ATOM     72  C   UNL     1       1.457   0.030  -4.689  1.00  0.00     0.018 A 
ATOM     73  C   UNL     1       3.487   0.246  -6.008  1.00  0.00     0.018 A 
ATOM     74  C   UNL     1       1.130   1.364  -4.947  1.00  0.00     0.029 A 
ATOM     75  C   UNL     1       3.178   1.590  -6.247  1.00  0.00     0.029 A 
ATOM     76  C   UNL     1       1.999   2.142  -5.717  1.00  0.00     0.066 A 
BRANCH  76  77
ATOM     77  N   UNL     1       1.653   3.470  -6.043  1.00  0.00    -0.220 N 
ATOM     78  C   UNL     1       0.471   3.890  -6.623  1.00  0.00     0.141 A 
ATOM     79  N   UNL     1       2.555   4.469  -6.069  1.00  0.00    -0.062 NA
ATOM     80  C   UNL     1       0.763   5.122  -7.168  1.00  0.00     0.093 A 
ATOM     81  N   UNL     1       2.002   5.499  -6.688  1.00  0.00    -0.134 NA
BRANCH  80  82
ATOM     82  C   UNL     1       0.251   5.910  -8.320  1.00  0.00     0.138 C 
BRANCH  82  83
ATOM     83  S   UNL     1      -1.422   6.242  -8.809  1.00  0.00    -0.081 SA
BRANCH  83  84
ATOM     84  C   UNL     1      -2.600   5.099  -8.255  1.00  0.00     0.176 A 
ATOM     85  N   UNL     1      -3.712   5.699  -7.940  1.00  0.00    -0.223 NA
ATOM     86  N   UNL     1      -2.448   3.727  -8.135  1.00  0.00    -0.255 N 
ATOM     87  C   UNL     1      -4.736   4.957  -7.351  1.00  0.00     0.079 A 
ATOM     88  C   UNL     1      -3.124   3.184  -7.031  1.00  0.00     0.266 A 
ATOM     89  C   UNL     1      -6.031   5.465  -7.257  1.00  0.00     0.029 A 
ATOM     90  C   UNL     1      -4.443   3.754  -6.732  1.00  0.00     0.066 A 
ATOM     91  O   UNL     1      -2.687   2.321  -6.270  1.00  0.00    -0.268 OA
ATOM     92  C   UNL     1      -6.992   4.798  -6.489  1.00  0.00     0.002 A 
ATOM     93  C   UNL     1      -5.371   3.104  -5.915  1.00  0.00     0.016 A 
ATOM     94  C   UNL     1      -6.651   3.639  -5.788  1.00  0.00     0.001 A 
BRANCH  86  95
ATOM     95  C   UNL     1      -1.623   2.841  -8.941  1.00  0.00     0.051 A 
ATOM     96  C   UNL     1      -1.697   1.445  -8.747  1.00  0.00     0.027 A 
ATOM     97  C   UNL     1      -0.735   3.261  -9.935  1.00  0.00     0.027 A 
ATOM     98  C   UNL     1      -0.797   0.555  -9.340  1.00  0.00     0.002 A 
ATOM     99  C   UNL     1       0.212   2.387 -10.492  1.00  0.00     0.002 A 
ATOM    100  C   UNL     1       0.201   1.038 -10.169  1.00  0.00     0.000 A 
ENDBRANCH  86  95
ENDBRANCH  83  84
ENDBRANCH  82  83
ENDBRANCH  80  82
ENDBRANCH  76  77
ENDBRANCH  69  71
ENDBRANCH  68  69
ENDBRANCH  67  68
ENDBRANCH  66  67
ENDBRANCH   1  66
TORSDOF 22
