REMARK SMILES Cc1cccc(-n2ncc(C(=O)Nc3cccc(C(=O)OCCOCCOCCOC(=O)c4ccc(-c5c6nc(c(-c7c(F)cccc7F)c7ccc([nH]7)c(-c7c(F)cccc7F)c7nc(c(-c8c(F)cccc8F)c8ccc5[nH]8)C=C7)C=C6)cc4)c3C)c2C)c1
REMARK SMILES IDX 25 1 24 2 23 3 22 4 21 5 19 6 20 7 18 8 14 9 15 10 87 11
REMARK SMILES IDX 16 12 88 13 17 14 13 15 11 16 12 17 10 19 7 20 8 21 89 22
REMARK SMILES IDX 9 23 90 24 6 25 1 26 2 27 3 28 91 29 4 30 5 31 26 32 27 33
REMARK SMILES IDX 28 34 29 35 30 36 31 37 32 38 33 39 34 40 86 41 35 42 85 43
REMARK SMILES IDX 36 44 37 45 38 46 79 47 39 48 84 49 78 50 80 51 40 52 83 53
REMARK SMILES IDX 77 54 76 55 41 57 67 58 50 59 66 60 51 61 54 62 65 63 81 64
REMARK SMILES IDX 52 65 53 66 64 68 82 69 55 70 42 71 43 72 48 73 44 74 45 75
REMARK SMILES IDX 47 76 49 77 46 78 68 79 69 80 74 81 70 82 71 83 73 84 75 85
REMARK SMILES IDX 72 86 56 87 57 88 62 89 58 90 59 91 61 92 63 93 60 94
REMARK H PARENT 13 18 80 56 54 67
REMARK Flexibility Score: inf
ROOT
ATOM      1  C   UNL     1      -2.986  13.559  -2.176  1.00  0.00     0.188 C 
ENDROOT
BRANCH   1   2
ATOM      2  O   UNL     1      -1.656  13.451  -2.689  1.00  0.00    -0.376 OA
BRANCH   2   3
ATOM      3  C   UNL     1      -1.427  12.920  -4.005  1.00  0.00     0.202 C 
BRANCH   3   4
ATOM      4  C   UNL     1      -1.000  11.399  -4.303  1.00  0.00     0.261 C 
BRANCH   4   5
ATOM      5  O   UNL     1      -1.879  10.299  -3.843  1.00  0.00    -0.460 OA
BRANCH   5   6
ATOM      6  C   UNL     1      -2.110   8.989  -4.253  1.00  0.00     0.338 C 
ATOM      7  O   UNL     1      -1.630   8.609  -5.316  1.00  0.00    -0.246 OA
BRANCH   6   8
ATOM      8  C   UNL     1      -3.174   7.890  -3.322  1.00  0.00     0.065 A 
ATOM      9  C   UNL     1      -4.130   6.196  -1.603  1.00  0.00     0.045 A 
ATOM     10  C   UNL     1      -4.556   5.412  -2.655  1.00  0.00     0.026 A 
ATOM     11  C   UNL     1      -3.401   7.413  -1.848  1.00  0.00    -0.013 A 
ATOM     12  C   UNL     1      -4.389   5.851  -3.969  1.00  0.00     0.003 A 
ATOM     13  C   UNL     1      -2.752   7.743  -0.446  1.00  0.00     0.047 C 
ATOM     14  C   UNL     1      -3.760   7.064  -4.292  1.00  0.00     0.016 A 
BRANCH   9  15
ATOM     15  N   UNL     1      -4.497   5.817  -0.286  1.00  0.00    -0.322 N 
ATOM     16  C   UNL     1      -4.118   4.767   0.529  1.00  0.00     0.259 C 
ATOM     17  O   UNL     1      -4.728   4.634   1.593  1.00  0.00    -0.269 OA
ATOM     18  H   UNL     1      -5.151   6.423   0.130  1.00  0.00     0.170 HD
BRANCH  16  19
ATOM     19  C   UNL     1      -2.971   3.924   0.213  1.00  0.00     0.081 A 
ATOM     20  N   UNL     1      -1.490   2.258   0.184  1.00  0.00    -0.237 N 
ATOM     21  N   UNL     1      -0.909   3.258  -0.520  1.00  0.00    -0.175 NA
ATOM     22  C   UNL     1      -2.658   2.693   0.796  1.00  0.00     0.054 A 
ATOM     23  C   UNL     1      -1.831   4.212  -0.557  1.00  0.00     0.149 A 
ATOM     24  C   UNL     1      -3.310   1.997   1.944  1.00  0.00     0.068 C 
BRANCH  20  25
ATOM     25  C   UNL     1      -0.871   0.982   0.176  1.00  0.00     0.065 A 
ATOM     26  C   UNL     1       2.674  -0.370  -0.128  1.00  0.00     0.044 C 
ATOM     27  C   UNL     1       1.179  -0.314  -0.025  1.00  0.00    -0.049 A 
ATOM     28  C   UNL     1       0.421  -1.488   0.036  1.00  0.00     0.003 A 
ATOM     29  C   UNL     1       0.522   0.919   0.019  1.00  0.00     0.031 A 
ATOM     30  C   UNL     1      -0.970  -1.429   0.161  1.00  0.00     0.002 A 
ATOM     31  C   UNL     1      -1.620  -0.196   0.243  1.00  0.00     0.028 A 
ENDBRANCH  20  25
ENDBRANCH  16  19
ENDBRANCH   9  15
ENDBRANCH   6   8
ENDBRANCH   5   6
ENDBRANCH   4   5
ENDBRANCH   3   4
ENDBRANCH   2   3
ENDBRANCH   1   2
BRANCH   1  32
ATOM     32  C   UNL     1      -4.112  14.154  -2.987  1.00  0.00     0.188 C 
BRANCH  32  33
ATOM     33  O   UNL     1      -4.404  13.268  -4.057  1.00  0.00    -0.376 OA
BRANCH  33  34
ATOM     34  C   UNL     1      -5.443  13.714  -4.914  1.00  0.00     0.202 C 
BRANCH  34  35
ATOM     35  C   UNL     1      -6.831  13.730  -4.242  1.00  0.00     0.261 C 
BRANCH  35  36
ATOM     36  O   UNL     1      -7.184  12.410  -3.768  1.00  0.00    -0.460 OA
BRANCH  36  37
ATOM     37  C   UNL     1      -7.200  12.211  -2.404  1.00  0.00     0.338 C 
ATOM     38  O   UNL     1      -7.772  12.902  -1.604  1.00  0.00    -0.246 OA
BRANCH  37  39
ATOM     39  C   UNL     1      -6.176  11.165  -2.053  1.00  0.00     0.060 A 
ATOM     40  C   UNL     1      -5.592  11.027  -0.786  1.00  0.00     0.016 A 
ATOM     41  C   UNL     1      -5.521  10.589  -3.093  1.00  0.00     0.016 A 
ATOM     42  C   UNL     1      -4.247  10.519  -0.618  1.00  0.00     0.010 A 
ATOM     43  C   UNL     1      -4.166  10.335  -2.917  1.00  0.00     0.010 A 
ATOM     44  C   UNL     1      -3.400  10.238  -1.701  1.00  0.00    -0.014 A 
BRANCH  44  45
ATOM     45  C   UNL     1      -1.709  10.036  -1.545  1.00  0.00     0.031 A 
ATOM     46  C   UNL     1      -0.587   8.781  -1.985  1.00  0.00     0.074 A 
ATOM     47  C   UNL     1      -1.052  11.055  -0.943  1.00  0.00     0.049 A 
ATOM     48  N   UNL     1       0.699   8.903  -1.745  1.00  0.00    -0.248 NA
ATOM     49  C   UNL     1      -0.707   7.407  -2.610  1.00  0.00     0.031 C 
ATOM     50  C   UNL     1       0.374  11.373  -0.945  1.00  0.00     0.029 A 
ATOM     51  N   UNL     1      -1.570  12.011  -0.066  1.00  0.00    -0.354 N 
ATOM     52  C   UNL     1       1.412   7.971  -2.479  1.00  0.00     0.074 A 
ATOM     53  C   UNL     1       0.514   6.977  -2.880  1.00  0.00     0.031 C 
ATOM     54  C   UNL     1       0.649  12.139   0.117  1.00  0.00     0.029 A 
ATOM     55  C   UNL     1      -0.566  12.231   0.893  1.00  0.00     0.049 A 
ATOM     56  H   UNL     1      -2.455  12.441  -0.111  1.00  0.00     0.167 HD
ATOM     57  C   UNL     1       2.718   8.133  -2.788  1.00  0.00     0.037 A 
ATOM     58  C   UNL     1      -0.771  11.885   2.191  1.00  0.00     0.037 A 
ATOM     59  C   UNL     1       3.354   8.864  -1.720  1.00  0.00     0.049 A 
ATOM     60  C   UNL     1       0.219  10.828   2.634  1.00  0.00     0.074 A 
ATOM     61  C   UNL     1       3.844  10.129  -1.496  1.00  0.00     0.029 A 
ATOM     62  N   UNL     1       3.224   8.285  -0.474  1.00  0.00    -0.354 N 
ATOM     63  N   UNL     1       1.310  10.532   1.972  1.00  0.00    -0.248 NA
ATOM     64  C   UNL     1       0.036   9.955   3.791  1.00  0.00     0.031 C 
ATOM     65  C   UNL     1       3.797  10.345  -0.068  1.00  0.00     0.029 A 
ATOM     66  C   UNL     1       3.345   9.188   0.554  1.00  0.00     0.049 A 
ATOM     67  H   UNL     1       3.061   7.324  -0.336  1.00  0.00     0.167 HD
ATOM     68  C   UNL     1       1.871   9.396   2.478  1.00  0.00     0.074 A 
ATOM     69  C   UNL     1       1.063   9.097   3.651  1.00  0.00     0.031 C 
ATOM     70  C   UNL     1       2.909   8.734   1.877  1.00  0.00     0.037 A 
BRANCH  57  71
ATOM     71  C   UNL     1       3.327   7.603  -4.067  1.00  0.00     0.057 A 
ATOM     72  C   UNL     1       4.711   7.668  -4.270  1.00  0.00     0.134 A 
ATOM     73  C   UNL     1       2.593   7.173  -5.205  1.00  0.00     0.134 A 
ATOM     74  F   UNL     1       5.531   8.074  -3.290  1.00  0.00    -0.206 F 
ATOM     75  C   UNL     1       5.314   7.351  -5.500  1.00  0.00     0.040 A 
ATOM     76  C   UNL     1       3.187   6.805  -6.420  1.00  0.00     0.040 A 
ATOM     77  F   UNL     1       1.254   7.139  -5.230  1.00  0.00    -0.206 F 
ATOM     78  C   UNL     1       4.555   6.913  -6.579  1.00  0.00     0.006 A 
ENDBRANCH  57  71
BRANCH  58  79
ATOM     79  C   UNL     1      -2.188  12.153   2.597  1.00  0.00     0.057 A 
ATOM     80  C   UNL     1      -2.665  13.474   2.389  1.00  0.00     0.134 A 
ATOM     81  C   UNL     1      -3.167  11.176   2.786  1.00  0.00     0.134 A 
ATOM     82  F   UNL     1      -1.794  14.479   2.199  1.00  0.00    -0.206 F 
ATOM     83  C   UNL     1      -4.019  13.774   2.219  1.00  0.00     0.040 A 
ATOM     84  C   UNL     1      -4.539  11.480   2.675  1.00  0.00     0.040 A 
ATOM     85  F   UNL     1      -2.832   9.885   2.922  1.00  0.00    -0.206 F 
ATOM     86  C   UNL     1      -4.964  12.767   2.338  1.00  0.00     0.006 A 
ENDBRANCH  58  79
BRANCH  70  87
ATOM     87  C   UNL     1       3.516   7.506   2.514  1.00  0.00     0.057 A 
ATOM     88  C   UNL     1       3.897   7.517   3.862  1.00  0.00     0.134 A 
ATOM     89  C   UNL     1       3.832   6.324   1.810  1.00  0.00     0.134 A 
ATOM     90  F   UNL     1       3.698   8.604   4.622  1.00  0.00    -0.206 F 
ATOM     91  C   UNL     1       4.501   6.416   4.479  1.00  0.00     0.040 A 
ATOM     92  C   UNL     1       4.495   5.244   2.397  1.00  0.00     0.040 A 
ATOM     93  F   UNL     1       3.486   6.140   0.528  1.00  0.00    -0.206 F 
ATOM     94  C   UNL     1       4.815   5.279   3.744  1.00  0.00     0.006 A 
ENDBRANCH  70  87
ENDBRANCH  44  45
ENDBRANCH  37  39
ENDBRANCH  36  37
ENDBRANCH  35  36
ENDBRANCH  34  35
ENDBRANCH  33  34
ENDBRANCH  32  33
ENDBRANCH   1  32
TORSDOF 20
