REMARK SMILES O=C(OCCOCCOCCOC(=O)c1cc(-c2ccc(F)c(C(F)(F)F)c2)cnc1O)c1ccc(-c2c3nc(c(-c4c(F)cccc4F)c4ccc([nH]4)c(-c4c(F)cccc4F)c4nc(c(-c5c(F)cccc5F)c5ccc2[nH]5)C=C4)C=C3)cc1
REMARK SMILES IDX 7 1 6 2 5 3 4 4 3 5 2 6 1 7 33 8 34 9 86 10 35 11 85 12
REMARK SMILES IDX 36 13 37 14 38 15 79 16 39 17 84 18 78 19 80 20 40 21 83 22
REMARK SMILES IDX 77 23 76 24 41 26 67 27 50 28 66 29 51 30 54 31 65 32 81 33
REMARK SMILES IDX 52 34 53 35 64 37 82 38 55 39 42 40 43 41 48 42 44 43 45 44
REMARK SMILES IDX 47 45 49 46 46 47 68 48 69 49 74 50 70 51 71 52 73 53 75 54
REMARK SMILES IDX 72 55 56 56 57 57 62 58 58 59 59 60 61 61 63 62 60 63 8 64
REMARK SMILES IDX 9 65 10 66 11 67 12 68 13 69 14 70 15 71 16 72 31 73 17 74
REMARK SMILES IDX 30 75 29 76 32 77 18 79 19 80 28 81 20 82 23 83 21 84 22 85
REMARK SMILES IDX 24 86 25 87 26 88 27 89
REMARK H PARENT 80 25 54 36 32 78
REMARK Flexibility Score: inf
ROOT
ATOM      1  C   UNL     1       2.501  -0.521   1.493  1.00  0.00     0.188 C 
ENDROOT
BRANCH   1   2
ATOM      2  O   UNL     1       3.829  -0.771   1.019  1.00  0.00    -0.376 OA
BRANCH   2   3
ATOM      3  C   UNL     1       4.762   0.225   1.447  1.00  0.00     0.202 C 
BRANCH   3   4
ATOM      4  C   UNL     1       4.862   1.428   0.498  1.00  0.00     0.261 C 
BRANCH   4   5
ATOM      5  O   UNL     1       3.634   1.767  -0.164  1.00  0.00    -0.460 OA
BRANCH   5   6
ATOM      6  C   UNL     1       3.027   1.190  -1.227  1.00  0.00     0.338 C 
ATOM      7  O   UNL     1       1.957   1.677  -1.596  1.00  0.00    -0.246 OA
BRANCH   6   8
ATOM      8  C   UNL     1       3.522  -0.025  -1.966  1.00  0.00     0.060 A 
ATOM      9  C   UNL     1       2.666  -0.528  -2.965  1.00  0.00     0.016 A 
ATOM     10  C   UNL     1       4.727  -0.700  -1.768  1.00  0.00     0.016 A 
ATOM     11  C   UNL     1       2.997  -1.660  -3.721  1.00  0.00     0.010 A 
ATOM     12  C   UNL     1       5.059  -1.841  -2.505  1.00  0.00     0.010 A 
ATOM     13  C   UNL     1       4.200  -2.322  -3.492  1.00  0.00    -0.014 A 
BRANCH  13  14
ATOM     14  C   UNL     1       4.687  -3.372  -4.407  1.00  0.00     0.031 A 
ATOM     15  C   UNL     1       4.708  -4.817  -4.030  1.00  0.00     0.074 A 
ATOM     16  C   UNL     1       5.272  -2.959  -5.543  1.00  0.00     0.049 A 
ATOM     17  N   UNL     1       5.109  -5.844  -4.735  1.00  0.00    -0.248 NA
ATOM     18  C   UNL     1       4.234  -5.151  -2.683  1.00  0.00     0.031 C 
ATOM     19  C   UNL     1       5.399  -1.561  -5.960  1.00  0.00     0.029 A 
ATOM     20  N   UNL     1       5.933  -3.665  -6.509  1.00  0.00    -0.354 N 
ATOM     21  C   UNL     1       4.870  -6.957  -3.943  1.00  0.00     0.074 A 
ATOM     22  C   UNL     1       4.386  -6.469  -2.674  1.00  0.00     0.031 C 
ATOM     23  C   UNL     1       6.159  -1.506  -7.062  1.00  0.00     0.029 A 
ATOM     24  C   UNL     1       6.566  -2.861  -7.419  1.00  0.00     0.049 A 
ATOM     25  H   UNL     1       5.953  -4.649  -6.546  1.00  0.00     0.167 HD
ATOM     26  C   UNL     1       5.022  -8.267  -4.254  1.00  0.00     0.037 A 
ATOM     27  C   UNL     1       7.411  -3.179  -8.413  1.00  0.00     0.037 A 
ATOM     28  C   UNL     1       5.641  -8.729  -5.468  1.00  0.00     0.049 A 
ATOM     29  C   UNL     1       7.699  -4.621  -8.688  1.00  0.00     0.074 A 
ATOM     30  C   UNL     1       5.809 -10.023  -5.928  1.00  0.00     0.029 A 
ATOM     31  N   UNL     1       6.263  -7.894  -6.384  1.00  0.00    -0.354 N 
ATOM     32  N   UNL     1       7.276  -5.682  -8.043  1.00  0.00    -0.248 NA
ATOM     33  C   UNL     1       8.561  -4.912  -9.837  1.00  0.00     0.031 C 
ATOM     34  C   UNL     1       6.602  -9.972  -7.083  1.00  0.00     0.029 A 
ATOM     35  C   UNL     1       6.886  -8.644  -7.366  1.00  0.00     0.049 A 
ATOM     36  H   UNL     1       6.262  -6.910  -6.342  1.00  0.00     0.167 HD
ATOM     37  C   UNL     1       7.812  -6.771  -8.712  1.00  0.00     0.074 A 
ATOM     38  C   UNL     1       8.577  -6.239  -9.824  1.00  0.00     0.031 C 
ATOM     39  C   UNL     1       7.679  -8.093  -8.436  1.00  0.00     0.037 A 
BRANCH  26  40
ATOM     40  C   UNL     1       4.520  -9.271  -3.256  1.00  0.00     0.057 A 
ATOM     41  C   UNL     1       5.401 -10.069  -2.517  1.00  0.00     0.134 A 
ATOM     42  C   UNL     1       3.146  -9.447  -3.029  1.00  0.00     0.134 A 
ATOM     43  F   UNL     1       6.727  -9.958  -2.686  1.00  0.00    -0.206 F 
ATOM     44  C   UNL     1       4.936 -10.999  -1.583  1.00  0.00     0.040 A 
ATOM     45  C   UNL     1       2.671 -10.357  -2.081  1.00  0.00     0.040 A 
ATOM     46  F   UNL     1       2.245  -8.720  -3.709  1.00  0.00    -0.206 F 
ATOM     47  C   UNL     1       3.568 -11.138  -1.356  1.00  0.00     0.006 A 
ENDBRANCH  26  40
BRANCH  27  48
ATOM     48  C   UNL     1       8.015  -2.083  -9.200  1.00  0.00     0.057 A 
ATOM     49  C   UNL     1       9.005  -1.258  -8.649  1.00  0.00     0.134 A 
ATOM     50  C   UNL     1       7.536  -1.764 -10.473  1.00  0.00     0.134 A 
ATOM     51  F   UNL     1       9.484  -1.503  -7.420  1.00  0.00    -0.206 F 
ATOM     52  C   UNL     1       9.482  -0.140  -9.331  1.00  0.00     0.040 A 
ATOM     53  C   UNL     1       8.017  -0.658 -11.173  1.00  0.00     0.040 A 
ATOM     54  F   UNL     1       6.588  -2.521 -11.045  1.00  0.00    -0.206 F 
ATOM     55  C   UNL     1       8.986   0.163 -10.598  1.00  0.00     0.006 A 
ENDBRANCH  27  48
BRANCH  39  56
ATOM     56  C   UNL     1       8.413  -9.041  -9.332  1.00  0.00     0.057 A 
ATOM     57  C   UNL     1       7.727  -9.826 -10.266  1.00  0.00     0.134 A 
ATOM     58  C   UNL     1       9.804  -9.182  -9.259  1.00  0.00     0.134 A 
ATOM     59  F   UNL     1       6.394  -9.740 -10.382  1.00  0.00    -0.206 F 
ATOM     60  C   UNL     1       8.402 -10.721 -11.097  1.00  0.00     0.040 A 
ATOM     61  C   UNL     1      10.492 -10.056 -10.101  1.00  0.00     0.040 A 
ATOM     62  F   UNL     1      10.518  -8.444  -8.396  1.00  0.00    -0.206 F 
ATOM     63  C   UNL     1       9.789 -10.833 -11.020  1.00  0.00     0.006 A 
ENDBRANCH  39  56
ENDBRANCH  13  14
ENDBRANCH   6   8
ENDBRANCH   5   6
ENDBRANCH   4   5
ENDBRANCH   3   4
ENDBRANCH   2   3
ENDBRANCH   1   2
BRANCH   1  64
ATOM     64  C   UNL     1       2.190  -1.223   2.816  1.00  0.00     0.188 C 
BRANCH  64  65
ATOM     65  O   UNL     1       3.325  -1.256   3.678  1.00  0.00    -0.376 OA
BRANCH  65  66
ATOM     66  C   UNL     1       3.755  -2.580   4.007  1.00  0.00     0.202 C 
BRANCH  66  67
ATOM     67  C   UNL     1       4.447  -3.317   2.848  1.00  0.00     0.261 C 
BRANCH  67  68
ATOM     68  O   UNL     1       3.576  -3.663   1.746  1.00  0.00    -0.459 OA
BRANCH  68  69
ATOM     69  C   UNL     1       2.689  -4.644   1.996  1.00  0.00     0.343 C 
ATOM     70  O   UNL     1       2.517  -5.213   3.068  1.00  0.00    -0.246 OA
BRANCH  69  71
ATOM     71  C   UNL     1       2.096  -5.128   0.752  1.00  0.00     0.122 A 
ATOM     72  C   UNL     1       1.143  -4.395   0.022  1.00  0.00     0.031 A 
ATOM     73  C   UNL     1       2.423  -6.413   0.337  1.00  0.00     0.225 A 
ATOM     74  C   UNL     1       0.529  -4.986  -1.095  1.00  0.00     0.001 A 
ATOM     75  N   UNL     1       1.859  -7.001  -0.728  1.00  0.00    -0.221 NA
ATOM     76  C   UNL     1       0.941  -6.284  -1.416  1.00  0.00     0.124 A 
BRANCH  73  77
ATOM     77  O   UNL     1       3.397  -7.177   0.910  1.00  0.00    -0.493 OA
ATOM     78  H   UNL     1       3.858  -6.862   1.663  1.00  0.00     0.295 HD
ENDBRANCH  73  77
BRANCH  74  79
ATOM     79  C   UNL     1      -0.551  -4.363  -1.878  1.00  0.00    -0.016 A 
ATOM     80  C   UNL     1      -1.826  -4.961  -1.887  1.00  0.00     0.012 A 
ATOM     81  C   UNL     1      -0.341  -3.252  -2.714  1.00  0.00     0.025 A 
ATOM     82  C   UNL     1      -2.844  -4.487  -2.715  1.00  0.00     0.040 A 
ATOM     83  C   UNL     1      -1.362  -2.775  -3.567  1.00  0.00     0.092 A 
ATOM     84  C   UNL     1      -2.601  -3.407  -3.550  1.00  0.00     0.135 A 
ATOM     85  F   UNL     1      -3.579  -2.986  -4.362  1.00  0.00    -0.206 F 
BRANCH  83  86
ATOM     86  C   UNL     1      -1.172  -1.642  -4.533  1.00  0.00     0.419 C 
ATOM     87  F   UNL     1      -1.304  -2.029  -5.832  1.00  0.00    -0.166 F 
ATOM     88  F   UNL     1      -2.056  -0.625  -4.345  1.00  0.00    -0.166 F 
ATOM     89  F   UNL     1       0.060  -1.071  -4.452  1.00  0.00    -0.166 F 
ENDBRANCH  83  86
ENDBRANCH  74  79
ENDBRANCH  69  71
ENDBRANCH  68  69
ENDBRANCH  67  68
ENDBRANCH  66  67
ENDBRANCH  65  66
ENDBRANCH  64  65
ENDBRANCH   1  64
TORSDOF 20
