REMARK SMILES Cc1ccccc1CCNc1ccc(C(=O)OCCOCCOCCOC(=O)c2ccc(-c3c4nc(c(-c5c(F)cccc5F)c5ccc([nH]5)c(-c5c(F)cccc5F)c5nc(c(-c6c(F)cccc6F)c6ccc3[nH]6)C=C5)C=C4)cc2)cc1N
REMARK SMILES IDX 21 1 20 2 19 3 18 4 17 5 15 6 16 7 14 8 11 9 12 10 84 11
REMARK SMILES IDX 13 12 83 13 10 14 9 16 8 17 7 18 1 19 2 20 3 21 4 22 6 23
REMARK SMILES IDX 5 24 85 25 22 28 23 29 24 30 25 31 26 32 27 33 28 34 29 35
REMARK SMILES IDX 30 36 82 37 31 38 81 39 32 40 33 41 34 42 75 43 35 44 80 45
REMARK SMILES IDX 74 46 76 47 36 48 79 49 73 50 72 51 37 53 63 54 46 55 62 56
REMARK SMILES IDX 47 57 50 58 61 59 77 60 48 61 49 62 60 64 78 65 51 66 38 67
REMARK SMILES IDX 39 68 44 69 40 70 41 71 43 72 45 73 42 74 64 75 65 76 70 77
REMARK SMILES IDX 66 78 67 79 69 80 71 81 68 82 52 83 53 84 58 85 54 86 55 87
REMARK SMILES IDX 57 88 59 89 56 90
REMARK H PARENT 10 15 85 26 85 27 76 52 50 63
REMARK Flexibility Score: inf
ROOT
ATOM      1  C   UNL     1      -5.291  11.394  -2.397  1.00  0.00     0.188 C 
ENDROOT
BRANCH   1   2
ATOM      2  O   UNL     1      -4.186  12.295  -2.348  1.00  0.00    -0.376 OA
BRANCH   2   3
ATOM      3  C   UNL     1      -3.271  12.374  -3.449  1.00  0.00     0.202 C 
BRANCH   3   4
ATOM      4  C   UNL     1      -1.883  11.610  -3.497  1.00  0.00     0.261 C 
BRANCH   4   5
ATOM      5  O   UNL     1      -1.741  10.110  -3.445  1.00  0.00    -0.460 OA
BRANCH   5   6
ATOM      6  C   UNL     1      -0.840   9.154  -4.038  1.00  0.00     0.338 C 
ATOM      7  O   UNL     1      -0.197   9.445  -5.013  1.00  0.00    -0.246 OA
BRANCH   6   8
ATOM      8  C   UNL     1      -0.666   7.625  -3.291  1.00  0.00     0.062 A 
ATOM      9  C   UNL     1      -0.365   4.864  -2.298  1.00  0.00     0.057 A 
ATOM     10  C   UNL     1       0.162   5.311  -3.523  1.00  0.00     0.029 A 
ATOM     11  C   UNL     1      -0.995   5.809  -1.510  1.00  0.00     0.056 A 
ATOM     12  C   UNL     1      -0.009   6.644  -4.022  1.00  0.00     0.018 A 
ATOM     13  C   UNL     1      -1.033   7.141  -1.990  1.00  0.00     0.043 A 
BRANCH   9  14
ATOM     14  N   UNL     1      -0.259   3.541  -1.878  1.00  0.00    -0.383 N 
ATOM     15  H   UNL     1      -1.045   2.950  -1.921  1.00  0.00     0.160 HD
BRANCH  14  16
ATOM     16  C   UNL     1       1.010   3.022  -1.374  1.00  0.00     0.117 C 
BRANCH  16  17
ATOM     17  C   UNL     1       0.907   2.433   0.052  1.00  0.00     0.057 C 
BRANCH  17  18
ATOM     18  C   UNL     1       0.276   1.052   0.101  1.00  0.00    -0.043 A 
ATOM     19  C   UNL     1       2.511  -0.223  -0.102  1.00  0.00     0.044 C 
ATOM     20  C   UNL     1       1.010  -0.148  -0.019  1.00  0.00    -0.048 A 
ATOM     21  C   UNL     1       0.319  -1.377  -0.028  1.00  0.00     0.004 A 
ATOM     22  C   UNL     1      -1.069  -1.426   0.079  1.00  0.00     0.000 A 
ATOM     23  C   UNL     1      -1.123   0.976   0.244  1.00  0.00     0.004 A 
ATOM     24  C   UNL     1      -1.790  -0.249   0.224  1.00  0.00     0.000 A 
ENDBRANCH  17  18
ENDBRANCH  16  17
ENDBRANCH  14  16
ENDBRANCH   9  14
BRANCH  11  25
ATOM     25  N   UNL     1      -1.486   5.500  -0.238  1.00  0.00    -0.397 N 
ATOM     26  H   UNL     1      -1.456   4.572   0.089  1.00  0.00     0.156 HD
ATOM     27  H   UNL     1      -1.861   6.211   0.331  1.00  0.00     0.156 HD
ENDBRANCH  11  25
ENDBRANCH   6   8
ENDBRANCH   5   6
ENDBRANCH   4   5
ENDBRANCH   3   4
ENDBRANCH   2   3
ENDBRANCH   1   2
BRANCH   1  28
ATOM     28  C   UNL     1      -6.035  11.158  -3.676  1.00  0.00     0.188 C 
BRANCH  28  29
ATOM     29  O   UNL     1      -5.115  10.578  -4.585  1.00  0.00    -0.376 OA
BRANCH  29  30
ATOM     30  C   UNL     1      -5.607  10.481  -5.906  1.00  0.00     0.202 C 
BRANCH  30  31
ATOM     31  C   UNL     1      -6.777   9.489  -6.003  1.00  0.00     0.261 C 
BRANCH  31  32
ATOM     32  O   UNL     1      -6.350   8.172  -5.566  1.00  0.00    -0.460 OA
BRANCH  32  33
ATOM     33  C   UNL     1      -6.781   7.720  -4.344  1.00  0.00     0.338 C 
ATOM     34  O   UNL     1      -7.947   7.723  -3.969  1.00  0.00    -0.246 OA
BRANCH  33  35
ATOM     35  C   UNL     1      -5.604   7.479  -3.441  1.00  0.00     0.060 A 
ATOM     36  C   UNL     1      -5.628   7.512  -2.041  1.00  0.00     0.016 A 
ATOM     37  C   UNL     1      -4.387   7.641  -4.000  1.00  0.00     0.016 A 
ATOM     38  C   UNL     1      -4.511   8.026  -1.258  1.00  0.00     0.010 A 
ATOM     39  C   UNL     1      -3.456   8.348  -3.239  1.00  0.00     0.010 A 
ATOM     40  C   UNL     1      -3.406   8.654  -1.844  1.00  0.00    -0.014 A 
BRANCH  40  41
ATOM     41  C   UNL     1      -2.366   9.716  -1.009  1.00  0.00     0.031 A 
ATOM     42  C   UNL     1      -0.685   9.845  -0.912  1.00  0.00     0.074 A 
ATOM     43  C   UNL     1      -2.934  10.623  -0.188  1.00  0.00     0.049 A 
ATOM     44  N   UNL     1       0.096   9.630   0.138  1.00  0.00    -0.248 NA
ATOM     45  C   UNL     1       0.270  10.120  -2.029  1.00  0.00     0.031 C 
ATOM     46  C   UNL     1      -2.296  11.753   0.475  1.00  0.00     0.029 A 
ATOM     47  N   UNL     1      -4.252  10.689   0.269  1.00  0.00    -0.354 N 
ATOM     48  C   UNL     1       1.417   9.840  -0.365  1.00  0.00     0.074 A 
ATOM     49  C   UNL     1       1.330   9.392  -1.692  1.00  0.00     0.031 C 
ATOM     50  C   UNL     1      -3.094  12.168   1.476  1.00  0.00     0.029 A 
ATOM     51  C   UNL     1      -4.204  11.232   1.554  1.00  0.00     0.049 A 
ATOM     52  H   UNL     1      -5.058  10.407  -0.220  1.00  0.00     0.167 HD
ATOM     53  C   UNL     1       2.244  10.914  -0.064  1.00  0.00     0.037 A 
ATOM     54  C   UNL     1      -4.618  10.490   2.614  1.00  0.00     0.037 A 
ATOM     55  C   UNL     1       1.673  11.613   1.056  1.00  0.00     0.049 A 
ATOM     56  C   UNL     1      -3.446  10.309   3.536  1.00  0.00     0.074 A 
ATOM     57  C   UNL     1       1.094  12.854   1.223  1.00  0.00     0.029 A 
ATOM     58  N   UNL     1       1.354  10.858   2.161  1.00  0.00    -0.354 N 
ATOM     59  N   UNL     1      -2.207  10.390   3.121  1.00  0.00    -0.248 NA
ATOM     60  C   UNL     1      -3.542  10.201   4.986  1.00  0.00     0.031 C 
ATOM     61  C   UNL     1       0.276  12.767   2.390  1.00  0.00     0.029 A 
ATOM     62  C   UNL     1       0.413  11.495   2.927  1.00  0.00     0.049 A 
ATOM     63  H   UNL     1       1.748   9.980   2.372  1.00  0.00     0.167 HD
ATOM     64  C   UNL     1      -1.382  10.500   4.198  1.00  0.00     0.074 A 
ATOM     65  C   UNL     1      -2.250  10.309   5.343  1.00  0.00     0.031 C 
ATOM     66  C   UNL     1      -0.058  10.801   4.108  1.00  0.00     0.037 A 
BRANCH  53  67
ATOM     67  C   UNL     1       3.403  11.545  -0.941  1.00  0.00     0.057 A 
ATOM     68  C   UNL     1       4.222  12.548  -0.372  1.00  0.00     0.134 A 
ATOM     69  C   UNL     1       3.749  11.302  -2.303  1.00  0.00     0.134 A 
ATOM     70  F   UNL     1       4.050  12.939   0.899  1.00  0.00    -0.206 F 
ATOM     71  C   UNL     1       5.258  13.219  -1.068  1.00  0.00     0.040 A 
ATOM     72  C   UNL     1       4.816  11.923  -2.988  1.00  0.00     0.040 A 
ATOM     73  F   UNL     1       3.055  10.514  -3.124  1.00  0.00    -0.206 F 
ATOM     74  C   UNL     1       5.574  12.895  -2.376  1.00  0.00     0.006 A 
ENDBRANCH  53  67
BRANCH  54  75
ATOM     75  C   UNL     1      -5.784   9.609   2.279  1.00  0.00     0.057 A 
ATOM     76  C   UNL     1      -6.918  10.255   1.722  1.00  0.00     0.134 A 
ATOM     77  C   UNL     1      -5.726   8.226   2.098  1.00  0.00     0.134 A 
ATOM     78  F   UNL     1      -7.065  11.584   1.858  1.00  0.00    -0.206 F 
ATOM     79  C   UNL     1      -7.842   9.603   0.897  1.00  0.00     0.040 A 
ATOM     80  C   UNL     1      -6.684   7.546   1.312  1.00  0.00     0.040 A 
ATOM     81  F   UNL     1      -4.668   7.522   2.526  1.00  0.00    -0.206 F 
ATOM     82  C   UNL     1      -7.713   8.242   0.671  1.00  0.00     0.006 A 
ENDBRANCH  54  75
BRANCH  66  83
ATOM     83  C   UNL     1       0.960  10.359   5.120  1.00  0.00     0.057 A 
ATOM     84  C   UNL     1       0.786   9.211   5.905  1.00  0.00     0.134 A 
ATOM     85  C   UNL     1       2.261  10.912   5.123  1.00  0.00     0.134 A 
ATOM     86  F   UNL     1      -0.362   8.520   5.897  1.00  0.00    -0.206 F 
ATOM     87  C   UNL     1       1.817   8.678   6.679  1.00  0.00     0.040 A 
ATOM     88  C   UNL     1       3.316  10.341   5.832  1.00  0.00     0.040 A 
ATOM     89  F   UNL     1       2.574  11.989   4.386  1.00  0.00    -0.206 F 
ATOM     90  C   UNL     1       3.091   9.230   6.629  1.00  0.00     0.006 A 
ENDBRANCH  66  83
ENDBRANCH  40  41
ENDBRANCH  33  35
ENDBRANCH  32  33
ENDBRANCH  31  32
ENDBRANCH  30  31
ENDBRANCH  29  30
ENDBRANCH  28  29
ENDBRANCH   1  28
TORSDOF 22
