REMARK SMILES O=C(OCCOCCOCCOC(=O)[C@@H]1CCCC[C@@H]1NS(=O)(=O)c1ccc2ccccc2c1)c1ccc(-c2c3nc(c(-c4c(F)cccc4F)c4ccc([nH]4)c(-c4c(F)cccc4F)c4nc(c(-c5c(F)cccc5F)c5ccc2[nH]5)C=C4)C=C3)cc1
REMARK SMILES IDX 8 1 7 2 6 3 5 4 4 5 3 6 2 7 1 8 35 9 36 10 88 11 37 12 87 13
REMARK SMILES IDX 38 14 39 15 40 16 81 17 41 18 86 19 80 20 82 21 42 22 85 23
REMARK SMILES IDX 79 24 78 25 43 27 69 28 52 29 68 30 53 31 56 32 67 33 83 34
REMARK SMILES IDX 54 35 55 36 66 38 84 39 57 40 44 41 45 42 50 43 46 44 47 45
REMARK SMILES IDX 49 46 51 47 48 48 70 49 71 50 76 51 72 52 73 53 75 54 77 55
REMARK SMILES IDX 74 56 58 57 59 58 64 59 60 60 61 61 63 62 65 63 62 64 9 65
REMARK SMILES IDX 10 66 11 67 12 68 13 69 14 70 15 71 16 72 20 73 17 74 19 75
REMARK SMILES IDX 18 76 21 77 22 79 23 80 24 81 25 82 26 83 34 84 27 85 33 86
REMARK SMILES IDX 28 87 32 88 29 89 31 90 30 91
REMARK H PARENT 82 26 56 37 21 78
REMARK Flexibility Score: inf
ROOT
ATOM      1  C   UNL     1       1.892   1.489   2.293  1.00  0.00     0.188 C 
ENDROOT
BRANCH   1   2
ATOM      2  C   UNL     1       2.443   1.138   0.908  1.00  0.00     0.188 C 
BRANCH   2   3
ATOM      3  O   UNL     1       3.775   0.653   0.842  1.00  0.00    -0.376 OA
BRANCH   3   4
ATOM      4  C   UNL     1       4.666   1.380  -0.015  1.00  0.00     0.202 C 
BRANCH   4   5
ATOM      5  C   UNL     1       4.238   1.470  -1.489  1.00  0.00     0.261 C 
BRANCH   5   6
ATOM      6  O   UNL     1       4.045   0.164  -2.044  1.00  0.00    -0.460 OA
BRANCH   6   7
ATOM      7  C   UNL     1       2.853  -0.447  -1.806  1.00  0.00     0.338 C 
ATOM      8  O   UNL     1       1.742   0.035  -1.862  1.00  0.00    -0.246 OA
BRANCH   7   9
ATOM      9  C   UNL     1       3.207  -1.829  -1.419  1.00  0.00     0.060 A 
ATOM     10  C   UNL     1       4.333  -1.985  -0.604  1.00  0.00     0.016 A 
ATOM     11  C   UNL     1       2.549  -2.943  -1.931  1.00  0.00     0.016 A 
ATOM     12  C   UNL     1       4.927  -3.206  -0.451  1.00  0.00     0.010 A 
ATOM     13  C   UNL     1       3.117  -4.206  -1.720  1.00  0.00     0.010 A 
ATOM     14  C   UNL     1       4.338  -4.324  -1.024  1.00  0.00    -0.014 A 
BRANCH  14  15
ATOM     15  C   UNL     1       5.158  -5.545  -1.037  1.00  0.00     0.031 A 
ATOM     16  C   UNL     1       5.803  -5.950  -2.320  1.00  0.00     0.074 A 
ATOM     17  C   UNL     1       5.543  -6.125   0.114  1.00  0.00     0.049 A 
ATOM     18  N   UNL     1       6.524  -7.006  -2.575  1.00  0.00    -0.248 NA
ATOM     19  C   UNL     1       5.686  -5.005  -3.445  1.00  0.00     0.031 C 
ATOM     20  C   UNL     1       5.281  -5.592   1.448  1.00  0.00     0.029 A 
ATOM     21  N   UNL     1       6.256  -7.267   0.356  1.00  0.00    -0.354 N 
ATOM     22  C   UNL     1       6.963  -6.845  -3.878  1.00  0.00     0.074 A 
ATOM     23  C   UNL     1       6.397  -5.614  -4.381  1.00  0.00     0.031 C 
ATOM     24  C   UNL     1       5.759  -6.442   2.366  1.00  0.00     0.029 A 
ATOM     25  C   UNL     1       6.259  -7.613   1.685  1.00  0.00     0.049 A 
ATOM     26  H   UNL     1       6.716  -7.783  -0.345  1.00  0.00     0.167 HD
ATOM     27  C   UNL     1       7.788  -7.658  -4.573  1.00  0.00     0.037 A 
ATOM     28  C   UNL     1       6.546  -8.780   2.280  1.00  0.00     0.037 A 
ATOM     29  C   UNL     1       8.325  -8.878  -4.034  1.00  0.00     0.049 A 
ATOM     30  C   UNL     1       7.169  -9.829   1.424  1.00  0.00     0.074 A 
ATOM     31  C   UNL     1       9.101  -9.833  -4.659  1.00  0.00     0.029 A 
ATOM     32  N   UNL     1       8.127  -9.310  -2.727  1.00  0.00    -0.354 N 
ATOM     33  N   UNL     1       7.481  -9.753   0.153  1.00  0.00    -0.248 NA
ATOM     34  C   UNL     1       7.532 -11.091   2.071  1.00  0.00     0.031 C 
ATOM     35  C   UNL     1       9.320 -10.873  -3.748  1.00  0.00     0.029 A 
ATOM     36  C   UNL     1       8.732 -10.540  -2.537  1.00  0.00     0.049 A 
ATOM     37  H   UNL     1       7.630  -8.813  -2.037  1.00  0.00     0.167 HD
ATOM     38  C   UNL     1       8.148 -10.925  -0.141  1.00  0.00     0.074 A 
ATOM     39  C   UNL     1       8.164 -11.708   1.082  1.00  0.00     0.031 C 
ATOM     40  C   UNL     1       8.727 -11.296  -1.308  1.00  0.00     0.037 A 
BRANCH  27  41
ATOM     41  C   UNL     1       8.063  -7.277  -5.994  1.00  0.00     0.057 A 
ATOM     42  C   UNL     1       8.886  -6.195  -6.336  1.00  0.00     0.134 A 
ATOM     43  C   UNL     1       7.440  -7.972  -7.036  1.00  0.00     0.134 A 
ATOM     44  F   UNL     1       9.480  -5.462  -5.382  1.00  0.00    -0.206 F 
ATOM     45  C   UNL     1       9.059  -5.806  -7.666  1.00  0.00     0.040 A 
ATOM     46  C   UNL     1       7.623  -7.606  -8.370  1.00  0.00     0.040 A 
ATOM     47  F   UNL     1       6.625  -9.004  -6.773  1.00  0.00    -0.206 F 
ATOM     48  C   UNL     1       8.429  -6.515  -8.687  1.00  0.00     0.006 A 
ENDBRANCH  27  41
BRANCH  28  49
ATOM     49  C   UNL     1       6.167  -9.023   3.694  1.00  0.00     0.057 A 
ATOM     50  C   UNL     1       7.116  -9.172   4.707  1.00  0.00     0.134 A 
ATOM     51  C   UNL     1       4.815  -9.139   4.057  1.00  0.00     0.134 A 
ATOM     52  F   UNL     1       8.423  -9.076   4.424  1.00  0.00    -0.206 F 
ATOM     53  C   UNL     1       6.741  -9.456   6.023  1.00  0.00     0.040 A 
ATOM     54  C   UNL     1       4.425  -9.407   5.370  1.00  0.00     0.040 A 
ATOM     55  F   UNL     1       3.850  -8.988   3.137  1.00  0.00    -0.206 F 
ATOM     56  C   UNL     1       5.392  -9.577   6.357  1.00  0.00     0.006 A 
ENDBRANCH  28  49
BRANCH  40  57
ATOM     57  C   UNL     1       9.482 -12.584  -1.282  1.00  0.00     0.057 A 
ATOM     58  C   UNL     1       8.833 -13.822  -1.222  1.00  0.00     0.134 A 
ATOM     59  C   UNL     1      10.881 -12.576  -1.328  1.00  0.00     0.134 A 
ATOM     60  F   UNL     1       7.495 -13.886  -1.147  1.00  0.00    -0.206 F 
ATOM     61  C   UNL     1       9.555 -15.013  -1.187  1.00  0.00     0.040 A 
ATOM     62  C   UNL     1      11.611 -13.761  -1.326  1.00  0.00     0.040 A 
ATOM     63  F   UNL     1      11.555 -11.417  -1.383  1.00  0.00    -0.206 F 
ATOM     64  C   UNL     1      10.948 -14.984  -1.248  1.00  0.00     0.006 A 
ENDBRANCH  40  57
ENDBRANCH  14  15
ENDBRANCH   7   9
ENDBRANCH   6   7
ENDBRANCH   5   6
ENDBRANCH   4   5
ENDBRANCH   3   4
ENDBRANCH   2   3
ENDBRANCH   1   2
BRANCH   1  65
ATOM     65  O   UNL     1       2.729   1.909   3.353  1.00  0.00    -0.376 OA
BRANCH  65  66
ATOM     66  C   UNL     1       4.059   1.440   3.438  1.00  0.00     0.202 C 
BRANCH  66  67
ATOM     67  C   UNL     1       4.371  -0.010   3.848  1.00  0.00     0.261 C 
BRANCH  67  68
ATOM     68  O   UNL     1       3.851  -1.163   3.157  1.00  0.00    -0.463 OA
BRANCH  68  69
ATOM     69  C   UNL     1       2.662  -1.612   3.635  1.00  0.00     0.310 C 
ATOM     70  O   UNL     1       1.808  -0.874   4.096  1.00  0.00    -0.252 OA
BRANCH  69  71
ATOM     71  C   UNL     1       2.470  -3.115   3.538  1.00  0.00     0.117 C 
ATOM     72  C   UNL     1       1.022  -3.515   3.907  1.00  0.00     0.017 C 
ATOM     73  C   UNL     1       3.489  -3.944   4.341  1.00  0.00     0.084 C 
ATOM     74  C   UNL     1       0.719  -5.008   3.814  1.00  0.00     0.001 C 
ATOM     75  C   UNL     1       3.177  -5.435   4.032  1.00  0.00     0.021 C 
ATOM     76  C   UNL     1       1.785  -5.872   4.467  1.00  0.00     0.002 C 
BRANCH  73  77
ATOM     77  N   UNL     1       3.418  -3.837   5.832  1.00  0.00    -0.207 NA
ATOM     78  H   UNL     1       3.748  -4.734   6.188  1.00  0.00     0.141 HD
BRANCH  77  79
ATOM     79  S   UNL     1       4.224  -2.662   6.743  1.00  0.00     0.240 S 
ATOM     80  O   UNL     1       4.547  -3.307   7.988  1.00  0.00    -0.207 OA
ATOM     81  O   UNL     1       5.253  -2.083   5.897  1.00  0.00    -0.207 OA
BRANCH  79  82
ATOM     82  C   UNL     1       2.997  -1.426   7.106  1.00  0.00     0.083 A 
ATOM     83  C   UNL     1       3.401  -0.111   7.336  1.00  0.00     0.022 A 
ATOM     84  C   UNL     1       1.645  -1.727   6.941  1.00  0.00     0.030 A 
ATOM     85  C   UNL     1       2.458   0.920   7.259  1.00  0.00     0.010 A 
ATOM     86  C   UNL     1       0.720  -0.694   6.723  1.00  0.00    -0.017 A 
ATOM     87  C   UNL     1       1.133   0.649   6.877  1.00  0.00    -0.018 A 
ATOM     88  C   UNL     1      -0.560  -0.963   6.203  1.00  0.00     0.009 A 
ATOM     89  C   UNL     1       0.236   1.681   6.553  1.00  0.00     0.009 A 
ATOM     90  C   UNL     1      -1.403   0.075   5.805  1.00  0.00     0.001 A 
ATOM     91  C   UNL     1      -1.013   1.396   5.998  1.00  0.00     0.001 A 
ENDBRANCH  79  82
ENDBRANCH  77  79
ENDBRANCH  73  77
ENDBRANCH  69  71
ENDBRANCH  68  69
ENDBRANCH  67  68
ENDBRANCH  66  67
ENDBRANCH  65  66
ENDBRANCH   1  65
TORSDOF 20
