REMARK SMILES CCOc1cc(N2CCOCC2)ccc1[C@H]([NH3+])C(=O)OCCOCCOCCOC(=O)c1ccc(-c2c3nc(c(-c4c(F)cccc4F)c4ccc([nH]4)c(-c4c(F)cccc4F)c4nc(c(-c5c(F)cccc5F)c5ccc2[nH]5)C=C4)C=C3)cc1
REMARK SMILES IDX 24 1 23 2 22 3 21 4 20 5 18 6 19 7 16 8 15 9 4 10 5 11 6 12
REMARK SMILES IDX 14 13 13 14 3 15 2 16 1 17 7 18 8 19 12 20 9 21 11 22 10 23
REMARK SMILES IDX 17 24 25 28 26 29 27 30 28 31 29 32 30 33 31 34 32 35 33 36
REMARK SMILES IDX 85 37 34 38 84 39 35 40 36 41 37 42 78 43 38 44 83 45 77 46
REMARK SMILES IDX 79 47 39 48 82 49 76 50 75 51 40 53 66 54 49 55 65 56 50 57
REMARK SMILES IDX 53 58 64 59 80 60 51 61 52 62 63 64 81 65 54 66 41 67 42 68
REMARK SMILES IDX 47 69 43 70 44 71 46 72 48 73 45 74 67 75 68 76 73 77 69 78
REMARK SMILES IDX 70 79 72 80 74 81 71 82 55 83 56 84 61 85 57 86 58 87 60 88
REMARK SMILES IDX 62 89 59 90
REMARK H PARENT 17 25 17 26 17 27 79 52 53 63
REMARK Flexibility Score: inf
ROOT
ATOM      1  C   UNL     1       3.022   0.298  -3.165  1.00  0.00     0.188 C 
ENDROOT
BRANCH   1   2
ATOM      2  O   UNL     1       3.552   1.614  -3.272  1.00  0.00    -0.376 OA
BRANCH   2   3
ATOM      3  C   UNL     1       4.809   1.908  -2.690  1.00  0.00     0.202 C 
BRANCH   3   4
ATOM      4  C   UNL     1       4.867   1.966  -1.160  1.00  0.00     0.261 C 
BRANCH   4   5
ATOM      5  O   UNL     1       4.005   1.053  -0.463  1.00  0.00    -0.459 OA
BRANCH   5   6
ATOM      6  C   UNL     1       2.752   1.541  -0.224  1.00  0.00     0.369 C 
ATOM      7  O   UNL     1       2.338   2.620  -0.637  1.00  0.00    -0.245 OA
BRANCH   6   8
ATOM      8  C   UNL     1       1.948   0.664   0.752  1.00  0.00     0.326 C 
BRANCH   8   9
ATOM      9  C   UNL     1       2.290   1.090   2.164  1.00  0.00     0.063 A 
ATOM     10  C   UNL     1       3.150   0.419   3.044  1.00  0.00     0.131 A 
ATOM     11  C   UNL     1       3.342   0.902   4.346  1.00  0.00     0.072 A 
ATOM     12  C   UNL     1       2.694   2.070   4.783  1.00  0.00     0.040 A 
ATOM     13  C   UNL     1       1.734   2.311   2.578  1.00  0.00     0.016 A 
ATOM     14  C   UNL     1       1.943   2.796   3.860  1.00  0.00     0.027 A 
BRANCH  10  15
ATOM     15  O   UNL     1       3.632  -0.820   2.707  1.00  0.00    -0.493 OA
BRANCH  15  16
ATOM     16  C   UNL     1       5.011  -0.820   2.317  1.00  0.00     0.226 C 
ATOM     17  C   UNL     1       5.189  -1.923   1.280  1.00  0.00     0.049 C 
ENDBRANCH  15  16
ENDBRANCH  10  15
BRANCH  12  18
ATOM     18  N   UNL     1       2.700   2.409   6.127  1.00  0.00    -0.367 N 
ATOM     19  C   UNL     1       1.392   2.441   6.811  1.00  0.00     0.145 C 
ATOM     20  C   UNL     1       3.673   3.392   6.618  1.00  0.00     0.145 C 
ATOM     21  C   UNL     1       0.859   3.876   6.952  1.00  0.00     0.181 C 
ATOM     22  C   UNL     1       3.031   4.784   6.759  1.00  0.00     0.181 C 
ATOM     23  O   UNL     1       1.832   4.746   7.553  1.00  0.00    -0.378 OA
ENDBRANCH  12  18
ENDBRANCH   8   9
BRANCH   8  24
ATOM     24  N   UNL     1       1.980  -0.791   0.481  1.00  0.00    -0.342 N 
ATOM     25  H   UNL     1       2.934  -1.135   0.588  1.00  0.00     0.345 HD
ATOM     26  H   UNL     1       1.661  -0.966  -0.472  1.00  0.00     0.345 HD
ATOM     27  H   UNL     1       1.369  -1.273   1.139  1.00  0.00     0.345 HD
ENDBRANCH   8  24
ENDBRANCH   6   8
ENDBRANCH   5   6
ENDBRANCH   4   5
ENDBRANCH   3   4
ENDBRANCH   2   3
ENDBRANCH   1   2
BRANCH   1  28
ATOM     28  C   UNL     1       3.906  -0.870  -2.717  1.00  0.00     0.188 C 
BRANCH  28  29
ATOM     29  O   UNL     1       5.194  -0.871  -3.312  1.00  0.00    -0.376 OA
BRANCH  29  30
ATOM     30  C   UNL     1       5.811  -2.157  -3.324  1.00  0.00     0.202 C 
BRANCH  30  31
ATOM     31  C   UNL     1       5.578  -2.787  -4.700  1.00  0.00     0.261 C 
BRANCH  31  32
ATOM     32  O   UNL     1       4.180  -2.946  -5.024  1.00  0.00    -0.460 OA
BRANCH  32  33
ATOM     33  C   UNL     1       3.467  -3.797  -4.250  1.00  0.00     0.338 C 
ATOM     34  O   UNL     1       3.914  -4.553  -3.402  1.00  0.00    -0.246 OA
BRANCH  33  35
ATOM     35  C   UNL     1       2.023  -3.473  -4.404  1.00  0.00     0.060 A 
ATOM     36  C   UNL     1       1.216  -3.437  -3.255  1.00  0.00     0.016 A 
ATOM     37  C   UNL     1       1.476  -3.143  -5.646  1.00  0.00     0.016 A 
ATOM     38  C   UNL     1      -0.143  -3.114  -3.353  1.00  0.00     0.010 A 
ATOM     39  C   UNL     1       0.114  -2.835  -5.746  1.00  0.00     0.010 A 
ATOM     40  C   UNL     1      -0.712  -2.854  -4.607  1.00  0.00    -0.014 A 
BRANCH  40  41
ATOM     41  C   UNL     1      -2.190  -2.839  -4.777  1.00  0.00     0.031 A 
ATOM     42  C   UNL     1      -2.854  -4.104  -5.256  1.00  0.00     0.074 A 
ATOM     43  C   UNL     1      -2.941  -1.750  -4.530  1.00  0.00     0.049 A 
ATOM     44  N   UNL     1      -4.103  -4.322  -5.583  1.00  0.00    -0.248 NA
ATOM     45  C   UNL     1      -1.982  -5.283  -5.389  1.00  0.00     0.031 C 
ATOM     46  C   UNL     1      -2.449  -0.472  -4.024  1.00  0.00     0.029 A 
ATOM     47  N   UNL     1      -4.292  -1.550  -4.695  1.00  0.00    -0.354 N 
ATOM     48  C   UNL     1      -4.164  -5.656  -5.964  1.00  0.00     0.074 A 
ATOM     49  C   UNL     1      -2.822  -6.189  -5.863  1.00  0.00     0.031 C 
ATOM     50  C   UNL     1      -3.481   0.388  -3.941  1.00  0.00     0.029 A 
ATOM     51  C   UNL     1      -4.699  -0.267  -4.418  1.00  0.00     0.049 A 
ATOM     52  H   UNL     1      -4.909  -2.260  -4.985  1.00  0.00     0.167 HD
ATOM     53  C   UNL     1      -5.238  -6.382  -6.352  1.00  0.00     0.037 A 
ATOM     54  C   UNL     1      -5.907   0.316  -4.562  1.00  0.00     0.037 A 
ATOM     55  C   UNL     1      -6.575  -5.864  -6.464  1.00  0.00     0.049 A 
ATOM     56  C   UNL     1      -7.075  -0.488  -5.081  1.00  0.00     0.074 A 
ATOM     57  C   UNL     1      -7.726  -6.527  -6.852  1.00  0.00     0.029 A 
ATOM     58  N   UNL     1      -6.938  -4.554  -6.193  1.00  0.00    -0.354 N 
ATOM     59  N   UNL     1      -7.126  -1.753  -5.425  1.00  0.00    -0.248 NA
ATOM     60  C   UNL     1      -8.357   0.220  -5.233  1.00  0.00     0.031 C 
ATOM     61  C   UNL     1      -8.779  -5.606  -6.861  1.00  0.00     0.029 A 
ATOM     62  C   UNL     1      -8.293  -4.384  -6.426  1.00  0.00     0.049 A 
ATOM     63  H   UNL     1      -6.325  -3.850  -5.882  1.00  0.00     0.167 HD
ATOM     64  C   UNL     1      -8.444  -1.996  -5.797  1.00  0.00     0.074 A 
ATOM     65  C   UNL     1      -9.164  -0.753  -5.629  1.00  0.00     0.031 C 
ATOM     66  C   UNL     1      -9.008  -3.148  -6.239  1.00  0.00     0.037 A 
BRANCH  53  67
ATOM     67  C   UNL     1      -5.001  -7.821  -6.705  1.00  0.00     0.057 A 
ATOM     68  C   UNL     1      -4.704  -8.781  -5.729  1.00  0.00     0.134 A 
ATOM     69  C   UNL     1      -5.093  -8.255  -8.033  1.00  0.00     0.134 A 
ATOM     70  F   UNL     1      -4.584  -8.426  -4.440  1.00  0.00    -0.206 F 
ATOM     71  C   UNL     1      -4.483 -10.117  -6.064  1.00  0.00     0.040 A 
ATOM     72  C   UNL     1      -4.902  -9.593  -8.377  1.00  0.00     0.040 A 
ATOM     73  F   UNL     1      -5.376  -7.386  -9.016  1.00  0.00    -0.206 F 
ATOM     74  C   UNL     1      -4.589 -10.527  -7.392  1.00  0.00     0.006 A 
ENDBRANCH  53  67
BRANCH  54  75
ATOM     75  C   UNL     1      -6.088   1.758  -4.241  1.00  0.00     0.057 A 
ATOM     76  C   UNL     1      -6.890   2.171  -3.171  1.00  0.00     0.134 A 
ATOM     77  C   UNL     1      -5.512   2.757  -5.035  1.00  0.00     0.134 A 
ATOM     78  F   UNL     1      -7.499   1.263  -2.393  1.00  0.00    -0.206 F 
ATOM     79  C   UNL     1      -7.132   3.523  -2.915  1.00  0.00     0.040 A 
ATOM     80  C   UNL     1      -5.722   4.112  -4.774  1.00  0.00     0.040 A 
ATOM     81  F   UNL     1      -4.741   2.429  -6.082  1.00  0.00    -0.206 F 
ATOM     82  C   UNL     1      -6.543   4.498  -3.717  1.00  0.00     0.006 A 
ENDBRANCH  54  75
BRANCH  66  83
ATOM     83  C   UNL     1     -10.483  -3.140  -6.526  1.00  0.00     0.057 A 
ATOM     84  C   UNL     1     -11.022  -2.482  -7.639  1.00  0.00     0.134 A 
ATOM     85  C   UNL     1     -11.371  -3.847  -5.703  1.00  0.00     0.134 A 
ATOM     86  F   UNL     1     -10.230  -1.780  -8.463  1.00  0.00    -0.206 F 
ATOM     87  C   UNL     1     -12.392  -2.508  -7.910  1.00  0.00     0.040 A 
ATOM     88  C   UNL     1     -12.738  -3.902  -5.979  1.00  0.00     0.040 A 
ATOM     89  F   UNL     1     -10.921  -4.510  -4.627  1.00  0.00    -0.206 F 
ATOM     90  C   UNL     1     -13.253  -3.226  -7.082  1.00  0.00     0.006 A 
ENDBRANCH  66  83
ENDBRANCH  40  41
ENDBRANCH  33  35
ENDBRANCH  32  33
ENDBRANCH  31  32
ENDBRANCH  30  31
ENDBRANCH  29  30
ENDBRANCH  28  29
ENDBRANCH   1  28
TORSDOF 22
