REMARK SMILES Cc1nc(CC(=O)N2Cc3nc[nH]c3C[C@H]2C(=O)OCCOCCOCCOC(=O)c2ccc(-c3c4nc(c(-c5c(F)cccc5F)c5ccc([nH]5)c(-c5c(F)cccc5F)c5nc(c(-c6c(F)cccc6F)c6ccc3[nH]6)C=C5)C=C4)cc2)cs1
REMARK SMILES IDX 23 1 22 2 21 3 20 4 19 5 17 6 18 7 16 8 8 9 9 10 10 11 15 12
REMARK SMILES IDX 11 13 14 14 12 15 13 16 6 18 7 19 5 20 4 21 1 22 2 23 3 24
REMARK SMILES IDX 86 25 85 26 24 27 25 28 26 29 27 30 28 31 29 32 30 33 31 34
REMARK SMILES IDX 32 35 84 36 33 37 83 38 34 39 35 40 36 41 77 42 37 43 82 44
REMARK SMILES IDX 76 45 78 46 38 47 81 48 75 49 74 50 39 52 65 53 48 54 64 55
REMARK SMILES IDX 49 56 52 57 63 58 79 59 50 60 51 61 62 63 80 64 53 65 40 66
REMARK SMILES IDX 41 67 46 68 42 69 43 70 45 71 47 72 44 73 66 74 67 75 72 76
REMARK SMILES IDX 68 77 69 78 71 79 73 80 70 81 54 82 55 83 60 84 56 85 57 86
REMARK SMILES IDX 59 87 61 88 58 89
REMARK H PARENT 13 17 78 51 52 62
REMARK Flexibility Score: inf
ROOT
ATOM      1  C   UNL     1      -1.242  -4.176  -2.630  1.00  0.00     0.188 C 
ENDROOT
BRANCH   1   2
ATOM      2  O   UNL     1      -2.038  -4.817  -3.595  1.00  0.00    -0.376 OA
BRANCH   2   3
ATOM      3  C   UNL     1      -1.720  -4.641  -4.965  1.00  0.00     0.202 C 
BRANCH   3   4
ATOM      4  C   UNL     1      -0.998  -3.389  -5.507  1.00  0.00     0.261 C 
BRANCH   4   5
ATOM      5  O   UNL     1       0.139  -2.924  -4.753  1.00  0.00    -0.462 OA
BRANCH   5   6
ATOM      6  C   UNL     1       0.097  -1.642  -4.312  1.00  0.00     0.329 C 
ATOM      7  O   UNL     1      -0.827  -0.870  -4.564  1.00  0.00    -0.250 OA
BRANCH   6   8
ATOM      8  C   UNL     1       1.312  -1.188  -3.457  1.00  0.00     0.201 C 
ATOM      9  N   UNL     1       2.432  -2.103  -3.019  1.00  0.00    -0.322 N 
ATOM     10  C   UNL     1       3.232  -2.743  -4.099  1.00  0.00     0.178 C 
ATOM     11  C   UNL     1       3.352  -1.816  -5.258  1.00  0.00     0.081 A 
ATOM     12  C   UNL     1       1.935   0.013  -4.235  1.00  0.00     0.093 C 
ATOM     13  N   UNL     1       3.917  -2.136  -6.462  1.00  0.00    -0.240 NA
ATOM     14  C   UNL     1       2.762  -0.573  -5.318  1.00  0.00     0.042 A 
ATOM     15  C   UNL     1       3.674  -1.100  -7.237  1.00  0.00     0.197 A 
ATOM     16  N   UNL     1       2.977  -0.118  -6.582  1.00  0.00    -0.348 N 
ATOM     17  H   UNL     1       2.688   0.746  -6.954  1.00  0.00     0.167 HD
BRANCH   9  18
ATOM     18  C   UNL     1       3.002  -2.103  -1.745  1.00  0.00     0.229 C 
ATOM     19  O   UNL     1       4.221  -2.263  -1.598  1.00  0.00    -0.274 OA
BRANCH  18  20
ATOM     20  C   UNL     1       2.146  -2.116  -0.480  1.00  0.00     0.157 C 
BRANCH  20  21
ATOM     21  C   UNL     1       1.240  -0.964  -0.248  1.00  0.00     0.061 A 
ATOM     22  C   UNL     1      -2.270   0.031   0.012  1.00  0.00     0.079 C 
ATOM     23  C   UNL     1      -0.786  -0.081  -0.029  1.00  0.00     0.090 A 
ATOM     24  N   UNL     1      -0.132  -1.194  -0.282  1.00  0.00    -0.246 NA
ATOM     25  S   UNL     1       0.196   1.303   0.239  1.00  0.00    -0.127 S 
ATOM     26  C   UNL     1       1.598   0.339   0.038  1.00  0.00     0.091 A 
ENDBRANCH  20  21
ENDBRANCH  18  20
ENDBRANCH   9  18
ENDBRANCH   6   8
ENDBRANCH   5   6
ENDBRANCH   4   5
ENDBRANCH   3   4
ENDBRANCH   2   3
ENDBRANCH   1   2
BRANCH   1  27
ATOM     27  C   UNL     1       0.239  -4.550  -2.487  1.00  0.00     0.188 C 
BRANCH  27  28
ATOM     28  O   UNL     1       1.054  -5.071  -3.513  1.00  0.00    -0.376 OA
BRANCH  28  29
ATOM     29  C   UNL     1       1.010  -6.351  -4.111  1.00  0.00     0.202 C 
BRANCH  29  30
ATOM     30  C   UNL     1       0.464  -7.600  -3.437  1.00  0.00     0.261 C 
BRANCH  30  31
ATOM     31  O   UNL     1      -0.266  -7.322  -2.275  1.00  0.00    -0.460 OA
BRANCH  31  32
ATOM     32  C   UNL     1       0.515  -7.166  -1.192  1.00  0.00     0.338 C 
ATOM     33  O   UNL     1       1.738  -7.203  -1.130  1.00  0.00    -0.246 OA
BRANCH  32  34
ATOM     34  C   UNL     1      -0.368  -6.944  -0.051  1.00  0.00     0.060 A 
ATOM     35  C   UNL     1       0.266  -6.659   1.158  1.00  0.00     0.016 A 
ATOM     36  C   UNL     1      -1.671  -7.448  -0.144  1.00  0.00     0.016 A 
ATOM     37  C   UNL     1      -0.257  -7.240   2.279  1.00  0.00     0.010 A 
ATOM     38  C   UNL     1      -2.163  -8.071   0.959  1.00  0.00     0.010 A 
ATOM     39  C   UNL     1      -1.382  -8.049   2.113  1.00  0.00    -0.014 A 
BRANCH  39  40
ATOM     40  C   UNL     1      -1.780  -8.891   3.206  1.00  0.00     0.031 A 
ATOM     41  C   UNL     1      -2.523  -8.140   4.234  1.00  0.00     0.074 A 
ATOM     42  C   UNL     1      -1.588 -10.221   3.124  1.00  0.00     0.049 A 
ATOM     43  N   UNL     1      -2.225  -8.005   5.480  1.00  0.00    -0.248 NA
ATOM     44  C   UNL     1      -3.630  -7.275   3.780  1.00  0.00     0.031 C 
ATOM     45  C   UNL     1      -1.072 -10.992   1.985  1.00  0.00     0.029 A 
ATOM     46  N   UNL     1      -1.946 -11.188   4.004  1.00  0.00    -0.354 N 
ATOM     47  C   UNL     1      -3.244  -7.224   6.010  1.00  0.00     0.074 A 
ATOM     48  C   UNL     1      -3.942  -6.635   4.903  1.00  0.00     0.031 C 
ATOM     49  C   UNL     1      -1.377 -12.298   2.158  1.00  0.00     0.029 A 
ATOM     50  C   UNL     1      -2.009 -12.462   3.454  1.00  0.00     0.049 A 
ATOM     51  H   UNL     1      -2.144 -11.003   4.951  1.00  0.00     0.167 HD
ATOM     52  C   UNL     1      -3.624  -7.377   7.303  1.00  0.00     0.037 A 
ATOM     53  C   UNL     1      -2.649 -13.523   4.006  1.00  0.00     0.037 A 
ATOM     54  C   UNL     1      -2.577  -7.984   8.084  1.00  0.00     0.049 A 
ATOM     55  C   UNL     1      -2.880 -13.197   5.441  1.00  0.00     0.074 A 
ATOM     56  C   UNL     1      -1.268  -7.640   8.362  1.00  0.00     0.029 A 
ATOM     57  N   UNL     1      -2.690  -9.320   8.382  1.00  0.00    -0.354 N 
ATOM     58  N   UNL     1      -1.925 -13.114   6.326  1.00  0.00    -0.248 NA
ATOM     59  C   UNL     1      -4.106 -12.488   5.784  1.00  0.00     0.031 C 
ATOM     60  C   UNL     1      -0.553  -8.871   8.370  1.00  0.00     0.029 A 
ATOM     61  C   UNL     1      -1.468  -9.902   8.159  1.00  0.00     0.049 A 
ATOM     62  H   UNL     1      -3.503  -9.778   8.698  1.00  0.00     0.167 HD
ATOM     63  C   UNL     1      -2.260 -12.018   7.110  1.00  0.00     0.074 A 
ATOM     64  C   UNL     1      -3.653 -11.725   6.783  1.00  0.00     0.031 C 
ATOM     65  C   UNL     1      -1.295 -11.268   7.719  1.00  0.00     0.037 A 
BRANCH  52  66
ATOM     66  C   UNL     1      -5.067  -7.363   7.728  1.00  0.00     0.057 A 
ATOM     67  C   UNL     1      -5.366  -7.378   9.098  1.00  0.00     0.134 A 
ATOM     68  C   UNL     1      -6.158  -7.628   6.870  1.00  0.00     0.134 A 
ATOM     69  F   UNL     1      -4.409  -7.157  10.012  1.00  0.00    -0.206 F 
ATOM     70  C   UNL     1      -6.636  -7.709   9.580  1.00  0.00     0.040 A 
ATOM     71  C   UNL     1      -7.442  -7.904   7.340  1.00  0.00     0.040 A 
ATOM     72  F   UNL     1      -6.029  -7.738   5.543  1.00  0.00    -0.206 F 
ATOM     73  C   UNL     1      -7.678  -7.979   8.700  1.00  0.00     0.006 A 
ENDBRANCH  52  66
BRANCH  53  74
ATOM     74  C   UNL     1      -3.347 -14.636   3.321  1.00  0.00     0.057 A 
ATOM     75  C   UNL     1      -3.722 -15.792   4.020  1.00  0.00     0.134 A 
ATOM     76  C   UNL     1      -3.888 -14.500   2.029  1.00  0.00     0.134 A 
ATOM     77  F   UNL     1      -3.295 -15.997   5.274  1.00  0.00    -0.206 F 
ATOM     78  C   UNL     1      -4.596 -16.744   3.476  1.00  0.00     0.040 A 
ATOM     79  C   UNL     1      -4.751 -15.447   1.470  1.00  0.00     0.040 A 
ATOM     80  F   UNL     1      -3.670 -13.400   1.294  1.00  0.00    -0.206 F 
ATOM     81  C   UNL     1      -5.120 -16.569   2.200  1.00  0.00     0.006 A 
ENDBRANCH  53  74
BRANCH  65  82
ATOM     82  C   UNL     1       0.113 -11.798   7.709  1.00  0.00     0.057 A 
ATOM     83  C   UNL     1       0.871 -11.985   6.542  1.00  0.00     0.134 A 
ATOM     84  C   UNL     1       0.777 -11.972   8.927  1.00  0.00     0.134 A 
ATOM     85  F   UNL     1       0.353 -11.738   5.333  1.00  0.00    -0.206 F 
ATOM     86  C   UNL     1       2.213 -12.374   6.587  1.00  0.00     0.040 A 
ATOM     87  C   UNL     1       2.127 -12.326   8.986  1.00  0.00     0.040 A 
ATOM     88  F   UNL     1       0.134 -11.750  10.084  1.00  0.00    -0.206 F 
ATOM     89  C   UNL     1       2.847 -12.539   7.814  1.00  0.00     0.006 A 
ENDBRANCH  65  82
ENDBRANCH  39  40
ENDBRANCH  32  34
ENDBRANCH  31  32
ENDBRANCH  30  31
ENDBRANCH  29  30
ENDBRANCH  28  29
ENDBRANCH  27  28
ENDBRANCH   1  27
TORSDOF 20
