REMARK SMILES COCCCC(=O)N[C@H]1CC[C@@H](C(=O)OCCOCCOCCOC(=O)c2ccc(-c3c4nc(c(-c5c(F)cccc5F)c5ccc([nH]5)c(-c5c(F)cccc5F)c5nc(c(-c6c(F)cccc6F)c6ccc3[nH]6)C=C5)C=C4)cc2)CC1
REMARK SMILES IDX 18 1 17 2 16 3 15 4 13 5 14 6 12 7 9 8 10 9 82 10 11 11
REMARK SMILES IDX 81 12 8 13 6 14 7 15 5 17 4 18 3 19 2 20 1 21 19 22 20 23
REMARK SMILES IDX 21 24 22 25 23 26 24 27 25 28 26 29 27 30 28 31 80 32 29 33
REMARK SMILES IDX 79 34 30 35 31 36 32 37 73 38 33 39 78 40 72 41 74 42 34 43
REMARK SMILES IDX 77 44 71 45 70 46 35 48 61 49 44 50 60 51 45 52 48 53 59 54
REMARK SMILES IDX 75 55 46 56 47 57 58 59 76 60 49 61 36 62 37 63 42 64 38 65
REMARK SMILES IDX 39 66 41 67 43 68 40 69 62 70 63 71 68 72 64 73 65 74 67 75
REMARK SMILES IDX 69 76 66 77 50 78 51 79 56 80 52 81 53 82 55 83 57 84 54 85
REMARK H PARENT 8 16 74 47 48 58
REMARK Flexibility Score: inf
ROOT
ATOM      1  O   UNL     1       5.185   4.686   5.666  1.00  0.00    -0.376 OA
ENDROOT
BRANCH   1   2
ATOM      2  C   UNL     1       5.458   3.292   5.753  1.00  0.00     0.202 C 
BRANCH   2   3
ATOM      3  C   UNL     1       4.312   2.283   5.576  1.00  0.00     0.261 C 
BRANCH   3   4
ATOM      4  O   UNL     1       3.704   2.244   4.269  1.00  0.00    -0.463 OA
BRANCH   4   5
ATOM      5  C   UNL     1       2.458   2.766   4.170  1.00  0.00     0.309 C 
ATOM      6  O   UNL     1       1.854   3.302   5.094  1.00  0.00    -0.252 OA
BRANCH   5   7
ATOM      7  C   UNL     1       1.786   2.526   2.819  1.00  0.00     0.099 C 
ATOM      8  C   UNL     1       2.490  -0.072   1.522  1.00  0.00     0.082 C 
ATOM      9  C   UNL     1       1.856   0.036   2.911  1.00  0.00     0.026 C 
ATOM     10  C   UNL     1       3.377   1.156   1.285  1.00  0.00     0.026 C 
ATOM     11  C   UNL     1       0.961   1.266   3.020  1.00  0.00     0.017 C 
ATOM     12  C   UNL     1       2.567   2.439   1.487  1.00  0.00     0.017 C 
BRANCH   8  13
ATOM     13  N   UNL     1       3.215  -1.316   1.399  1.00  0.00    -0.353 N 
ATOM     14  C   UNL     1       2.772  -2.583   1.195  1.00  0.00     0.220 C 
ATOM     15  O   UNL     1       3.622  -3.476   1.286  1.00  0.00    -0.275 OA
ATOM     16  H   UNL     1       4.193  -1.230   1.477  1.00  0.00     0.163 HD
BRANCH  14  17
ATOM     17  C   UNL     1       1.355  -2.939   0.746  1.00  0.00     0.102 C 
BRANCH  17  18
ATOM     18  C   UNL     1       0.120  -2.563   1.567  1.00  0.00     0.038 C 
BRANCH  18  19
ATOM     19  C   UNL     1      -0.678  -1.351   1.081  1.00  0.00     0.160 C 
BRANCH  19  20
ATOM     20  O   UNL     1      -1.081  -1.493  -0.277  1.00  0.00    -0.385 OA
ATOM     21  C   UNL     1      -0.400  -0.606  -1.159  1.00  0.00     0.194 C 
ENDBRANCH  19  20
ENDBRANCH  18  19
ENDBRANCH  17  18
ENDBRANCH  14  17
ENDBRANCH   8  13
ENDBRANCH   5   7
ENDBRANCH   4   5
ENDBRANCH   3   4
ENDBRANCH   2   3
ENDBRANCH   1   2
BRANCH   1  22
ATOM     22  C   UNL     1       4.532   5.223   4.526  1.00  0.00     0.188 C 
BRANCH  22  23
ATOM     23  C   UNL     1       4.798   4.621   3.145  1.00  0.00     0.188 C 
BRANCH  23  24
ATOM     24  O   UNL     1       5.799   3.636   3.084  1.00  0.00    -0.376 OA
BRANCH  24  25
ATOM     25  C   UNL     1       7.005   3.926   2.400  1.00  0.00     0.202 C 
BRANCH  25  26
ATOM     26  C   UNL     1       7.712   5.271   2.647  1.00  0.00     0.261 C 
BRANCH  26  27
ATOM     27  O   UNL     1       6.892   6.452   2.598  1.00  0.00    -0.460 OA
BRANCH  27  28
ATOM     28  C   UNL     1       6.364   6.808   1.397  1.00  0.00     0.338 C 
ATOM     29  O   UNL     1       6.570   6.282   0.328  1.00  0.00    -0.246 OA
BRANCH  28  30
ATOM     30  C   UNL     1       5.252   7.762   1.683  1.00  0.00     0.060 A 
ATOM     31  C   UNL     1       3.974   7.483   1.169  1.00  0.00     0.016 A 
ATOM     32  C   UNL     1       5.440   8.861   2.522  1.00  0.00     0.016 A 
ATOM     33  C   UNL     1       2.892   8.317   1.471  1.00  0.00     0.010 A 
ATOM     34  C   UNL     1       4.364   9.709   2.803  1.00  0.00     0.010 A 
ATOM     35  C   UNL     1       3.091   9.461   2.254  1.00  0.00    -0.014 A 
BRANCH  35  36
ATOM     36  C   UNL     1       2.053  10.523   2.307  1.00  0.00     0.031 A 
ATOM     37  C   UNL     1       2.207  11.693   1.370  1.00  0.00     0.074 A 
ATOM     38  C   UNL     1       1.009  10.477   3.155  1.00  0.00     0.049 A 
ATOM     39  N   UNL     1       1.512  12.799   1.294  1.00  0.00    -0.248 NA
ATOM     40  C   UNL     1       3.302  11.602   0.390  1.00  0.00     0.031 C 
ATOM     41  C   UNL     1       0.711   9.389   4.081  1.00  0.00     0.029 A 
ATOM     42  N   UNL     1       0.011  11.396   3.383  1.00  0.00    -0.354 N 
ATOM     43  C   UNL     1       2.099  13.540   0.276  1.00  0.00     0.074 A 
ATOM     44  C   UNL     1       3.216  12.771  -0.224  1.00  0.00     0.031 C 
ATOM     45  C   UNL     1      -0.381   9.714   4.798  1.00  0.00     0.029 A 
ATOM     46  C   UNL     1      -0.836  11.049   4.408  1.00  0.00     0.049 A 
ATOM     47  H   UNL     1      -0.087  12.225   2.861  1.00  0.00     0.167 HD
ATOM     48  C   UNL     1       1.738  14.754  -0.202  1.00  0.00     0.037 A 
ATOM     49  C   UNL     1      -1.838  11.744   4.986  1.00  0.00     0.037 A 
ATOM     50  C   UNL     1       0.623  15.519   0.286  1.00  0.00     0.049 A 
ATOM     51  C   UNL     1      -2.176  13.127   4.479  1.00  0.00     0.074 A 
ATOM     52  C   UNL     1       0.165  16.746  -0.159  1.00  0.00     0.029 A 
ATOM     53  N   UNL     1      -0.201  15.136   1.331  1.00  0.00    -0.354 N 
ATOM     54  N   UNL     1      -1.636  13.807   3.496  1.00  0.00    -0.248 NA
ATOM     55  C   UNL     1      -3.266  13.840   5.165  1.00  0.00     0.031 C 
ATOM     56  C   UNL     1      -0.900  17.135   0.658  1.00  0.00     0.029 A 
ATOM     57  C   UNL     1      -1.148  16.119   1.566  1.00  0.00     0.049 A 
ATOM     58  H   UNL     1      -0.124  14.292   1.833  1.00  0.00     0.167 HD
ATOM     59  C   UNL     1      -2.344  15.003   3.423  1.00  0.00     0.074 A 
ATOM     60  C   UNL     1      -3.359  14.953   4.451  1.00  0.00     0.031 C 
ATOM     61  C   UNL     1      -2.169  16.049   2.578  1.00  0.00     0.037 A 
BRANCH  48  62
ATOM     62  C   UNL     1       2.576  15.349  -1.294  1.00  0.00     0.057 A 
ATOM     63  C   UNL     1       2.553  14.854  -2.603  1.00  0.00     0.134 A 
ATOM     64  C   UNL     1       3.373  16.473  -1.040  1.00  0.00     0.134 A 
ATOM     65  F   UNL     1       1.825  13.769  -2.908  1.00  0.00    -0.206 F 
ATOM     66  C   UNL     1       3.301  15.450  -3.620  1.00  0.00     0.040 A 
ATOM     67  C   UNL     1       4.103  17.094  -2.054  1.00  0.00     0.040 A 
ATOM     68  F   UNL     1       3.439  16.997   0.194  1.00  0.00    -0.206 F 
ATOM     69  C   UNL     1       4.069  16.581  -3.348  1.00  0.00     0.006 A 
ENDBRANCH  48  62
BRANCH  49  70
ATOM     70  C   UNL     1      -2.584  11.177   6.142  1.00  0.00     0.057 A 
ATOM     71  C   UNL     1      -3.949  10.872   6.053  1.00  0.00     0.134 A 
ATOM     72  C   UNL     1      -1.968  10.995   7.386  1.00  0.00     0.134 A 
ATOM     73  F   UNL     1      -4.606  11.055   4.898  1.00  0.00    -0.206 F 
ATOM     74  C   UNL     1      -4.678  10.438   7.162  1.00  0.00     0.040 A 
ATOM     75  C   UNL     1      -2.678  10.530   8.496  1.00  0.00     0.040 A 
ATOM     76  F   UNL     1      -0.666  11.273   7.545  1.00  0.00    -0.206 F 
ATOM     77  C   UNL     1      -4.040  10.263   8.388  1.00  0.00     0.006 A 
ENDBRANCH  49  70
BRANCH  61  78
ATOM     78  C   UNL     1      -3.127  17.203   2.683  1.00  0.00     0.057 A 
ATOM     79  C   UNL     1      -3.112  18.090   3.766  1.00  0.00     0.134 A 
ATOM     80  C   UNL     1      -4.044  17.458   1.654  1.00  0.00     0.134 A 
ATOM     81  F   UNL     1      -2.265  17.901   4.790  1.00  0.00    -0.206 F 
ATOM     82  C   UNL     1      -3.990  19.174   3.834  1.00  0.00     0.040 A 
ATOM     83  C   UNL     1      -4.905  18.556   1.695  1.00  0.00     0.040 A 
ATOM     84  F   UNL     1      -4.103  16.657   0.580  1.00  0.00    -0.206 F 
ATOM     85  C   UNL     1      -4.884  19.414   2.792  1.00  0.00     0.006 A 
ENDBRANCH  61  78
ENDBRANCH  35  36
ENDBRANCH  28  30
ENDBRANCH  27  28
ENDBRANCH  26  27
ENDBRANCH  25  26
ENDBRANCH  24  25
ENDBRANCH  23  24
ENDBRANCH  22  23
ENDBRANCH   1  22
TORSDOF 22
