REMARK SMILES C[C@H](O)[C@@H](NC(=O)c1ccc(Cl)c(S(C)(=O)=O)c1)C(=O)OCCOCCOCCOC(=O)c1ccc(-c2c3nc(c(-c4c(F)cccc4F)c4ccc([nH]4)c(-c4c(F)cccc4F)c4nc(c(-c5c(F)cccc5F)c5ccc2[nH]5)C=C4)C=C3)cc1
REMARK SMILES IDX 25 1 24 2 23 3 22 4 21 5 19 6 20 7 4 8 2 9 1 10 3 11 5 13
REMARK SMILES IDX 6 14 7 16 8 17 9 18 18 19 10 20 13 21 11 22 12 23 14 24
REMARK SMILES IDX 15 25 16 26 17 27 26 28 27 29 28 30 29 31 30 32 31 33 32 34
REMARK SMILES IDX 33 35 34 36 86 37 35 38 85 39 36 40 37 41 38 42 79 43 39 44
REMARK SMILES IDX 84 45 78 46 80 47 40 48 83 49 77 50 76 51 41 53 67 54 50 55
REMARK SMILES IDX 66 56 51 57 54 58 65 59 81 60 52 61 53 62 64 64 82 65 55 66
REMARK SMILES IDX 42 67 43 68 48 69 44 70 45 71 47 72 49 73 46 74 68 75 69 76
REMARK SMILES IDX 74 77 70 78 71 79 73 80 75 81 72 82 56 83 57 84 62 85 58 86
REMARK SMILES IDX 59 87 61 88 63 89 60 90
REMARK H PARENT 3 12 5 15 80 52 54 63
REMARK Flexibility Score: inf
ROOT
ATOM      1  C   UNL     1      -1.123  -4.667   3.088  1.00  0.00     0.188 C 
ENDROOT
BRANCH   1   2
ATOM      2  O   UNL     1      -1.406  -5.957   2.578  1.00  0.00    -0.376 OA
BRANCH   2   3
ATOM      3  C   UNL     1      -1.247  -6.189   1.181  1.00  0.00     0.202 C 
BRANCH   3   4
ATOM      4  C   UNL     1      -1.814  -5.155   0.206  1.00  0.00     0.261 C 
BRANCH   4   5
ATOM      5  O   UNL     1      -1.045  -3.965  -0.111  1.00  0.00    -0.462 OA
BRANCH   5   6
ATOM      6  C   UNL     1      -1.642  -2.778   0.184  1.00  0.00     0.331 C 
ATOM      7  O   UNL     1      -2.619  -2.671   0.924  1.00  0.00    -0.250 OA
BRANCH   6   8
ATOM      8  C   UNL     1      -1.114  -1.562  -0.586  1.00  0.00     0.221 C 
BRANCH   8   9
ATOM      9  C   UNL     1       0.418  -1.371  -0.713  1.00  0.00     0.145 C 
ATOM     10  C   UNL     1       1.217  -1.353   0.583  1.00  0.00     0.041 C 
BRANCH   9  11
ATOM     11  O   UNL     1       0.642  -0.085  -1.346  1.00  0.00    -0.391 OA
ATOM     12  H   UNL     1       0.300   0.621  -0.775  1.00  0.00     0.211 HD
ENDBRANCH   9  11
ENDBRANCH   8   9
BRANCH   8  13
ATOM     13  N   UNL     1      -1.725  -1.291  -1.912  1.00  0.00    -0.336 N 
ATOM     14  C   UNL     1      -2.839  -1.732  -2.562  1.00  0.00     0.252 C 
ATOM     15  H   UNL     1      -1.207  -0.644  -2.443  1.00  0.00     0.164 HD
ATOM     16  O   UNL     1      -3.278  -1.132  -3.538  1.00  0.00    -0.269 OA
BRANCH  14  17
ATOM     17  C   UNL     1      -3.463  -3.012  -2.215  1.00  0.00     0.041 A 
ATOM     18  C   UNL     1      -4.543  -3.072  -1.339  1.00  0.00     0.015 A 
ATOM     19  C   UNL     1      -3.000  -4.164  -2.855  1.00  0.00     0.035 A 
ATOM     20  C   UNL     1      -5.136  -4.310  -1.070  1.00  0.00     0.023 A 
ATOM     21  C   UNL     1      -3.601  -5.405  -2.587  1.00  0.00     0.086 A 
ATOM     22  C   UNL     1      -4.675  -5.482  -1.692  1.00  0.00     0.059 A 
ATOM     23  Cl  UNL     1      -5.496  -6.939  -1.276  1.00  0.00    -0.083 Cl
BRANCH  21  24
ATOM     24  S   UNL     1      -2.816  -6.845  -3.280  1.00  0.00     0.177 S 
ATOM     25  C   UNL     1      -3.795  -7.212  -4.706  1.00  0.00     0.164 C 
ATOM     26  O   UNL     1      -1.504  -6.428  -3.744  1.00  0.00    -0.224 OA
ATOM     27  O   UNL     1      -2.911  -7.934  -2.329  1.00  0.00    -0.224 OA
ENDBRANCH  21  24
ENDBRANCH  14  17
ENDBRANCH   8  13
ENDBRANCH   6   8
ENDBRANCH   5   6
ENDBRANCH   4   5
ENDBRANCH   3   4
ENDBRANCH   2   3
ENDBRANCH   1   2
BRANCH   1  28
ATOM     28  C   UNL     1       0.150  -3.979   2.599  1.00  0.00     0.188 C 
BRANCH  28  29
ATOM     29  O   UNL     1       0.983  -4.745   1.753  1.00  0.00    -0.376 OA
BRANCH  29  30
ATOM     30  C   UNL     1       2.089  -5.435   2.328  1.00  0.00     0.202 C 
BRANCH  30  31
ATOM     31  C   UNL     1       1.874  -6.162   3.665  1.00  0.00     0.261 C 
BRANCH  31  32
ATOM     32  O   UNL     1       1.511  -5.302   4.763  1.00  0.00    -0.460 OA
BRANCH  32  33
ATOM     33  C   UNL     1       2.340  -4.269   5.040  1.00  0.00     0.338 C 
ATOM     34  O   UNL     1       3.462  -4.081   4.602  1.00  0.00    -0.246 OA
BRANCH  33  35
ATOM     35  C   UNL     1       1.533  -3.238   5.733  1.00  0.00     0.060 A 
ATOM     36  C   UNL     1       1.549  -1.931   5.218  1.00  0.00     0.016 A 
ATOM     37  C   UNL     1       0.703  -3.566   6.807  1.00  0.00     0.016 A 
ATOM     38  C   UNL     1       0.774  -0.939   5.812  1.00  0.00     0.010 A 
ATOM     39  C   UNL     1      -0.052  -2.564   7.421  1.00  0.00     0.010 A 
ATOM     40  C   UNL     1       0.020  -1.240   6.953  1.00  0.00    -0.014 A 
BRANCH  40  41
ATOM     41  C   UNL     1      -0.424  -0.119   7.815  1.00  0.00     0.031 A 
ATOM     42  C   UNL     1       0.509   0.310   8.916  1.00  0.00     0.074 A 
ATOM     43  C   UNL     1      -1.569   0.548   7.594  1.00  0.00     0.049 A 
ATOM     44  N   UNL     1       0.392   1.289   9.774  1.00  0.00    -0.248 NA
ATOM     45  C   UNL     1       1.749  -0.473   9.061  1.00  0.00     0.031 C 
ATOM     46  C   UNL     1      -2.535   0.257   6.539  1.00  0.00     0.029 A 
ATOM     47  N   UNL     1      -2.102   1.627   8.254  1.00  0.00    -0.354 N 
ATOM     48  C   UNL     1       1.541   1.240  10.553  1.00  0.00     0.074 A 
ATOM     49  C   UNL     1       2.324   0.116  10.096  1.00  0.00     0.031 C 
ATOM     50  C   UNL     1      -3.548   1.139   6.623  1.00  0.00     0.029 A 
ATOM     51  C   UNL     1      -3.308   2.044   7.746  1.00  0.00     0.049 A 
ATOM     52  H   UNL     1      -1.662   2.061   9.020  1.00  0.00     0.167 HD
ATOM     53  C   UNL     1       1.923   2.067  11.553  1.00  0.00     0.037 A 
ATOM     54  C   UNL     1      -4.119   3.041   8.151  1.00  0.00     0.037 A 
ATOM     55  C   UNL     1       1.144   3.180  12.020  1.00  0.00     0.049 A 
ATOM     56  C   UNL     1      -3.703   3.910   9.311  1.00  0.00     0.074 A 
ATOM     57  C   UNL     1       1.437   4.074  13.034  1.00  0.00     0.029 A 
ATOM     58  N   UNL     1      -0.089   3.546  11.503  1.00  0.00    -0.354 N 
ATOM     59  N   UNL     1      -2.605   3.870  10.028  1.00  0.00    -0.248 NA
ATOM     60  C   UNL     1      -4.639   4.972   9.711  1.00  0.00     0.031 C 
ATOM     61  C   UNL     1       0.359   4.957  13.158  1.00  0.00     0.029 A 
ATOM     62  C   UNL     1      -0.579   4.645  12.188  1.00  0.00     0.049 A 
ATOM     63  H   UNL     1      -0.548   3.092  10.760  1.00  0.00     0.167 HD
ATOM     64  C   UNL     1      -2.703   4.918  10.937  1.00  0.00     0.074 A 
ATOM     65  C   UNL     1      -3.962   5.583  10.672  1.00  0.00     0.031 C 
ATOM     66  C   UNL     1      -1.830   5.300  11.902  1.00  0.00     0.037 A 
BRANCH  53  67
ATOM     67  C   UNL     1       3.231   1.769  12.222  1.00  0.00     0.057 A 
ATOM     68  C   UNL     1       4.457   1.987  11.578  1.00  0.00     0.134 A 
ATOM     69  C   UNL     1       3.264   1.252  13.522  1.00  0.00     0.134 A 
ATOM     70  F   UNL     1       4.491   2.454  10.321  1.00  0.00    -0.206 F 
ATOM     71  C   UNL     1       5.669   1.679  12.197  1.00  0.00     0.040 A 
ATOM     72  C   UNL     1       4.471   0.965  14.161  1.00  0.00     0.040 A 
ATOM     73  F   UNL     1       2.126   1.014  14.190  1.00  0.00    -0.206 F 
ATOM     74  C   UNL     1       5.678   1.173  13.495  1.00  0.00     0.006 A 
ENDBRANCH  53  67
BRANCH  54  75
ATOM     75  C   UNL     1      -5.410   3.284   7.457  1.00  0.00     0.057 A 
ATOM     76  C   UNL     1      -5.622   4.440   6.696  1.00  0.00     0.134 A 
ATOM     77  C   UNL     1      -6.478   2.386   7.574  1.00  0.00     0.134 A 
ATOM     78  F   UNL     1      -4.646   5.352   6.569  1.00  0.00    -0.206 F 
ATOM     79  C   UNL     1      -6.853   4.705   6.094  1.00  0.00     0.040 A 
ATOM     80  C   UNL     1      -7.706   2.626   6.956  1.00  0.00     0.040 A 
ATOM     81  F   UNL     1      -6.341   1.262   8.291  1.00  0.00    -0.206 F 
ATOM     82  C   UNL     1      -7.899   3.793   6.221  1.00  0.00     0.006 A 
ENDBRANCH  54  75
BRANCH  66  83
ATOM     83  C   UNL     1      -2.182   6.516  12.709  1.00  0.00     0.057 A 
ATOM     84  C   UNL     1      -3.210   6.505  13.660  1.00  0.00     0.134 A 
ATOM     85  C   UNL     1      -1.460   7.706  12.550  1.00  0.00     0.134 A 
ATOM     86  F   UNL     1      -3.945   5.400  13.855  1.00  0.00    -0.206 F 
ATOM     87  C   UNL     1      -3.529   7.645  14.401  1.00  0.00     0.040 A 
ATOM     88  C   UNL     1      -1.751   8.843  13.305  1.00  0.00     0.040 A 
ATOM     89  F   UNL     1      -0.454   7.781  11.666  1.00  0.00    -0.206 F 
ATOM     90  C   UNL     1      -2.794   8.817  14.228  1.00  0.00     0.006 A 
ENDBRANCH  66  83
ENDBRANCH  40  41
ENDBRANCH  33  35
ENDBRANCH  32  33
ENDBRANCH  31  32
ENDBRANCH  30  31
ENDBRANCH  29  30
ENDBRANCH  28  29
ENDBRANCH   1  28
TORSDOF 22
