REMARK SMILES O=C(OCCOCCOCCOC(=O)[C@H]1CC=CC[C@@H]1C(=O)Nc1ccccc1C(=O)NCc1ccco1)c1ccc(-c2c3nc(c(-c4c(F)cccc4F)c4ccc([nH]4)c(-c4c(F)cccc4F)c4nc(c(-c5c(F)cccc5F)c5ccc2[nH]5)C=C4)C=C3)cc1
REMARK SMILES IDX 9 1 8 2 7 3 6 4 5 5 4 6 3 7 2 8 1 9 39 10 40 11 92 12 41 13
REMARK SMILES IDX 91 14 42 15 43 16 44 17 85 18 45 19 90 20 84 21 86 22 46 23
REMARK SMILES IDX 89 24 83 25 82 26 47 28 73 29 56 30 72 31 57 32 60 33 71 34
REMARK SMILES IDX 87 35 58 36 59 37 70 39 88 40 61 41 48 42 49 43 54 44 50 45
REMARK SMILES IDX 51 46 53 47 55 48 52 49 74 50 75 51 80 52 76 53 77 54 79 55
REMARK SMILES IDX 81 56 78 57 62 58 63 59 68 60 64 61 65 62 67 63 69 64 66 65
REMARK SMILES IDX 10 66 11 67 12 68 13 69 14 70 15 71 16 72 20 73 17 74 19 75
REMARK SMILES IDX 18 76 21 77 22 78 23 79 24 81 25 82 29 83 26 84 28 85 27 86
REMARK SMILES IDX 30 87 31 88 32 89 33 91 34 92 35 93 38 94 36 95 37 96
REMARK H PARENT 86 27 60 38 23 80 32 90
REMARK Flexibility Score: inf
ROOT
ATOM      1  O   UNL     1       2.689   4.333   0.131  1.00  0.00    -0.376 OA
ENDROOT
BRANCH   1   2
ATOM      2  C   UNL     1       2.071   3.099   0.486  1.00  0.00     0.188 C 
BRANCH   2   3
ATOM      3  C   UNL     1       2.594   1.844  -0.208  1.00  0.00     0.188 C 
BRANCH   3   4
ATOM      4  O   UNL     1       3.938   1.527   0.168  1.00  0.00    -0.376 OA
BRANCH   4   5
ATOM      5  C   UNL     1       4.742   1.011  -0.899  1.00  0.00     0.202 C 
BRANCH   5   6
ATOM      6  C   UNL     1       4.371  -0.392  -1.419  1.00  0.00     0.261 C 
BRANCH   6   7
ATOM      7  O   UNL     1       2.985  -0.743  -1.241  1.00  0.00    -0.460 OA
BRANCH   7   8
ATOM      8  C   UNL     1       2.411  -1.445  -0.231  1.00  0.00     0.338 C 
ATOM      9  O   UNL     1       1.228  -1.768  -0.328  1.00  0.00    -0.246 OA
BRANCH   8  10
ATOM     10  C   UNL     1       3.140  -1.840   1.011  1.00  0.00     0.060 A 
ATOM     11  C   UNL     1       4.286  -1.204   1.476  1.00  0.00     0.016 A 
ATOM     12  C   UNL     1       2.608  -2.880   1.794  1.00  0.00     0.016 A 
ATOM     13  C   UNL     1       4.969  -1.651   2.588  1.00  0.00     0.010 A 
ATOM     14  C   UNL     1       3.253  -3.299   2.966  1.00  0.00     0.010 A 
ATOM     15  C   UNL     1       4.463  -2.705   3.338  1.00  0.00    -0.014 A 
BRANCH  15  16
ATOM     16  C   UNL     1       5.341  -3.220   4.403  1.00  0.00     0.031 A 
ATOM     17  C   UNL     1       6.073  -4.501   4.158  1.00  0.00     0.074 A 
ATOM     18  C   UNL     1       5.647  -2.420   5.442  1.00  0.00     0.049 A 
ATOM     19  N   UNL     1       6.950  -5.106   4.910  1.00  0.00    -0.248 NA
ATOM     20  C   UNL     1       5.799  -5.184   2.881  1.00  0.00     0.031 C 
ATOM     21  C   UNL     1       5.070  -1.093   5.674  1.00  0.00     0.029 A 
ATOM     22  N   UNL     1       6.550  -2.571   6.459  1.00  0.00    -0.354 N 
ATOM     23  C   UNL     1       7.320  -6.244   4.207  1.00  0.00     0.074 A 
ATOM     24  C   UNL     1       6.561  -6.260   2.978  1.00  0.00     0.031 C 
ATOM     25  C   UNL     1       5.662  -0.539   6.742  1.00  0.00     0.029 A 
ATOM     26  C   UNL     1       6.596  -1.496   7.313  1.00  0.00     0.049 A 
ATOM     27  H   UNL     1       7.112  -3.372   6.568  1.00  0.00     0.167 HD
ATOM     28  C   UNL     1       8.220  -7.186   4.566  1.00  0.00     0.037 A 
ATOM     29  C   UNL     1       7.287  -1.321   8.454  1.00  0.00     0.037 A 
ATOM     30  C   UNL     1       8.950  -7.142   5.804  1.00  0.00     0.049 A 
ATOM     31  C   UNL     1       8.191  -2.439   8.886  1.00  0.00     0.074 A 
ATOM     32  C   UNL     1       9.810  -8.081   6.338  1.00  0.00     0.029 A 
ATOM     33  N   UNL     1       8.898  -6.083   6.703  1.00  0.00    -0.354 N 
ATOM     34  N   UNL     1       8.469  -3.560   8.263  1.00  0.00    -0.248 NA
ATOM     35  C   UNL     1       8.865  -2.281  10.178  1.00  0.00     0.031 C 
ATOM     36  C   UNL     1      10.245  -7.610   7.581  1.00  0.00     0.029 A 
ATOM     37  C   UNL     1       9.702  -6.351   7.796  1.00  0.00     0.049 A 
ATOM     38  H   UNL     1       8.367  -5.263   6.580  1.00  0.00     0.167 HD
ATOM     39  C   UNL     1       9.355  -4.241   9.082  1.00  0.00     0.074 A 
ATOM     40  C   UNL     1       9.597  -3.385  10.229  1.00  0.00     0.031 C 
ATOM     41  C   UNL     1       9.912  -5.466   8.915  1.00  0.00     0.037 A 
BRANCH  28  42
ATOM     42  C   UNL     1       8.387  -8.352   3.639  1.00  0.00     0.057 A 
ATOM     43  C   UNL     1       9.019  -8.231   2.393  1.00  0.00     0.134 A 
ATOM     44  C   UNL     1       7.862  -9.605   3.976  1.00  0.00     0.134 A 
ATOM     45  F   UNL     1       9.511  -7.049   1.992  1.00  0.00    -0.206 F 
ATOM     46  C   UNL     1       9.100  -9.309   1.508  1.00  0.00     0.040 A 
ATOM     47  C   UNL     1       7.959 -10.696   3.111  1.00  0.00     0.040 A 
ATOM     48  F   UNL     1       7.232  -9.786   5.147  1.00  0.00    -0.206 F 
ATOM     49  C   UNL     1       8.572 -10.547   1.869  1.00  0.00     0.006 A 
ENDBRANCH  28  42
BRANCH  29  50
ATOM     50  C   UNL     1       7.089  -0.104   9.287  1.00  0.00     0.057 A 
ATOM     51  C   UNL     1       8.134   0.786   9.562  1.00  0.00     0.134 A 
ATOM     52  C   UNL     1       5.842   0.184   9.860  1.00  0.00     0.134 A 
ATOM     53  F   UNL     1       9.359   0.566   9.062  1.00  0.00    -0.206 F 
ATOM     54  C   UNL     1       7.954   1.895  10.394  1.00  0.00     0.040 A 
ATOM     55  C   UNL     1       5.637   1.309  10.660  1.00  0.00     0.040 A 
ATOM     56  F   UNL     1       4.794  -0.626   9.645  1.00  0.00    -0.206 F 
ATOM     57  C   UNL     1       6.700   2.162  10.941  1.00  0.00     0.006 A 
ENDBRANCH  29  50
BRANCH  41  58
ATOM     58  C   UNL     1      10.854  -5.918   9.988  1.00  0.00     0.057 A 
ATOM     59  C   UNL     1      10.403  -6.279  11.264  1.00  0.00     0.134 A 
ATOM     60  C   UNL     1      12.228  -6.005   9.732  1.00  0.00     0.134 A 
ATOM     61  F   UNL     1       9.100  -6.200  11.573  1.00  0.00    -0.206 F 
ATOM     62  C   UNL     1      11.293  -6.681  12.260  1.00  0.00     0.040 A 
ATOM     63  C   UNL     1      13.122  -6.438  10.709  1.00  0.00     0.040 A 
ATOM     64  F   UNL     1      12.719  -5.681   8.526  1.00  0.00    -0.206 F 
ATOM     65  C   UNL     1      12.655  -6.767  11.980  1.00  0.00     0.006 A 
ENDBRANCH  41  58
ENDBRANCH  15  16
ENDBRANCH   8  10
ENDBRANCH   7   8
ENDBRANCH   6   7
ENDBRANCH   5   6
ENDBRANCH   4   5
ENDBRANCH   3   4
ENDBRANCH   2   3
ENDBRANCH   1   2
BRANCH   1  66
ATOM     66  C   UNL     1       4.108   4.394   0.113  1.00  0.00     0.202 C 
BRANCH  66  67
ATOM     67  C   UNL     1       4.880   4.349   1.441  1.00  0.00     0.261 C 
BRANCH  67  68
ATOM     68  O   UNL     1       4.424   3.412   2.424  1.00  0.00    -0.463 OA
BRANCH  68  69
ATOM     69  C   UNL     1       3.491   3.946   3.263  1.00  0.00     0.310 C 
ATOM     70  O   UNL     1       2.952   5.024   3.076  1.00  0.00    -0.252 OA
BRANCH  69  71
ATOM     71  C   UNL     1       3.168   3.020   4.429  1.00  0.00     0.116 C 
ATOM     72  C   UNL     1       4.430   2.690   5.233  1.00  0.00     0.043 C 
ATOM     73  C   UNL     1       2.105   3.726   5.295  1.00  0.00     0.097 C 
ATOM     74  C   UNL     1       4.854   3.788   6.163  1.00  0.00    -0.030 C 
ATOM     75  C   UNL     1       2.669   4.998   5.968  1.00  0.00     0.041 C 
ATOM     76  C   UNL     1       4.075   4.835   6.469  1.00  0.00    -0.030 C 
BRANCH  73  77
ATOM     77  C   UNL     1       1.514   2.838   6.381  1.00  0.00     0.228 C 
ATOM     78  O   UNL     1       2.035   1.791   6.760  1.00  0.00    -0.274 OA
ATOM     79  N   UNL     1       0.390   3.280   7.034  1.00  0.00    -0.325 N 
ATOM     80  H   UNL     1       0.210   2.863   7.907  1.00  0.00     0.169 HD
BRANCH  79  81
ATOM     81  C   UNL     1      -0.538   4.250   6.616  1.00  0.00     0.054 A 
ATOM     82  C   UNL     1      -0.782   5.230   7.599  1.00  0.00     0.027 A 
ATOM     83  C   UNL     1      -1.106   4.376   5.331  1.00  0.00     0.063 A 
ATOM     84  C   UNL     1      -1.405   6.430   7.274  1.00  0.00     0.002 A 
ATOM     85  C   UNL     1      -1.710   5.621   5.029  1.00  0.00     0.016 A 
ATOM     86  C   UNL     1      -1.831   6.644   5.974  1.00  0.00     0.001 A 
BRANCH  83  87
ATOM     87  C   UNL     1      -1.227   3.370   4.203  1.00  0.00     0.253 C 
ATOM     88  O   UNL     1      -1.400   3.802   3.058  1.00  0.00    -0.269 OA
ATOM     89  N   UNL     1      -1.259   1.999   4.314  1.00  0.00    -0.345 N 
ATOM     90  H   UNL     1      -1.663   1.540   3.542  1.00  0.00     0.164 HD
BRANCH  89  91
ATOM     91  C   UNL     1      -0.807   1.117   5.356  1.00  0.00     0.191 C 
BRANCH  91  92
ATOM     92  C   UNL     1      -1.646  -0.067   5.616  1.00  0.00     0.122 A 
ATOM     93  C   UNL     1      -2.271  -1.047   4.878  1.00  0.00     0.047 A 
ATOM     94  O   UNL     1      -1.773  -0.347   6.950  1.00  0.00    -0.467 OA
ATOM     95  C   UNL     1      -2.800  -1.973   5.818  1.00  0.00     0.042 A 
ATOM     96  C   UNL     1      -2.464  -1.501   7.063  1.00  0.00     0.195 A 
ENDBRANCH  91  92
ENDBRANCH  89  91
ENDBRANCH  83  87
ENDBRANCH  79  81
ENDBRANCH  73  77
ENDBRANCH  69  71
ENDBRANCH  68  69
ENDBRANCH  67  68
ENDBRANCH  66  67
ENDBRANCH   1  66
TORSDOF 22
