REMARK SMILES O=C(COc1ccccc1/C=N/N1[C@@H](S)N=N[C@H]1[C@@H]1C=C(c2ccccc2)N=N1)OCCOCCOCCOC(=O)c1ccc(-c2c3nc(c(-c4c(F)cccc4F)c4ccc([nH]4)c(-c4c(F)cccc4F)c4nc(c(-c5c(F)cccc5F)c5ccc2[nH]5)C=C4)C=C3)cc1
REMARK SMILES IDX 32 1 31 2 30 3 2 4 1 5 3 6 4 7 5 8 6 9 10 10 7 11 9 12 8 13
REMARK SMILES IDX 11 14 12 15 13 16 14 17 18 18 16 19 17 20 15 21 19 23 20 24
REMARK SMILES IDX 29 25 21 26 28 27 22 28 23 29 27 30 24 31 26 32 25 33 33 34
REMARK SMILES IDX 34 35 35 36 36 37 37 38 38 39 39 40 40 41 41 42 42 43 43 44
REMARK SMILES IDX 95 45 44 46 94 47 45 48 46 49 47 50 88 51 48 52 93 53 87 54
REMARK SMILES IDX 89 55 49 56 92 57 86 58 85 59 50 61 76 62 59 63 75 64 60 65
REMARK SMILES IDX 63 66 74 67 90 68 61 69 62 70 73 72 91 73 64 74 51 75 52 76
REMARK SMILES IDX 57 77 53 78 54 79 56 80 58 81 55 82 77 83 78 84 83 85 79 86
REMARK SMILES IDX 80 87 82 88 84 89 81 90 65 91 66 92 71 93 67 94 68 95 70 96
REMARK SMILES IDX 72 97 69 98
REMARK H PARENT 15 22 89 60 63 71
REMARK Flexibility Score: inf
ROOT
ATOM      1  C   UNL     1       5.063  -1.902   0.865  1.00  0.00     0.202 C 
ENDROOT
BRANCH   1   2
ATOM      2  C   UNL     1       4.940  -0.537   1.878  1.00  0.00     0.261 C 
BRANCH   2   3
ATOM      3  O   UNL     1       4.137   0.700   1.568  1.00  0.00    -0.461 OA
BRANCH   3   4
ATOM      4  C   UNL     1       2.917   1.090   2.095  1.00  0.00     0.344 C 
ATOM      5  O   UNL     1       2.527   0.566   3.131  1.00  0.00    -0.248 OA
BRANCH   4   6
ATOM      6  C   UNL     1       1.909   2.040   1.016  1.00  0.00     0.352 C 
BRANCH   6   7
ATOM      7  O   UNL     1       1.303   3.321   0.951  1.00  0.00    -0.481 OA
BRANCH   7   8
ATOM      8  C   UNL     1       1.400   3.827   2.201  1.00  0.00     0.129 A 
ATOM      9  C   UNL     1       2.377   4.809   2.326  1.00  0.00     0.047 A 
ATOM     10  C   UNL     1       0.798   3.120   3.253  1.00  0.00     0.037 A 
ATOM     11  C   UNL     1       2.922   4.994   3.573  1.00  0.00     0.004 A 
ATOM     12  C   UNL     1       1.396   3.272   4.488  1.00  0.00     0.013 A 
ATOM     13  C   UNL     1       2.454   4.208   4.638  1.00  0.00     0.001 A 
BRANCH  10  14
ATOM     14  C   UNL     1      -0.183   2.072   2.784  1.00  0.00     0.145 C 
ATOM     15  N   UNL     1      -0.042   0.794   3.001  1.00  0.00    -0.180 NA
BRANCH  15  16
ATOM     16  N   UNL     1      -0.633   0.004   2.005  1.00  0.00    -0.233 NA
ATOM     17  C   UNL     1      -1.825  -0.764   2.450  1.00  0.00     0.298 C 
ATOM     18  C   UNL     1       0.205  -1.111   1.440  1.00  0.00     0.274 C 
ATOM     19  N   UNL     1      -1.772  -2.126   1.887  1.00  0.00    -0.153 NA
ATOM     20  N   UNL     1      -0.687  -2.309   1.292  1.00  0.00    -0.161 NA
BRANCH  17  21
ATOM     21  S   UNL     1      -3.329   0.163   1.983  1.00  0.00    -0.128 SA
ATOM     22  H   UNL     1      -3.355   0.334   0.634  1.00  0.00     0.106 HD
ENDBRANCH  17  21
BRANCH  18  23
ATOM     23  C   UNL     1       1.101  -1.048   0.057  1.00  0.00     0.202 C 
ATOM     24  C   UNL     1       2.567  -0.752   0.171  1.00  0.00     0.037 C 
ATOM     25  N   UNL     1       0.807  -0.075  -1.038  1.00  0.00    -0.177 NA
ATOM     26  C   UNL     1       3.029   0.173  -0.738  1.00  0.00     0.091 C 
ATOM     27  N   UNL     1       1.897   0.477  -1.504  1.00  0.00    -0.155 NA
BRANCH  26  28
ATOM     28  C   UNL     1       4.493   1.130  -0.808  1.00  0.00     0.002 A 
ATOM     29  C   UNL     1       4.571   2.485  -0.346  1.00  0.00     0.010 A 
ATOM     30  C   UNL     1       5.830   0.657  -0.989  1.00  0.00     0.010 A 
ATOM     31  C   UNL     1       5.762   3.165   0.064  1.00  0.00     0.001 A 
ATOM     32  C   UNL     1       7.036   1.328  -0.614  1.00  0.00     0.001 A 
ATOM     33  C   UNL     1       7.002   2.580  -0.053  1.00  0.00     0.000 A 
ENDBRANCH  26  28
ENDBRANCH  18  23
ENDBRANCH  15  16
ENDBRANCH  10  14
ENDBRANCH   7   8
ENDBRANCH   6   7
ENDBRANCH   4   6
ENDBRANCH   3   4
ENDBRANCH   2   3
ENDBRANCH   1   2
BRANCH   1  34
ATOM     34  O   UNL     1       5.405  -2.036  -0.522  1.00  0.00    -0.376 OA
BRANCH  34  35
ATOM     35  C   UNL     1       4.627  -1.990  -1.732  1.00  0.00     0.188 C 
BRANCH  35  36
ATOM     36  C   UNL     1       3.333  -2.745  -2.013  1.00  0.00     0.188 C 
BRANCH  36  37
ATOM     37  O   UNL     1       3.264  -4.128  -1.805  1.00  0.00    -0.376 OA
BRANCH  37  38
ATOM     38  C   UNL     1       4.440  -4.892  -1.949  1.00  0.00     0.202 C 
BRANCH  38  39
ATOM     39  C   UNL     1       5.347  -4.716  -3.174  1.00  0.00     0.261 C 
BRANCH  39  40
ATOM     40  O   UNL     1       4.968  -3.728  -4.121  1.00  0.00    -0.460 OA
BRANCH  40  41
ATOM     41  C   UNL     1       3.796  -3.864  -4.753  1.00  0.00     0.338 C 
ATOM     42  O   UNL     1       3.034  -4.827  -4.716  1.00  0.00    -0.246 OA
BRANCH  41  43
ATOM     43  C   UNL     1       3.575  -2.631  -5.531  1.00  0.00     0.060 A 
ATOM     44  C   UNL     1       2.345  -2.498  -6.175  1.00  0.00     0.016 A 
ATOM     45  C   UNL     1       4.688  -1.854  -5.884  1.00  0.00     0.016 A 
ATOM     46  C   UNL     1       2.353  -1.942  -7.429  1.00  0.00     0.010 A 
ATOM     47  C   UNL     1       4.703  -1.318  -7.140  1.00  0.00     0.010 A 
ATOM     48  C   UNL     1       3.587  -1.542  -7.939  1.00  0.00    -0.014 A 
BRANCH  48  49
ATOM     49  C   UNL     1       3.764  -1.514  -9.371  1.00  0.00     0.031 A 
ATOM     50  C   UNL     1       3.441  -0.205  -9.951  1.00  0.00     0.074 A 
ATOM     51  C   UNL     1       4.286  -2.579 -10.017  1.00  0.00     0.049 A 
ATOM     52  N   UNL     1       2.400   0.107 -10.646  1.00  0.00    -0.248 NA
ATOM     53  C   UNL     1       4.246   0.946  -9.510  1.00  0.00     0.031 C 
ATOM     54  C   UNL     1       4.862  -3.804  -9.443  1.00  0.00     0.029 A 
ATOM     55  N   UNL     1       4.496  -2.746 -11.351  1.00  0.00    -0.354 N 
ATOM     56  C   UNL     1       2.566   1.455 -10.930  1.00  0.00     0.074 A 
ATOM     57  C   UNL     1       3.526   1.959  -9.988  1.00  0.00     0.031 C 
ATOM     58  C   UNL     1       5.550  -4.471 -10.400  1.00  0.00     0.029 A 
ATOM     59  C   UNL     1       5.359  -3.797 -11.670  1.00  0.00     0.049 A 
ATOM     60  H   UNL     1       4.076  -2.175 -12.034  1.00  0.00     0.167 HD
ATOM     61  C   UNL     1       2.183   1.963 -12.130  1.00  0.00     0.037 A 
ATOM     62  C   UNL     1       5.917  -4.003 -12.892  1.00  0.00     0.037 A 
ATOM     63  C   UNL     1       1.246   1.090 -12.792  1.00  0.00     0.049 A 
ATOM     64  C   UNL     1       5.108  -3.229 -13.873  1.00  0.00     0.074 A 
ATOM     65  C   UNL     1       0.000   0.590 -12.463  1.00  0.00     0.029 A 
ATOM     66  N   UNL     1       1.729   0.274 -13.787  1.00  0.00    -0.354 N 
ATOM     67  N   UNL     1       3.876  -3.526 -14.184  1.00  0.00    -0.248 NA
ATOM     68  C   UNL     1       5.497  -1.847 -14.113  1.00  0.00     0.031 C 
ATOM     69  C   UNL     1       0.000  -0.754 -12.938  1.00  0.00     0.029 A 
ATOM     70  C   UNL     1       1.207  -0.982 -13.599  1.00  0.00     0.049 A 
ATOM     71  H   UNL     1       2.342   0.543 -14.508  1.00  0.00     0.167 HD
ATOM     72  C   UNL     1       3.221  -2.302 -14.242  1.00  0.00     0.074 A 
ATOM     73  C   UNL     1       4.286  -1.300 -14.249  1.00  0.00     0.031 C 
ATOM     74  C   UNL     1       1.886  -2.203 -13.974  1.00  0.00     0.037 A 
BRANCH  61  75
ATOM     75  C   UNL     1       2.963   3.035 -12.843  1.00  0.00     0.057 A 
ATOM     76  C   UNL     1       2.387   3.676 -13.948  1.00  0.00     0.134 A 
ATOM     77  C   UNL     1       4.339   3.295 -12.649  1.00  0.00     0.134 A 
ATOM     78  F   UNL     1       1.098   3.479 -14.260  1.00  0.00    -0.206 F 
ATOM     79  C   UNL     1       3.133   4.486 -14.813  1.00  0.00     0.040 A 
ATOM     80  C   UNL     1       5.077   4.150 -13.467  1.00  0.00     0.040 A 
ATOM     81  F   UNL     1       5.075   2.665 -11.726  1.00  0.00    -0.206 F 
ATOM     82  C   UNL     1       4.480   4.728 -14.572  1.00  0.00     0.006 A 
ENDBRANCH  61  75
BRANCH  62  83
ATOM     83  C   UNL     1       7.277  -4.499 -13.220  1.00  0.00     0.057 A 
ATOM     84  C   UNL     1       7.611  -4.902 -14.522  1.00  0.00     0.134 A 
ATOM     85  C   UNL     1       8.357  -4.316 -12.339  1.00  0.00     0.134 A 
ATOM     86  F   UNL     1       6.657  -5.061 -15.451  1.00  0.00    -0.206 F 
ATOM     87  C   UNL     1       8.941  -5.088 -14.931  1.00  0.00     0.040 A 
ATOM     88  C   UNL     1       9.688  -4.501 -12.732  1.00  0.00     0.040 A 
ATOM     89  F   UNL     1       8.166  -3.860 -11.094  1.00  0.00    -0.206 F 
ATOM     90  C   UNL     1       9.986  -4.875 -14.037  1.00  0.00     0.006 A 
ENDBRANCH  62  83
BRANCH  74  91
ATOM     91  C   UNL     1       1.103  -3.484 -13.839  1.00  0.00     0.057 A 
ATOM     92  C   UNL     1       1.317  -4.439 -12.831  1.00  0.00     0.134 A 
ATOM     93  C   UNL     1      -0.008  -3.683 -14.665  1.00  0.00     0.134 A 
ATOM     94  F   UNL     1       2.296  -4.287 -11.931  1.00  0.00    -0.206 F 
ATOM     95  C   UNL     1       0.489  -5.558 -12.682  1.00  0.00     0.040 A 
ATOM     96  C   UNL     1      -0.863  -4.776 -14.505  1.00  0.00     0.040 A 
ATOM     97  F   UNL     1      -0.311  -2.784 -15.615  1.00  0.00    -0.206 F 
ATOM     98  C   UNL     1      -0.611  -5.724 -13.517  1.00  0.00     0.006 A 
ENDBRANCH  74  91
ENDBRANCH  48  49
ENDBRANCH  41  43
ENDBRANCH  40  41
ENDBRANCH  39  40
ENDBRANCH  38  39
ENDBRANCH  37  38
ENDBRANCH  36  37
ENDBRANCH  35  36
ENDBRANCH  34  35
ENDBRANCH   1  34
TORSDOF 24
