REMARK SMILES Nc1cc(F)c(OCc2ccc(C(=O)OCCOCCOCCOC(=O)c3ccc(-c4c5nc(c(-c6c(F)cccc6F)c6ccc([nH]6)c(-c6c(F)cccc6F)c6nc(c(-c7c(F)cccc7F)c7ccc4[nH]7)C=C6)C=C5)cc3)cc2)cc1F
REMARK SMILES IDX 19 1 18 2 17 3 16 4 15 5 13 6 14 7 12 8 9 9 10 10 82 11
REMARK SMILES IDX 11 12 81 13 8 14 7 15 6 16 2 17 3 18 84 19 4 20 83 21 85 22
REMARK SMILES IDX 5 23 1 24 20 27 21 28 22 29 23 30 24 31 25 32 26 33 27 34
REMARK SMILES IDX 28 35 80 36 29 37 79 38 30 39 31 40 32 41 73 42 33 43 78 44
REMARK SMILES IDX 72 45 74 46 34 47 77 48 71 49 70 50 35 52 61 53 44 54 60 55
REMARK SMILES IDX 45 56 48 57 59 58 75 59 46 60 47 61 58 63 76 64 49 65 36 66
REMARK SMILES IDX 37 67 42 68 38 69 39 70 41 71 43 72 40 73 62 74 63 75 68 76
REMARK SMILES IDX 64 77 65 78 67 79 69 80 66 81 50 82 51 83 56 84 52 85 53 86
REMARK SMILES IDX 55 87 57 88 54 89
REMARK H PARENT 1 25 1 26 74 51 48 62
REMARK Flexibility Score: inf
ROOT
ATOM      1  C   UNL     1      -8.384  -2.013  -4.064  1.00  0.00     0.188 C 
ENDROOT
BRANCH   1   2
ATOM      2  O   UNL     1      -9.554  -2.385  -3.368  1.00  0.00    -0.376 OA
BRANCH   2   3
ATOM      3  C   UNL     1     -10.014  -1.627  -2.260  1.00  0.00     0.202 C 
BRANCH   3   4
ATOM      4  C   UNL     1      -9.095  -0.826  -1.326  1.00  0.00     0.261 C 
BRANCH   4   5
ATOM      5  O   UNL     1      -8.027  -0.123  -1.967  1.00  0.00    -0.460 OA
BRANCH   5   6
ATOM      6  C   UNL     1      -6.782  -0.503  -1.581  1.00  0.00     0.338 C 
ATOM      7  O   UNL     1      -6.495  -1.309  -0.713  1.00  0.00    -0.246 OA
BRANCH   6   8
ATOM      8  C   UNL     1      -5.791   0.024  -2.539  1.00  0.00     0.060 A 
ATOM      9  C   UNL     1      -3.849   0.901  -4.348  1.00  0.00    -0.011 A 
ATOM     10  C   UNL     1      -3.936  -0.457  -4.012  1.00  0.00     0.008 A 
ATOM     11  C   UNL     1      -4.811   1.797  -3.848  1.00  0.00     0.008 A 
ATOM     12  C   UNL     1      -4.880  -0.888  -3.086  1.00  0.00     0.016 A 
ATOM     13  C   UNL     1      -5.783   1.361  -2.944  1.00  0.00     0.016 A 
BRANCH   9  14
ATOM     14  C   UNL     1      -2.688   1.422  -5.175  1.00  0.00     0.265 C 
BRANCH  14  15
ATOM     15  O   UNL     1      -1.469   0.680  -5.015  1.00  0.00    -0.486 OA
BRANCH  15  16
ATOM     16  C   UNL     1      -0.886   0.600  -3.776  1.00  0.00     0.158 A 
ATOM     17  C   UNL     1       0.382   0.124  -1.291  1.00  0.00     0.071 A 
ATOM     18  C   UNL     1       0.788  -0.564  -2.432  1.00  0.00     0.071 A 
ATOM     19  C   UNL     1      -0.673   1.038  -1.416  1.00  0.00     0.149 A 
ATOM     20  C   UNL     1       0.162  -0.321  -3.656  1.00  0.00     0.167 A 
ATOM     21  C   UNL     1      -1.285   1.302  -2.641  1.00  0.00     0.091 A 
ATOM     22  F   UNL     1      -1.117   1.685  -0.326  1.00  0.00    -0.205 F 
ATOM     23  F   UNL     1       0.566  -1.019  -4.728  1.00  0.00    -0.203 F 
BRANCH  17  24
ATOM     24  N   UNL     1       0.927  -0.173  -0.049  1.00  0.00    -0.396 N 
ATOM     25  H   UNL     1       1.668  -0.818   0.021  1.00  0.00     0.156 HD
ATOM     26  H   UNL     1       0.573   0.260   0.760  1.00  0.00     0.156 HD
ENDBRANCH  17  24
ENDBRANCH  15  16
ENDBRANCH  14  15
ENDBRANCH   9  14
ENDBRANCH   6   8
ENDBRANCH   5   6
ENDBRANCH   4   5
ENDBRANCH   3   4
ENDBRANCH   2   3
ENDBRANCH   1   2
BRANCH   1  27
ATOM     27  C   UNL     1      -8.347  -0.710  -4.889  1.00  0.00     0.188 C 
BRANCH  27  28
ATOM     28  O   UNL     1      -9.416   0.210  -4.844  1.00  0.00    -0.376 OA
BRANCH  28  29
ATOM     29  C   UNL     1     -10.705  -0.181  -5.287  1.00  0.00     0.202 C 
BRANCH  29  30
ATOM     30  C   UNL     1     -10.936  -1.097  -6.498  1.00  0.00     0.261 C 
BRANCH  30  31
ATOM     31  O   UNL     1     -10.066  -2.229  -6.605  1.00  0.00    -0.460 OA
BRANCH  31  32
ATOM     32  C   UNL     1      -9.210  -2.202  -7.663  1.00  0.00     0.338 C 
ATOM     33  O   UNL     1      -9.096  -1.340  -8.504  1.00  0.00    -0.246 OA
BRANCH  32  34
ATOM     34  C   UNL     1      -8.274  -3.337  -7.529  1.00  0.00     0.060 A 
ATOM     35  C   UNL     1      -8.744  -4.648  -7.569  1.00  0.00     0.016 A 
ATOM     36  C   UNL     1      -6.907  -3.071  -7.369  1.00  0.00     0.016 A 
ATOM     37  C   UNL     1      -7.835  -5.702  -7.462  1.00  0.00     0.010 A 
ATOM     38  C   UNL     1      -6.002  -4.126  -7.246  1.00  0.00     0.010 A 
ATOM     39  C   UNL     1      -6.459  -5.450  -7.310  1.00  0.00    -0.014 A 
BRANCH  39  40
ATOM     40  C   UNL     1      -5.497  -6.576  -7.371  1.00  0.00     0.031 A 
ATOM     41  C   UNL     1      -4.862  -7.145  -6.139  1.00  0.00     0.074 A 
ATOM     42  C   UNL     1      -5.206  -7.093  -8.579  1.00  0.00     0.049 A 
ATOM     43  N   UNL     1      -4.094  -8.199  -6.024  1.00  0.00    -0.248 NA
ATOM     44  C   UNL     1      -5.114  -6.438  -4.876  1.00  0.00     0.031 C 
ATOM     45  C   UNL     1      -5.732  -6.597  -9.852  1.00  0.00     0.029 A 
ATOM     46  N   UNL     1      -4.409  -8.150  -8.933  1.00  0.00    -0.354 N 
ATOM     47  C   UNL     1      -3.791  -8.304  -4.673  1.00  0.00     0.074 A 
ATOM     48  C   UNL     1      -4.414  -7.170  -4.018  1.00  0.00     0.031 C 
ATOM     49  C   UNL     1      -5.267  -7.369 -10.846  1.00  0.00     0.029 A 
ATOM     50  C   UNL     1      -4.395  -8.395 -10.284  1.00  0.00     0.049 A 
ATOM     51  H   UNL     1      -3.896  -8.682  -8.283  1.00  0.00     0.167 HD
ATOM     52  C   UNL     1      -3.075  -9.267  -4.040  1.00  0.00     0.037 A 
ATOM     53  C   UNL     1      -3.757  -9.346 -10.990  1.00  0.00     0.037 A 
ATOM     54  C   UNL     1      -2.427 -10.373  -4.704  1.00  0.00     0.049 A 
ATOM     55  C   UNL     1      -2.922 -10.365 -10.267  1.00  0.00     0.074 A 
ATOM     56  C   UNL     1      -1.710 -11.417  -4.143  1.00  0.00     0.029 A 
ATOM     57  N   UNL     1      -2.397 -10.566  -6.077  1.00  0.00    -0.354 N 
ATOM     58  N   UNL     1      -2.723 -10.511  -8.980  1.00  0.00    -0.248 NA
ATOM     59  C   UNL     1      -2.231 -11.358 -11.099  1.00  0.00     0.031 C 
ATOM     60  C   UNL     1      -1.199 -12.208  -5.179  1.00  0.00     0.029 A 
ATOM     61  C   UNL     1      -1.646 -11.692  -6.384  1.00  0.00     0.049 A 
ATOM     62  H   UNL     1      -2.842  -9.989  -6.739  1.00  0.00     0.167 HD
ATOM     63  C   UNL     1      -1.909 -11.628  -8.846  1.00  0.00     0.074 A 
ATOM     64  C   UNL     1      -1.669 -12.132 -10.182  1.00  0.00     0.031 C 
ATOM     65  C   UNL     1      -1.406 -12.186  -7.717  1.00  0.00     0.037 A 
BRANCH  52  66
ATOM     66  C   UNL     1      -2.950  -9.165  -2.546  1.00  0.00     0.057 A 
ATOM     67  C   UNL     1      -1.716  -8.893  -1.942  1.00  0.00     0.134 A 
ATOM     68  C   UNL     1      -4.047  -9.383  -1.700  1.00  0.00     0.134 A 
ATOM     69  F   UNL     1      -0.621  -8.689  -2.689  1.00  0.00    -0.206 F 
ATOM     70  C   UNL     1      -1.579  -8.838  -0.553  1.00  0.00     0.040 A 
ATOM     71  C   UNL     1      -3.928  -9.304  -0.311  1.00  0.00     0.040 A 
ATOM     72  F   UNL     1      -5.258  -9.648  -2.213  1.00  0.00    -0.206 F 
ATOM     73  C   UNL     1      -2.688  -9.037   0.266  1.00  0.00     0.006 A 
ENDBRANCH  52  66
BRANCH  53  74
ATOM     74  C   UNL     1      -3.898  -9.396 -12.466  1.00  0.00     0.057 A 
ATOM     75  C   UNL     1      -3.337  -8.410 -13.286  1.00  0.00     0.134 A 
ATOM     76  C   UNL     1      -4.574 -10.450 -13.092  1.00  0.00     0.134 A 
ATOM     77  F   UNL     1      -2.685  -7.370 -12.745  1.00  0.00    -0.206 F 
ATOM     78  C   UNL     1      -3.442  -8.470 -14.675  1.00  0.00     0.040 A 
ATOM     79  C   UNL     1      -4.661 -10.538 -14.482  1.00  0.00     0.040 A 
ATOM     80  F   UNL     1      -5.118 -11.433 -12.360  1.00  0.00    -0.206 F 
ATOM     81  C   UNL     1      -4.096  -9.543 -15.277  1.00  0.00     0.006 A 
ENDBRANCH  53  74
BRANCH  65  82
ATOM     82  C   UNL     1      -0.572 -13.426  -7.883  1.00  0.00     0.057 A 
ATOM     83  C   UNL     1      -1.051 -14.671  -7.454  1.00  0.00     0.134 A 
ATOM     84  C   UNL     1       0.703 -13.392  -8.464  1.00  0.00     0.134 A 
ATOM     85  F   UNL     1      -2.260 -14.777  -6.883  1.00  0.00    -0.206 F 
ATOM     86  C   UNL     1      -0.294 -15.835  -7.599  1.00  0.00     0.040 A 
ATOM     87  C   UNL     1       1.455 -14.555  -8.644  1.00  0.00     0.040 A 
ATOM     88  F   UNL     1       1.215 -12.236  -8.914  1.00  0.00    -0.206 F 
ATOM     89  C   UNL     1       0.959 -15.780  -8.206  1.00  0.00     0.006 A 
ENDBRANCH  65  82
ENDBRANCH  39  40
ENDBRANCH  32  34
ENDBRANCH  31  32
ENDBRANCH  30  31
ENDBRANCH  29  30
ENDBRANCH  28  29
ENDBRANCH  27  28
ENDBRANCH   1  27
TORSDOF 21
