REMARK SMILES CC1(C)[C@H](C(=O)OCCOCCOCCOC(=O)c2ccc(-c3c4nc(c(-c5c(F)cccc5F)c5ccc([nH]5)c(-c5c(F)cccc5F)c5nc(c(-c6c(F)cccc6F)c6ccc3[nH]6)C=C5)C=C4)cc2)[C@@H]1C(=O)Nc1ccon1
REMARK SMILES IDX 11 1 10 2 9 3 8 4 7 5 5 6 6 7 4 8 1 9 2 10 3 11 73 12 74 13
REMARK SMILES IDX 75 14 76 15 77 17 78 18 81 19 79 20 80 21 12 22 13 23 14 24
REMARK SMILES IDX 15 25 16 26 17 27 18 28 19 29 20 30 72 31 21 32 71 33 22 34
REMARK SMILES IDX 23 35 24 36 65 37 25 38 70 39 64 40 66 41 26 42 69 43 63 44
REMARK SMILES IDX 62 45 27 47 53 48 36 49 52 50 37 51 40 52 51 53 67 54 38 55
REMARK SMILES IDX 39 56 50 58 68 59 41 60 28 61 29 62 34 63 30 64 31 65 33 66
REMARK SMILES IDX 35 67 32 68 54 69 55 70 60 71 56 72 57 73 59 74 61 75 58 76
REMARK SMILES IDX 42 77 43 78 48 79 44 80 45 81 47 82 49 83 46 84
REMARK H PARENT 76 16 66 46 40 57
REMARK Flexibility Score: inf
ROOT
ATOM      1  C   UNL     1      -1.035   1.320  -4.240  1.00  0.00     0.188 C 
ENDROOT
BRANCH   1   2
ATOM      2  O   UNL     1      -1.674   2.575  -4.396  1.00  0.00    -0.376 OA
BRANCH   2   3
ATOM      3  C   UNL     1      -2.837   2.775  -3.611  1.00  0.00     0.202 C 
BRANCH   3   4
ATOM      4  C   UNL     1      -2.592   3.064  -2.123  1.00  0.00     0.261 C 
BRANCH   4   5
ATOM      5  O   UNL     1      -1.840   2.106  -1.352  1.00  0.00    -0.463 OA
BRANCH   5   6
ATOM      6  C   UNL     1      -2.260   0.824  -1.342  1.00  0.00     0.310 C 
ATOM      7  O   UNL     1      -3.179   0.375  -2.009  1.00  0.00    -0.252 OA
BRANCH   6   8
ATOM      8  C   UNL     1      -1.476  -0.097  -0.476  1.00  0.00     0.118 C 
ATOM      9  C   UNL     1       0.800  -1.040   0.239  1.00  0.00     0.013 C 
ATOM     10  C   UNL     1      -0.163   0.131   0.251  1.00  0.00    -0.009 C 
ATOM     11  C   UNL     1       0.571   1.456   0.257  1.00  0.00     0.013 C 
ATOM     12  C   UNL     1      -1.486  -0.005   1.035  1.00  0.00     0.100 C 
BRANCH  12  13
ATOM     13  C   UNL     1      -1.948   1.161   1.839  1.00  0.00     0.230 C 
ATOM     14  O   UNL     1      -1.198   1.609   2.703  1.00  0.00    -0.274 OA
ATOM     15  N   UNL     1      -3.155   1.761   1.619  1.00  0.00    -0.308 N 
ATOM     16  H   UNL     1      -3.252   2.645   2.042  1.00  0.00     0.171 HD
BRANCH  15  17
ATOM     17  C   UNL     1      -4.255   1.348   0.913  1.00  0.00     0.175 A 
ATOM     18  C   UNL     1      -4.628   0.058   0.478  1.00  0.00     0.092 A 
ATOM     19  N   UNL     1      -5.158   2.256   0.525  1.00  0.00    -0.062 NA
ATOM     20  C   UNL     1      -5.713   0.275  -0.333  1.00  0.00     0.233 A 
ATOM     21  O   UNL     1      -6.038   1.588  -0.305  1.00  0.00    -0.363 OA
ENDBRANCH  15  17
ENDBRANCH  12  13
ENDBRANCH   6   8
ENDBRANCH   5   6
ENDBRANCH   4   5
ENDBRANCH   3   4
ENDBRANCH   2   3
ENDBRANCH   1   2
BRANCH   1  22
ATOM     22  C   UNL     1       0.218   1.370  -3.350  1.00  0.00     0.188 C 
BRANCH  22  23
ATOM     23  O   UNL     1       0.885   2.595  -3.101  1.00  0.00    -0.376 OA
BRANCH  23  24
ATOM     24  C   UNL     1       0.999   3.531  -4.158  1.00  0.00     0.202 C 
BRANCH  24  25
ATOM     25  C   UNL     1       1.648   3.096  -5.486  1.00  0.00     0.261 C 
BRANCH  25  26
ATOM     26  O   UNL     1       1.294   1.789  -5.976  1.00  0.00    -0.460 OA
BRANCH  26  27
ATOM     27  C   UNL     1       2.180   0.790  -5.731  1.00  0.00     0.338 C 
ATOM     28  O   UNL     1       3.269   0.888  -5.188  1.00  0.00    -0.246 OA
BRANCH  27  29
ATOM     29  C   UNL     1       1.540  -0.517  -6.028  1.00  0.00     0.060 A 
ATOM     30  C   UNL     1       1.445  -1.482  -5.008  1.00  0.00     0.016 A 
ATOM     31  C   UNL     1       1.056  -0.803  -7.303  1.00  0.00     0.016 A 
ATOM     32  C   UNL     1       0.883  -2.735  -5.262  1.00  0.00     0.010 A 
ATOM     33  C   UNL     1       0.535  -2.074  -7.569  1.00  0.00     0.010 A 
ATOM     34  C   UNL     1       0.476  -3.056  -6.561  1.00  0.00    -0.014 A 
BRANCH  34  35
ATOM     35  C   UNL     1       0.242  -4.471  -6.944  1.00  0.00     0.031 A 
ATOM     36  C   UNL     1       1.385  -5.219  -7.574  1.00  0.00     0.074 A 
ATOM     37  C   UNL     1      -0.945  -5.078  -6.769  1.00  0.00     0.049 A 
ATOM     38  N   UNL     1       1.397  -6.389  -8.156  1.00  0.00    -0.248 NA
ATOM     39  C   UNL     1       2.692  -4.541  -7.553  1.00  0.00     0.031 C 
ATOM     40  C   UNL     1      -2.110  -4.496  -6.110  1.00  0.00     0.029 A 
ATOM     41  N   UNL     1      -1.367  -6.324  -7.167  1.00  0.00    -0.354 N 
ATOM     42  C   UNL     1       2.703  -6.576  -8.593  1.00  0.00     0.074 A 
ATOM     43  C   UNL     1       3.450  -5.394  -8.225  1.00  0.00     0.031 C 
ATOM     44  C   UNL     1      -3.129  -5.372  -6.177  1.00  0.00     0.029 A 
ATOM     45  C   UNL     1      -2.699  -6.555  -6.924  1.00  0.00     0.049 A 
ATOM     46  H   UNL     1      -0.771  -6.987  -7.585  1.00  0.00     0.167 HD
ATOM     47  C   UNL     1       3.232  -7.637  -9.246  1.00  0.00     0.037 A 
ATOM     48  C   UNL     1      -3.486  -7.584  -7.300  1.00  0.00     0.037 A 
ATOM     49  C   UNL     1       2.488  -8.810  -9.614  1.00  0.00     0.049 A 
ATOM     50  C   UNL     1      -2.898  -8.716  -8.106  1.00  0.00     0.074 A 
ATOM     51  C   UNL     1       2.934  -9.942 -10.272  1.00  0.00     0.029 A 
ATOM     52  N   UNL     1       1.137  -8.998  -9.362  1.00  0.00    -0.354 N 
ATOM     53  N   UNL     1      -1.664  -8.889  -8.517  1.00  0.00    -0.248 NA
ATOM     54  C   UNL     1      -3.814  -9.796  -8.505  1.00  0.00     0.031 C 
ATOM     55  C   UNL     1       1.841 -10.791 -10.468  1.00  0.00     0.029 A 
ATOM     56  C   UNL     1       0.729 -10.218  -9.872  1.00  0.00     0.049 A 
ATOM     57  H   UNL     1       0.556  -8.358  -8.891  1.00  0.00     0.167 HD
ATOM     58  C   UNL     1      -1.648 -10.111  -9.180  1.00  0.00     0.074 A 
ATOM     59  C   UNL     1      -2.994 -10.638  -9.120  1.00  0.00     0.031 C 
ATOM     60  C   UNL     1      -0.609 -10.744  -9.779  1.00  0.00     0.037 A 
BRANCH  47  61
ATOM     61  C   UNL     1       4.678  -7.555  -9.638  1.00  0.00     0.057 A 
ATOM     62  C   UNL     1       5.711  -7.613  -8.693  1.00  0.00     0.134 A 
ATOM     63  C   UNL     1       5.042  -7.441 -10.986  1.00  0.00     0.134 A 
ATOM     64  F   UNL     1       5.431  -7.704  -7.384  1.00  0.00    -0.206 F 
ATOM     65  C   UNL     1       7.052  -7.535  -9.073  1.00  0.00     0.040 A 
ATOM     66  C   UNL     1       6.380  -7.393 -11.380  1.00  0.00     0.040 A 
ATOM     67  F   UNL     1       4.103  -7.382 -11.943  1.00  0.00    -0.206 F 
ATOM     68  C   UNL     1       7.389  -7.433 -10.421  1.00  0.00     0.006 A 
ENDBRANCH  47  61
BRANCH  48  69
ATOM     69  C   UNL     1      -4.930  -7.589  -6.947  1.00  0.00     0.057 A 
ATOM     70  C   UNL     1      -5.455  -8.529  -6.052  1.00  0.00     0.134 A 
ATOM     71  C   UNL     1      -5.827  -6.679  -7.522  1.00  0.00     0.134 A 
ATOM     72  F   UNL     1      -4.653  -9.445  -5.489  1.00  0.00    -0.206 F 
ATOM     73  C   UNL     1      -6.819  -8.578  -5.756  1.00  0.00     0.040 A 
ATOM     74  C   UNL     1      -7.189  -6.699  -7.213  1.00  0.00     0.040 A 
ATOM     75  F   UNL     1      -5.391  -5.755  -8.390  1.00  0.00    -0.206 F 
ATOM     76  C   UNL     1      -7.689  -7.657  -6.334  1.00  0.00     0.006 A 
ENDBRANCH  48  69
BRANCH  60  77
ATOM     77  C   UNL     1      -0.855 -12.110 -10.355  1.00  0.00     0.057 A 
ATOM     78  C   UNL     1      -1.590 -12.306 -11.529  1.00  0.00     0.134 A 
ATOM     79  C   UNL     1      -0.278 -13.240  -9.757  1.00  0.00     0.134 A 
ATOM     80  F   UNL     1      -2.177 -11.270 -12.147  1.00  0.00    -0.206 F 
ATOM     81  C   UNL     1      -1.756 -13.579 -12.080  1.00  0.00     0.040 A 
ATOM     82  C   UNL     1      -0.413 -14.512 -10.314  1.00  0.00     0.040 A 
ATOM     83  F   UNL     1       0.450 -13.121  -8.636  1.00  0.00    -0.206 F 
ATOM     84  C   UNL     1      -1.158 -14.685 -11.478  1.00  0.00     0.006 A 
ENDBRANCH  60  77
ENDBRANCH  34  35
ENDBRANCH  27  29
ENDBRANCH  26  27
ENDBRANCH  25  26
ENDBRANCH  24  25
ENDBRANCH  23  24
ENDBRANCH  22  23
ENDBRANCH   1  22
TORSDOF 19
