REMARK SMILES C[C@@H](C(=O)OCCOCCOCCOC(=O)c1ccc(-c2c3nc(c(-c4c(F)cccc4F)c4ccc([nH]4)c(-c4c(F)cccc4F)c4nc(c(-c5c(F)cccc5F)c5ccc2[nH]5)C=C4)C=C3)cc1)c1cccc(C(=O)c2ccccc2)c1
REMARK SMILES IDX 9 1 8 2 7 3 6 4 5 5 3 6 4 7 2 8 1 9 71 10 72 11 84 12 73 13
REMARK SMILES IDX 75 14 74 15 76 16 77 17 78 18 79 19 83 20 80 21 82 22 81 23
REMARK SMILES IDX 10 24 11 25 12 26 13 27 14 28 15 29 16 30 17 31 18 32 70 33
REMARK SMILES IDX 19 34 69 35 20 36 21 37 22 38 63 39 23 40 68 41 62 42 64 43
REMARK SMILES IDX 24 44 67 45 61 46 60 47 25 49 51 50 34 51 50 52 35 53 38 54
REMARK SMILES IDX 49 55 65 56 36 57 37 58 48 60 66 61 39 62 26 63 27 64 32 65
REMARK SMILES IDX 28 66 29 67 31 68 33 69 30 70 52 71 53 72 58 73 54 74 55 75
REMARK SMILES IDX 57 76 59 77 56 78 40 79 41 80 46 81 42 82 43 83 45 84 47 85
REMARK SMILES IDX 44 86
REMARK H PARENT 64 48 38 59
REMARK Flexibility Score: inf
ROOT
ATOM      1  C   UNL     1       0.327  -3.010   2.303  1.00  0.00     0.188 C 
ENDROOT
BRANCH   1   2
ATOM      2  O   UNL     1       1.013  -4.231   2.557  1.00  0.00    -0.376 OA
BRANCH   2   3
ATOM      3  C   UNL     1       2.300  -4.420   1.967  1.00  0.00     0.202 C 
BRANCH   3   4
ATOM      4  C   UNL     1       2.486  -4.115   0.468  1.00  0.00     0.261 C 
BRANCH   4   5
ATOM      5  O   UNL     1       2.018  -2.810   0.067  1.00  0.00    -0.463 OA
BRANCH   5   6
ATOM      6  C   UNL     1       1.404  -2.724  -1.143  1.00  0.00     0.313 C 
ATOM      7  O   UNL     1       1.340  -3.654  -1.941  1.00  0.00    -0.252 OA
BRANCH   6   8
ATOM      8  C   UNL     1       0.686  -1.381  -1.380  1.00  0.00     0.126 C 
ATOM      9  C   UNL     1       1.493  -0.171  -0.878  1.00  0.00     0.025 C 
BRANCH   8  10
ATOM     10  C   UNL     1      -0.804  -1.384  -0.993  1.00  0.00    -0.033 A 
ATOM     11  C   UNL     1      -1.510  -0.195  -0.734  1.00  0.00     0.004 A 
ATOM     12  C   UNL     1      -1.548  -2.581  -1.000  1.00  0.00     0.016 A 
ATOM     13  C   UNL     1      -2.886  -0.206  -0.468  1.00  0.00     0.001 A 
ATOM     14  C   UNL     1      -2.923  -2.603  -0.708  1.00  0.00     0.023 A 
ATOM     15  C   UNL     1      -3.594  -1.407  -0.454  1.00  0.00     0.012 A 
BRANCH  14  16
ATOM     16  C   UNL     1      -3.699  -3.873  -0.750  1.00  0.00     0.193 C 
ATOM     17  O   UNL     1      -4.883  -3.861  -1.075  1.00  0.00    -0.289 OA
BRANCH  16  18
ATOM     18  C   UNL     1      -3.049  -5.172  -0.453  1.00  0.00     0.022 A 
ATOM     19  C   UNL     1      -3.303  -6.251  -1.303  1.00  0.00     0.012 A 
ATOM     20  C   UNL     1      -2.183  -5.324   0.635  1.00  0.00     0.012 A 
ATOM     21  C   UNL     1      -2.639  -7.462  -1.105  1.00  0.00     0.001 A 
ATOM     22  C   UNL     1      -1.514  -6.533   0.826  1.00  0.00     0.001 A 
ATOM     23  C   UNL     1      -1.734  -7.596  -0.050  1.00  0.00     0.000 A 
ENDBRANCH  16  18
ENDBRANCH  14  16
ENDBRANCH   8  10
ENDBRANCH   6   8
ENDBRANCH   5   6
ENDBRANCH   4   5
ENDBRANCH   3   4
ENDBRANCH   2   3
ENDBRANCH   1   2
BRANCH   1  24
ATOM     24  C   UNL     1       1.080  -1.678   2.441  1.00  0.00     0.188 C 
BRANCH  24  25
ATOM     25  O   UNL     1       2.447  -1.812   2.740  1.00  0.00    -0.376 OA
BRANCH  25  26
ATOM     26  C   UNL     1       2.914  -1.438   4.022  1.00  0.00     0.202 C 
BRANCH  26  27
ATOM     27  C   UNL     1       2.126  -1.747   5.311  1.00  0.00     0.261 C 
BRANCH  27  28
ATOM     28  O   UNL     1       0.693  -1.769   5.235  1.00  0.00    -0.460 OA
BRANCH  28  29
ATOM     29  C   UNL     1       0.051  -0.582   5.303  1.00  0.00     0.338 C 
ATOM     30  O   UNL     1       0.561   0.527   5.404  1.00  0.00    -0.246 OA
BRANCH  29  31
ATOM     31  C   UNL     1      -1.375  -0.821   4.997  1.00  0.00     0.060 A 
ATOM     32  C   UNL     1      -1.929  -0.260   3.837  1.00  0.00     0.016 A 
ATOM     33  C   UNL     1      -2.160  -1.604   5.845  1.00  0.00     0.016 A 
ATOM     34  C   UNL     1      -3.276  -0.464   3.533  1.00  0.00     0.010 A 
ATOM     35  C   UNL     1      -3.515  -1.786   5.553  1.00  0.00     0.010 A 
ATOM     36  C   UNL     1      -4.086  -1.195   4.411  1.00  0.00    -0.014 A 
BRANCH  36  37
ATOM     37  C   UNL     1      -5.560  -1.190   4.238  1.00  0.00     0.031 A 
ATOM     38  C   UNL     1      -6.373  -0.218   5.045  1.00  0.00     0.074 A 
ATOM     39  C   UNL     1      -6.172  -2.027   3.383  1.00  0.00     0.049 A 
ATOM     40  N   UNL     1      -7.671  -0.079   5.117  1.00  0.00    -0.248 NA
ATOM     41  C   UNL     1      -5.616   0.717   5.892  1.00  0.00     0.031 C 
ATOM     42  C   UNL     1      -5.498  -2.990   2.518  1.00  0.00     0.029 A 
ATOM     43  N   UNL     1      -7.507  -2.200   3.108  1.00  0.00    -0.354 N 
ATOM     44  C   UNL     1      -7.889   0.940   6.035  1.00  0.00     0.074 A 
ATOM     45  C   UNL     1      -6.590   1.373   6.504  1.00  0.00     0.031 C 
ATOM     46  C   UNL     1      -6.425  -3.652   1.804  1.00  0.00     0.029 A 
ATOM     47  C   UNL     1      -7.755  -3.188   2.187  1.00  0.00     0.049 A 
ATOM     48  H   UNL     1      -8.217  -1.666   3.532  1.00  0.00     0.167 HD
ATOM     49  C   UNL     1      -9.065   1.464   6.454  1.00  0.00     0.037 A 
ATOM     50  C   UNL     1      -8.923  -3.675   1.722  1.00  0.00     0.037 A 
ATOM     51  C   UNL     1     -10.357   1.030   5.990  1.00  0.00     0.049 A 
ATOM     52  C   UNL     1     -10.220  -3.114   2.246  1.00  0.00     0.074 A 
ATOM     53  C   UNL     1     -11.604   1.512   6.346  1.00  0.00     0.029 A 
ATOM     54  N   UNL     1     -10.569   0.006   5.079  1.00  0.00    -0.354 N 
ATOM     55  N   UNL     1     -10.418  -2.140   3.102  1.00  0.00    -0.248 NA
ATOM     56  C   UNL     1     -11.460  -3.729   1.746  1.00  0.00     0.031 C 
ATOM     57  C   UNL     1     -12.573   0.740   5.697  1.00  0.00     0.029 A 
ATOM     58  C   UNL     1     -11.929  -0.178   4.885  1.00  0.00     0.049 A 
ATOM     59  H   UNL     1      -9.859  -0.513   4.636  1.00  0.00     0.167 HD
ATOM     60  C   UNL     1     -11.797  -2.010   3.222  1.00  0.00     0.074 A 
ATOM     61  C   UNL     1     -12.388  -2.992   2.338  1.00  0.00     0.031 C 
ATOM     62  C   UNL     1     -12.509  -1.155   3.998  1.00  0.00     0.037 A 
BRANCH  49  63
ATOM     63  C   UNL     1      -9.007   2.534   7.503  1.00  0.00     0.057 A 
ATOM     64  C   UNL     1      -8.524   3.821   7.231  1.00  0.00     0.134 A 
ATOM     65  C   UNL     1      -9.461   2.276   8.803  1.00  0.00     0.134 A 
ATOM     66  F   UNL     1      -8.056   4.129   6.012  1.00  0.00    -0.206 F 
ATOM     67  C   UNL     1      -8.471   4.804   8.221  1.00  0.00     0.040 A 
ATOM     68  C   UNL     1      -9.442   3.259   9.793  1.00  0.00     0.040 A 
ATOM     69  F   UNL     1      -9.937   1.065   9.131  1.00  0.00    -0.206 F 
ATOM     70  C   UNL     1      -8.939   4.526   9.505  1.00  0.00     0.006 A 
ENDBRANCH  49  63
BRANCH  50  71
ATOM     71  C   UNL     1      -8.932  -4.766   0.710  1.00  0.00     0.057 A 
ATOM     72  C   UNL     1      -9.423  -4.548  -0.583  1.00  0.00     0.134 A 
ATOM     73  C   UNL     1      -8.488  -6.057   1.018  1.00  0.00     0.134 A 
ATOM     74  F   UNL     1      -9.900  -3.343  -0.931  1.00  0.00    -0.206 F 
ATOM     75  C   UNL     1      -9.490  -5.577  -1.525  1.00  0.00     0.040 A 
ATOM     76  C   UNL     1      -8.520  -7.088   0.077  1.00  0.00     0.040 A 
ATOM     77  F   UNL     1      -8.016  -6.338   2.243  1.00  0.00    -0.206 F 
ATOM     78  C   UNL     1      -9.031  -6.851  -1.197  1.00  0.00     0.006 A 
ENDBRANCH  50  71
BRANCH  62  79
ATOM     79  C   UNL     1     -14.008  -1.212   3.899  1.00  0.00     0.057 A 
ATOM     80  C   UNL     1     -14.748  -2.287   4.406  1.00  0.00     0.134 A 
ATOM     81  C   UNL     1     -14.724  -0.151   3.325  1.00  0.00     0.134 A 
ATOM     82  F   UNL     1     -14.127  -3.340   4.960  1.00  0.00    -0.206 F 
ATOM     83  C   UNL     1     -16.142  -2.319   4.323  1.00  0.00     0.040 A 
ATOM     84  C   UNL     1     -16.118  -0.157   3.265  1.00  0.00     0.040 A 
ATOM     85  F   UNL     1     -14.080   0.917   2.831  1.00  0.00    -0.206 F 
ATOM     86  C   UNL     1     -16.831  -1.247   3.758  1.00  0.00     0.006 A 
ENDBRANCH  62  79
ENDBRANCH  36  37
ENDBRANCH  29  31
ENDBRANCH  28  29
ENDBRANCH  27  28
ENDBRANCH  26  27
ENDBRANCH  25  26
ENDBRANCH  24  25
ENDBRANCH   1  24
TORSDOF 20
