REMARK SMILES COc1cccc(-c2nn(-c3cc4c(cc3C(N)=O)OCO4)cc2C(=O)OCCOCCOCCOC(=O)c2ccc(-c3c4nc(c(-c5c(F)cccc5F)c5ccc([nH]5)c(-c5c(F)cccc5F)c5nc(c(-c6c(F)cccc6F)c6ccc3[nH]6)C=C5)C=C4)cc2)c1
REMARK SMILES IDX 31 1 30 2 29 3 28 4 27 5 25 6 26 7 24 8 8 9 9 10 10 11 23 12
REMARK SMILES IDX 7 13 3 14 4 15 93 16 5 17 6 18 2 19 1 20 11 21 12 22 16 23
REMARK SMILES IDX 13 24 15 25 14 26 22 27 20 28 21 29 17 30 18 31 19 32 32 35
REMARK SMILES IDX 33 36 34 37 35 38 36 39 37 40 38 41 39 42 40 43 92 44 41 45
REMARK SMILES IDX 91 46 42 47 43 48 44 49 85 50 45 51 90 52 84 53 86 54 46 55
REMARK SMILES IDX 89 56 83 57 82 58 47 60 73 61 56 62 72 63 57 64 60 65 71 66
REMARK SMILES IDX 87 67 58 68 59 69 70 71 88 72 61 73 48 74 49 75 54 76 50 77
REMARK SMILES IDX 51 78 53 79 55 80 52 81 74 82 75 83 80 84 76 85 77 86 79 87
REMARK SMILES IDX 81 88 78 89 62 90 63 91 68 92 64 93 65 94 67 95 69 96 66 97
REMARK H PARENT 18 33 18 34 86 59 60 70
REMARK Flexibility Score: inf
ROOT
ATOM      1  C   UNL     1       2.443   6.136  -3.793  1.00  0.00     0.188 C 
ENDROOT
BRANCH   1   2
ATOM      2  O   UNL     1       2.349   7.459  -3.320  1.00  0.00    -0.376 OA
BRANCH   2   3
ATOM      3  C   UNL     1       2.631   7.710  -1.953  1.00  0.00     0.202 C 
BRANCH   3   4
ATOM      4  C   UNL     1       3.793   7.041  -1.186  1.00  0.00     0.261 C 
BRANCH   4   5
ATOM      5  O   UNL     1       4.473   5.949  -1.808  1.00  0.00    -0.460 OA
BRANCH   5   6
ATOM      6  C   UNL     1       4.060   4.686  -1.480  1.00  0.00     0.342 C 
ATOM      7  O   UNL     1       3.144   4.440  -0.715  1.00  0.00    -0.246 OA
BRANCH   6   8
ATOM      8  C   UNL     1       4.766   3.680  -2.249  1.00  0.00     0.106 A 
ATOM      9  C   UNL     1       4.276   2.486  -2.853  1.00  0.00     0.107 A 
ATOM     10  N   UNL     1       5.265   1.803  -3.459  1.00  0.00    -0.167 NA
ATOM     11  N   UNL     1       6.386   2.460  -3.067  1.00  0.00    -0.239 N 
ATOM     12  C   UNL     1       6.083   3.732  -2.652  1.00  0.00     0.131 A 
BRANCH   9  13
ATOM     13  C   UNL     1       2.888   2.056  -2.925  1.00  0.00     0.007 A 
ATOM     14  C   UNL     1       1.023   0.859  -1.956  1.00  0.00     0.119 A 
ATOM     15  C   UNL     1       0.183   1.376  -2.946  1.00  0.00     0.046 A 
ATOM     16  C   UNL     1       2.378   1.194  -1.950  1.00  0.00     0.056 A 
ATOM     17  C   UNL     1       0.688   2.225  -3.930  1.00  0.00     0.005 A 
ATOM     18  C   UNL     1       2.044   2.553  -3.928  1.00  0.00     0.011 A 
BRANCH  14  19
ATOM     19  O   UNL     1       0.427  -0.000  -1.074  1.00  0.00    -0.497 OA
ATOM     20  C   UNL     1       0.963   0.020   0.245  1.00  0.00     0.278 C 
ENDBRANCH  14  19
ENDBRANCH   9  13
BRANCH  11  21
ATOM     21  C   UNL     1       7.677   1.880  -3.145  1.00  0.00     0.081 A 
ATOM     22  C   UNL     1       7.939   0.983  -4.202  1.00  0.00     0.079 A 
ATOM     23  C   UNL     1       8.688   2.187  -2.182  1.00  0.00     0.069 A 
ATOM     24  C   UNL     1       9.218   0.483  -4.311  1.00  0.00     0.167 A 
ATOM     25  C   UNL     1      10.002   1.749  -2.416  1.00  0.00     0.066 A 
ATOM     26  C   UNL     1      10.222   0.885  -3.464  1.00  0.00     0.166 A 
ATOM     27  O   UNL     1       9.655  -0.442  -5.209  1.00  0.00    -0.454 OA
ATOM     28  O   UNL     1      11.408   0.271  -3.727  1.00  0.00    -0.454 OA
ATOM     29  C   UNL     1      10.976  -0.711  -4.690  1.00  0.00     0.468 C 
BRANCH  23  30
ATOM     30  C   UNL     1       8.349   2.713  -0.807  1.00  0.00     0.251 C 
ATOM     31  N   UNL     1       9.344   2.853   0.120  1.00  0.00    -0.366 N 
ATOM     32  O   UNL     1       7.209   2.937  -0.422  1.00  0.00    -0.269 OA
ATOM     33  H   UNL     1      10.280   2.686  -0.134  1.00  0.00     0.159 HD
ATOM     34  H   UNL     1       9.123   3.121   1.042  1.00  0.00     0.159 HD
ENDBRANCH  23  30
ENDBRANCH  11  21
ENDBRANCH   6   8
ENDBRANCH   5   6
ENDBRANCH   4   5
ENDBRANCH   3   4
ENDBRANCH   2   3
ENDBRANCH   1   2
BRANCH   1  35
ATOM     35  C   UNL     1       3.713   5.869  -4.632  1.00  0.00     0.188 C 
BRANCH  35  36
ATOM     36  O   UNL     1       4.759   6.825  -4.763  1.00  0.00    -0.376 OA
BRANCH  36  37
ATOM     37  C   UNL     1       4.497   8.215  -4.888  1.00  0.00     0.202 C 
BRANCH  37  38
ATOM     38  C   UNL     1       3.562   8.732  -5.977  1.00  0.00     0.261 C 
BRANCH  38  39
ATOM     39  O   UNL     1       2.461   7.885  -6.231  1.00  0.00    -0.460 OA
BRANCH  39  40
ATOM     40  C   UNL     1       2.680   6.961  -7.182  1.00  0.00     0.338 C 
ATOM     41  O   UNL     1       3.723   6.745  -7.793  1.00  0.00    -0.246 OA
BRANCH  40  42
ATOM     42  C   UNL     1       1.417   6.272  -7.449  1.00  0.00     0.060 A 
ATOM     43  C   UNL     1       1.456   5.290  -8.439  1.00  0.00     0.016 A 
ATOM     44  C   UNL     1       0.228   6.898  -7.049  1.00  0.00     0.016 A 
ATOM     45  C   UNL     1       0.375   5.203  -9.277  1.00  0.00     0.010 A 
ATOM     46  C   UNL     1      -0.834   6.839  -7.906  1.00  0.00     0.010 A 
ATOM     47  C   UNL     1      -0.686   6.088  -9.066  1.00  0.00    -0.014 A 
BRANCH  47  48
ATOM     48  C   UNL     1      -1.669   6.222 -10.108  1.00  0.00     0.031 A 
ATOM     49  C   UNL     1      -2.694   5.168 -10.048  1.00  0.00     0.074 A 
ATOM     50  C   UNL     1      -1.664   7.270 -10.952  1.00  0.00     0.049 A 
ATOM     51  N   UNL     1      -2.838   4.166 -10.847  1.00  0.00    -0.248 NA
ATOM     52  C   UNL     1      -3.520   5.104  -8.832  1.00  0.00     0.031 C 
ATOM     53  C   UNL     1      -0.864   8.497 -10.890  1.00  0.00     0.029 A 
ATOM     54  N   UNL     1      -2.472   7.486 -12.019  1.00  0.00    -0.354 N 
ATOM     55  C   UNL     1      -3.929   3.467 -10.348  1.00  0.00     0.074 A 
ATOM     56  C   UNL     1      -4.140   3.938  -9.007  1.00  0.00     0.031 C 
ATOM     57  C   UNL     1      -1.388   9.413 -11.739  1.00  0.00     0.029 A 
ATOM     58  C   UNL     1      -2.466   8.793 -12.490  1.00  0.00     0.049 A 
ATOM     59  H   UNL     1      -3.019   6.776 -12.427  1.00  0.00     0.167 HD
ATOM     60  C   UNL     1      -4.757   2.786 -11.181  1.00  0.00     0.037 A 
ATOM     61  C   UNL     1      -3.366   9.307 -13.365  1.00  0.00     0.037 A 
ATOM     62  C   UNL     1      -4.126   2.533 -12.452  1.00  0.00     0.049 A 
ATOM     63  C   UNL     1      -4.030   8.160 -14.043  1.00  0.00     0.074 A 
ATOM     64  C   UNL     1      -2.985   1.862 -12.850  1.00  0.00     0.029 A 
ATOM     65  N   UNL     1      -4.471   3.341 -13.508  1.00  0.00    -0.354 N 
ATOM     66  N   UNL     1      -3.423   7.365 -14.882  1.00  0.00    -0.248 NA
ATOM     67  C   UNL     1      -5.221   7.605 -13.412  1.00  0.00     0.031 C 
ATOM     68  C   UNL     1      -2.446   2.643 -13.914  1.00  0.00     0.029 A 
ATOM     69  C   UNL     1      -3.314   3.710 -14.145  1.00  0.00     0.049 A 
ATOM     70  H   UNL     1      -5.385   3.607 -13.762  1.00  0.00     0.167 HD
ATOM     71  C   UNL     1      -3.891   6.094 -14.573  1.00  0.00     0.074 A 
ATOM     72  C   UNL     1      -5.047   6.313 -13.706  1.00  0.00     0.031 C 
ATOM     73  C   UNL     1      -3.129   4.984 -14.802  1.00  0.00     0.037 A 
BRANCH  60  74
ATOM     74  C   UNL     1      -6.250   2.720 -10.983  1.00  0.00     0.057 A 
ATOM     75  C   UNL     1      -7.004   1.879 -11.816  1.00  0.00     0.134 A 
ATOM     76  C   UNL     1      -7.005   3.638 -10.219  1.00  0.00     0.134 A 
ATOM     77  F   UNL     1      -6.404   0.974 -12.604  1.00  0.00    -0.206 F 
ATOM     78  C   UNL     1      -8.394   1.994 -11.935  1.00  0.00     0.040 A 
ATOM     79  C   UNL     1      -8.396   3.721 -10.287  1.00  0.00     0.040 A 
ATOM     80  F   UNL     1      -6.446   4.573  -9.443  1.00  0.00    -0.206 F 
ATOM     81  C   UNL     1      -9.093   2.922 -11.173  1.00  0.00     0.006 A 
ENDBRANCH  60  74
BRANCH  61  82
ATOM     82  C   UNL     1      -3.934  10.674 -13.391  1.00  0.00     0.057 A 
ATOM     83  C   UNL     1      -4.599  11.165 -14.523  1.00  0.00     0.134 A 
ATOM     84  C   UNL     1      -4.080  11.430 -12.214  1.00  0.00     0.134 A 
ATOM     85  F   UNL     1      -4.559  10.489 -15.681  1.00  0.00    -0.206 F 
ATOM     86  C   UNL     1      -5.376  12.332 -14.484  1.00  0.00     0.040 A 
ATOM     87  C   UNL     1      -4.848  12.598 -12.162  1.00  0.00     0.040 A 
ATOM     88  F   UNL     1      -3.558  11.011 -11.053  1.00  0.00    -0.206 F 
ATOM     89  C   UNL     1      -5.510  13.047 -13.298  1.00  0.00     0.006 A 
ENDBRANCH  61  82
BRANCH  73  90
ATOM     90  C   UNL     1      -1.867   5.154 -15.603  1.00  0.00     0.057 A 
ATOM     91  C   UNL     1      -0.767   5.919 -15.182  1.00  0.00     0.134 A 
ATOM     92  C   UNL     1      -1.696   4.389 -16.762  1.00  0.00     0.134 A 
ATOM     93  F   UNL     1      -0.801   6.605 -14.033  1.00  0.00    -0.206 F 
ATOM     94  C   UNL     1       0.430   5.952 -15.904  1.00  0.00     0.040 A 
ATOM     95  C   UNL     1      -0.495   4.386 -17.474  1.00  0.00     0.040 A 
ATOM     96  F   UNL     1      -2.683   3.588 -17.193  1.00  0.00    -0.206 F 
ATOM     97  C   UNL     1       0.571   5.177 -17.051  1.00  0.00     0.006 A 
ENDBRANCH  73  90
ENDBRANCH  47  48
ENDBRANCH  40  42
ENDBRANCH  39  40
ENDBRANCH  38  39
ENDBRANCH  37  38
ENDBRANCH  36  37
ENDBRANCH  35  36
ENDBRANCH   1  35
TORSDOF 21
