REMARK SMILES Cc1ccc(NC(=O)c2ccccc2NC(=O)[C@H]2CCCC[C@H]2C(=O)OCCOCCOCCOC(=O)c2ccc(-c3c4nc(c(-c5c(F)cccc5F)c5ccc([nH]5)c(-c5c(F)cccc5F)c5nc(c(-c6c(F)cccc6F)c6ccc3[nH]6)C=C5)C=C4)cc2)cc1
REMARK SMILES IDX 30 1 29 2 28 3 27 4 26 5 24 6 25 7 23 8 18 9 19 10 20 11
REMARK SMILES IDX 22 12 21 13 16 14 15 15 17 17 14 18 9 19 10 20 11 21 13 22
REMARK SMILES IDX 12 23 7 24 6 25 8 27 5 28 1 29 2 30 3 31 93 32 4 33 92 34
REMARK SMILES IDX 31 35 32 36 33 37 34 38 35 39 36 40 37 41 38 42 39 43 91 44
REMARK SMILES IDX 40 45 90 46 41 47 42 48 43 49 84 50 44 51 89 52 83 53 85 54
REMARK SMILES IDX 45 55 88 56 82 57 81 58 46 60 72 61 55 62 71 63 56 64 59 65
REMARK SMILES IDX 70 66 86 67 57 68 58 69 69 71 87 72 60 73 47 74 48 75 53 76
REMARK SMILES IDX 49 77 50 78 52 79 54 80 51 81 73 82 74 83 79 84 75 85 76 86
REMARK SMILES IDX 78 87 80 88 77 89 61 90 62 91 67 92 63 93 64 94 66 95 68 96
REMARK SMILES IDX 65 97
REMARK H PARENT 15 16 6 26 85 59 59 70
REMARK Flexibility Score: inf
ROOT
ATOM      1  C   UNL     1      -0.349   4.502   5.424  1.00  0.00     0.188 C 
ENDROOT
BRANCH   1   2
ATOM      2  O   UNL     1      -0.809   3.752   6.528  1.00  0.00    -0.376 OA
BRANCH   2   3
ATOM      3  C   UNL     1      -2.048   3.037   6.326  1.00  0.00     0.202 C 
BRANCH   3   4
ATOM      4  C   UNL     1      -1.955   1.889   5.231  1.00  0.00     0.261 C 
BRANCH   4   5
ATOM      5  O   UNL     1      -2.824   0.452   5.005  1.00  0.00    -0.463 OA
BRANCH   5   6
ATOM      6  C   UNL     1      -3.042  -0.924   4.765  1.00  0.00     0.309 C 
ATOM      7  O   UNL     1      -4.222  -1.270   4.941  1.00  0.00    -0.252 OA
BRANCH   6   8
ATOM      8  C   UNL     1      -2.057  -2.274   4.362  1.00  0.00     0.111 C 
ATOM      9  C   UNL     1      -0.993  -2.624   3.128  1.00  0.00     0.093 C 
ATOM     10  C   UNL     1      -1.152  -4.141   2.752  1.00  0.00     0.014 C 
ATOM     11  C   UNL     1      -1.083  -5.114   3.940  1.00  0.00     0.001 C 
ATOM     12  C   UNL     1      -1.939  -3.315   5.509  1.00  0.00     0.016 C 
ATOM     13  C   UNL     1      -2.097  -4.764   5.021  1.00  0.00     0.001 C 
BRANCH   9  14
ATOM     14  C   UNL     1       0.569  -2.474   3.319  1.00  0.00     0.228 C 
ATOM     15  N   UNL     1       1.462  -1.679   2.626  1.00  0.00    -0.325 N 
ATOM     16  H   UNL     1       2.348  -1.712   3.053  1.00  0.00     0.169 HD
ATOM     17  O   UNL     1       1.109  -3.135   4.218  1.00  0.00    -0.274 OA
BRANCH  15  18
ATOM     18  C   UNL     1       1.496  -0.825   1.484  1.00  0.00     0.054 A 
ATOM     19  C   UNL     1       2.502   0.197   1.265  1.00  0.00     0.063 A 
ATOM     20  C   UNL     1       2.299   1.110   0.195  1.00  0.00     0.016 A 
ATOM     21  C   UNL     1       1.175   1.064  -0.619  1.00  0.00     0.001 A 
ATOM     22  C   UNL     1       0.441  -0.911   0.559  1.00  0.00     0.027 A 
ATOM     23  C   UNL     1       0.256   0.046  -0.445  1.00  0.00     0.002 A 
BRANCH  19  24
ATOM     24  C   UNL     1       3.640   0.720   2.147  1.00  0.00     0.257 C 
ATOM     25  N   UNL     1       4.319   0.016   3.104  1.00  0.00    -0.322 N 
ATOM     26  H   UNL     1       4.679   0.558   3.843  1.00  0.00     0.170 HD
ATOM     27  O   UNL     1       3.920   1.927   2.103  1.00  0.00    -0.269 OA
BRANCH  25  28
ATOM     28  C   UNL     1       4.579  -1.339   3.194  1.00  0.00     0.041 A 
ATOM     29  C   UNL     1       4.084  -5.518   3.657  1.00  0.00     0.044 C 
ATOM     30  C   UNL     1       4.456  -4.077   3.497  1.00  0.00    -0.051 A 
ATOM     31  C   UNL     1       4.477  -3.516   2.215  1.00  0.00     0.005 A 
ATOM     32  C   UNL     1       4.644  -3.261   4.619  1.00  0.00     0.005 A 
ATOM     33  C   UNL     1       4.557  -2.143   2.062  1.00  0.00     0.026 A 
ATOM     34  C   UNL     1       4.737  -1.882   4.467  1.00  0.00     0.026 A 
ENDBRANCH  25  28
ENDBRANCH  19  24
ENDBRANCH  15  18
ENDBRANCH   9  14
ENDBRANCH   6   8
ENDBRANCH   5   6
ENDBRANCH   4   5
ENDBRANCH   3   4
ENDBRANCH   2   3
ENDBRANCH   1   2
BRANCH   1  35
ATOM     35  C   UNL     1       1.161   4.314   5.387  1.00  0.00     0.188 C 
BRANCH  35  36
ATOM     36  O   UNL     1       1.981   5.445   5.268  1.00  0.00    -0.376 OA
BRANCH  36  37
ATOM     37  C   UNL     1       1.605   6.312   4.223  1.00  0.00     0.202 C 
BRANCH  37  38
ATOM     38  C   UNL     1       1.054   5.831   2.860  1.00  0.00     0.261 C 
BRANCH  38  39
ATOM     39  O   UNL     1       0.705   4.453   2.445  1.00  0.00    -0.460 OA
BRANCH  39  40
ATOM     40  C   UNL     1       0.421   3.195   2.163  1.00  0.00     0.338 C 
ATOM     41  O   UNL     1      -0.262   2.998   1.156  1.00  0.00    -0.246 OA
BRANCH  40  42
ATOM     42  C   UNL     1       0.638   2.022   3.090  1.00  0.00     0.060 A 
ATOM     43  C   UNL     1      -0.324   1.063   2.988  1.00  0.00     0.016 A 
ATOM     44  C   UNL     1       1.616   1.728   4.058  1.00  0.00     0.016 A 
ATOM     45  C   UNL     1      -0.424   0.074   3.986  1.00  0.00     0.010 A 
ATOM     46  C   UNL     1       1.444   0.751   5.107  1.00  0.00     0.010 A 
ATOM     47  C   UNL     1       0.302  -0.033   5.193  1.00  0.00    -0.014 A 
BRANCH  47  48
ATOM     48  C   UNL     1      -0.174  -0.556   6.605  1.00  0.00     0.031 A 
ATOM     49  C   UNL     1       0.526  -1.680   7.296  1.00  0.00     0.074 A 
ATOM     50  C   UNL     1      -1.116  -0.029   7.475  1.00  0.00     0.049 A 
ATOM     51  N   UNL     1       0.011  -2.362   8.278  1.00  0.00    -0.248 NA
ATOM     52  C   UNL     1       1.796  -2.212   6.846  1.00  0.00     0.031 C 
ATOM     53  C   UNL     1      -0.961   0.185   8.932  1.00  0.00     0.029 A 
ATOM     54  N   UNL     1      -2.391   0.475   7.301  1.00  0.00    -0.354 N 
ATOM     55  C   UNL     1       0.998  -3.181   8.770  1.00  0.00     0.074 A 
ATOM     56  C   UNL     1       1.996  -3.196   7.726  1.00  0.00     0.031 C 
ATOM     57  C   UNL     1      -2.054   0.789   9.451  1.00  0.00     0.029 A 
ATOM     58  C   UNL     1      -3.065   0.934   8.414  1.00  0.00     0.049 A 
ATOM     59  H   UNL     1      -2.806   0.506   6.409  1.00  0.00     0.167 HD
ATOM     60  C   UNL     1       0.985  -3.585  10.076  1.00  0.00     0.037 A 
ATOM     61  C   UNL     1      -4.426   1.075   8.487  1.00  0.00     0.037 A 
ATOM     62  C   UNL     1      -0.166  -3.037  10.813  1.00  0.00     0.049 A 
ATOM     63  C   UNL     1      -4.855  -0.029   9.399  1.00  0.00     0.074 A 
ATOM     64  C   UNL     1      -0.269  -1.953  11.672  1.00  0.00     0.029 A 
ATOM     65  N   UNL     1      -1.480  -3.410  10.514  1.00  0.00    -0.354 N 
ATOM     66  N   UNL     1      -3.993  -0.918   9.796  1.00  0.00    -0.248 NA
ATOM     67  C   UNL     1      -6.190  -0.268   9.928  1.00  0.00     0.031 C 
ATOM     68  C   UNL     1      -1.639  -1.671  11.884  1.00  0.00     0.029 A 
ATOM     69  C   UNL     1      -2.390  -2.598  11.180  1.00  0.00     0.049 A 
ATOM     70  H   UNL     1      -1.727  -4.149   9.913  1.00  0.00     0.167 HD
ATOM     71  C   UNL     1      -4.584  -1.808  10.614  1.00  0.00     0.074 A 
ATOM     72  C   UNL     1      -5.971  -1.376  10.665  1.00  0.00     0.031 C 
ATOM     73  C   UNL     1      -3.839  -2.818  11.137  1.00  0.00     0.037 A 
BRANCH  60  74
ATOM     74  C   UNL     1       2.253  -4.114  10.745  1.00  0.00     0.057 A 
ATOM     75  C   UNL     1       2.559  -3.837  12.093  1.00  0.00     0.134 A 
ATOM     76  C   UNL     1       3.253  -4.851  10.082  1.00  0.00     0.134 A 
ATOM     77  F   UNL     1       1.667  -3.280  12.920  1.00  0.00    -0.206 F 
ATOM     78  C   UNL     1       3.804  -4.127  12.674  1.00  0.00     0.040 A 
ATOM     79  C   UNL     1       4.526  -5.090  10.625  1.00  0.00     0.040 A 
ATOM     80  F   UNL     1       3.021  -5.423   8.892  1.00  0.00    -0.206 F 
ATOM     81  C   UNL     1       4.813  -4.711  11.926  1.00  0.00     0.006 A 
ENDBRANCH  60  74
BRANCH  61  82
ATOM     82  C   UNL     1      -5.164   1.560   7.258  1.00  0.00     0.057 A 
ATOM     83  C   UNL     1      -4.991   2.892   6.842  1.00  0.00     0.134 A 
ATOM     84  C   UNL     1      -5.755   0.731   6.307  1.00  0.00     0.134 A 
ATOM     85  F   UNL     1      -4.542   3.810   7.714  1.00  0.00    -0.206 F 
ATOM     86  C   UNL     1      -5.098   3.293   5.492  1.00  0.00     0.040 A 
ATOM     87  C   UNL     1      -5.865   1.116   4.950  1.00  0.00     0.040 A 
ATOM     88  F   UNL     1      -6.140  -0.506   6.644  1.00  0.00    -0.206 F 
ATOM     89  C   UNL     1      -5.443   2.370   4.522  1.00  0.00     0.006 A 
ENDBRANCH  61  82
BRANCH  73  90
ATOM     90  C   UNL     1      -4.441  -4.013  11.787  1.00  0.00     0.057 A 
ATOM     91  C   UNL     1      -5.681  -4.547  11.411  1.00  0.00     0.134 A 
ATOM     92  C   UNL     1      -3.707  -4.753  12.730  1.00  0.00     0.134 A 
ATOM     93  F   UNL     1      -6.422  -3.994  10.440  1.00  0.00    -0.206 F 
ATOM     94  C   UNL     1      -6.190  -5.711  11.985  1.00  0.00     0.040 A 
ATOM     95  C   UNL     1      -4.180  -5.948  13.266  1.00  0.00     0.040 A 
ATOM     96  F   UNL     1      -2.495  -4.361  13.149  1.00  0.00    -0.206 F 
ATOM     97  C   UNL     1      -5.433  -6.422  12.907  1.00  0.00     0.006 A 
ENDBRANCH  73  90
ENDBRANCH  47  48
ENDBRANCH  40  42
ENDBRANCH  39  40
ENDBRANCH  38  39
ENDBRANCH  37  38
ENDBRANCH  36  37
ENDBRANCH  35  36
ENDBRANCH   1  35
TORSDOF 21
