REMARK SMILES CC[C@@](C)(NC(=O)NCCc1ncn[nH]1)C(=O)OCCOCCOCCOC(=O)c1ccc(-c2c3nc(c(-c4c(F)cccc4F)c4ccc([nH]4)c(-c4c(F)cccc4F)c4nc(c(-c5c(F)cccc5F)c5ccc2[nH]5)C=C4)C=C3)cc1
REMARK SMILES IDX 22 1 21 2 20 3 19 4 18 5 16 6 17 7 3 8 4 9 2 10 1 11 5 12
REMARK SMILES IDX 6 13 7 15 8 16 9 18 10 19 11 20 12 21 15 22 13 23 14 24
REMARK SMILES IDX 23 26 24 27 25 28 26 29 27 30 28 31 29 32 30 33 31 34 83 35
REMARK SMILES IDX 32 36 82 37 33 38 34 39 35 40 76 41 36 42 81 43 75 44 77 45
REMARK SMILES IDX 37 46 80 47 74 48 73 49 38 51 64 52 47 53 63 54 48 55 51 56
REMARK SMILES IDX 62 57 78 58 49 59 50 60 61 62 79 63 52 64 39 65 40 66 45 67
REMARK SMILES IDX 41 68 42 69 44 70 46 71 43 72 65 73 66 74 71 75 67 76 68 77
REMARK SMILES IDX 70 78 72 79 69 80 53 81 54 82 59 83 55 84 56 85 58 86 60 87
REMARK SMILES IDX 57 88
REMARK H PARENT 5 14 8 17 15 25 77 50 51 61
REMARK Flexibility Score: inf
ROOT
ATOM      1  C   UNL     1       3.853   2.376   1.165  1.00  0.00     0.188 C 
ENDROOT
BRANCH   1   2
ATOM      2  O   UNL     1       5.123   1.812   0.856  1.00  0.00    -0.376 OA
BRANCH   2   3
ATOM      3  C   UNL     1       5.594   2.080  -0.468  1.00  0.00     0.202 C 
BRANCH   3   4
ATOM      4  C   UNL     1       4.872   1.219  -1.511  1.00  0.00     0.261 C 
BRANCH   4   5
ATOM      5  O   UNL     1       3.534   1.737  -1.643  1.00  0.00    -0.462 OA
BRANCH   5   6
ATOM      6  C   UNL     1       2.470   0.919  -1.579  1.00  0.00     0.331 C 
ATOM      7  O   UNL     1       2.560  -0.295  -1.712  1.00  0.00    -0.249 OA
BRANCH   6   8
ATOM      8  C   UNL     1       1.116   1.702  -1.370  1.00  0.00     0.136 C 
ATOM      9  C   UNL     1       0.309   1.500  -2.659  1.00  0.00     0.047 C 
BRANCH   8  10
ATOM     10  C   UNL     1       0.370   1.028  -0.154  1.00  0.00     0.037 C 
ATOM     11  C   UNL     1       0.267  -0.487  -0.072  1.00  0.00     0.007 C 
ENDBRANCH   8  10
BRANCH   8  12
ATOM     12  N   UNL     1       1.043   3.180  -0.987  1.00  0.00    -0.322 N 
ATOM     13  C   UNL     1       1.218   4.414  -1.458  1.00  0.00     0.315 C 
ATOM     14  H   UNL     1       0.764   3.244  -0.045  1.00  0.00     0.166 HD
ATOM     15  O   UNL     1       0.544   5.304  -0.931  1.00  0.00    -0.249 OA
ATOM     16  N   UNL     1       2.069   4.780  -2.418  1.00  0.00    -0.338 N 
ATOM     17  H   UNL     1       1.882   5.636  -2.866  1.00  0.00     0.165 HD
BRANCH  16  18
ATOM     18  C   UNL     1       3.227   4.064  -2.868  1.00  0.00     0.125 C 
BRANCH  18  19
ATOM     19  C   UNL     1       4.158   4.793  -3.831  1.00  0.00     0.098 C 
BRANCH  19  20
ATOM     20  C   UNL     1       5.415   5.216  -3.148  1.00  0.00     0.125 A 
ATOM     21  N   UNL     1       6.483   4.481  -2.910  1.00  0.00    -0.220 NA
ATOM     22  N   UNL     1       5.616   6.466  -2.637  1.00  0.00    -0.263 N 
ATOM     23  C   UNL     1       7.317   5.343  -2.257  1.00  0.00     0.246 A 
ATOM     24  N   UNL     1       6.831   6.572  -2.073  1.00  0.00    -0.162 NA
ATOM     25  H   UNL     1       4.956   7.196  -2.677  1.00  0.00     0.192 HD
ENDBRANCH  19  20
ENDBRANCH  18  19
ENDBRANCH  16  18
ENDBRANCH   8  12
ENDBRANCH   6   8
ENDBRANCH   5   6
ENDBRANCH   4   5
ENDBRANCH   3   4
ENDBRANCH   2   3
ENDBRANCH   1   2
BRANCH   1  26
ATOM     26  C   UNL     1       3.920   3.812   1.631  1.00  0.00     0.188 C 
BRANCH  26  27
ATOM     27  O   UNL     1       4.209   4.803   0.651  1.00  0.00    -0.376 OA
BRANCH  27  28
ATOM     28  C   UNL     1       5.260   5.694   1.043  1.00  0.00     0.202 C 
BRANCH  28  29
ATOM     29  C   UNL     1       5.053   6.569   2.302  1.00  0.00     0.261 C 
BRANCH  29  30
ATOM     30  O   UNL     1       4.606   5.827   3.452  1.00  0.00    -0.460 OA
BRANCH  30  31
ATOM     31  C   UNL     1       3.278   5.921   3.719  1.00  0.00     0.338 C 
ATOM     32  O   UNL     1       2.503   6.749   3.267  1.00  0.00    -0.246 OA
BRANCH  31  33
ATOM     33  C   UNL     1       2.823   4.714   4.464  1.00  0.00     0.060 A 
ATOM     34  C   UNL     1       1.535   4.228   4.182  1.00  0.00     0.016 A 
ATOM     35  C   UNL     1       3.646   4.019   5.357  1.00  0.00     0.016 A 
ATOM     36  C   UNL     1       1.036   3.111   4.849  1.00  0.00     0.010 A 
ATOM     37  C   UNL     1       3.141   2.907   6.041  1.00  0.00     0.010 A 
ATOM     38  C   UNL     1       1.811   2.494   5.837  1.00  0.00    -0.014 A 
BRANCH  38  39
ATOM     39  C   UNL     1       1.118   1.686   6.872  1.00  0.00     0.031 A 
ATOM     40  C   UNL     1       0.676   2.413   8.118  1.00  0.00     0.074 A 
ATOM     41  C   UNL     1       0.828   0.385   6.706  1.00  0.00     0.049 A 
ATOM     42  N   UNL     1       0.037   1.965   9.168  1.00  0.00    -0.248 NA
ATOM     43  C   UNL     1       1.005   3.848   8.185  1.00  0.00     0.031 C 
ATOM     44  C   UNL     1       1.158  -0.420   5.533  1.00  0.00     0.029 A 
ATOM     45  N   UNL     1       0.177  -0.488   7.543  1.00  0.00    -0.354 N 
ATOM     46  C   UNL     1      -0.101   3.058  10.015  1.00  0.00     0.074 A 
ATOM     47  C   UNL     1       0.551   4.179   9.381  1.00  0.00     0.031 C 
ATOM     48  C   UNL     1       0.709  -1.674   5.726  1.00  0.00     0.029 A 
ATOM     49  C   UNL     1       0.079  -1.764   7.044  1.00  0.00     0.049 A 
ATOM     50  H   UNL     1      -0.186  -0.224   8.419  1.00  0.00     0.167 HD
ATOM     51  C   UNL     1      -0.729   3.131  11.211  1.00  0.00     0.037 A 
ATOM     52  C   UNL     1      -0.452  -2.872   7.598  1.00  0.00     0.037 A 
ATOM     53  C   UNL     1      -1.379   2.017  11.843  1.00  0.00     0.049 A 
ATOM     54  C   UNL     1      -1.090  -2.783   8.963  1.00  0.00     0.074 A 
ATOM     55  C   UNL     1      -2.054   1.984  13.050  1.00  0.00     0.029 A 
ATOM     56  N   UNL     1      -1.426   0.735  11.319  1.00  0.00    -0.354 N 
ATOM     57  N   UNL     1      -1.243  -1.739   9.743  1.00  0.00    -0.248 NA
ATOM     58  C   UNL     1      -1.638  -4.029   9.520  1.00  0.00     0.031 C 
ATOM     59  C   UNL     1      -2.463   0.667  13.281  1.00  0.00     0.029 A 
ATOM     60  C   UNL     1      -2.099  -0.105  12.189  1.00  0.00     0.049 A 
ATOM     61  H   UNL     1      -1.038   0.462  10.456  1.00  0.00     0.167 HD
ATOM     62  C   UNL     1      -1.941  -2.193  10.858  1.00  0.00     0.074 A 
ATOM     63  C   UNL     1      -2.187  -3.604  10.648  1.00  0.00     0.031 C 
ATOM     64  C   UNL     1      -2.348  -1.504  11.954  1.00  0.00     0.037 A 
BRANCH  51  65
ATOM     65  C   UNL     1      -0.703   4.454  11.921  1.00  0.00     0.057 A 
ATOM     66  C   UNL     1      -1.421   5.564  11.455  1.00  0.00     0.134 A 
ATOM     67  C   UNL     1       0.056   4.619  13.085  1.00  0.00     0.134 A 
ATOM     68  F   UNL     1      -2.148   5.481  10.330  1.00  0.00    -0.206 F 
ATOM     69  C   UNL     1      -1.362   6.797  12.106  1.00  0.00     0.040 A 
ATOM     70  C   UNL     1       0.098   5.838  13.763  1.00  0.00     0.040 A 
ATOM     71  F   UNL     1       0.770   3.598  13.584  1.00  0.00    -0.206 F 
ATOM     72  C   UNL     1      -0.606   6.934  13.268  1.00  0.00     0.006 A 
ENDBRANCH  51  65
BRANCH  52  73
ATOM     73  C   UNL     1      -0.419  -4.168   6.869  1.00  0.00     0.057 A 
ATOM     74  C   UNL     1      -1.594  -4.772   6.406  1.00  0.00     0.134 A 
ATOM     75  C   UNL     1       0.782  -4.855   6.656  1.00  0.00     0.134 A 
ATOM     76  F   UNL     1      -2.781  -4.179   6.603  1.00  0.00    -0.206 F 
ATOM     77  C   UNL     1      -1.580  -6.020   5.779  1.00  0.00     0.040 A 
ATOM     78  C   UNL     1       0.815  -6.090   6.006  1.00  0.00     0.040 A 
ATOM     79  F   UNL     1       1.944  -4.334   7.078  1.00  0.00    -0.206 F 
ATOM     80  C   UNL     1      -0.370  -6.681   5.573  1.00  0.00     0.006 A 
ENDBRANCH  52  73
BRANCH  64  81
ATOM     81  C   UNL     1      -3.155  -2.250  12.979  1.00  0.00     0.057 A 
ATOM     82  C   UNL     1      -2.591  -3.230  13.805  1.00  0.00     0.134 A 
ATOM     83  C   UNL     1      -4.512  -1.951  13.164  1.00  0.00     0.134 A 
ATOM     84  F   UNL     1      -1.300  -3.569  13.676  1.00  0.00    -0.206 F 
ATOM     85  C   UNL     1      -3.357  -3.911  14.754  1.00  0.00     0.040 A 
ATOM     86  C   UNL     1      -5.279  -2.602  14.131  1.00  0.00     0.040 A 
ATOM     87  F   UNL     1      -5.111  -1.011  12.418  1.00  0.00    -0.206 F 
ATOM     88  C   UNL     1      -4.703  -3.593  14.923  1.00  0.00     0.006 A 
ENDBRANCH  64  81
ENDBRANCH  38  39
ENDBRANCH  31  33
ENDBRANCH  30  31
ENDBRANCH  29  30
ENDBRANCH  28  29
ENDBRANCH  27  28
ENDBRANCH  26  27
ENDBRANCH   1  26
TORSDOF 22
