REMARK SMILES CCNC(=O)c1cccc(-c2ccc(Cl)c(C(=O)OCCOCCOCCOC(=O)c3ccc(-c4c5nc(c(-c6c(F)cccc6F)c6ccc([nH]6)c(-c6c(F)cccc6F)c6nc(c(-c7c(F)cccc7F)c7ccc4[nH]7)C=C6)C=C5)cc3)c2)c1
REMARK SMILES IDX 23 1 22 2 21 3 20 4 19 5 17 6 18 7 16 8 11 9 12 10 85 11
REMARK SMILES IDX 13 12 14 13 15 14 10 15 6 16 7 17 86 18 8 19 9 20 4 21 3 22
REMARK SMILES IDX 5 24 2 25 1 26 24 27 25 28 26 29 27 30 28 31 29 32 30 33
REMARK SMILES IDX 31 34 32 35 84 36 33 37 83 38 34 39 35 40 36 41 77 42 37 43
REMARK SMILES IDX 82 44 76 45 78 46 38 47 81 48 75 49 74 50 39 52 65 53 48 54
REMARK SMILES IDX 64 55 49 56 52 57 63 58 79 59 50 60 51 61 62 63 80 64 53 65
REMARK SMILES IDX 40 66 41 67 46 68 42 69 43 70 45 71 47 72 44 73 66 74 67 75
REMARK SMILES IDX 72 76 68 77 69 78 71 79 73 80 70 81 54 82 55 83 60 84 56 85
REMARK SMILES IDX 57 86 59 87 61 88 58 89
REMARK H PARENT 3 23 78 51 52 62
REMARK Flexibility Score: inf
ROOT
ATOM      1  C   UNL     1      -5.482   3.278  -7.594  1.00  0.00     0.188 C 
ENDROOT
BRANCH   1   2
ATOM      2  O   UNL     1      -4.825   3.812  -8.741  1.00  0.00    -0.376 OA
BRANCH   2   3
ATOM      3  C   UNL     1      -3.505   3.377  -9.060  1.00  0.00     0.202 C 
BRANCH   3   4
ATOM      4  C   UNL     1      -2.418   3.493  -7.985  1.00  0.00     0.261 C 
BRANCH   4   5
ATOM      5  O   UNL     1      -2.779   2.836  -6.761  1.00  0.00    -0.460 OA
BRANCH   5   6
ATOM      6  C   UNL     1      -2.644   3.567  -5.627  1.00  0.00     0.339 C 
ATOM      7  O   UNL     1      -2.106   4.653  -5.508  1.00  0.00    -0.246 OA
BRANCH   6   8
ATOM      8  C   UNL     1      -3.340   2.856  -4.534  1.00  0.00     0.079 A 
ATOM      9  C   UNL     1      -3.619   0.786  -3.250  1.00  0.00    -0.017 A 
ATOM     10  C   UNL     1      -4.599   1.440  -2.485  1.00  0.00     0.010 A 
ATOM     11  C   UNL     1      -3.015   1.511  -4.293  1.00  0.00     0.026 A 
ATOM     12  C   UNL     1      -4.947   2.771  -2.737  1.00  0.00     0.022 A 
ATOM     13  C   UNL     1      -4.311   3.488  -3.753  1.00  0.00     0.055 A 
ATOM     14  Cl  UNL     1      -4.825   5.115  -4.012  1.00  0.00    -0.083 Cl
BRANCH   9  15
ATOM     15  C   UNL     1      -3.163  -0.575  -2.904  1.00  0.00    -0.018 A 
ATOM     16  C   UNL     1      -1.302  -2.083  -2.421  1.00  0.00     0.040 A 
ATOM     17  C   UNL     1      -2.192  -3.085  -2.034  1.00  0.00     0.014 A 
ATOM     18  C   UNL     1      -1.790  -0.866  -2.904  1.00  0.00     0.022 A 
ATOM     19  C   UNL     1      -3.564  -2.839  -2.076  1.00  0.00     0.001 A 
ATOM     20  C   UNL     1      -4.043  -1.591  -2.493  1.00  0.00     0.009 A 
BRANCH  16  21
ATOM     21  C   UNL     1       0.154  -2.330  -2.341  1.00  0.00     0.251 C 
ATOM     22  N   UNL     1       0.996  -1.370  -1.834  1.00  0.00    -0.352 N 
ATOM     23  H   UNL     1       1.956  -1.557  -1.950  1.00  0.00     0.163 HD
ATOM     24  O   UNL     1       0.607  -3.404  -2.727  1.00  0.00    -0.269 OA
BRANCH  22  25
ATOM     25  C   UNL     1       0.694  -0.120  -1.152  1.00  0.00     0.112 C 
ATOM     26  C   UNL     1       1.364  -0.059   0.207  1.00  0.00     0.027 C 
ENDBRANCH  22  25
ENDBRANCH  16  21
ENDBRANCH   9  15
ENDBRANCH   6   8
ENDBRANCH   5   6
ENDBRANCH   4   5
ENDBRANCH   3   4
ENDBRANCH   2   3
ENDBRANCH   1   2
BRANCH   1  27
ATOM     27  C   UNL     1      -5.484   1.753  -7.360  1.00  0.00     0.188 C 
BRANCH  27  28
ATOM     28  O   UNL     1      -4.877   1.013  -8.391  1.00  0.00    -0.376 OA
BRANCH  28  29
ATOM     29  C   UNL     1      -5.667   0.424  -9.406  1.00  0.00     0.202 C 
BRANCH  29  30
ATOM     30  C   UNL     1      -6.975   1.032  -9.949  1.00  0.00     0.261 C 
BRANCH  30  31
ATOM     31  O   UNL     1      -7.700   1.935  -9.109  1.00  0.00    -0.460 OA
BRANCH  31  32
ATOM     32  C   UNL     1      -8.640   1.400  -8.297  1.00  0.00     0.338 C 
ATOM     33  O   UNL     1      -8.908   0.222  -8.152  1.00  0.00    -0.246 OA
BRANCH  32  34
ATOM     34  C   UNL     1      -9.189   2.489  -7.461  1.00  0.00     0.060 A 
ATOM     35  C   UNL     1      -9.028   2.411  -6.073  1.00  0.00     0.016 A 
ATOM     36  C   UNL     1      -9.863   3.570  -8.036  1.00  0.00     0.016 A 
ATOM     37  C   UNL     1      -9.568   3.403  -5.253  1.00  0.00     0.010 A 
ATOM     38  C   UNL     1     -10.416   4.556  -7.212  1.00  0.00     0.010 A 
ATOM     39  C   UNL     1     -10.295   4.463  -5.814  1.00  0.00    -0.014 A 
BRANCH  39  40
ATOM     40  C   UNL     1     -11.038   5.391  -4.926  1.00  0.00     0.031 A 
ATOM     41  C   UNL     1     -12.498   5.140  -4.664  1.00  0.00     0.074 A 
ATOM     42  C   UNL     1     -10.417   6.423  -4.328  1.00  0.00     0.049 A 
ATOM     43  N   UNL     1     -13.330   5.798  -3.898  1.00  0.00    -0.248 NA
ATOM     44  C   UNL     1     -13.098   3.989  -5.358  1.00  0.00     0.031 C 
ATOM     45  C   UNL     1      -9.005   6.766  -4.481  1.00  0.00     0.029 A 
ATOM     46  N   UNL     1     -10.905   7.375  -3.467  1.00  0.00    -0.354 N 
ATOM     47  C   UNL     1     -14.548   5.139  -4.010  1.00  0.00     0.074 A 
ATOM     48  C   UNL     1     -14.356   4.051  -4.945  1.00  0.00     0.031 C 
ATOM     49  C   UNL     1      -8.741   7.859  -3.743  1.00  0.00     0.029 A 
ATOM     50  C   UNL     1      -9.968   8.301  -3.082  1.00  0.00     0.049 A 
ATOM     51  H   UNL     1     -11.839   7.392  -3.156  1.00  0.00     0.167 HD
ATOM     52  C   UNL     1     -15.718   5.407  -3.382  1.00  0.00     0.037 A 
ATOM     53  C   UNL     1     -10.090   9.386  -2.293  1.00  0.00     0.037 A 
ATOM     54  C   UNL     1     -15.919   6.494  -2.462  1.00  0.00     0.049 A 
ATOM     55  C   UNL     1     -11.419   9.700  -1.657  1.00  0.00     0.074 A 
ATOM     56  C   UNL     1     -17.064   6.831  -1.760  1.00  0.00     0.029 A 
ATOM     57  N   UNL     1     -14.955   7.431  -2.124  1.00  0.00    -0.354 N 
ATOM     58  N   UNL     1     -12.551   9.042  -1.732  1.00  0.00    -0.248 NA
ATOM     59  C   UNL     1     -11.482  10.905  -0.817  1.00  0.00     0.031 C 
ATOM     60  C   UNL     1     -16.806   7.998  -1.033  1.00  0.00     0.029 A 
ATOM     61  C   UNL     1     -15.486   8.361  -1.244  1.00  0.00     0.049 A 
ATOM     62  H   UNL     1     -14.029   7.435  -2.460  1.00  0.00     0.167 HD
ATOM     63  C   UNL     1     -13.451   9.738  -0.934  1.00  0.00     0.074 A 
ATOM     64  C   UNL     1     -12.728  10.858  -0.369  1.00  0.00     0.031 C 
ATOM     65  C   UNL     1     -14.758   9.474  -0.691  1.00  0.00     0.037 A 
BRANCH  52  66
ATOM     66  C   UNL     1     -16.881   4.510  -3.689  1.00  0.00     0.057 A 
ATOM     67  C   UNL     1     -16.948   3.197  -3.204  1.00  0.00     0.134 A 
ATOM     68  C   UNL     1     -17.958   4.973  -4.454  1.00  0.00     0.134 A 
ATOM     69  F   UNL     1     -15.941   2.689  -2.478  1.00  0.00    -0.206 F 
ATOM     70  C   UNL     1     -18.036   2.370  -3.487  1.00  0.00     0.040 A 
ATOM     71  C   UNL     1     -19.062   4.163  -4.724  1.00  0.00     0.040 A 
ATOM     72  F   UNL     1     -17.958   6.221  -4.946  1.00  0.00    -0.206 F 
ATOM     73  C   UNL     1     -19.100   2.856  -4.244  1.00  0.00     0.006 A 
ENDBRANCH  52  66
BRANCH  53  74
ATOM     74  C   UNL     1      -8.921  10.269  -2.057  1.00  0.00     0.057 A 
ATOM     75  C   UNL     1      -8.302  10.335  -0.804  1.00  0.00     0.134 A 
ATOM     76  C   UNL     1      -8.418  11.093  -3.071  1.00  0.00     0.134 A 
ATOM     77  F   UNL     1      -8.758   9.590   0.214  1.00  0.00    -0.206 F 
ATOM     78  C   UNL     1      -7.236  11.203  -0.561  1.00  0.00     0.040 A 
ATOM     79  C   UNL     1      -7.337  11.947  -2.849  1.00  0.00     0.040 A 
ATOM     80  F   UNL     1      -8.972  11.079  -4.292  1.00  0.00    -0.206 F 
ATOM     81  C   UNL     1      -6.747  12.008  -1.587  1.00  0.00     0.006 A 
ENDBRANCH  53  74
BRANCH  65  82
ATOM     82  C   UNL     1     -15.482  10.399   0.246  1.00  0.00     0.057 A 
ATOM     83  C   UNL     1     -15.824  11.706  -0.123  1.00  0.00     0.134 A 
ATOM     84  C   UNL     1     -15.855   9.970   1.526  1.00  0.00     0.134 A 
ATOM     85  F   UNL     1     -15.485  12.183  -1.330  1.00  0.00    -0.206 F 
ATOM     86  C   UNL     1     -16.484  12.564   0.759  1.00  0.00     0.040 A 
ATOM     87  C   UNL     1     -16.539  10.810   2.407  1.00  0.00     0.040 A 
ATOM     88  F   UNL     1     -15.568   8.727   1.940  1.00  0.00    -0.206 F 
ATOM     89  C   UNL     1     -16.848  12.114   2.027  1.00  0.00     0.006 A 
ENDBRANCH  65  82
ENDBRANCH  39  40
ENDBRANCH  32  34
ENDBRANCH  31  32
ENDBRANCH  30  31
ENDBRANCH  29  30
ENDBRANCH  28  29
ENDBRANCH  27  28
ENDBRANCH   1  27
TORSDOF 20
