REMARK SMILES CCOc1cccc2c(SCC(=O)OCCOCCOCCOC(=O)c3ccc(-c4c5nc(c(-c6c(F)cccc6F)c6ccc([nH]6)c(-c6c(F)cccc6F)c6nc(c(-c7c(F)cccc7F)c7ccc4[nH]7)C=C6)C=C5)cc3)cc(C)nc12
REMARK SMILES IDX 18 1 17 2 16 3 15 4 14 5 12 6 13 7 11 8 10 9 9 10 4 11 5 12
REMARK SMILES IDX 84 13 6 14 8 15 83 16 7 17 81 18 80 19 82 20 3 21 2 22 1 23
REMARK SMILES IDX 19 24 20 25 21 26 22 27 23 28 24 29 25 30 26 31 27 32 79 33
REMARK SMILES IDX 28 34 78 35 29 36 30 37 31 38 72 39 32 40 77 41 71 42 73 43
REMARK SMILES IDX 33 44 76 45 70 46 69 47 34 49 60 50 43 51 59 52 44 53 47 54
REMARK SMILES IDX 58 55 74 56 45 57 46 58 57 60 75 61 48 62 35 63 36 64 41 65
REMARK SMILES IDX 37 66 38 67 40 68 42 69 39 70 61 71 62 72 67 73 63 74 64 75
REMARK SMILES IDX 66 76 68 77 65 78 49 79 50 80 55 81 51 82 52 83 54 84 56 85
REMARK SMILES IDX 53 86
REMARK H PARENT 73 48 47 59
REMARK Flexibility Score: inf
ROOT
ATOM      1  C   UNL     1       6.087   1.522  -2.468  1.00  0.00     0.188 C 
ENDROOT
BRANCH   1   2
ATOM      2  O   UNL     1       6.979   1.268  -3.546  1.00  0.00    -0.376 OA
BRANCH   2   3
ATOM      3  C   UNL     1       8.083   0.396  -3.309  1.00  0.00     0.202 C 
BRANCH   3   4
ATOM      4  C   UNL     1       9.046   0.873  -2.218  1.00  0.00     0.261 C 
BRANCH   4   5
ATOM      5  O   UNL     1       8.482   0.579  -0.923  1.00  0.00    -0.463 OA
BRANCH   5   6
ATOM      6  C   UNL     1       8.820   1.405   0.100  1.00  0.00     0.316 C 
ATOM      7  O   UNL     1       9.697   2.259   0.022  1.00  0.00    -0.251 OA
BRANCH   6   8
ATOM      8  C   UNL     1       7.841   1.340   1.265  1.00  0.00     0.197 C 
BRANCH   8   9
ATOM      9  S   UNL     1       7.324  -0.344   1.768  1.00  0.00    -0.114 SA
BRANCH   9  10
ATOM     10  C   UNL     1       5.534  -0.235   2.125  1.00  0.00     0.019 A 
ATOM     11  C   UNL     1       2.543  -2.432   2.421  1.00  0.00     0.145 A 
ATOM     12  C   UNL     1       3.079  -3.714   2.504  1.00  0.00     0.049 A 
ATOM     13  C   UNL     1       3.352  -1.290   2.368  1.00  0.00     0.114 A 
ATOM     14  C   UNL     1       4.454  -3.874   2.444  1.00  0.00     0.005 A 
ATOM     15  C   UNL     1       4.754  -1.433   2.241  1.00  0.00     0.018 A 
ATOM     16  N   UNL     1       2.771  -0.090   2.478  1.00  0.00    -0.249 NA
ATOM     17  C   UNL     1       5.277  -2.755   2.279  1.00  0.00     0.012 A 
ATOM     18  C   UNL     1       3.526   1.017   2.527  1.00  0.00     0.039 A 
ATOM     19  C   UNL     1       4.897   0.995   2.321  1.00  0.00     0.039 A 
ATOM     20  C   UNL     1       2.776   2.260   2.879  1.00  0.00     0.067 C 
BRANCH  11  21
ATOM     21  O   UNL     1       1.168  -2.322   2.475  1.00  0.00    -0.492 OA
BRANCH  21  22
ATOM     22  C   UNL     1       0.614  -2.210   1.154  1.00  0.00     0.226 C 
ATOM     23  C   UNL     1      -0.134  -0.897   1.001  1.00  0.00     0.049 C 
ENDBRANCH  21  22
ENDBRANCH  11  21
ENDBRANCH   9  10
ENDBRANCH   8   9
ENDBRANCH   6   8
ENDBRANCH   5   6
ENDBRANCH   4   5
ENDBRANCH   3   4
ENDBRANCH   2   3
ENDBRANCH   1   2
BRANCH   1  24
ATOM     24  C   UNL     1       5.591   0.324  -1.633  1.00  0.00     0.188 C 
BRANCH  24  25
ATOM     25  O   UNL     1       5.396  -0.921  -2.282  1.00  0.00    -0.376 OA
BRANCH  25  26
ATOM     26  C   UNL     1       4.651  -0.896  -3.490  1.00  0.00     0.202 C 
BRANCH  26  27
ATOM     27  C   UNL     1       3.191  -0.472  -3.333  1.00  0.00     0.261 C 
BRANCH  27  28
ATOM     28  O   UNL     1       3.062   0.868  -2.807  1.00  0.00    -0.460 OA
BRANCH  28  29
ATOM     29  C   UNL     1       2.046   1.013  -1.921  1.00  0.00     0.338 C 
ATOM     30  O   UNL     1       1.234   0.159  -1.615  1.00  0.00    -0.246 OA
BRANCH  29  31
ATOM     31  C   UNL     1       1.978   2.376  -1.344  1.00  0.00     0.060 A 
ATOM     32  C   UNL     1       3.039   2.945  -0.643  1.00  0.00     0.016 A 
ATOM     33  C   UNL     1       0.728   2.999  -1.310  1.00  0.00     0.016 A 
ATOM     34  C   UNL     1       2.810   4.052   0.183  1.00  0.00     0.010 A 
ATOM     35  C   UNL     1       0.521   4.145  -0.530  1.00  0.00     0.010 A 
ATOM     36  C   UNL     1       1.539   4.647   0.294  1.00  0.00    -0.014 A 
BRANCH  36  37
ATOM     37  C   UNL     1       1.256   5.688   1.341  1.00  0.00     0.031 A 
ATOM     38  C   UNL     1       0.109   5.526   2.325  1.00  0.00     0.074 A 
ATOM     39  C   UNL     1       2.060   6.762   1.494  1.00  0.00     0.049 A 
ATOM     40  N   UNL     1      -0.382   6.398   3.176  1.00  0.00    -0.248 NA
ATOM     41  C   UNL     1      -0.571   4.222   2.363  1.00  0.00     0.031 C 
ATOM     42  C   UNL     1       3.246   7.055   0.691  1.00  0.00     0.029 A 
ATOM     43  N   UNL     1       2.014   7.796   2.402  1.00  0.00    -0.354 N 
ATOM     44  C   UNL     1      -1.465   5.776   3.791  1.00  0.00     0.074 A 
ATOM     45  C   UNL     1      -1.547   4.442   3.235  1.00  0.00     0.031 C 
ATOM     46  C   UNL     1       3.859   8.138   1.189  1.00  0.00     0.029 A 
ATOM     47  C   UNL     1       3.041   8.698   2.260  1.00  0.00     0.049 A 
ATOM     48  H   UNL     1       1.313   7.881   3.087  1.00  0.00     0.167 HD
ATOM     49  C   UNL     1      -2.320   6.268   4.722  1.00  0.00     0.037 A 
ATOM     50  C   UNL     1       3.283   9.876   2.866  1.00  0.00     0.037 A 
ATOM     51  C   UNL     1      -2.211   7.566   5.342  1.00  0.00     0.049 A 
ATOM     52  C   UNL     1       2.311  10.419   3.870  1.00  0.00     0.074 A 
ATOM     53  C   UNL     1      -3.045   8.144   6.288  1.00  0.00     0.029 A 
ATOM     54  N   UNL     1      -1.195   8.476   5.105  1.00  0.00    -0.354 N 
ATOM     55  N   UNL     1       1.213   9.875   4.332  1.00  0.00    -0.248 NA
ATOM     56  C   UNL     1       2.592  11.759   4.405  1.00  0.00     0.031 C 
ATOM     57  C   UNL     1      -2.551   9.417   6.597  1.00  0.00     0.029 A 
ATOM     58  C   UNL     1      -1.386   9.613   5.877  1.00  0.00     0.049 A 
ATOM     59  H   UNL     1      -0.447   8.337   4.481  1.00  0.00     0.167 HD
ATOM     60  C   UNL     1       0.662  10.813   5.196  1.00  0.00     0.074 A 
ATOM     61  C   UNL     1       1.568  11.941   5.227  1.00  0.00     0.031 C 
ATOM     62  C   UNL     1      -0.501  10.747   5.887  1.00  0.00     0.037 A 
BRANCH  49  63
ATOM     63  C   UNL     1      -3.499   5.422   5.113  1.00  0.00     0.057 A 
ATOM     64  C   UNL     1      -3.386   4.327   5.977  1.00  0.00     0.134 A 
ATOM     65  C   UNL     1      -4.787   5.774   4.682  1.00  0.00     0.134 A 
ATOM     66  F   UNL     1      -2.183   3.933   6.420  1.00  0.00    -0.206 F 
ATOM     67  C   UNL     1      -4.510   3.609   6.394  1.00  0.00     0.040 A 
ATOM     68  C   UNL     1      -5.919   5.080   5.110  1.00  0.00     0.040 A 
ATOM     69  F   UNL     1      -4.966   6.821   3.862  1.00  0.00    -0.206 F 
ATOM     70  C   UNL     1      -5.782   3.992   5.968  1.00  0.00     0.006 A 
ENDBRANCH  49  63
BRANCH  50  71
ATOM     71  C   UNL     1       4.474  10.668   2.466  1.00  0.00     0.057 A 
ATOM     72  C   UNL     1       5.555  10.846   3.335  1.00  0.00     0.134 A 
ATOM     73  C   UNL     1       4.568  11.236   1.189  1.00  0.00     0.134 A 
ATOM     74  F   UNL     1       5.508  10.355   4.582  1.00  0.00    -0.206 F 
ATOM     75  C   UNL     1       6.694  11.552   2.943  1.00  0.00     0.040 A 
ATOM     76  C   UNL     1       5.713  11.913   0.773  1.00  0.00     0.040 A 
ATOM     77  F   UNL     1       3.561  11.102   0.313  1.00  0.00    -0.206 F 
ATOM     78  C   UNL     1       6.780  12.074   1.653  1.00  0.00     0.006 A 
ENDBRANCH  50  71
BRANCH  62  79
ATOM     79  C   UNL     1      -0.853  11.936   6.731  1.00  0.00     0.057 A 
ATOM     80  C   UNL     1      -1.285  13.139   6.157  1.00  0.00     0.134 A 
ATOM     81  C   UNL     1      -0.734  11.890   8.125  1.00  0.00     0.134 A 
ATOM     82  F   UNL     1      -1.405  13.253   4.826  1.00  0.00    -0.206 F 
ATOM     83  C   UNL     1      -1.551  14.266   6.938  1.00  0.00     0.040 A 
ATOM     84  C   UNL     1      -1.018  13.003   8.918  1.00  0.00     0.040 A 
ATOM     85  F   UNL     1      -0.332  10.767   8.738  1.00  0.00    -0.206 F 
ATOM     86  C   UNL     1      -1.417  14.199   8.324  1.00  0.00     0.006 A 
ENDBRANCH  62  79
ENDBRANCH  36  37
ENDBRANCH  29  31
ENDBRANCH  28  29
ENDBRANCH  27  28
ENDBRANCH  26  27
ENDBRANCH  25  26
ENDBRANCH  24  25
ENDBRANCH   1  24
TORSDOF 21
