REMARK SMILES CCC[NH2+][C@]1(C(=O)OCCOCCOCCOC(=O)c2ccc(-c3c4nc(c(-c5c(F)cccc5F)c5ccc([nH]5)c(-c5c(F)cccc5F)c5nc(c(-c6c(F)cccc6F)c6ccc3[nH]6)C=C5)C=C4)cc2)CC[C@@H](Sc2nnc(C)n2C)C1
REMARK SMILES IDX 12 1 11 2 10 3 9 4 8 5 6 6 7 7 5 8 74 9 85 10 75 11 76 12
REMARK SMILES IDX 4 13 3 16 2 17 1 18 77 19 78 20 79 21 83 22 80 23 81 24
REMARK SMILES IDX 84 25 82 26 13 27 14 28 15 29 16 30 17 31 18 32 19 33 20 34
REMARK SMILES IDX 21 35 73 36 22 37 72 38 23 39 24 40 25 41 66 42 26 43 71 44
REMARK SMILES IDX 65 45 67 46 27 47 70 48 64 49 63 50 28 52 54 53 37 54 53 55
REMARK SMILES IDX 38 56 41 57 52 58 68 59 39 60 40 61 51 63 69 64 42 65 29 66
REMARK SMILES IDX 30 67 35 68 31 69 32 70 34 71 36 72 33 73 55 74 56 75 61 76
REMARK SMILES IDX 57 77 58 78 60 79 62 80 59 81 43 82 44 83 49 84 45 85 46 86
REMARK SMILES IDX 48 87 50 88 47 89
REMARK H PARENT 4 14 4 15 67 51 41 62
REMARK Flexibility Score: inf
ROOT
ATOM      1  C   UNL     1       1.948  -0.018  -1.160  1.00  0.00     0.188 C 
ENDROOT
BRANCH   1   2
ATOM      2  O   UNL     1       0.943  -0.297  -0.191  1.00  0.00    -0.376 OA
BRANCH   2   3
ATOM      3  C   UNL     1      -0.400  -0.459  -0.620  1.00  0.00     0.202 C 
BRANCH   3   4
ATOM      4  C   UNL     1      -1.112   0.808  -1.074  1.00  0.00     0.261 C 
BRANCH   4   5
ATOM      5  O   UNL     1      -0.539   1.368  -2.264  1.00  0.00    -0.459 OA
BRANCH   5   6
ATOM      6  C   UNL     1       0.089   2.567  -2.124  1.00  0.00     0.368 C 
ATOM      7  O   UNL     1       0.307   3.114  -1.046  1.00  0.00    -0.245 OA
BRANCH   6   8
ATOM      8  C   UNL     1       0.459   3.202  -3.484  1.00  0.00     0.195 C 
ATOM      9  C   UNL     1      -0.483   2.734  -4.616  1.00  0.00     0.082 C 
ATOM     10  C   UNL     1       0.099   4.697  -3.392  1.00  0.00     0.096 C 
ATOM     11  C   UNL     1      -0.501   3.883  -5.621  1.00  0.00     0.022 C 
ATOM     12  C   UNL     1      -0.319   5.153  -4.787  1.00  0.00     0.062 C 
BRANCH   8  13
ATOM     13  N   UNL     1       1.863   2.916  -3.874  1.00  0.00    -0.332 N 
ATOM     14  H   UNL     1       2.024   1.916  -3.757  1.00  0.00     0.347 HD
ATOM     15  H   UNL     1       1.957   3.236  -4.838  1.00  0.00     0.347 HD
BRANCH  13  16
ATOM     16  C   UNL     1       2.885   3.631  -3.111  1.00  0.00     0.261 C 
BRANCH  16  17
ATOM     17  C   UNL     1       4.283   3.345  -3.659  1.00  0.00     0.058 C 
ATOM     18  C   UNL     1       4.556   3.971  -5.020  1.00  0.00     0.010 C 
ENDBRANCH  16  17
ENDBRANCH  13  16
ENDBRANCH   8  13
BRANCH  12  19
ATOM     19  S   UNL     1      -1.766   6.273  -4.689  1.00  0.00    -0.082 SA
BRANCH  19  20
ATOM     20  C   UNL     1      -3.001   5.208  -4.115  1.00  0.00     0.191 A 
ATOM     21  N   UNL     1      -3.688   4.390  -4.875  1.00  0.00    -0.123 NA
ATOM     22  N   UNL     1      -3.361   5.034  -2.806  1.00  0.00    -0.309 N 
ATOM     23  N   UNL     1      -4.484   3.626  -4.058  1.00  0.00    -0.135 NA
ATOM     24  C   UNL     1      -4.268   3.998  -2.813  1.00  0.00     0.130 A 
ATOM     25  C   UNL     1      -2.876   5.697  -1.622  1.00  0.00     0.154 C 
ATOM     26  C   UNL     1      -4.875   3.399  -1.604  1.00  0.00     0.090 C 
ENDBRANCH  19  20
ENDBRANCH  12  19
ENDBRANCH   6   8
ENDBRANCH   5   6
ENDBRANCH   4   5
ENDBRANCH   3   4
ENDBRANCH   2   3
ENDBRANCH   1   2
BRANCH   1  27
ATOM     27  C   UNL     1       1.880  -0.679  -2.552  1.00  0.00     0.188 C 
BRANCH  27  28
ATOM     28  O   UNL     1       1.307  -1.979  -2.669  1.00  0.00    -0.376 OA
BRANCH  28  29
ATOM     29  C   UNL     1       1.742  -2.987  -1.760  1.00  0.00     0.202 C 
BRANCH  29  30
ATOM     30  C   UNL     1       3.215  -3.353  -1.899  1.00  0.00     0.261 C 
BRANCH  30  31
ATOM     31  O   UNL     1       4.005  -2.320  -1.293  1.00  0.00    -0.460 OA
BRANCH  31  32
ATOM     32  C   UNL     1       5.287  -2.283  -1.703  1.00  0.00     0.338 C 
ATOM     33  O   UNL     1       5.873  -3.096  -2.392  1.00  0.00    -0.246 OA
BRANCH  32  34
ATOM     34  C   UNL     1       5.861  -0.991  -1.302  1.00  0.00     0.060 A 
ATOM     35  C   UNL     1       5.806   0.059  -2.220  1.00  0.00     0.016 A 
ATOM     36  C   UNL     1       6.572  -0.864  -0.107  1.00  0.00     0.016 A 
ATOM     37  C   UNL     1       6.532   1.222  -1.974  1.00  0.00     0.010 A 
ATOM     38  C   UNL     1       7.291   0.312   0.141  1.00  0.00     0.010 A 
ATOM     39  C   UNL     1       7.309   1.342  -0.815  1.00  0.00    -0.014 A 
BRANCH  39  40
ATOM     40  C   UNL     1       8.330   2.417  -0.771  1.00  0.00     0.031 A 
ATOM     41  C   UNL     1       9.698   2.111  -1.317  1.00  0.00     0.074 A 
ATOM     42  C   UNL     1       8.036   3.667  -0.373  1.00  0.00     0.049 A 
ATOM     43  N   UNL     1      10.753   2.880  -1.401  1.00  0.00    -0.248 NA
ATOM     44  C   UNL     1       9.891   0.757  -1.861  1.00  0.00     0.031 C 
ATOM     45  C   UNL     1       6.728   4.128   0.084  1.00  0.00     0.029 A 
ATOM     46  N   UNL     1       8.833   4.784  -0.306  1.00  0.00    -0.354 N 
ATOM     47  C   UNL     1      11.734   2.103  -2.002  1.00  0.00     0.074 A 
ATOM     48  C   UNL     1      11.154   0.802  -2.254  1.00  0.00     0.031 C 
ATOM     49  C   UNL     1       6.813   5.436   0.388  1.00  0.00     0.029 A 
ATOM     50  C   UNL     1       8.187   5.893   0.178  1.00  0.00     0.049 A 
ATOM     51  H   UNL     1       9.778   4.788  -0.581  1.00  0.00     0.167 HD
ATOM     52  C   UNL     1      13.008   2.436  -2.316  1.00  0.00     0.037 A 
ATOM     53  C   UNL     1       8.659   7.128   0.441  1.00  0.00     0.037 A 
ATOM     54  C   UNL     1      13.605   3.715  -2.054  1.00  0.00     0.049 A 
ATOM     55  C   UNL     1      10.108   7.450   0.175  1.00  0.00     0.074 A 
ATOM     56  C   UNL     1      14.906   4.125  -2.283  1.00  0.00     0.029 A 
ATOM     57  N   UNL     1      12.935   4.794  -1.499  1.00  0.00    -0.354 N 
ATOM     58  N   UNL     1      11.041   6.696  -0.353  1.00  0.00    -0.248 NA
ATOM     59  C   UNL     1      10.569   8.795   0.552  1.00  0.00     0.031 C 
ATOM     60  C   UNL     1      15.033   5.444  -1.833  1.00  0.00     0.029 A 
ATOM     61  C   UNL     1      13.801   5.866  -1.361  1.00  0.00     0.049 A 
ATOM     62  H   UNL     1      11.986   4.797  -1.240  1.00  0.00     0.167 HD
ATOM     63  C   UNL     1      12.192   7.476  -0.384  1.00  0.00     0.074 A 
ATOM     64  C   UNL     1      11.836   8.769   0.161  1.00  0.00     0.031 C 
ATOM     65  C   UNL     1      13.433   7.149  -0.820  1.00  0.00     0.037 A 
BRANCH  52  66
ATOM     66  C   UNL     1      13.847   1.355  -2.923  1.00  0.00     0.057 A 
ATOM     67  C   UNL     1      13.689   0.958  -4.256  1.00  0.00     0.134 A 
ATOM     68  C   UNL     1      14.790   0.672  -2.146  1.00  0.00     0.134 A 
ATOM     69  F   UNL     1      12.780   1.556  -5.041  1.00  0.00    -0.206 F 
ATOM     70  C   UNL     1      14.423  -0.103  -4.789  1.00  0.00     0.040 A 
ATOM     71  C   UNL     1      15.544  -0.376  -2.673  1.00  0.00     0.040 A 
ATOM     72  F   UNL     1      14.981   1.003  -0.860  1.00  0.00    -0.206 F 
ATOM     73  C   UNL     1      15.354  -0.773  -3.996  1.00  0.00     0.006 A 
ENDBRANCH  52  66
BRANCH  53  74
ATOM     74  C   UNL     1       7.764   8.155   1.031  1.00  0.00     0.057 A 
ATOM     75  C   UNL     1       7.365   9.281   0.302  1.00  0.00     0.134 A 
ATOM     76  C   UNL     1       7.322   8.052   2.355  1.00  0.00     0.134 A 
ATOM     77  F   UNL     1       7.782   9.451  -0.961  1.00  0.00    -0.206 F 
ATOM     78  C   UNL     1       6.569  10.276   0.874  1.00  0.00     0.040 A 
ATOM     79  C   UNL     1       6.507   9.027   2.932  1.00  0.00     0.040 A 
ATOM     80  F   UNL     1       7.677   7.000   3.108  1.00  0.00    -0.206 F 
ATOM     81  C   UNL     1       6.134  10.147   2.192  1.00  0.00     0.006 A 
ENDBRANCH  53  74
BRANCH  65  82
ATOM     82  C   UNL     1      14.495   8.207  -0.745  1.00  0.00     0.057 A 
ATOM     83  C   UNL     1      15.083   8.575   0.471  1.00  0.00     0.134 A 
ATOM     84  C   UNL     1      14.969   8.827  -1.908  1.00  0.00     0.134 A 
ATOM     85  F   UNL     1      14.667   8.025   1.622  1.00  0.00    -0.206 F 
ATOM     86  C   UNL     1      16.095   9.535   0.530  1.00  0.00     0.040 A 
ATOM     87  C   UNL     1      15.994   9.774  -1.864  1.00  0.00     0.040 A 
ATOM     88  F   UNL     1      14.453   8.514  -3.106  1.00  0.00    -0.206 F 
ATOM     89  C   UNL     1      16.558  10.133  -0.641  1.00  0.00     0.006 A 
ENDBRANCH  65  82
ENDBRANCH  39  40
ENDBRANCH  32  34
ENDBRANCH  31  32
ENDBRANCH  30  31
ENDBRANCH  29  30
ENDBRANCH  28  29
ENDBRANCH  27  28
ENDBRANCH   1  27
TORSDOF 22
