REMARK SMILES CO[C@@H]1C[C@@H](C(=O)OCCOCCOCCOC(=O)c2ccc(-c3c4nc(c(-c5c(F)cccc5F)c5ccc([nH]5)c(-c5c(F)cccc5F)c5nc(c(-c6c(F)cccc6F)c6ccc3[nH]6)C=C5)C=C4)cc2)N(C(=O)CSc2cccs2)C1
REMARK SMILES IDX 12 1 11 2 10 3 9 4 8 5 6 6 7 7 5 8 3 9 4 10 84 11 74 12 2 13
REMARK SMILES IDX 1 14 75 15 76 16 77 17 78 18 79 19 80 20 83 21 81 22 82 23
REMARK SMILES IDX 13 24 14 25 15 26 16 27 17 28 18 29 19 30 20 31 21 32 73 33
REMARK SMILES IDX 22 34 72 35 23 36 24 37 25 38 66 39 26 40 71 41 65 42 67 43
REMARK SMILES IDX 27 44 70 45 64 46 63 47 28 49 54 50 37 51 53 52 38 53 41 54
REMARK SMILES IDX 52 55 68 56 39 57 40 58 51 60 69 61 42 62 29 63 30 64 35 65
REMARK SMILES IDX 31 66 32 67 34 68 36 69 33 70 55 71 56 72 61 73 57 74 58 75
REMARK SMILES IDX 60 76 62 77 59 78 43 79 44 80 49 81 45 82 46 83 48 84 50 85
REMARK SMILES IDX 47 86
REMARK H PARENT 67 48 41 59
REMARK Flexibility Score: inf
ROOT
ATOM      1  C   UNL     1       6.282  -3.438   2.027  1.00  0.00     0.188 C 
ENDROOT
BRANCH   1   2
ATOM      2  O   UNL     1       7.386  -2.823   2.650  1.00  0.00    -0.376 OA
BRANCH   2   3
ATOM      3  C   UNL     1       7.752  -1.522   2.254  1.00  0.00     0.202 C 
BRANCH   3   4
ATOM      4  C   UNL     1       6.718  -0.385   2.160  1.00  0.00     0.261 C 
BRANCH   4   5
ATOM      5  O   UNL     1       5.320  -0.721   2.117  1.00  0.00    -0.462 OA
BRANCH   5   6
ATOM      6  C   UNL     1       4.713  -0.664   0.903  1.00  0.00     0.329 C 
ATOM      7  O   UNL     1       5.331  -0.545  -0.148  1.00  0.00    -0.250 OA
BRANCH   6   8
ATOM      8  C   UNL     1       3.165  -0.732   0.962  1.00  0.00     0.197 C 
ATOM      9  C   UNL     1       1.180  -0.106   2.210  1.00  0.00     0.140 C 
ATOM     10  C   UNL     1       2.649   0.254   2.030  1.00  0.00     0.071 C 
ATOM     11  C   UNL     1       1.158  -1.620   2.004  1.00  0.00     0.152 C 
ATOM     12  N   UNL     1       2.340  -1.946   1.194  1.00  0.00    -0.325 N 
BRANCH   9  13
ATOM     13  O   UNL     1       0.281   0.635   1.383  1.00  0.00    -0.380 OA
ATOM     14  C   UNL     1       0.444   0.568  -0.024  1.00  0.00     0.195 C 
ENDBRANCH   9  13
BRANCH  12  15
ATOM     15  C   UNL     1       2.282  -3.125   0.467  1.00  0.00     0.233 C 
ATOM     16  O   UNL     1       1.328  -3.902   0.582  1.00  0.00    -0.274 OA
BRANCH  15  17
ATOM     17  C   UNL     1       3.467  -3.547  -0.363  1.00  0.00     0.175 C 
BRANCH  17  18
ATOM     18  S   UNL     1       3.618  -2.669  -1.916  1.00  0.00    -0.105 SA
BRANCH  18  19
ATOM     19  C   UNL     1       2.308  -3.309  -2.876  1.00  0.00     0.060 A 
ATOM     20  C   UNL     1       1.736  -4.560  -2.819  1.00  0.00     0.027 A 
ATOM     21  S   UNL     1       1.608  -2.354  -4.110  1.00  0.00    -0.137 S 
ATOM     22  C   UNL     1       0.751  -4.753  -3.829  1.00  0.00     0.013 A 
ATOM     23  C   UNL     1       0.570  -3.622  -4.589  1.00  0.00     0.066 A 
ENDBRANCH  18  19
ENDBRANCH  17  18
ENDBRANCH  15  17
ENDBRANCH  12  15
ENDBRANCH   6   8
ENDBRANCH   5   6
ENDBRANCH   4   5
ENDBRANCH   3   4
ENDBRANCH   2   3
ENDBRANCH   1   2
BRANCH   1  24
ATOM     24  C   UNL     1       5.061  -3.508   2.967  1.00  0.00     0.188 C 
BRANCH  24  25
ATOM     25  O   UNL     1       5.264  -3.555   4.376  1.00  0.00    -0.376 OA
BRANCH  25  26
ATOM     26  C   UNL     1       6.401  -4.231   4.888  1.00  0.00     0.202 C 
BRANCH  26  27
ATOM     27  C   UNL     1       6.462  -5.750   4.713  1.00  0.00     0.261 C 
BRANCH  27  28
ATOM     28  O   UNL     1       6.028  -6.242   3.435  1.00  0.00    -0.460 OA
BRANCH  28  29
ATOM     29  C   UNL     1       4.756  -6.711   3.407  1.00  0.00     0.338 C 
ATOM     30  O   UNL     1       3.957  -6.721   4.334  1.00  0.00    -0.246 OA
BRANCH  29  31
ATOM     31  C   UNL     1       4.390  -7.130   2.035  1.00  0.00     0.060 A 
ATOM     32  C   UNL     1       3.105  -6.825   1.571  1.00  0.00     0.016 A 
ATOM     33  C   UNL     1       5.263  -7.872   1.232  1.00  0.00     0.016 A 
ATOM     34  C   UNL     1       2.683  -7.283   0.321  1.00  0.00     0.010 A 
ATOM     35  C   UNL     1       4.830  -8.350  -0.013  1.00  0.00     0.010 A 
ATOM     36  C   UNL     1       3.531  -8.076  -0.468  1.00  0.00    -0.014 A 
BRANCH  36  37
ATOM     37  C   UNL     1       2.986  -8.735  -1.684  1.00  0.00     0.031 A 
ATOM     38  C   UNL     1       2.151  -9.974  -1.523  1.00  0.00     0.074 A 
ATOM     39  C   UNL     1       3.194  -8.229  -2.913  1.00  0.00     0.049 A 
ATOM     40  N   UNL     1       1.515 -10.674  -2.428  1.00  0.00    -0.248 NA
ATOM     41  C   UNL     1       2.038 -10.504  -0.156  1.00  0.00     0.031 C 
ATOM     42  C   UNL     1       3.994  -7.046  -3.210  1.00  0.00     0.029 A 
ATOM     43  N   UNL     1       2.709  -8.626  -4.136  1.00  0.00    -0.354 N 
ATOM     44  C   UNL     1       0.944 -11.740  -1.744  1.00  0.00     0.074 A 
ATOM     45  C   UNL     1       1.302 -11.587  -0.350  1.00  0.00     0.031 C 
ATOM     46  C   UNL     1       3.881  -6.764  -4.519  1.00  0.00     0.029 A 
ATOM     47  C   UNL     1       3.040  -7.774  -5.163  1.00  0.00     0.049 A 
ATOM     48  H   UNL     1       2.176  -9.444  -4.265  1.00  0.00     0.167 HD
ATOM     49  C   UNL     1       0.214 -12.771  -2.235  1.00  0.00     0.037 A 
ATOM     50  C   UNL     1       2.696  -7.801  -6.467  1.00  0.00     0.037 A 
ATOM     51  C   UNL     1      -0.099 -12.957  -3.628  1.00  0.00     0.049 A 
ATOM     52  C   UNL     1       1.863  -8.945  -6.990  1.00  0.00     0.074 A 
ATOM     53  C   UNL     1      -0.786 -13.997  -4.228  1.00  0.00     0.029 A 
ATOM     54  N   UNL     1       0.273 -12.087  -4.643  1.00  0.00    -0.354 N 
ATOM     55  N   UNL     1       1.323  -9.945  -6.335  1.00  0.00    -0.248 NA
ATOM     56  C   UNL     1       1.619  -8.981  -8.441  1.00  0.00     0.031 C 
ATOM     57  C   UNL     1      -0.784 -13.784  -5.611  1.00  0.00     0.029 A 
ATOM     58  C   UNL     1      -0.150 -12.579  -5.867  1.00  0.00     0.049 A 
ATOM     59  H   UNL     1       0.765 -11.244  -4.512  1.00  0.00     0.167 HD
ATOM     60  C   UNL     1       0.695 -10.736  -7.292  1.00  0.00     0.074 A 
ATOM     61  C   UNL     1       0.875 -10.072  -8.566  1.00  0.00     0.031 C 
ATOM     62  C   UNL     1       0.050 -11.918  -7.133  1.00  0.00     0.037 A 
BRANCH  49  63
ATOM     63  C   UNL     1      -0.211 -13.821  -1.250  1.00  0.00     0.057 A 
ATOM     64  C   UNL     1      -1.184 -13.577  -0.272  1.00  0.00     0.134 A 
ATOM     65  C   UNL     1       0.397 -15.083  -1.254  1.00  0.00     0.134 A 
ATOM     66  F   UNL     1      -1.790 -12.382  -0.199  1.00  0.00    -0.206 F 
ATOM     67  C   UNL     1      -1.505 -14.534   0.693  1.00  0.00     0.040 A 
ATOM     68  C   UNL     1       0.063 -16.059  -0.314  1.00  0.00     0.040 A 
ATOM     69  F   UNL     1       1.335 -15.385  -2.165  1.00  0.00    -0.206 F 
ATOM     70  C   UNL     1      -0.880 -15.780   0.672  1.00  0.00     0.006 A 
ENDBRANCH  49  63
BRANCH  50  71
ATOM     71  C   UNL     1       3.136  -6.712  -7.381  1.00  0.00     0.057 A 
ATOM     72  C   UNL     1       2.208  -5.847  -7.976  1.00  0.00     0.134 A 
ATOM     73  C   UNL     1       4.486  -6.516  -7.697  1.00  0.00     0.134 A 
ATOM     74  F   UNL     1       0.896  -5.999  -7.740  1.00  0.00    -0.206 F 
ATOM     75  C   UNL     1       2.604  -4.838  -8.857  1.00  0.00     0.040 A 
ATOM     76  C   UNL     1       4.899  -5.490  -8.549  1.00  0.00     0.040 A 
ATOM     77  F   UNL     1       5.427  -7.313  -7.170  1.00  0.00    -0.206 F 
ATOM     78  C   UNL     1       3.955  -4.651  -9.137  1.00  0.00     0.006 A 
ENDBRANCH  50  71
BRANCH  62  79
ATOM     79  C   UNL     1      -0.496 -12.584  -8.366  1.00  0.00     0.057 A 
ATOM     80  C   UNL     1       0.345 -13.172  -9.321  1.00  0.00     0.134 A 
ATOM     81  C   UNL     1      -1.878 -12.694  -8.572  1.00  0.00     0.134 A 
ATOM     82  F   UNL     1       1.678 -13.098  -9.190  1.00  0.00    -0.206 F 
ATOM     83  C   UNL     1      -0.167 -13.825 -10.445  1.00  0.00     0.040 A 
ATOM     84  C   UNL     1      -2.402 -13.368  -9.677  1.00  0.00     0.040 A 
ATOM     85  F   UNL     1      -2.742 -12.165  -7.693  1.00  0.00    -0.206 F 
ATOM     86  C   UNL     1      -1.545 -13.932 -10.620  1.00  0.00     0.006 A 
ENDBRANCH  62  79
ENDBRANCH  36  37
ENDBRANCH  29  31
ENDBRANCH  28  29
ENDBRANCH  27  28
ENDBRANCH  26  27
ENDBRANCH  25  26
ENDBRANCH  24  25
ENDBRANCH   1  24
TORSDOF 22
