REMARK SMILES O=C(C[C@H]1CN(S(=O)(=O)N2CCCCC2)CCO1)OCCOCCOCCOC(=O)c1ccc(-c2c3nc(c(-c4c(F)cccc4F)c4ccc([nH]4)c(-c4c(F)cccc4F)c4nc(c(-c5c(F)cccc5F)c5ccc2[nH]5)C=C4)C=C3)cc1
REMARK SMILES IDX 23 1 22 2 21 3 20 4 19 5 2 6 1 7 3 8 4 9 5 10 18 11 6 12
REMARK SMILES IDX 17 13 16 14 7 15 8 16 9 17 10 18 11 19 15 20 12 21 14 22
REMARK SMILES IDX 13 23 24 24 25 25 26 26 27 27 28 28 29 29 30 30 31 31 32 32
REMARK SMILES IDX 84 33 33 34 83 35 34 36 35 37 36 38 77 39 37 40 82 41 76 42
REMARK SMILES IDX 78 43 38 44 81 45 75 46 74 47 39 49 65 50 48 51 64 52 49 53
REMARK SMILES IDX 52 54 63 55 79 56 50 57 51 58 62 60 80 61 53 62 40 63 41 64
REMARK SMILES IDX 46 65 42 66 43 67 45 68 47 69 44 70 66 71 67 72 72 73 68 74
REMARK SMILES IDX 69 75 71 76 73 77 70 78 54 79 55 80 60 81 56 82 57 83 59 84
REMARK SMILES IDX 61 85 58 86
REMARK H PARENT 78 48 52 59
REMARK Flexibility Score: inf
ROOT
ATOM      1  C   UNL     1       5.909   2.695  -4.837  1.00  0.00     0.188 C 
ENDROOT
BRANCH   1   2
ATOM      2  O   UNL     1       5.243   3.863  -4.397  1.00  0.00    -0.376 OA
BRANCH   2   3
ATOM      3  C   UNL     1       4.624   3.785  -3.124  1.00  0.00     0.202 C 
BRANCH   3   4
ATOM      4  C   UNL     1       5.482   3.140  -2.041  1.00  0.00     0.261 C 
BRANCH   4   5
ATOM      5  O   UNL     1       5.546   1.700  -2.155  1.00  0.00    -0.463 OA
BRANCH   5   6
ATOM      6  C   UNL     1       4.500   0.855  -2.071  1.00  0.00     0.308 C 
ATOM      7  O   UNL     1       4.556  -0.257  -2.593  1.00  0.00    -0.252 OA
BRANCH   6   8
ATOM      8  C   UNL     1       3.304   1.256  -1.261  1.00  0.00     0.156 C 
BRANCH   8   9
ATOM      9  C   UNL     1       3.388   0.925   0.238  1.00  0.00     0.144 C 
ATOM     10  C   UNL     1       4.761   0.528   0.817  1.00  0.00     0.136 C 
ATOM     11  O   UNL     1       2.836   1.998   1.029  1.00  0.00    -0.375 OA
ATOM     12  N   UNL     1       5.704   1.660   0.617  1.00  0.00    -0.184 NA
ATOM     13  C   UNL     1       3.688   3.148   1.092  1.00  0.00     0.177 C 
ATOM     14  C   UNL     1       5.158   2.830   1.432  1.00  0.00     0.132 C 
BRANCH  12  15
ATOM     15  S   UNL     1       7.356   1.444   0.937  1.00  0.00     0.282 S 
ATOM     16  O   UNL     1       7.998   2.696   0.594  1.00  0.00    -0.195 OA
ATOM     17  O   UNL     1       7.431   0.948   2.294  1.00  0.00    -0.195 OA
BRANCH  15  18
ATOM     18  N   UNL     1       8.048   0.270  -0.088  1.00  0.00    -0.189 NA
ATOM     19  C   UNL     1       9.408  -0.117   0.442  1.00  0.00     0.103 C 
ATOM     20  C   UNL     1       7.267  -0.903  -0.516  1.00  0.00     0.103 C 
ATOM     21  C   UNL     1      10.156  -1.107  -0.447  1.00  0.00     0.017 C 
ATOM     22  C   UNL     1       8.037  -1.815  -1.463  1.00  0.00     0.017 C 
ATOM     23  C   UNL     1       9.300  -2.314  -0.792  1.00  0.00     0.003 C 
ENDBRANCH  15  18
ENDBRANCH  12  15
ENDBRANCH   8   9
ENDBRANCH   6   8
ENDBRANCH   5   6
ENDBRANCH   4   5
ENDBRANCH   3   4
ENDBRANCH   2   3
ENDBRANCH   1   2
BRANCH   1  24
ATOM     24  C   UNL     1       7.420   2.868  -5.040  1.00  0.00     0.188 C 
BRANCH  24  25
ATOM     25  O   UNL     1       8.137   3.787  -4.227  1.00  0.00    -0.376 OA
BRANCH  25  26
ATOM     26  C   UNL     1       7.762   5.163  -4.183  1.00  0.00     0.202 C 
BRANCH  26  27
ATOM     27  C   UNL     1       7.547   5.944  -5.490  1.00  0.00     0.261 C 
BRANCH  27  28
ATOM     28  O   UNL     1       6.322   5.587  -6.155  1.00  0.00    -0.460 OA
BRANCH  28  29
ATOM     29  C   UNL     1       6.443   4.957  -7.352  1.00  0.00     0.338 C 
ATOM     30  O   UNL     1       7.452   4.810  -8.000  1.00  0.00    -0.246 OA
BRANCH  29  31
ATOM     31  C   UNL     1       5.172   4.244  -7.654  1.00  0.00     0.060 A 
ATOM     32  C   UNL     1       5.272   2.931  -8.141  1.00  0.00     0.016 A 
ATOM     33  C   UNL     1       3.915   4.797  -7.390  1.00  0.00     0.016 A 
ATOM     34  C   UNL     1       4.123   2.164  -8.344  1.00  0.00     0.010 A 
ATOM     35  C   UNL     1       2.759   4.052  -7.657  1.00  0.00     0.010 A 
ATOM     36  C   UNL     1       2.859   2.742  -8.160  1.00  0.00    -0.014 A 
BRANCH  36  37
ATOM     37  C   UNL     1       1.696   2.121  -8.841  1.00  0.00     0.031 A 
ATOM     38  C   UNL     1       1.558   2.408 -10.314  1.00  0.00     0.074 A 
ATOM     39  C   UNL     1       0.805   1.328  -8.220  1.00  0.00     0.049 A 
ATOM     40  N   UNL     1       0.657   1.996 -11.166  1.00  0.00    -0.248 NA
ATOM     41  C   UNL     1       2.592   3.278 -10.904  1.00  0.00     0.031 C 
ATOM     42  C   UNL     1       0.843   0.930  -6.815  1.00  0.00     0.029 A 
ATOM     43  N   UNL     1      -0.322   0.712  -8.713  1.00  0.00    -0.354 N 
ATOM     44  C   UNL     1       1.034   2.535 -12.390  1.00  0.00     0.074 A 
ATOM     45  C   UNL     1       2.220   3.328 -12.170  1.00  0.00     0.031 C 
ATOM     46  C   UNL     1      -0.223   0.148  -6.555  1.00  0.00     0.029 A 
ATOM     47  C   UNL     1      -1.028   0.006  -7.769  1.00  0.00     0.049 A 
ATOM     48  H   UNL     1      -0.597   0.772  -9.656  1.00  0.00     0.167 HD
ATOM     49  C   UNL     1       0.449   2.386 -13.599  1.00  0.00     0.037 A 
ATOM     50  C   UNL     1      -2.196  -0.661  -7.880  1.00  0.00     0.037 A 
ATOM     51  C   UNL     1      -0.764   1.653 -13.819  1.00  0.00     0.049 A 
ATOM     52  C   UNL     1      -2.898  -0.714  -9.217  1.00  0.00     0.074 A 
ATOM     53  C   UNL     1      -1.457   1.471 -15.001  1.00  0.00     0.029 A 
ATOM     54  N   UNL     1      -1.475   1.000 -12.825  1.00  0.00    -0.354 N 
ATOM     55  N   UNL     1      -2.519  -0.228 -10.375  1.00  0.00    -0.248 NA
ATOM     56  C   UNL     1      -4.194  -1.410  -9.261  1.00  0.00     0.031 C 
ATOM     57  C   UNL     1      -2.618   0.747 -14.713  1.00  0.00     0.029 A 
ATOM     58  C   UNL     1      -2.615   0.432 -13.362  1.00  0.00     0.049 A 
ATOM     59  H   UNL     1      -1.208   0.948 -11.879  1.00  0.00     0.167 HD
ATOM     60  C   UNL     1      -3.506  -0.590 -11.286  1.00  0.00     0.074 A 
ATOM     61  C   UNL     1      -4.499  -1.341 -10.549  1.00  0.00     0.031 C 
ATOM     62  C   UNL     1      -3.584  -0.328 -12.615  1.00  0.00     0.037 A 
BRANCH  49  63
ATOM     63  C   UNL     1       1.105   3.075 -14.755  1.00  0.00     0.057 A 
ATOM     64  C   UNL     1       2.321   2.623 -15.286  1.00  0.00     0.134 A 
ATOM     65  C   UNL     1       0.531   4.215 -15.327  1.00  0.00     0.134 A 
ATOM     66  F   UNL     1       2.938   1.554 -14.758  1.00  0.00    -0.206 F 
ATOM     67  C   UNL     1       2.954   3.295 -16.331  1.00  0.00     0.040 A 
ATOM     68  C   UNL     1       1.141   4.881 -16.390  1.00  0.00     0.040 A 
ATOM     69  F   UNL     1      -0.626   4.705 -14.855  1.00  0.00    -0.206 F 
ATOM     70  C   UNL     1       2.359   4.425 -16.890  1.00  0.00     0.006 A 
ENDBRANCH  49  63
BRANCH  50  71
ATOM     71  C   UNL     1      -2.803  -1.330  -6.698  1.00  0.00     0.057 A 
ATOM     72  C   UNL     1      -2.919  -2.724  -6.631  1.00  0.00     0.134 A 
ATOM     73  C   UNL     1      -3.343  -0.591  -5.638  1.00  0.00     0.134 A 
ATOM     74  F   UNL     1      -2.453  -3.489  -7.629  1.00  0.00    -0.206 F 
ATOM     75  C   UNL     1      -3.566  -3.357  -5.566  1.00  0.00     0.040 A 
ATOM     76  C   UNL     1      -3.972  -1.212  -4.556  1.00  0.00     0.040 A 
ATOM     77  F   UNL     1      -3.276   0.749  -5.643  1.00  0.00    -0.206 F 
ATOM     78  C   UNL     1      -4.092  -2.599  -4.523  1.00  0.00     0.006 A 
ENDBRANCH  50  71
BRANCH  62  79
ATOM     79  C   UNL     1      -4.751  -0.891 -13.372  1.00  0.00     0.057 A 
ATOM     80  C   UNL     1      -6.045  -0.373 -13.237  1.00  0.00     0.134 A 
ATOM     81  C   UNL     1      -4.559  -1.920 -14.305  1.00  0.00     0.134 A 
ATOM     82  F   UNL     1      -6.296   0.608 -12.358  1.00  0.00    -0.206 F 
ATOM     83  C   UNL     1      -7.110  -0.872 -13.989  1.00  0.00     0.040 A 
ATOM     84  C   UNL     1      -5.611  -2.407 -15.081  1.00  0.00     0.040 A 
ATOM     85  F   UNL     1      -3.342  -2.450 -14.494  1.00  0.00    -0.206 F 
ATOM     86  C   UNL     1      -6.893  -1.886 -14.921  1.00  0.00     0.006 A 
ENDBRANCH  62  79
ENDBRANCH  36  37
ENDBRANCH  29  31
ENDBRANCH  28  29
ENDBRANCH  27  28
ENDBRANCH  26  27
ENDBRANCH  25  26
ENDBRANCH  24  25
ENDBRANCH   1  24
TORSDOF 20
