REMARK SMILES Cc1cc(C(=O)OCCOCCOCCOC(=O)c2ccc(-c3c4nc(c(-c5c(F)cccc5F)c5ccc([nH]5)c(-c5c(F)cccc5F)c5nc(c(-c6c(F)cccc6F)c6ccc3[nH]6)C=C5)C=C4)cc2)ccc1NC(=O)c1ccc(=O)n(CCOc2ccccc2)n1
REMARK SMILES IDX 9 1 8 2 7 3 5 4 6 5 4 6 1 7 2 8 3 9 75 10 74 11 73 12 76 13
REMARK SMILES IDX 77 14 78 16 79 17 80 18 94 19 81 20 84 21 82 22 83 23 85 24
REMARK SMILES IDX 86 25 87 26 88 27 89 28 93 29 90 30 92 31 91 32 10 33 11 34
REMARK SMILES IDX 12 35 13 36 14 37 15 38 16 39 17 40 18 41 19 42 20 43 72 44
REMARK SMILES IDX 21 45 71 46 22 47 23 48 24 49 65 50 25 51 70 52 64 53 66 54
REMARK SMILES IDX 26 55 69 56 63 57 62 58 27 60 53 61 36 62 52 63 37 64 40 65
REMARK SMILES IDX 51 66 67 67 38 68 39 69 50 71 68 72 41 73 28 74 29 75 34 76
REMARK SMILES IDX 30 77 31 78 33 79 35 80 32 81 54 82 55 83 60 84 56 85 57 86
REMARK SMILES IDX 59 87 61 88 58 89 42 90 43 91 48 92 44 93 45 94 47 95 49 96
REMARK SMILES IDX 46 97
REMARK H PARENT 76 15 66 59 40 70
REMARK Flexibility Score: inf
ROOT
ATOM      1  C   UNL     1      -5.128  -3.743  -1.618  1.00  0.00     0.202 C 
ENDROOT
BRANCH   1   2
ATOM      2  C   UNL     1      -4.981  -2.096  -1.622  1.00  0.00     0.261 C 
BRANCH   2   3
ATOM      3  O   UNL     1      -4.375  -1.137  -0.464  1.00  0.00    -0.460 OA
BRANCH   3   4
ATOM      4  C   UNL     1      -3.393  -0.330   0.135  1.00  0.00     0.338 C 
ATOM      5  O   UNL     1      -3.684   0.251   1.183  1.00  0.00    -0.246 OA
BRANCH   4   6
ATOM      6  C   UNL     1      -1.966   0.040  -0.294  1.00  0.00     0.060 A 
ATOM      7  C   UNL     1       1.780   0.094   0.803  1.00  0.00     0.046 C 
ATOM      8  C   UNL     1       0.448   0.478   0.203  1.00  0.00    -0.027 A 
ATOM      9  C   UNL     1      -0.770  -0.220   0.460  1.00  0.00     0.021 A 
ATOM     10  C   UNL     1       0.369   1.537  -0.699  1.00  0.00     0.044 A 
ATOM     11  C   UNL     1      -0.655   1.549  -1.645  1.00  0.00     0.027 A 
ATOM     12  C   UNL     1      -1.835   0.838  -1.423  1.00  0.00     0.018 A 
BRANCH  10  13
ATOM     13  N   UNL     1       1.091   2.732  -0.451  1.00  0.00    -0.320 N 
ATOM     14  C   UNL     1       0.470   3.961  -0.195  1.00  0.00     0.276 C 
ATOM     15  H   UNL     1       2.075   2.696  -0.459  1.00  0.00     0.170 HD
ATOM     16  O   UNL     1       1.091   4.984   0.064  1.00  0.00    -0.267 OA
BRANCH  14  17
ATOM     17  C   UNL     1      -1.060   4.001  -0.203  1.00  0.00     0.149 A 
ATOM     18  C   UNL     1      -1.675   4.409  -1.481  1.00  0.00     0.042 A 
ATOM     19  N   UNL     1      -1.716   3.612   0.848  1.00  0.00    -0.164 NA
ATOM     20  C   UNL     1      -2.933   4.003  -1.669  1.00  0.00     0.076 A 
ATOM     21  N   UNL     1      -3.081   3.376   0.669  1.00  0.00    -0.226 N 
ATOM     22  C   UNL     1      -3.687   3.329  -0.584  1.00  0.00     0.266 A 
ATOM     23  O   UNL     1      -4.776   2.833  -0.857  1.00  0.00    -0.268 OA
BRANCH  21  24
ATOM     24  C   UNL     1      -3.865   3.060   1.864  1.00  0.00     0.190 C 
BRANCH  24  25
ATOM     25  C   UNL     1      -4.401   4.319   2.557  1.00  0.00     0.253 C 
BRANCH  25  26
ATOM     26  O   UNL     1      -5.580   4.859   1.943  1.00  0.00    -0.492 OA
BRANCH  26  27
ATOM     27  C   UNL     1      -5.469   5.760   0.923  1.00  0.00     0.119 A 
ATOM     28  C   UNL     1      -6.684   6.170   0.368  1.00  0.00     0.046 A 
ATOM     29  C   UNL     1      -4.286   6.263   0.385  1.00  0.00     0.046 A 
ATOM     30  C   UNL     1      -6.716   7.023  -0.738  1.00  0.00     0.004 A 
ATOM     31  C   UNL     1      -4.311   7.079  -0.752  1.00  0.00     0.004 A 
ATOM     32  C   UNL     1      -5.526   7.456  -1.316  1.00  0.00     0.000 A 
ENDBRANCH  26  27
ENDBRANCH  25  26
ENDBRANCH  24  25
ENDBRANCH  21  24
ENDBRANCH  14  17
ENDBRANCH  10  13
ENDBRANCH   4   6
ENDBRANCH   3   4
ENDBRANCH   2   3
ENDBRANCH   1   2
BRANCH   1  33
ATOM     33  O   UNL     1      -4.014  -4.578  -1.347  1.00  0.00    -0.376 OA
BRANCH  33  34
ATOM     34  C   UNL     1      -3.448  -5.522  -2.260  1.00  0.00     0.188 C 
BRANCH  34  35
ATOM     35  C   UNL     1      -3.657  -5.360  -3.756  1.00  0.00     0.188 C 
BRANCH  35  36
ATOM     36  O   UNL     1      -3.892  -3.996  -4.052  1.00  0.00    -0.376 OA
BRANCH  36  37
ATOM     37  C   UNL     1      -4.173  -3.728  -5.414  1.00  0.00     0.202 C 
BRANCH  37  38
ATOM     38  C   UNL     1      -2.889  -3.684  -6.251  1.00  0.00     0.261 C 
BRANCH  38  39
ATOM     39  O   UNL     1      -1.934  -2.801  -5.618  1.00  0.00    -0.460 OA
BRANCH  39  40
ATOM     40  C   UNL     1      -0.851  -3.416  -5.030  1.00  0.00     0.338 C 
ATOM     41  O   UNL     1      -0.168  -4.261  -5.536  1.00  0.00    -0.246 OA
BRANCH  40  42
ATOM     42  C   UNL     1      -0.827  -3.068  -3.570  1.00  0.00     0.060 A 
ATOM     43  C   UNL     1      -0.190  -3.834  -2.601  1.00  0.00     0.016 A 
ATOM     44  C   UNL     1      -1.689  -2.135  -3.097  1.00  0.00     0.016 A 
ATOM     45  C   UNL     1      -0.623  -3.815  -1.220  1.00  0.00     0.010 A 
ATOM     46  C   UNL     1      -2.137  -2.261  -1.769  1.00  0.00     0.010 A 
ATOM     47  C   UNL     1      -1.756  -3.138  -0.750  1.00  0.00    -0.014 A 
BRANCH  47  48
ATOM     48  C   UNL     1      -2.567  -3.533   0.605  1.00  0.00     0.031 A 
ATOM     49  C   UNL     1      -3.567  -2.776   1.558  1.00  0.00     0.074 A 
ATOM     50  C   UNL     1      -2.456  -4.805   1.062  1.00  0.00     0.049 A 
ATOM     51  N   UNL     1      -3.277  -2.219   2.716  1.00  0.00    -0.248 NA
ATOM     52  C   UNL     1      -5.043  -2.753   1.369  1.00  0.00     0.031 C 
ATOM     53  C   UNL     1      -3.095  -5.415   2.233  1.00  0.00     0.029 A 
ATOM     54  N   UNL     1      -1.562  -5.788   0.632  1.00  0.00    -0.354 N 
ATOM     55  C   UNL     1      -4.475  -1.698   3.256  1.00  0.00     0.074 A 
ATOM     56  C   UNL     1      -5.505  -1.904   2.283  1.00  0.00     0.031 C 
ATOM     57  C   UNL     1      -2.333  -6.450   2.628  1.00  0.00     0.029 A 
ATOM     58  C   UNL     1      -1.152  -6.469   1.780  1.00  0.00     0.049 A 
ATOM     59  H   UNL     1      -1.279  -5.965  -0.294  1.00  0.00     0.167 HD
ATOM     60  C   UNL     1      -4.821  -1.550   4.572  1.00  0.00     0.037 A 
ATOM     61  C   UNL     1       0.145  -6.383   2.187  1.00  0.00     0.037 A 
ATOM     62  C   UNL     1      -4.153  -2.555   5.347  1.00  0.00     0.049 A 
ATOM     63  C   UNL     1       0.273  -5.789   3.566  1.00  0.00     0.074 A 
ATOM     64  C   UNL     1      -4.549  -3.840   5.676  1.00  0.00     0.029 A 
ATOM     65  N   UNL     1      -2.793  -2.474   5.539  1.00  0.00    -0.354 N 
ATOM     66  N   UNL     1      -0.635  -5.043   4.135  1.00  0.00    -0.248 NA
ATOM     67  C   UNL     1       1.445  -5.993   4.410  1.00  0.00     0.031 C 
ATOM     68  C   UNL     1      -3.382  -4.581   5.955  1.00  0.00     0.029 A 
ATOM     69  C   UNL     1      -2.307  -3.714   5.889  1.00  0.00     0.049 A 
ATOM     70  H   UNL     1      -2.252  -1.658   5.441  1.00  0.00     0.167 HD
ATOM     71  C   UNL     1      -0.188  -4.666   5.374  1.00  0.00     0.074 A 
ATOM     72  C   UNL     1       1.110  -5.292   5.504  1.00  0.00     0.031 C 
ATOM     73  C   UNL     1      -0.910  -3.871   6.210  1.00  0.00     0.037 A 
BRANCH  60  74
ATOM     74  C   UNL     1      -6.108  -0.840   4.977  1.00  0.00     0.057 A 
ATOM     75  C   UNL     1      -7.005  -1.297   5.959  1.00  0.00     0.134 A 
ATOM     76  C   UNL     1      -6.469   0.385   4.375  1.00  0.00     0.134 A 
ATOM     77  F   UNL     1      -6.770  -2.415   6.657  1.00  0.00    -0.206 F 
ATOM     78  C   UNL     1      -8.206  -0.627   6.261  1.00  0.00     0.040 A 
ATOM     79  C   UNL     1      -7.672   1.055   4.654  1.00  0.00     0.040 A 
ATOM     80  F   UNL     1      -5.655   0.970   3.485  1.00  0.00    -0.206 F 
ATOM     81  C   UNL     1      -8.555   0.542   5.594  1.00  0.00     0.006 A 
ENDBRANCH  60  74
BRANCH  61  82
ATOM     82  C   UNL     1       1.156  -6.256   1.087  1.00  0.00     0.057 A 
ATOM     83  C   UNL     1       1.125  -7.189   0.028  1.00  0.00     0.134 A 
ATOM     84  C   UNL     1       1.956  -5.123   0.891  1.00  0.00     0.134 A 
ATOM     85  F   UNL     1       0.372  -8.298   0.126  1.00  0.00    -0.206 F 
ATOM     86  C   UNL     1       1.772  -6.967  -1.193  1.00  0.00     0.040 A 
ATOM     87  C   UNL     1       2.624  -4.896  -0.327  1.00  0.00     0.040 A 
ATOM     88  F   UNL     1       2.010  -4.153   1.813  1.00  0.00    -0.206 F 
ATOM     89  C   UNL     1       2.517  -5.809  -1.378  1.00  0.00     0.006 A 
ENDBRANCH  61  82
BRANCH  73  90
ATOM     90  C   UNL     1      -0.404  -3.214   7.462  1.00  0.00     0.057 A 
ATOM     91  C   UNL     1       0.907  -2.748   7.605  1.00  0.00     0.134 A 
ATOM     92  C   UNL     1      -1.297  -2.860   8.500  1.00  0.00     0.134 A 
ATOM     93  F   UNL     1       1.820  -2.926   6.641  1.00  0.00    -0.206 F 
ATOM     94  C   UNL     1       1.319  -2.025   8.729  1.00  0.00     0.040 A 
ATOM     95  C   UNL     1      -0.909  -2.091   9.597  1.00  0.00     0.040 A 
ATOM     96  F   UNL     1      -2.588  -3.222   8.476  1.00  0.00    -0.206 F 
ATOM     97  C   UNL     1       0.409  -1.682   9.722  1.00  0.00     0.006 A 
ENDBRANCH  73  90
ENDBRANCH  47  48
ENDBRANCH  40  42
ENDBRANCH  39  40
ENDBRANCH  38  39
ENDBRANCH  37  38
ENDBRANCH  36  37
ENDBRANCH  35  36
ENDBRANCH  34  35
ENDBRANCH  33  34
ENDBRANCH   1  33
TORSDOF 23
