REMARK SMILES C[C@H]1[C@@H](C(=O)OCCOCCOCCOC(=O)c2ccc(-c3c4nc(c(-c5c(F)cccc5F)c5ccc([nH]5)c(-c5c(F)cccc5F)c5nc(c(-c6c(F)cccc6F)c6ccc3[nH]6)C=C5)C=C4)cc2)CCN1C(=O)c1cncc(O)c1
REMARK SMILES IDX 10 1 9 2 8 3 7 4 6 5 4 6 5 7 3 8 1 9 2 10 74 11 72 12 73 13
REMARK SMILES IDX 75 14 76 15 77 16 78 17 83 18 79 19 81 20 80 21 82 22 11 24
REMARK SMILES IDX 12 25 13 26 14 27 15 28 16 29 17 30 18 31 19 32 71 33 20 34
REMARK SMILES IDX 70 35 21 36 22 37 23 38 64 39 24 40 69 41 63 42 65 43 25 44
REMARK SMILES IDX 68 45 62 46 61 47 26 49 52 50 35 51 51 52 36 53 39 54 50 55
REMARK SMILES IDX 66 56 37 57 38 58 49 60 67 61 40 62 27 63 28 64 33 65 29 66
REMARK SMILES IDX 30 67 32 68 34 69 31 70 53 71 54 72 59 73 55 74 56 75 58 76
REMARK SMILES IDX 60 77 57 78 41 79 42 80 47 81 43 82 44 83 46 84 48 85 45 86
REMARK H PARENT 82 23 65 48 39 59
REMARK Flexibility Score: inf
ROOT
ATOM      1  C   UNL     1      -0.420   1.600  -3.335  1.00  0.00     0.188 C 
ENDROOT
BRANCH   1   2
ATOM      2  O   UNL     1       0.344   2.510  -4.101  1.00  0.00    -0.376 OA
BRANCH   2   3
ATOM      3  C   UNL     1       1.664   2.822  -3.684  1.00  0.00     0.202 C 
BRANCH   3   4
ATOM      4  C   UNL     1       1.899   3.258  -2.235  1.00  0.00     0.261 C 
BRANCH   4   5
ATOM      5  O   UNL     1       1.548   2.245  -1.270  1.00  0.00    -0.463 OA
BRANCH   5   6
ATOM      6  C   UNL     1       0.745   2.620  -0.250  1.00  0.00     0.311 C 
ATOM      7  O   UNL     1       0.280   3.750  -0.128  1.00  0.00    -0.252 OA
BRANCH   6   8
ATOM      8  C   UNL     1       0.362   1.515   0.726  1.00  0.00     0.123 C 
ATOM      9  C   UNL     1       2.463   0.053   0.140  1.00  0.00     0.032 C 
ATOM     10  C   UNL     1       1.171   0.219   0.934  1.00  0.00     0.096 C 
ATOM     11  N   UNL     1       0.208  -0.887   0.759  1.00  0.00    -0.335 N 
ATOM     12  C   UNL     1      -1.098   1.086   0.518  1.00  0.00     0.039 C 
ATOM     13  C   UNL     1      -1.108  -0.423   0.393  1.00  0.00     0.121 C 
BRANCH  11  14
ATOM     14  C   UNL     1       0.387  -2.257   0.919  1.00  0.00     0.255 C 
ATOM     15  O   UNL     1      -0.454  -3.087   0.582  1.00  0.00    -0.269 OA
BRANCH  14  16
ATOM     16  C   UNL     1       1.618  -2.746   1.548  1.00  0.00     0.062 A 
ATOM     17  C   UNL     1       2.402  -3.683   0.889  1.00  0.00     0.125 A 
ATOM     18  C   UNL     1       2.018  -2.283   2.801  1.00  0.00     0.063 A 
ATOM     19  N   UNL     1       3.594  -4.118   1.368  1.00  0.00    -0.260 NA
ATOM     20  C   UNL     1       3.242  -2.700   3.298  1.00  0.00     0.134 A 
ATOM     21  C   UNL     1       3.992  -3.603   2.558  1.00  0.00     0.157 A 
BRANCH  20  22
ATOM     22  O   UNL     1       3.728  -2.227   4.478  1.00  0.00    -0.506 OA
ATOM     23  H   UNL     1       4.559  -2.523   4.795  1.00  0.00     0.293 HD
ENDBRANCH  20  22
ENDBRANCH  14  16
ENDBRANCH  11  14
ENDBRANCH   6   8
ENDBRANCH   5   6
ENDBRANCH   4   5
ENDBRANCH   3   4
ENDBRANCH   2   3
ENDBRANCH   1   2
BRANCH   1  24
ATOM     24  C   UNL     1       0.177   0.243  -2.918  1.00  0.00     0.188 C 
BRANCH  24  25
ATOM     25  O   UNL     1       1.382  -0.244  -3.462  1.00  0.00    -0.376 OA
BRANCH  25  26
ATOM     26  C   UNL     1       1.511  -0.459  -4.854  1.00  0.00     0.202 C 
BRANCH  26  27
ATOM     27  C   UNL     1       0.383  -1.066  -5.698  1.00  0.00     0.261 C 
BRANCH  27  28
ATOM     28  O   UNL     1      -0.938  -0.596  -5.412  1.00  0.00    -0.460 OA
BRANCH  28  29
ATOM     29  C   UNL     1      -1.757  -1.497  -4.820  1.00  0.00     0.338 C 
ATOM     30  O   UNL     1      -1.488  -2.642  -4.477  1.00  0.00    -0.246 OA
BRANCH  29  31
ATOM     31  C   UNL     1      -3.026  -0.835  -4.488  1.00  0.00     0.060 A 
ATOM     32  C   UNL     1      -3.389  -0.674  -3.143  1.00  0.00     0.016 A 
ATOM     33  C   UNL     1      -3.870  -0.408  -5.510  1.00  0.00     0.016 A 
ATOM     34  C   UNL     1      -4.605  -0.077  -2.812  1.00  0.00     0.010 A 
ATOM     35  C   UNL     1      -5.099   0.158  -5.180  1.00  0.00     0.010 A 
ATOM     36  C   UNL     1      -5.481   0.308  -3.833  1.00  0.00    -0.014 A 
BRANCH  36  37
ATOM     37  C   UNL     1      -6.878   0.694  -3.536  1.00  0.00     0.031 A 
ATOM     38  C   UNL     1      -7.947  -0.341  -3.728  1.00  0.00     0.074 A 
ATOM     39  C   UNL     1      -7.197   1.948  -3.175  1.00  0.00     0.049 A 
ATOM     40  N   UNL     1      -9.244  -0.196  -3.785  1.00  0.00    -0.248 NA
ATOM     41  C   UNL     1      -7.484  -1.728  -3.893  1.00  0.00     0.031 C 
ATOM     42  C   UNL     1      -6.244   3.017  -2.886  1.00  0.00     0.029 A 
ATOM     43  N   UNL     1      -8.427   2.540  -3.027  1.00  0.00    -0.354 N 
ATOM     44  C   UNL     1      -9.751  -1.466  -4.025  1.00  0.00     0.074 A 
ATOM     45  C   UNL     1      -8.623  -2.367  -4.112  1.00  0.00     0.031 C 
ATOM     46  C   UNL     1      -6.926   4.147  -2.630  1.00  0.00     0.029 A 
ATOM     47  C   UNL     1      -8.356   3.892  -2.797  1.00  0.00     0.049 A 
ATOM     48  H   UNL     1      -9.276   2.044  -3.081  1.00  0.00     0.167 HD
ATOM     49  C   UNL     1     -11.043  -1.841  -4.168  1.00  0.00     0.037 A 
ATOM     50  C   UNL     1      -9.332   4.821  -2.780  1.00  0.00     0.037 A 
ATOM     51  C   UNL     1     -12.154  -0.933  -4.083  1.00  0.00     0.049 A 
ATOM     52  C   UNL     1     -10.757   4.399  -3.039  1.00  0.00     0.074 A 
ATOM     53  C   UNL     1     -13.504  -1.208  -4.210  1.00  0.00     0.029 A 
ATOM     54  N   UNL     1     -12.040   0.431  -3.856  1.00  0.00    -0.354 N 
ATOM     55  N   UNL     1     -11.236   3.201  -3.278  1.00  0.00    -0.248 NA
ATOM     56  C   UNL     1     -11.778   5.458  -3.037  1.00  0.00     0.031 C 
ATOM     57  C   UNL     1     -14.203  -0.002  -4.117  1.00  0.00     0.029 A 
ATOM     58  C   UNL     1     -13.295   1.014  -3.863  1.00  0.00     0.049 A 
ATOM     59  H   UNL     1     -11.193   0.912  -3.712  1.00  0.00     0.167 HD
ATOM     60  C   UNL     1     -12.611   3.356  -3.409  1.00  0.00     0.074 A 
ATOM     61  C   UNL     1     -12.892   4.765  -3.230  1.00  0.00     0.031 C 
ATOM     62  C   UNL     1     -13.557   2.415  -3.648  1.00  0.00     0.037 A 
BRANCH  49  63
ATOM     63  C   UNL     1     -11.316  -3.283  -4.480  1.00  0.00     0.057 A 
ATOM     64  C   UNL     1     -11.119  -4.300  -3.538  1.00  0.00     0.134 A 
ATOM     65  C   UNL     1     -11.808  -3.654  -5.739  1.00  0.00     0.134 A 
ATOM     66  F   UNL     1     -10.636  -4.014  -2.320  1.00  0.00    -0.206 F 
ATOM     67  C   UNL     1     -11.377  -5.637  -3.844  1.00  0.00     0.040 A 
ATOM     68  C   UNL     1     -12.098  -4.984  -6.046  1.00  0.00     0.040 A 
ATOM     69  F   UNL     1     -12.023  -2.730  -6.687  1.00  0.00    -0.206 F 
ATOM     70  C   UNL     1     -11.876  -5.981  -5.100  1.00  0.00     0.006 A 
ENDBRANCH  49  63
BRANCH  50  71
ATOM     71  C   UNL     1      -8.999   6.251  -2.548  1.00  0.00     0.057 A 
ATOM     72  C   UNL     1      -9.422   6.913  -1.390  1.00  0.00     0.134 A 
ATOM     73  C   UNL     1      -8.275   6.997  -3.487  1.00  0.00     0.134 A 
ATOM     74  F   UNL     1     -10.141   6.261  -0.465  1.00  0.00    -0.206 F 
ATOM     75  C   UNL     1      -9.154   8.268  -1.181  1.00  0.00     0.040 A 
ATOM     76  C   UNL     1      -7.974   8.344  -3.278  1.00  0.00     0.040 A 
ATOM     77  F   UNL     1      -7.841   6.424  -4.619  1.00  0.00    -0.206 F 
ATOM     78  C   UNL     1      -8.422   8.986  -2.125  1.00  0.00     0.006 A 
ENDBRANCH  50  71
BRANCH  62  79
ATOM     79  C   UNL     1     -14.995   2.848  -3.656  1.00  0.00     0.057 A 
ATOM     80  C   UNL     1     -15.552   3.571  -4.717  1.00  0.00     0.134 A 
ATOM     81  C   UNL     1     -15.855   2.442  -2.626  1.00  0.00     0.134 A 
ATOM     82  F   UNL     1     -14.781   3.998  -5.728  1.00  0.00    -0.206 F 
ATOM     83  C   UNL     1     -16.914   3.879  -4.750  1.00  0.00     0.040 A 
ATOM     84  C   UNL     1     -17.221   2.720  -2.662  1.00  0.00     0.040 A 
ATOM     85  F   UNL     1     -15.386   1.737  -1.585  1.00  0.00    -0.206 F 
ATOM     86  C   UNL     1     -17.754   3.441  -3.728  1.00  0.00     0.006 A 
ENDBRANCH  62  79
ENDBRANCH  36  37
ENDBRANCH  29  31
ENDBRANCH  28  29
ENDBRANCH  27  28
ENDBRANCH  26  27
ENDBRANCH  25  26
ENDBRANCH  24  25
ENDBRANCH   1  24
TORSDOF 20
