REMARK SMILES N#CCS(=O)(=O)NC[C@H]1CC[C@H](C(=O)OCCOCCOCCOC(=O)c2ccc(-c3c4nc(c(-c5c(F)cccc5F)c5ccc([nH]5)c(-c5c(F)cccc5F)c5nc(c(-c6c(F)cccc6F)c6ccc3[nH]6)C=C5)C=C4)cc2)O1
REMARK SMILES IDX 18 1 17 2 16 3 15 4 13 5 14 6 12 7 9 8 10 9 81 10 11 11 8 12
REMARK SMILES IDX 7 13 4 15 5 16 6 17 3 18 2 19 1 20 19 21 20 22 21 23 22 24
REMARK SMILES IDX 23 25 24 26 25 27 26 28 27 29 28 30 80 31 29 32 79 33 30 34
REMARK SMILES IDX 31 35 32 36 73 37 33 38 78 39 72 40 74 41 34 42 77 43 71 44
REMARK SMILES IDX 70 45 35 47 61 48 44 49 60 50 45 51 48 52 59 53 75 54 46 55
REMARK SMILES IDX 47 56 58 58 76 59 49 60 36 61 37 62 42 63 38 64 39 65 41 66
REMARK SMILES IDX 43 67 40 68 62 69 63 70 68 71 64 72 65 73 67 74 69 75 66 76
REMARK SMILES IDX 50 77 51 78 56 79 52 80 53 81 55 82 57 83 54 84
REMARK H PARENT 7 14 74 46 48 57
REMARK Flexibility Score: inf
ROOT
ATOM      1  O   UNL     1       6.832   0.268  -4.546  1.00  0.00    -0.376 OA
ENDROOT
BRANCH   1   2
ATOM      2  C   UNL     1       7.271  -0.279  -3.301  1.00  0.00     0.202 C 
BRANCH   2   3
ATOM      3  C   UNL     1       6.289  -0.267  -2.120  1.00  0.00     0.261 C 
BRANCH   3   4
ATOM      4  O   UNL     1       5.085  -0.994  -2.405  1.00  0.00    -0.461 OA
BRANCH   4   5
ATOM      5  C   UNL     1       3.898  -0.387  -2.127  1.00  0.00     0.335 C 
ATOM      6  O   UNL     1       3.782   0.684  -1.548  1.00  0.00    -0.249 OA
BRANCH   5   7
ATOM      7  C   UNL     1       2.724  -1.166  -2.753  1.00  0.00     0.228 C 
ATOM      8  C   UNL     1       1.315  -2.288  -1.258  1.00  0.00     0.134 C 
ATOM      9  C   UNL     1       2.528  -3.148  -1.544  1.00  0.00     0.037 C 
ATOM     10  O   UNL     1       1.508  -1.060  -2.002  1.00  0.00    -0.362 OA
ATOM     11  C   UNL     1       2.954  -2.655  -2.895  1.00  0.00     0.047 C 
BRANCH   8  12
ATOM     12  C   UNL     1      -0.081  -2.842  -1.590  1.00  0.00     0.130 C 
BRANCH  12  13
ATOM     13  N   UNL     1      -0.241  -3.647  -2.811  1.00  0.00    -0.212 NA
ATOM     14  H   UNL     1      -1.247  -3.647  -2.980  1.00  0.00     0.141 HD
BRANCH  13  15
ATOM     15  S   UNL     1       0.222  -5.206  -3.117  1.00  0.00     0.225 S 
ATOM     16  O   UNL     1       1.621  -5.231  -3.476  1.00  0.00    -0.211 OA
ATOM     17  O   UNL     1      -0.741  -5.668  -4.098  1.00  0.00    -0.211 OA
BRANCH  15  18
ATOM     18  C   UNL     1       0.016  -6.222  -1.688  1.00  0.00     0.273 C 
BRANCH  18  19
ATOM     19  C   UNL     1       0.479  -5.570  -0.395  1.00  0.00     0.080 C 
ATOM     20  N   UNL     1       0.864  -5.029   0.677  1.00  0.00    -0.197 NA
ENDBRANCH  18  19
ENDBRANCH  15  18
ENDBRANCH  13  15
ENDBRANCH  12  13
ENDBRANCH   8  12
ENDBRANCH   5   7
ENDBRANCH   4   5
ENDBRANCH   3   4
ENDBRANCH   2   3
ENDBRANCH   1   2
BRANCH   1  21
ATOM     21  C   UNL     1       5.593  -0.172  -5.088  1.00  0.00     0.188 C 
BRANCH  21  22
ATOM     22  C   UNL     1       5.330  -1.679  -5.210  1.00  0.00     0.188 C 
BRANCH  22  23
ATOM     23  O   UNL     1       6.290  -2.498  -4.580  1.00  0.00    -0.376 OA
BRANCH  23  24
ATOM     24  C   UNL     1       6.826  -3.575  -5.338  1.00  0.00     0.202 C 
BRANCH  24  25
ATOM     25  C   UNL     1       7.620  -3.192  -6.605  1.00  0.00     0.261 C 
BRANCH  25  26
ATOM     26  O   UNL     1       6.923  -2.383  -7.575  1.00  0.00    -0.460 OA
BRANCH  26  27
ATOM     27  C   UNL     1       5.866  -2.939  -8.218  1.00  0.00     0.338 C 
ATOM     28  O   UNL     1       5.491  -4.097  -8.139  1.00  0.00    -0.246 OA
BRANCH  27  29
ATOM     29  C   UNL     1       5.068  -1.828  -8.802  1.00  0.00     0.060 A 
ATOM     30  C   UNL     1       3.734  -1.659  -8.393  1.00  0.00     0.016 A 
ATOM     31  C   UNL     1       5.650  -0.906  -9.672  1.00  0.00     0.016 A 
ATOM     32  C   UNL     1       2.989  -0.562  -8.842  1.00  0.00     0.010 A 
ATOM     33  C   UNL     1       4.893   0.172 -10.146  1.00  0.00     0.010 A 
ATOM     34  C   UNL     1       3.556   0.350  -9.741  1.00  0.00    -0.014 A 
BRANCH  34  35
ATOM     35  C   UNL     1       2.739   1.421 -10.369  1.00  0.00     0.031 A 
ATOM     36  C   UNL     1       2.192   1.195 -11.752  1.00  0.00     0.074 A 
ATOM     37  C   UNL     1       2.517   2.595  -9.748  1.00  0.00     0.049 A 
ATOM     38  N   UNL     1       1.585   2.031 -12.554  1.00  0.00    -0.248 NA
ATOM     39  C   UNL     1       2.356  -0.160 -12.304  1.00  0.00     0.031 C 
ATOM     40  C   UNL     1       2.942   2.932  -8.391  1.00  0.00     0.029 A 
ATOM     41  N   UNL     1       1.894   3.737 -10.196  1.00  0.00    -0.354 N 
ATOM     42  C   UNL     1       1.315   1.314 -13.712  1.00  0.00     0.074 A 
ATOM     43  C   UNL     1       1.830  -0.024 -13.513  1.00  0.00     0.031 C 
ATOM     44  C   UNL     1       2.590   4.204  -8.126  1.00  0.00     0.029 A 
ATOM     45  C   UNL     1       1.959   4.786  -9.309  1.00  0.00     0.049 A 
ATOM     46  H   UNL     1       1.445   3.797 -11.070  1.00  0.00     0.167 HD
ATOM     47  C   UNL     1       0.698   1.734 -14.841  1.00  0.00     0.037 A 
ATOM     48  C   UNL     1       1.590   6.076  -9.453  1.00  0.00     0.037 A 
ATOM     49  C   UNL     1       0.176   3.061 -15.038  1.00  0.00     0.049 A 
ATOM     50  C   UNL     1       0.996   6.540 -10.761  1.00  0.00     0.074 A 
ATOM     51  C   UNL     1      -0.510   3.560 -16.133  1.00  0.00     0.029 A 
ATOM     52  N   UNL     1       0.296   4.101 -14.132  1.00  0.00    -0.354 N 
ATOM     53  N   UNL     1       0.703   5.845 -11.833  1.00  0.00    -0.248 NA
ATOM     54  C   UNL     1       0.693   7.976 -10.883  1.00  0.00     0.031 C 
ATOM     55  C   UNL     1      -0.745   4.920 -15.917  1.00  0.00     0.029 A 
ATOM     56  C   UNL     1      -0.259   5.254 -14.664  1.00  0.00     0.049 A 
ATOM     57  H   UNL     1       0.714   4.032 -13.243  1.00  0.00     0.167 HD
ATOM     58  C   UNL     1       0.160   6.750 -12.739  1.00  0.00     0.074 A 
ATOM     59  C   UNL     1       0.143   8.040 -12.087  1.00  0.00     0.031 C 
ATOM     60  C   UNL     1      -0.281   6.532 -14.003  1.00  0.00     0.037 A 
BRANCH  47  61
ATOM     61  C   UNL     1       0.576   0.764 -15.978  1.00  0.00     0.057 A 
ATOM     62  C   UNL     1      -0.326  -0.307 -15.949  1.00  0.00     0.134 A 
ATOM     63  C   UNL     1       1.317   0.955 -17.152  1.00  0.00     0.134 A 
ATOM     64  F   UNL     1      -1.056  -0.551 -14.851  1.00  0.00    -0.206 F 
ATOM     65  C   UNL     1      -0.481  -1.157 -17.045  1.00  0.00     0.040 A 
ATOM     66  C   UNL     1       1.152   0.128 -18.263  1.00  0.00     0.040 A 
ATOM     67  F   UNL     1       2.195   1.966 -17.246  1.00  0.00    -0.206 F 
ATOM     68  C   UNL     1       0.252  -0.933 -18.210  1.00  0.00     0.006 A 
ENDBRANCH  47  61
BRANCH  48  69
ATOM     69  C   UNL     1       1.810   7.057  -8.355  1.00  0.00     0.057 A 
ATOM     70  C   UNL     1       0.734   7.688  -7.720  1.00  0.00     0.134 A 
ATOM     71  C   UNL     1       3.099   7.445  -7.968  1.00  0.00     0.134 A 
ATOM     72  F   UNL     1      -0.526   7.387  -8.069  1.00  0.00    -0.206 F 
ATOM     73  C   UNL     1       0.929   8.688  -6.764  1.00  0.00     0.040 A 
ATOM     74  C   UNL     1       3.309   8.420  -6.991  1.00  0.00     0.040 A 
ATOM     75  F   UNL     1       4.176   6.888  -8.543  1.00  0.00    -0.206 F 
ATOM     76  C   UNL     1       2.221   9.053  -6.395  1.00  0.00     0.006 A 
ENDBRANCH  48  69
BRANCH  60  77
ATOM     77  C   UNL     1      -0.845   7.703 -14.757  1.00  0.00     0.057 A 
ATOM     78  C   UNL     1      -0.028   8.734 -15.239  1.00  0.00     0.134 A 
ATOM     79  C   UNL     1      -2.212   7.771 -15.056  1.00  0.00     0.134 A 
ATOM     80  F   UNL     1       1.288   8.736 -14.979  1.00  0.00    -0.206 F 
ATOM     81  C   UNL     1      -0.553   9.799 -15.973  1.00  0.00     0.040 A 
ATOM     82  C   UNL     1      -2.744   8.816 -15.814  1.00  0.00     0.040 A 
ATOM     83  F   UNL     1      -3.050   6.812 -14.636  1.00  0.00    -0.206 F 
ATOM     84  C   UNL     1      -1.914   9.837 -16.270  1.00  0.00     0.006 A 
ENDBRANCH  60  77
ENDBRANCH  34  35
ENDBRANCH  27  29
ENDBRANCH  26  27
ENDBRANCH  25  26
ENDBRANCH  24  25
ENDBRANCH  23  24
ENDBRANCH  22  23
ENDBRANCH  21  22
ENDBRANCH   1  21
TORSDOF 22
