REMARK SMILES O=C(OCCOCCOCCOC(=O)[C@@H]1CS[C@@H](C2CC2)N1C(=O)Cc1ccn[nH]1)c1ccc(-c2c3nc(c(-c4c(F)cccc4F)c4ccc([nH]4)c(-c4c(F)cccc4F)c4nc(c(-c5c(F)cccc5F)c5ccc2[nH]5)C=C4)C=C3)cc1
REMARK SMILES IDX 8 1 7 2 6 3 5 4 4 5 3 6 2 7 1 8 31 9 32 10 84 11 33 12 83 13
REMARK SMILES IDX 34 14 35 15 36 16 77 17 37 18 82 19 76 20 78 21 38 22 81 23
REMARK SMILES IDX 75 24 74 25 39 27 65 28 48 29 64 30 49 31 52 32 63 33 79 34
REMARK SMILES IDX 50 35 51 36 62 38 80 39 53 40 40 41 41 42 46 43 42 44 43 45
REMARK SMILES IDX 45 46 47 47 44 48 66 49 67 50 72 51 68 52 69 53 71 54 73 55
REMARK SMILES IDX 70 56 54 57 55 58 60 59 56 60 57 61 59 62 61 63 58 64 9 65
REMARK SMILES IDX 10 66 11 67 12 68 13 69 14 70 15 71 16 72 22 73 17 74 18 75
REMARK SMILES IDX 23 76 24 77 25 78 26 79 27 80 30 81 28 82 29 83 19 85 20 86
REMARK SMILES IDX 21 87
REMARK H PARENT 78 26 52 37 30 84
REMARK Flexibility Score: inf
ROOT
ATOM      1  C   UNL     1       6.311  -3.795  -5.502  1.00  0.00     0.188 C 
ENDROOT
BRANCH   1   2
ATOM      2  C   UNL     1       7.003  -2.462  -5.776  1.00  0.00     0.188 C 
BRANCH   2   3
ATOM      3  O   UNL     1       6.166  -1.562  -6.515  1.00  0.00    -0.376 OA
BRANCH   3   4
ATOM      4  C   UNL     1       6.860  -0.715  -7.434  1.00  0.00     0.202 C 
BRANCH   4   5
ATOM      5  C   UNL     1       7.519   0.504  -6.794  1.00  0.00     0.261 C 
BRANCH   5   6
ATOM      6  O   UNL     1       8.073   0.190  -5.519  1.00  0.00    -0.460 OA
BRANCH   6   7
ATOM      7  C   UNL     1       7.412   0.336  -4.351  1.00  0.00     0.338 C 
ATOM      8  O   UNL     1       7.987   0.090  -3.293  1.00  0.00    -0.246 OA
BRANCH   7   9
ATOM      9  C   UNL     1       6.044   0.896  -4.254  1.00  0.00     0.060 A 
ATOM     10  C   UNL     1       4.560   0.563  -5.251  1.00  0.00     0.016 A 
ATOM     11  C   UNL     1       5.952   2.059  -2.882  1.00  0.00     0.016 A 
ATOM     12  C   UNL     1       2.990   1.509  -4.878  1.00  0.00     0.010 A 
ATOM     13  C   UNL     1       4.427   2.913  -2.492  1.00  0.00     0.010 A 
ATOM     14  C   UNL     1       2.953   2.732  -3.511  1.00  0.00    -0.014 A 
BRANCH  14  15
ATOM     15  C   UNL     1       1.804   3.618  -3.151  1.00  0.00     0.031 A 
ATOM     16  C   UNL     1       1.852   5.066  -3.503  1.00  0.00     0.074 A 
ATOM     17  C   UNL     1       0.792   3.255  -2.336  1.00  0.00     0.049 A 
ATOM     18  N   UNL     1       0.898   5.894  -3.828  1.00  0.00    -0.248 NA
ATOM     19  C   UNL     1       3.173   5.688  -3.419  1.00  0.00     0.031 C 
ATOM     20  C   UNL     1       0.750   2.079  -1.482  1.00  0.00     0.029 A 
ATOM     21  N   UNL     1      -0.494   3.759  -2.253  1.00  0.00    -0.354 N 
ATOM     22  C   UNL     1       1.533   7.117  -4.017  1.00  0.00     0.074 A 
ATOM     23  C   UNL     1       2.953   6.901  -3.885  1.00  0.00     0.031 C 
ATOM     24  C   UNL     1      -0.538   1.774  -1.234  1.00  0.00     0.029 A 
ATOM     25  C   UNL     1      -1.394   2.767  -1.870  1.00  0.00     0.049 A 
ATOM     26  H   UNL     1      -0.741   4.694  -2.440  1.00  0.00     0.167 HD
ATOM     27  C   UNL     1       0.994   8.356  -4.082  1.00  0.00     0.037 A 
ATOM     28  C   UNL     1      -2.712   2.664  -2.167  1.00  0.00     0.037 A 
ATOM     29  C   UNL     1      -0.388   8.597  -3.791  1.00  0.00     0.049 A 
ATOM     30  C   UNL     1      -3.377   3.963  -2.538  1.00  0.00     0.074 A 
ATOM     31  C   UNL     1      -1.031   9.798  -3.568  1.00  0.00     0.029 A 
ATOM     32  N   UNL     1      -1.315   7.588  -3.563  1.00  0.00    -0.354 N 
ATOM     33  N   UNL     1      -2.816   5.097  -2.883  1.00  0.00    -0.248 NA
ATOM     34  C   UNL     1      -4.836   4.032  -2.383  1.00  0.00     0.031 C 
ATOM     35  C   UNL     1      -2.324   9.510  -3.117  1.00  0.00     0.029 A 
ATOM     36  C   UNL     1      -2.516   8.137  -3.160  1.00  0.00     0.049 A 
ATOM     37  H   UNL     1      -1.142   6.625  -3.673  1.00  0.00     0.167 HD
ATOM     38  C   UNL     1      -3.825   6.042  -2.835  1.00  0.00     0.074 A 
ATOM     39  C   UNL     1      -5.059   5.325  -2.580  1.00  0.00     0.031 C 
ATOM     40  C   UNL     1      -3.718   7.391  -2.889  1.00  0.00     0.037 A 
BRANCH  27  41
ATOM     41  C   UNL     1       1.977   9.487  -4.183  1.00  0.00     0.057 A 
ATOM     42  C   UNL     1       2.718   9.721  -5.350  1.00  0.00     0.134 A 
ATOM     43  C   UNL     1       2.319  10.227  -3.042  1.00  0.00     0.134 A 
ATOM     44  F   UNL     1       2.484   9.003  -6.459  1.00  0.00    -0.206 F 
ATOM     45  C   UNL     1       3.784  10.624  -5.368  1.00  0.00     0.040 A 
ATOM     46  C   UNL     1       3.368  11.148  -3.055  1.00  0.00     0.040 A 
ATOM     47  F   UNL     1       1.684  10.020  -1.879  1.00  0.00    -0.206 F 
ATOM     48  C   UNL     1       4.112  11.338  -4.216  1.00  0.00     0.006 A 
ENDBRANCH  27  41
BRANCH  28  49
ATOM     49  C   UNL     1      -3.496   1.381  -2.148  1.00  0.00     0.057 A 
ATOM     50  C   UNL     1      -4.246   0.987  -3.276  1.00  0.00     0.134 A 
ATOM     51  C   UNL     1      -3.540   0.505  -1.059  1.00  0.00     0.134 A 
ATOM     52  F   UNL     1      -4.303   1.775  -4.361  1.00  0.00    -0.206 F 
ATOM     53  C   UNL     1      -4.979  -0.208  -3.320  1.00  0.00     0.040 A 
ATOM     54  C   UNL     1      -4.223  -0.719  -1.106  1.00  0.00     0.040 A 
ATOM     55  F   UNL     1      -2.937   0.823   0.095  1.00  0.00    -0.206 F 
ATOM     56  C   UNL     1      -4.949  -1.079  -2.237  1.00  0.00     0.006 A 
ENDBRANCH  28  49
BRANCH  40  57
ATOM     57  C   UNL     1      -4.950   8.182  -2.598  1.00  0.00     0.057 A 
ATOM     58  C   UNL     1      -5.444   8.311  -1.294  1.00  0.00     0.134 A 
ATOM     59  C   UNL     1      -5.574   8.912  -3.614  1.00  0.00     0.134 A 
ATOM     60  F   UNL     1      -4.881   7.636  -0.280  1.00  0.00    -0.206 F 
ATOM     61  C   UNL     1      -6.530   9.138  -1.011  1.00  0.00     0.040 A 
ATOM     62  C   UNL     1      -6.645   9.758  -3.340  1.00  0.00     0.040 A 
ATOM     63  F   UNL     1      -5.129   8.835  -4.877  1.00  0.00    -0.206 F 
ATOM     64  C   UNL     1      -7.126   9.873  -2.036  1.00  0.00     0.006 A 
ENDBRANCH  40  57
ENDBRANCH  14  15
ENDBRANCH   7   9
ENDBRANCH   6   7
ENDBRANCH   5   6
ENDBRANCH   4   5
ENDBRANCH   3   4
ENDBRANCH   2   3
ENDBRANCH   1   2
BRANCH   1  65
ATOM     65  O   UNL     1       5.995  -4.599  -6.636  1.00  0.00    -0.376 OA
BRANCH  65  66
ATOM     66  C   UNL     1       5.319  -3.980  -7.721  1.00  0.00     0.202 C 
BRANCH  66  67
ATOM     67  C   UNL     1       3.861  -3.547  -7.514  1.00  0.00     0.261 C 
BRANCH  67  68
ATOM     68  O   UNL     1       3.573  -2.840  -6.297  1.00  0.00    -0.462 OA
BRANCH  68  69
ATOM     69  C   UNL     1       3.121  -3.628  -5.274  1.00  0.00     0.329 C 
ATOM     70  O   UNL     1       3.136  -4.856  -5.290  1.00  0.00    -0.250 OA
BRANCH  69  71
ATOM     71  C   UNL     1       2.455  -2.816  -4.129  1.00  0.00     0.206 C 
ATOM     72  C   UNL     1       1.023  -3.303  -4.050  1.00  0.00     0.109 C 
ATOM     73  N   UNL     1       2.445  -1.310  -4.266  1.00  0.00    -0.315 N 
ATOM     74  S   UNL     1       0.373  -2.601  -5.564  1.00  0.00    -0.134 SA
ATOM     75  C   UNL     1       1.440  -0.924  -5.353  1.00  0.00     0.147 C 
BRANCH  73  76
ATOM     76  C   UNL     1       3.556  -0.715  -3.607  1.00  0.00     0.230 C 
ATOM     77  O   UNL     1       4.290  -1.517  -2.974  1.00  0.00    -0.274 OA
BRANCH  76  78
ATOM     78  C   UNL     1       4.127   0.971  -3.324  1.00  0.00     0.155 C 
BRANCH  78  79
ATOM     79  C   UNL     1       4.755   2.550  -4.652  1.00  0.00     0.044 A 
ATOM     80  C   UNL     1       5.463   3.850  -4.610  1.00  0.00     0.045 A 
ATOM     81  N   UNL     1       4.580   2.671  -6.174  1.00  0.00    -0.282 N 
ATOM     82  C   UNL     1       5.228   4.597  -5.785  1.00  0.00     0.135 A 
ATOM     83  N   UNL     1       4.657   3.875  -6.718  1.00  0.00    -0.184 NA
ATOM     84  H   UNL     1       4.415   1.874  -6.729  1.00  0.00     0.190 HD
ENDBRANCH  78  79
ENDBRANCH  76  78
ENDBRANCH  73  76
BRANCH  75  85
ATOM     85  C   UNL     1       0.154  -0.127  -5.144  1.00  0.00     0.022 C 
ATOM     86  C   UNL     1      -0.096   0.332  -3.763  1.00  0.00     0.007 C 
ATOM     87  C   UNL     1      -0.164   1.333  -4.876  1.00  0.00     0.007 C 
ENDBRANCH  75  85
ENDBRANCH  69  71
ENDBRANCH  68  69
ENDBRANCH  67  68
ENDBRANCH  66  67
ENDBRANCH  65  66
ENDBRANCH   1  65
TORSDOF 21
