REMARK SMILES O=C(OCCOCCOCCOC(=O)[C@H](c1c[nH]c2cc(F)ccc12)[NH+]1CC[NH+](Cc2cccc(Cl)c2)CC1)c1ccc(-c2c3nc(c(-c4c(F)cccc4F)c4ccc([nH]4)c(-c4c(F)cccc4F)c4nc(c(-c5c(F)cccc5F)c5ccc2[nH]5)C=C4)C=C3)cc1
REMARK SMILES IDX 8 1 7 2 6 3 5 4 4 5 3 6 2 7 1 8 40 9 41 10 93 11 42 12 92 13
REMARK SMILES IDX 43 14 44 15 45 16 86 17 46 18 91 19 85 20 87 21 47 22 90 23
REMARK SMILES IDX 84 24 83 25 48 27 74 28 57 29 73 30 58 31 61 32 72 33 88 34
REMARK SMILES IDX 59 35 60 36 71 38 89 39 62 40 49 41 50 42 55 43 51 44 52 45
REMARK SMILES IDX 54 46 56 47 53 48 75 49 76 50 81 51 77 52 78 53 80 54 82 55
REMARK SMILES IDX 79 56 63 57 64 58 69 59 65 60 66 61 68 62 70 63 67 64 9 65
REMARK SMILES IDX 10 66 11 67 12 68 13 69 14 70 15 71 26 72 27 73 39 74 28 76
REMARK SMILES IDX 38 77 29 78 30 80 31 81 32 82 37 83 33 84 35 85 34 86 36 87
REMARK SMILES IDX 16 88 17 89 25 90 18 91 19 92 24 93 20 95 23 96 21 97 22 98
REMARK H PARENT 87 26 61 37 26 75 29 79 18 94
REMARK Flexibility Score: inf
ROOT
ATOM      1  C   UNL     1       3.800  -0.562  -2.396  1.00  0.00     0.188 C 
ENDROOT
BRANCH   1   2
ATOM      2  C   UNL     1       2.322  -0.304  -2.666  1.00  0.00     0.188 C 
BRANCH   2   3
ATOM      3  O   UNL     1       1.583  -1.524  -2.790  1.00  0.00    -0.376 OA
BRANCH   3   4
ATOM      4  C   UNL     1       0.557  -1.477  -3.783  1.00  0.00     0.202 C 
BRANCH   4   5
ATOM      5  C   UNL     1      -0.645  -0.589  -3.436  1.00  0.00     0.261 C 
BRANCH   5   6
ATOM      6  O   UNL     1      -0.446   0.235  -2.275  1.00  0.00    -0.460 OA
BRANCH   6   7
ATOM      7  C   UNL     1      -0.628  -0.083  -0.974  1.00  0.00     0.338 C 
ATOM      8  O   UNL     1      -0.378   0.753  -0.107  1.00  0.00    -0.246 OA
BRANCH   7   9
ATOM      9  C   UNL     1      -1.211  -1.376  -0.537  1.00  0.00     0.060 A 
ATOM     10  C   UNL     1      -0.809  -2.627  -1.008  1.00  0.00     0.016 A 
ATOM     11  C   UNL     1      -2.121  -1.324   0.530  1.00  0.00     0.016 A 
ATOM     12  C   UNL     1      -1.375  -3.800  -0.507  1.00  0.00     0.010 A 
ATOM     13  C   UNL     1      -2.638  -2.497   1.084  1.00  0.00     0.010 A 
ATOM     14  C   UNL     1      -2.292  -3.744   0.546  1.00  0.00    -0.014 A 
BRANCH  14  15
ATOM     15  C   UNL     1      -2.929  -4.984   1.042  1.00  0.00     0.031 A 
ATOM     16  C   UNL     1      -4.391  -5.190   0.796  1.00  0.00     0.074 A 
ATOM     17  C   UNL     1      -2.206  -5.914   1.694  1.00  0.00     0.049 A 
ATOM     18  N   UNL     1      -5.168  -6.147   1.224  1.00  0.00    -0.248 NA
ATOM     19  C   UNL     1      -5.074  -4.173  -0.019  1.00  0.00     0.031 C 
ATOM     20  C   UNL     1      -0.782  -5.801   1.990  1.00  0.00     0.029 A 
ATOM     21  N   UNL     1      -2.557  -7.128   2.227  1.00  0.00    -0.354 N 
ATOM     22  C   UNL     1      -6.442  -5.813   0.789  1.00  0.00     0.074 A 
ATOM     23  C   UNL     1      -6.333  -4.577   0.047  1.00  0.00     0.031 C 
ATOM     24  C   UNL     1      -0.376  -6.909   2.627  1.00  0.00     0.029 A 
ATOM     25  C   UNL     1      -1.507  -7.801   2.808  1.00  0.00     0.049 A 
ATOM     26  H   UNL     1      -3.474  -7.485   2.197  1.00  0.00     0.167 HD
ATOM     27  C   UNL     1      -7.598  -6.476   1.014  1.00  0.00     0.037 A 
ATOM     28  C   UNL     1      -1.458  -8.993   3.431  1.00  0.00     0.037 A 
ATOM     29  C   UNL     1      -7.677  -7.720   1.730  1.00  0.00     0.049 A 
ATOM     30  C   UNL     1      -2.748  -9.736   3.614  1.00  0.00     0.074 A 
ATOM     31  C   UNL     1      -8.794  -8.487   2.006  1.00  0.00     0.029 A 
ATOM     32  N   UNL     1      -6.587  -8.380   2.281  1.00  0.00    -0.354 N 
ATOM     33  N   UNL     1      -3.948  -9.406   3.199  1.00  0.00    -0.248 NA
ATOM     34  C   UNL     1      -2.693 -10.984   4.384  1.00  0.00     0.031 C 
ATOM     35  C   UNL     1      -8.383  -9.593   2.758  1.00  0.00     0.029 A 
ATOM     36  C   UNL     1      -7.008  -9.534   2.919  1.00  0.00     0.049 A 
ATOM     37  H   UNL     1      -5.654  -8.073   2.226  1.00  0.00     0.167 HD
ATOM     38  C   UNL     1      -4.797 -10.385   3.687  1.00  0.00     0.074 A 
ATOM     39  C   UNL     1      -3.966 -11.355   4.373  1.00  0.00     0.031 C 
ATOM     40  C   UNL     1      -6.148 -10.460   3.609  1.00  0.00     0.037 A 
BRANCH  27  41
ATOM     41  C   UNL     1      -8.859  -5.827   0.537  1.00  0.00     0.057 A 
ATOM     42  C   UNL     1      -9.218  -5.790  -0.816  1.00  0.00     0.134 A 
ATOM     43  C   UNL     1      -9.721  -5.212   1.454  1.00  0.00     0.134 A 
ATOM     44  F   UNL     1      -8.418  -6.332  -1.747  1.00  0.00    -0.206 F 
ATOM     45  C   UNL     1     -10.384  -5.151  -1.241  1.00  0.00     0.040 A 
ATOM     46  C   UNL     1     -10.898  -4.588   1.044  1.00  0.00     0.040 A 
ATOM     47  F   UNL     1      -9.426  -5.202   2.763  1.00  0.00    -0.206 F 
ATOM     48  C   UNL     1     -11.231  -4.552  -0.309  1.00  0.00     0.006 A 
ENDBRANCH  27  41
BRANCH  28  49
ATOM     49  C   UNL     1      -0.169  -9.539   3.942  1.00  0.00     0.057 A 
ATOM     50  C   UNL     1       0.389 -10.704   3.401  1.00  0.00     0.134 A 
ATOM     51  C   UNL     1       0.544  -8.913   4.973  1.00  0.00     0.134 A 
ATOM     52  F   UNL     1      -0.247 -11.365   2.422  1.00  0.00    -0.206 F 
ATOM     53  C   UNL     1       1.594 -11.232   3.872  1.00  0.00     0.040 A 
ATOM     54  C   UNL     1       1.768  -9.408   5.430  1.00  0.00     0.040 A 
ATOM     55  F   UNL     1       0.075  -7.790   5.536  1.00  0.00    -0.206 F 
ATOM     56  C   UNL     1       2.292 -10.578   4.886  1.00  0.00     0.006 A 
ENDBRANCH  28  49
BRANCH  40  57
ATOM     57  C   UNL     1      -6.790 -11.608   4.321  1.00  0.00     0.057 A 
ATOM     58  C   UNL     1      -6.906 -11.618   5.716  1.00  0.00     0.134 A 
ATOM     59  C   UNL     1      -7.317 -12.691   3.611  1.00  0.00     0.134 A 
ATOM     60  F   UNL     1      -6.402 -10.612   6.448  1.00  0.00    -0.206 F 
ATOM     61  C   UNL     1      -7.513 -12.679   6.385  1.00  0.00     0.040 A 
ATOM     62  C   UNL     1      -7.946 -13.748   4.268  1.00  0.00     0.040 A 
ATOM     63  F   UNL     1      -7.237 -12.733   2.273  1.00  0.00    -0.206 F 
ATOM     64  C   UNL     1      -8.041 -13.745   5.659  1.00  0.00     0.006 A 
ENDBRANCH  40  57
ENDBRANCH  14  15
ENDBRANCH   7   9
ENDBRANCH   6   7
ENDBRANCH   5   6
ENDBRANCH   4   5
ENDBRANCH   3   4
ENDBRANCH   2   3
ENDBRANCH   1   2
BRANCH   1  65
ATOM     65  O   UNL     1       4.535  -1.163  -3.459  1.00  0.00    -0.376 OA
BRANCH  65  66
ATOM     66  C   UNL     1       4.085  -2.416  -3.962  1.00  0.00     0.202 C 
BRANCH  66  67
ATOM     67  C   UNL     1       4.226  -3.630  -3.045  1.00  0.00     0.261 C 
BRANCH  67  68
ATOM     68  O   UNL     1       3.355  -3.653  -1.902  1.00  0.00    -0.459 OA
BRANCH  68  69
ATOM     69  C   UNL     1       3.982  -3.409  -0.705  1.00  0.00     0.370 C 
ATOM     70  O   UNL     1       5.097  -2.901  -0.614  1.00  0.00    -0.245 OA
BRANCH  69  71
ATOM     71  C   UNL     1       3.222  -4.109   0.453  1.00  0.00     0.328 C 
BRANCH  71  72
ATOM     72  N   UNL     1       3.775  -5.464   0.670  1.00  0.00    -0.310 N 
ATOM     73  C   UNL     1       2.897  -6.427   1.328  1.00  0.00     0.325 C 
ATOM     74  C   UNL     1       4.616  -6.061  -0.360  1.00  0.00     0.325 C 
ATOM     75  H   UNL     1       4.468  -5.198   1.370  1.00  0.00     0.349 HD
ATOM     76  C   UNL     1       2.368  -7.624   0.477  1.00  0.00     0.324 C 
ATOM     77  C   UNL     1       3.921  -7.084  -1.274  1.00  0.00     0.324 C 
ATOM     78  N   UNL     1       3.250  -8.172  -0.564  1.00  0.00    -0.322 N 
ATOM     79  H   UNL     1       2.639  -8.653  -1.224  1.00  0.00     0.348 HD
BRANCH  78  80
ATOM     80  C   UNL     1       4.118  -9.299  -0.177  1.00  0.00     0.299 C 
BRANCH  80  81
ATOM     81  C   UNL     1       5.157  -9.037   0.893  1.00  0.00     0.008 A 
ATOM     82  C   UNL     1       4.799  -9.079   2.247  1.00  0.00     0.009 A 
ATOM     83  C   UNL     1       6.454  -8.617   0.551  1.00  0.00     0.030 A 
ATOM     84  C   UNL     1       5.651  -8.566   3.225  1.00  0.00     0.002 A 
ATOM     85  C   UNL     1       7.292  -8.079   1.530  1.00  0.00     0.041 A 
ATOM     86  C   UNL     1       6.885  -8.030   2.861  1.00  0.00     0.020 A 
ATOM     87  Cl  UNL     1       8.789  -7.364   1.070  1.00  0.00    -0.084 Cl
ENDBRANCH  80  81
ENDBRANCH  78  80
ENDBRANCH  71  72
BRANCH  71  88
ATOM     88  C   UNL     1       3.435  -3.295   1.727  1.00  0.00     0.046 A 
ATOM     89  C   UNL     1       4.656  -3.103   2.360  1.00  0.00     0.094 A 
ATOM     90  C   UNL     1       2.483  -2.511   2.474  1.00  0.00     0.009 A 
ATOM     91  N   UNL     1       4.507  -2.184   3.355  1.00  0.00    -0.361 N 
ATOM     92  C   UNL     1       3.192  -1.804   3.452  1.00  0.00     0.049 A 
ATOM     93  C   UNL     1       1.090  -2.298   2.401  1.00  0.00     0.014 A 
ATOM     94  H   UNL     1       5.236  -1.842   3.921  1.00  0.00     0.166 HD
ATOM     95  C   UNL     1       2.594  -0.879   4.318  1.00  0.00     0.065 A 
ATOM     96  C   UNL     1       0.466  -1.405   3.285  1.00  0.00     0.040 A 
ATOM     97  C   UNL     1       1.218  -0.702   4.213  1.00  0.00     0.125 A 
ATOM     98  F   UNL     1       0.608   0.168   5.029  1.00  0.00    -0.207 F 
ENDBRANCH  71  88
ENDBRANCH  69  71
ENDBRANCH  68  69
ENDBRANCH  67  68
ENDBRANCH  66  67
ENDBRANCH  65  66
ENDBRANCH   1  65
TORSDOF 21
