REMARK SMILES C[C@@H](C(=O)OCCOCCOCCOC(=O)c1ccc(-c2c3nc(c(-c4c(F)cccc4F)c4ccc([nH]4)c(-c4c(F)cccc4F)c4nc(c(-c5c(F)cccc5F)c5ccc2[nH]5)C=C4)C=C3)cc1)c1ccc(C[C@H]2CCCC2=O)c(-c2ccccc2)c1
REMARK SMILES IDX 9 1 8 2 7 3 6 4 5 5 3 6 4 7 2 8 1 9 71 10 72 11 89 12 73 13
REMARK SMILES IDX 82 14 74 15 83 16 84 17 88 18 85 19 87 20 86 21 75 22 76 23
REMARK SMILES IDX 77 24 80 25 78 26 79 27 81 28 10 29 11 30 12 31 13 32 14 33
REMARK SMILES IDX 15 34 16 35 17 36 18 37 70 38 19 39 69 40 20 41 21 42 22 43
REMARK SMILES IDX 63 44 23 45 68 46 62 47 64 48 24 49 67 50 61 51 60 52 25 54
REMARK SMILES IDX 51 55 34 56 50 57 35 58 38 59 49 60 65 61 36 62 37 63 48 65
REMARK SMILES IDX 66 66 39 67 26 68 27 69 32 70 28 71 29 72 31 73 33 74 30 75
REMARK SMILES IDX 52 76 53 77 58 78 54 79 55 80 57 81 59 82 56 83 40 84 41 85
REMARK SMILES IDX 46 86 42 87 43 88 45 89 47 90 44 91
REMARK H PARENT 64 53 38 64
REMARK Flexibility Score: inf
ROOT
ATOM      1  C   UNL     1       0.657  -2.907  -2.893  1.00  0.00     0.188 C 
ENDROOT
BRANCH   1   2
ATOM      2  O   UNL     1       1.230  -3.074  -4.180  1.00  0.00    -0.376 OA
BRANCH   2   3
ATOM      3  C   UNL     1       2.424  -2.366  -4.475  1.00  0.00     0.202 C 
BRANCH   3   4
ATOM      4  C   UNL     1       2.441  -0.839  -4.293  1.00  0.00     0.261 C 
BRANCH   4   5
ATOM      5  O   UNL     1       1.914  -0.330  -3.047  1.00  0.00    -0.463 OA
BRANCH   5   6
ATOM      6  C   UNL     1       0.775   0.414  -3.123  1.00  0.00     0.313 C 
ATOM      7  O   UNL     1       0.202   0.669  -4.178  1.00  0.00    -0.252 OA
BRANCH   6   8
ATOM      8  C   UNL     1       0.288   0.962  -1.772  1.00  0.00     0.126 C 
ATOM      9  C   UNL     1       1.052   0.602  -0.495  1.00  0.00     0.025 C 
BRANCH   8  10
ATOM     10  C   UNL     1      -1.221   0.783  -1.578  1.00  0.00    -0.033 A 
ATOM     11  C   UNL     1      -2.031   1.905  -1.684  1.00  0.00     0.005 A 
ATOM     12  C   UNL     1      -1.848  -0.464  -1.323  1.00  0.00     0.013 A 
ATOM     13  C   UNL     1      -3.405   1.785  -1.519  1.00  0.00     0.004 A 
ATOM     14  C   UNL     1      -3.252  -0.628  -1.127  1.00  0.00    -0.015 A 
ATOM     15  C   UNL     1      -4.033   0.554  -1.197  1.00  0.00    -0.039 A 
BRANCH  14  16
ATOM     16  C   UNL     1      -3.783  -2.039  -0.925  1.00  0.00    -0.018 A 
ATOM     17  C   UNL     1      -3.732  -3.196  -2.336  1.00  0.00     0.009 A 
ATOM     18  C   UNL     1      -4.165  -2.675   0.733  1.00  0.00     0.009 A 
ATOM     19  C   UNL     1      -4.245  -4.920  -2.182  1.00  0.00     0.001 A 
ATOM     20  C   UNL     1      -4.271  -4.481   0.991  1.00  0.00     0.001 A 
ATOM     21  C   UNL     1      -4.386  -5.622  -0.498  1.00  0.00     0.000 A 
ENDBRANCH  14  16
BRANCH  15  22
ATOM     22  C   UNL     1      -5.537   0.631  -1.016  1.00  0.00     0.047 C 
BRANCH  22  23
ATOM     23  C   UNL     1      -6.095   1.343   0.225  1.00  0.00     0.060 C 
ATOM     24  C   UNL     1      -5.719   0.696   1.556  1.00  0.00     0.012 C 
ATOM     25  C   UNL     1      -5.597   2.755   0.433  1.00  0.00     0.136 C 
ATOM     26  C   UNL     1      -4.472   1.425   2.033  1.00  0.00     0.009 C 
ATOM     27  C   UNL     1      -4.696   2.878   1.637  1.00  0.00     0.076 C 
ATOM     28  O   UNL     1      -5.896   3.703  -0.285  1.00  0.00    -0.299 OA
ENDBRANCH  22  23
ENDBRANCH  15  22
ENDBRANCH   8  10
ENDBRANCH   6   8
ENDBRANCH   5   6
ENDBRANCH   4   5
ENDBRANCH   3   4
ENDBRANCH   2   3
ENDBRANCH   1   2
BRANCH   1  29
ATOM     29  C   UNL     1       1.574  -2.794  -1.663  1.00  0.00     0.188 C 
BRANCH  29  30
ATOM     30  O   UNL     1       2.925  -3.152  -1.882  1.00  0.00    -0.376 OA
BRANCH  30  31
ATOM     31  C   UNL     1       3.527  -3.960  -0.877  1.00  0.00     0.202 C 
BRANCH  31  32
ATOM     32  C   UNL     1       3.161  -5.439  -1.049  1.00  0.00     0.261 C 
BRANCH  32  33
ATOM     33  O   UNL     1       1.765  -5.701  -0.844  1.00  0.00    -0.460 OA
BRANCH  33  34
ATOM     34  C   UNL     1       1.258  -5.457   0.392  1.00  0.00     0.338 C 
ATOM     35  O   UNL     1       1.882  -5.276   1.419  1.00  0.00    -0.246 OA
BRANCH  34  36
ATOM     36  C   UNL     1      -0.167  -5.109   0.177  1.00  0.00     0.060 A 
ATOM     37  C   UNL     1      -0.695  -3.958   0.734  1.00  0.00     0.016 A 
ATOM     38  C   UNL     1      -0.887  -5.726  -0.807  1.00  0.00     0.016 A 
ATOM     39  C   UNL     1      -1.982  -3.452   0.347  1.00  0.00     0.010 A 
ATOM     40  C   UNL     1      -2.159  -5.225  -1.166  1.00  0.00     0.010 A 
ATOM     41  C   UNL     1      -3.066  -4.061  -0.573  1.00  0.00    -0.014 A 
BRANCH  41  42
ATOM     42  C   UNL     1      -5.194  -3.745  -0.738  1.00  0.00     0.031 A 
ATOM     43  C   UNL     1      -6.506  -4.632   0.330  1.00  0.00     0.074 A 
ATOM     44  C   UNL     1      -6.168  -3.038  -1.608  1.00  0.00     0.049 A 
ATOM     45  N   UNL     1      -7.778  -4.305   0.660  1.00  0.00    -0.248 NA
ATOM     46  C   UNL     1      -6.219  -5.932   1.107  1.00  0.00     0.031 C 
ATOM     47  C   UNL     1      -5.911  -2.158  -2.797  1.00  0.00     0.029 A 
ATOM     48  N   UNL     1      -7.599  -2.967  -1.636  1.00  0.00    -0.354 N 
ATOM     49  C   UNL     1      -8.216  -5.178   1.717  1.00  0.00     0.074 A 
ATOM     50  C   UNL     1      -7.120  -6.017   2.047  1.00  0.00     0.031 C 
ATOM     51  C   UNL     1      -7.011  -1.719  -3.385  1.00  0.00     0.029 A 
ATOM     52  C   UNL     1      -8.156  -2.262  -2.713  1.00  0.00     0.049 A 
ATOM     53  H   UNL     1      -8.157  -3.388  -0.943  1.00  0.00     0.167 HD
ATOM     54  C   UNL     1      -9.382  -5.503   2.355  1.00  0.00     0.037 A 
ATOM     55  C   UNL     1      -9.374  -1.994  -3.252  1.00  0.00     0.037 A 
ATOM     56  C   UNL     1     -10.702  -5.184   1.925  1.00  0.00     0.049 A 
ATOM     57  C   UNL     1     -10.669  -2.457  -2.684  1.00  0.00     0.074 A 
ATOM     58  C   UNL     1     -11.910  -5.586   2.479  1.00  0.00     0.029 A 
ATOM     59  N   UNL     1     -10.988  -4.543   0.748  1.00  0.00    -0.354 N 
ATOM     60  N   UNL     1     -10.888  -3.164  -1.615  1.00  0.00    -0.248 NA
ATOM     61  C   UNL     1     -11.893  -2.078  -3.418  1.00  0.00     0.031 C 
ATOM     62  C   UNL     1     -12.929  -5.264   1.581  1.00  0.00     0.029 A 
ATOM     63  C   UNL     1     -12.354  -4.568   0.536  1.00  0.00     0.049 A 
ATOM     64  H   UNL     1     -10.326  -4.130   0.148  1.00  0.00     0.167 HD
ATOM     65  C   UNL     1     -12.267  -3.303  -1.540  1.00  0.00     0.074 A 
ATOM     66  C   UNL     1     -12.841  -2.611  -2.665  1.00  0.00     0.031 C 
ATOM     67  C   UNL     1     -12.976  -3.939  -0.585  1.00  0.00     0.037 A 
BRANCH  54  68
ATOM     68  C   UNL     1      -9.299  -6.458   3.555  1.00  0.00     0.057 A 
ATOM     69  C   UNL     1      -8.774  -6.038   4.786  1.00  0.00     0.134 A 
ATOM     70  C   UNL     1      -9.697  -7.804   3.461  1.00  0.00     0.134 A 
ATOM     71  F   UNL     1      -8.339  -4.779   4.943  1.00  0.00    -0.206 F 
ATOM     72  C   UNL     1      -8.631  -6.919   5.865  1.00  0.00     0.040 A 
ATOM     73  C   UNL     1      -9.580  -8.687   4.540  1.00  0.00     0.040 A 
ATOM     74  F   UNL     1     -10.186  -8.292   2.311  1.00  0.00    -0.206 F 
ATOM     75  C   UNL     1      -9.038  -8.246   5.745  1.00  0.00     0.006 A 
ENDBRANCH  54  68
BRANCH  55  76
ATOM     76  C   UNL     1      -9.424  -1.256  -4.567  1.00  0.00     0.057 A 
ATOM     77  C   UNL     1      -9.812   0.086  -4.665  1.00  0.00     0.134 A 
ATOM     78  C   UNL     1      -9.005  -1.892  -5.747  1.00  0.00     0.134 A 
ATOM     79  F   UNL     1     -10.261   0.742  -3.585  1.00  0.00    -0.206 F 
ATOM     80  C   UNL     1      -9.761   0.774  -5.882  1.00  0.00     0.040 A 
ATOM     81  C   UNL     1      -8.912  -1.206  -6.958  1.00  0.00     0.040 A 
ATOM     82  F   UNL     1      -8.618  -3.176  -5.718  1.00  0.00    -0.206 F 
ATOM     83  C   UNL     1      -9.290   0.132  -7.028  1.00  0.00     0.006 A 
ENDBRANCH  55  76
BRANCH  67  84
ATOM     84  C   UNL     1     -14.463  -3.892  -0.654  1.00  0.00     0.057 A 
ATOM     85  C   UNL     1     -15.193  -4.597  -1.615  1.00  0.00     0.134 A 
ATOM     86  C   UNL     1     -15.174  -3.134   0.285  1.00  0.00     0.134 A 
ATOM     87  F   UNL     1     -14.565  -5.333  -2.545  1.00  0.00    -0.206 F 
ATOM     88  C   UNL     1     -16.585  -4.527  -1.658  1.00  0.00     0.040 A 
ATOM     89  C   UNL     1     -16.565  -3.078   0.269  1.00  0.00     0.040 A 
ATOM     90  F   UNL     1     -14.527  -2.442   1.235  1.00  0.00    -0.206 F 
ATOM     91  C   UNL     1     -17.274  -3.770  -0.711  1.00  0.00     0.006 A 
ENDBRANCH  67  84
ENDBRANCH  41  42
ENDBRANCH  34  36
ENDBRANCH  33  34
ENDBRANCH  32  33
ENDBRANCH  31  32
ENDBRANCH  30  31
ENDBRANCH  29  30
ENDBRANCH   1  29
TORSDOF 21
