REMARK SMILES CC[C@@H](NC(=O)N[C@H]1CCCCC[C@@H]1C(=O)OCCOCCOCCOC(=O)c1ccc(-c2c3nc(c(-c4c(F)cccc4F)c4ccc([nH]4)c(-c4c(F)cccc4F)c4nc(c(-c5c(F)cccc5F)c5ccc2[nH]5)C=C4)C=C3)cc1)C(C)C
REMARK SMILES IDX 21 1 20 2 19 3 18 4 17 5 15 6 16 7 14 8 8 9 7 10 4 11 5 12
REMARK SMILES IDX 6 14 3 16 2 17 1 18 83 19 84 20 85 21 9 22 10 23 11 24 13 26
REMARK SMILES IDX 12 27 22 29 23 30 24 31 25 32 26 33 27 34 28 35 29 36 30 37
REMARK SMILES IDX 82 38 31 39 81 40 32 41 33 42 34 43 75 44 35 45 80 46 74 47
REMARK SMILES IDX 76 48 36 49 79 50 73 51 72 52 37 54 63 55 46 56 62 57 47 58
REMARK SMILES IDX 50 59 61 60 77 61 48 62 49 63 60 65 78 66 51 67 38 68 39 69
REMARK SMILES IDX 44 70 40 71 41 72 43 73 45 74 42 75 64 76 65 77 70 78 66 79
REMARK SMILES IDX 67 80 69 81 71 82 68 83 52 84 53 85 58 86 54 87 55 88 57 89
REMARK SMILES IDX 59 90 56 91
REMARK H PARENT 4 13 7 15 76 53 50 64
REMARK Flexibility Score: 90.00
ROOT
ATOM      1  C   UNL     1       1.346   0.068   5.263  1.00  0.00     0.188 C 
ENDROOT
BRANCH   1   2
ATOM      2  O   UNL     1       2.462   0.755   4.719  1.00  0.00    -0.376 OA
BRANCH   2   3
ATOM      3  C   UNL     1       2.641   0.638   3.314  1.00  0.00     0.202 C 
BRANCH   3   4
ATOM      4  C   UNL     1       3.313  -0.664   2.829  1.00  0.00     0.261 C 
BRANCH   4   5
ATOM      5  O   UNL     1       2.554  -1.930   2.829  1.00  0.00    -0.463 OA
BRANCH   5   6
ATOM      6  C   UNL     1       3.350  -3.026   2.555  1.00  0.00     0.311 C 
ATOM      7  O   UNL     1       4.563  -2.932   2.773  1.00  0.00    -0.252 OA
BRANCH   6   8
ATOM      8  C   UNL     1       2.803  -4.357   1.775  1.00  0.00     0.121 C 
BRANCH   8   9
ATOM      9  C   UNL     1       1.313  -4.874   1.534  1.00  0.00     0.098 C 
BRANCH   9  10
ATOM     10  N   UNL     1       0.708  -4.810   0.146  1.00  0.00    -0.335 N 
ATOM     11  N   UNL     1      -0.642  -2.857  -0.168  1.00  0.00    -0.335 N 
ATOM     12  C   UNL     1      -0.289  -4.125  -0.487  1.00  0.00     0.315 C 
ATOM     13  H   UNL     1      -1.396  -2.473  -0.670  1.00  0.00     0.165 HD
ATOM     14  O   UNL     1      -0.851  -4.654  -1.447  1.00  0.00    -0.249 OA
ATOM     15  H   UNL     1       1.158  -5.434  -0.469  1.00  0.00     0.165 HD
BRANCH  11  16
ATOM     16  C   UNL     1      -0.023  -1.994   0.840  1.00  0.00     0.086 C 
BRANCH  16  17
ATOM     17  C   UNL     1       1.411  -1.858   0.214  1.00  0.00     0.022 C 
ATOM     18  C   UNL     1       1.647  -0.620  -0.660  1.00  0.00     0.006 C 
ENDBRANCH  16  17
BRANCH  16  19
ATOM     19  C   UNL     1      -0.691  -2.594   2.186  1.00  0.00     0.005 C 
ATOM     20  C   UNL     1      -0.065  -2.865   3.569  1.00  0.00     0.009 C 
ATOM     21  C   UNL     1      -2.071  -1.958   2.428  1.00  0.00     0.009 C 
ENDBRANCH  16  19
ENDBRANCH  11  16
ENDBRANCH   9  10
BRANCH   9  22
ATOM     22  C   UNL     1       0.886  -6.259   2.126  1.00  0.00     0.026 C 
BRANCH  22  23
ATOM     23  C   UNL     1       1.469  -7.506   1.455  1.00  0.00     0.002 C 
BRANCH  23  24
ATOM     24  C   UNL     1       2.888  -7.823   1.890  1.00  0.00     0.000 CG0
ATOM     25  G   UNL     1       3.862  -6.703   1.578  1.00  0.00     0.000 G0
ENDBRANCH  23  24
ENDBRANCH  22  23
ENDBRANCH   9  22
ENDBRANCH   8   9
BRANCH   8  26
ATOM     26  C   UNL     1       3.642  -5.477   2.449  1.00  0.00     0.017 C 
BRANCH  26  27
ATOM     27  C   UNL     1       3.862  -6.703   1.578  1.00  0.00     0.001 CG0
ATOM     28  G   UNL     1       2.888  -7.823   1.890  1.00  0.00     0.000 G0
ENDBRANCH  26  27
ENDBRANCH   8  26
ENDBRANCH   6   8
ENDBRANCH   5   6
ENDBRANCH   4   5
ENDBRANCH   3   4
ENDBRANCH   2   3
ENDBRANCH   1   2
BRANCH   1  29
ATOM     29  C   UNL     1       0.029   0.257   4.510  1.00  0.00     0.188 C 
BRANCH  29  30
ATOM     30  O   UNL     1      -0.519   1.567   4.588  1.00  0.00    -0.376 OA
BRANCH  30  31
ATOM     31  C   UNL     1      -1.954   1.509   4.625  1.00  0.00     0.202 C 
BRANCH  31  32
ATOM     32  C   UNL     1      -2.469   1.452   6.071  1.00  0.00     0.261 C 
BRANCH  32  33
ATOM     33  O   UNL     1      -1.831   0.439   6.885  1.00  0.00    -0.460 OA
BRANCH  33  34
ATOM     34  C   UNL     1      -2.233  -0.845   6.725  1.00  0.00     0.338 C 
ATOM     35  O   UNL     1      -3.135  -1.224   5.991  1.00  0.00    -0.246 OA
BRANCH  34  36
ATOM     36  C   UNL     1      -1.287  -1.769   7.426  1.00  0.00     0.060 A 
ATOM     37  C   UNL     1      -1.156  -3.085   6.958  1.00  0.00     0.016 A 
ATOM     38  C   UNL     1      -0.517  -1.361   8.521  1.00  0.00     0.016 A 
ATOM     39  C   UNL     1      -0.285  -3.990   7.585  1.00  0.00     0.010 A 
ATOM     40  C   UNL     1       0.339  -2.271   9.163  1.00  0.00     0.010 A 
ATOM     41  C   UNL     1       0.443  -3.601   8.719  1.00  0.00    -0.014 A 
BRANCH  41  42
ATOM     42  C   UNL     1       1.112  -4.620   9.578  1.00  0.00     0.031 A 
ATOM     43  C   UNL     1       0.323  -5.211  10.720  1.00  0.00     0.074 A 
ATOM     44  C   UNL     1       2.382  -5.025   9.387  1.00  0.00     0.049 A 
ATOM     45  N   UNL     1       0.698  -6.056  11.647  1.00  0.00    -0.248 NA
ATOM     46  C   UNL     1      -1.082  -4.786  10.824  1.00  0.00     0.031 C 
ATOM     47  C   UNL     1       3.265  -4.588   8.311  1.00  0.00     0.029 A 
ATOM     48  N   UNL     1       3.154  -5.899  10.122  1.00  0.00    -0.354 N 
ATOM     49  C   UNL     1      -0.421  -6.262  12.444  1.00  0.00     0.074 A 
ATOM     50  C   UNL     1      -1.480  -5.434  11.907  1.00  0.00     0.031 C 
ATOM     51  C   UNL     1       4.465  -5.181   8.464  1.00  0.00     0.029 A 
ATOM     52  C   UNL     1       4.446  -6.016   9.668  1.00  0.00     0.049 A 
ATOM     53  H   UNL     1       2.811  -6.394  10.900  1.00  0.00     0.167 HD
ATOM     54  C   UNL     1      -0.566  -7.067  13.524  1.00  0.00     0.037 A 
ATOM     55  C   UNL     1       5.497  -6.693  10.177  1.00  0.00     0.037 A 
ATOM     56  C   UNL     1       0.476  -7.881  14.088  1.00  0.00     0.049 A 
ATOM     57  C   UNL     1       5.341  -7.505  11.442  1.00  0.00     0.074 A 
ATOM     58  C   UNL     1       0.407  -8.730  15.181  1.00  0.00     0.029 A 
ATOM     59  N   UNL     1       1.778  -7.938  13.620  1.00  0.00    -0.354 N 
ATOM     60  N   UNL     1       4.270  -7.717  12.168  1.00  0.00    -0.248 NA
ATOM     61  C   UNL     1       6.549  -8.172  11.960  1.00  0.00     0.031 C 
ATOM     62  C   UNL     1       1.682  -9.259  15.406  1.00  0.00     0.029 A 
ATOM     63  C   UNL     1       2.529  -8.786  14.418  1.00  0.00     0.049 A 
ATOM     64  H   UNL     1       2.118  -7.450  12.836  1.00  0.00     0.167 HD
ATOM     65  C   UNL     1       4.666  -8.565  13.199  1.00  0.00     0.074 A 
ATOM     66  C   UNL     1       6.072  -8.838  13.003  1.00  0.00     0.031 C 
ATOM     67  C   UNL     1       3.926  -9.073  14.215  1.00  0.00     0.037 A 
BRANCH  54  68
ATOM     68  C   UNL     1      -1.910  -7.077  14.190  1.00  0.00     0.057 A 
ATOM     69  C   UNL     1      -3.024  -7.686  13.597  1.00  0.00     0.134 A 
ATOM     70  C   UNL     1      -2.085  -6.488  15.448  1.00  0.00     0.134 A 
ATOM     71  F   UNL     1      -2.925  -8.252  12.385  1.00  0.00    -0.206 F 
ATOM     72  C   UNL     1      -4.271  -7.685  14.222  1.00  0.00     0.040 A 
ATOM     73  C   UNL     1      -3.321  -6.505  16.095  1.00  0.00     0.040 A 
ATOM     74  F   UNL     1      -1.057  -5.892  16.071  1.00  0.00    -0.206 F 
ATOM     75  C   UNL     1      -4.420  -7.099  15.478  1.00  0.00     0.006 A 
ENDBRANCH  54  68
BRANCH  55  76
ATOM     76  C   UNL     1       6.828  -6.627   9.514  1.00  0.00     0.057 A 
ATOM     77  C   UNL     1       7.398  -7.757   8.914  1.00  0.00     0.134 A 
ATOM     78  C   UNL     1       7.593  -5.455   9.532  1.00  0.00     0.134 A 
ATOM     79  F   UNL     1       6.732  -8.921   8.899  1.00  0.00    -0.206 F 
ATOM     80  C   UNL     1       8.687  -7.730   8.376  1.00  0.00     0.040 A 
ATOM     81  C   UNL     1       8.872  -5.406   8.973  1.00  0.00     0.040 A 
ATOM     82  F   UNL     1       7.112  -4.341  10.103  1.00  0.00    -0.206 F 
ATOM     83  C   UNL     1       9.426  -6.549   8.402  1.00  0.00     0.006 A 
ENDBRANCH  55  76
BRANCH  67  84
ATOM     84  C   UNL     1       4.596 -10.019  15.173  1.00  0.00     0.057 A 
ATOM     85  C   UNL     1       5.541  -9.586  16.113  1.00  0.00     0.134 A 
ATOM     86  C   UNL     1       4.248 -11.377  15.193  1.00  0.00     0.134 A 
ATOM     87  F   UNL     1       5.928  -8.302  16.145  1.00  0.00    -0.206 F 
ATOM     88  C   UNL     1       6.129 -10.470  17.021  1.00  0.00     0.040 A 
ATOM     89  C   UNL     1       4.808 -12.265  16.114  1.00  0.00     0.040 A 
ATOM     90  F   UNL     1       3.341 -11.860  14.330  1.00  0.00    -0.206 F 
ATOM     91  C   UNL     1       5.756 -11.813  17.028  1.00  0.00     0.006 A 
ENDBRANCH  67  84
ENDBRANCH  41  42
ENDBRANCH  34  36
ENDBRANCH  33  34
ENDBRANCH  32  33
ENDBRANCH  31  32
ENDBRANCH  30  31
ENDBRANCH  29  30
ENDBRANCH   1  29
TORSDOF 21
