REMARK SMILES CCN(CC(C)(C)O)C(=O)[C@H]1CC=CC[C@H]1C(=O)OCCOCCOCCOC(=O)c1ccc(-c2c3nc(c(-c4c(F)cccc4F)c4ccc([nH]4)c(-c4c(F)cccc4F)c4nc(c(-c5c(F)cccc5F)c5ccc2[nH]5)C=C4)C=C3)cc1
REMARK SMILES IDX 22 1 21 2 20 3 19 4 17 5 18 6 16 7 11 8 12 9 13 10 15 11
REMARK SMILES IDX 14 12 9 13 10 14 3 15 2 16 1 17 4 18 5 19 6 20 7 21 8 22
REMARK SMILES IDX 23 24 24 25 25 26 26 27 27 28 28 29 29 30 30 31 31 32 32 33
REMARK SMILES IDX 84 34 33 35 83 36 34 37 35 38 36 39 77 40 37 41 82 42 76 43
REMARK SMILES IDX 78 44 38 45 81 46 75 47 74 48 39 50 65 51 48 52 64 53 49 54
REMARK SMILES IDX 52 55 63 56 79 57 50 58 51 59 62 61 80 62 53 63 40 64 41 65
REMARK SMILES IDX 46 66 42 67 43 68 45 69 47 70 44 71 66 72 67 73 72 74 68 75
REMARK SMILES IDX 69 76 71 77 73 78 70 79 54 80 55 81 60 82 56 83 57 84 59 85
REMARK SMILES IDX 61 86 58 87
REMARK H PARENT 8 23 78 49 52 60
REMARK Flexibility Score: inf
ROOT
ATOM      1  O   UNL     1       0.106  -1.476   5.430  1.00  0.00    -0.376 OA
ENDROOT
BRANCH   1   2
ATOM      2  C   UNL     1      -0.018  -0.551   4.348  1.00  0.00     0.202 C 
BRANCH   2   3
ATOM      3  C   UNL     1       1.279  -0.037   3.717  1.00  0.00     0.261 C 
BRANCH   3   4
ATOM      4  O   UNL     1       1.980  -1.042   2.944  1.00  0.00    -0.463 OA
BRANCH   4   5
ATOM      5  C   UNL     1       3.302  -1.153   3.236  1.00  0.00     0.310 C 
ATOM      6  O   UNL     1       3.848  -0.552   4.159  1.00  0.00    -0.252 OA
BRANCH   5   7
ATOM      7  C   UNL     1       4.081  -2.146   2.395  1.00  0.00     0.115 C 
ATOM      8  C   UNL     1       3.369  -2.926   1.271  1.00  0.00     0.097 C 
ATOM      9  C   UNL     1       4.369  -3.889   0.583  1.00  0.00     0.041 C 
ATOM     10  C   UNL     1       5.771  -3.373   0.435  1.00  0.00    -0.030 C 
ATOM     11  C   UNL     1       5.356  -1.424   1.927  1.00  0.00     0.043 C 
ATOM     12  C   UNL     1       6.207  -2.249   1.016  1.00  0.00    -0.030 C 
BRANCH   8  13
ATOM     13  C   UNL     1       2.755  -2.028   0.198  1.00  0.00     0.226 C 
ATOM     14  O   UNL     1       3.443  -1.138  -0.311  1.00  0.00    -0.275 OA
BRANCH  13  15
ATOM     15  N   UNL     1       1.440  -2.225  -0.208  1.00  0.00    -0.340 N 
BRANCH  15  16
ATOM     16  C   UNL     1       0.900  -1.240  -1.150  1.00  0.00     0.116 C 
ATOM     17  C   UNL     1       0.648   0.098  -0.455  1.00  0.00     0.027 C 
ENDBRANCH  15  16
BRANCH  15  18
ATOM     18  C   UNL     1       0.459  -3.174   0.346  1.00  0.00     0.154 C 
BRANCH  18  19
ATOM     19  C   UNL     1       0.295  -4.555  -0.364  1.00  0.00     0.077 C 
ATOM     20  C   UNL     1       1.353  -5.569   0.076  1.00  0.00     0.043 C 
ATOM     21  C   UNL     1      -1.093  -5.112  -0.029  1.00  0.00     0.043 C 
BRANCH  19  22
ATOM     22  O   UNL     1       0.359  -4.417  -1.785  1.00  0.00    -0.389 OA
ATOM     23  H   UNL     1       1.227  -4.066  -2.038  1.00  0.00     0.211 HD
ENDBRANCH  19  22
ENDBRANCH  18  19
ENDBRANCH  15  18
ENDBRANCH  13  15
ENDBRANCH   8  13
ENDBRANCH   5   7
ENDBRANCH   4   5
ENDBRANCH   3   4
ENDBRANCH   2   3
ENDBRANCH   1   2
BRANCH   1  24
ATOM     24  C   UNL     1       0.831  -2.664   5.177  1.00  0.00     0.188 C 
BRANCH  24  25
ATOM     25  C   UNL     1       0.192  -3.705   4.251  1.00  0.00     0.188 C 
BRANCH  25  26
ATOM     26  O   UNL     1      -0.769  -3.265   3.297  1.00  0.00    -0.376 OA
BRANCH  26  27
ATOM     27  C   UNL     1      -2.116  -3.223   3.785  1.00  0.00     0.202 C 
BRANCH  27  28
ATOM     28  C   UNL     1      -2.851  -4.565   3.658  1.00  0.00     0.261 C 
BRANCH  28  29
ATOM     29  O   UNL     1      -2.199  -5.575   4.450  1.00  0.00    -0.460 OA
BRANCH  29  30
ATOM     30  C   UNL     1      -1.583  -6.556   3.756  1.00  0.00     0.338 C 
ATOM     31  O   UNL     1      -1.716  -6.833   2.569  1.00  0.00    -0.246 OA
BRANCH  30  32
ATOM     32  C   UNL     1      -0.530  -7.163   4.584  1.00  0.00     0.060 A 
ATOM     33  C   UNL     1       0.765  -7.226   4.049  1.00  0.00     0.016 A 
ATOM     34  C   UNL     1      -0.805  -7.692   5.845  1.00  0.00     0.016 A 
ATOM     35  C   UNL     1       1.778  -7.876   4.746  1.00  0.00     0.010 A 
ATOM     36  C   UNL     1       0.210  -8.355   6.539  1.00  0.00     0.010 A 
ATOM     37  C   UNL     1       1.491  -8.486   5.972  1.00  0.00    -0.014 A 
BRANCH  37  38
ATOM     38  C   UNL     1       2.476  -9.412   6.576  1.00  0.00     0.031 A 
ATOM     39  C   UNL     1       2.269 -10.891   6.402  1.00  0.00     0.074 A 
ATOM     40  C   UNL     1       3.537  -8.942   7.254  1.00  0.00     0.049 A 
ATOM     41  N   UNL     1       2.938 -11.890   6.915  1.00  0.00    -0.248 NA
ATOM     42  C   UNL     1       1.148 -11.298   5.538  1.00  0.00     0.031 C 
ATOM     43  C   UNL     1       3.857  -7.529   7.451  1.00  0.00     0.029 A 
ATOM     44  N   UNL     1       4.534  -9.610   7.918  1.00  0.00    -0.354 N 
ATOM     45  C   UNL     1       2.304 -13.041   6.460  1.00  0.00     0.074 A 
ATOM     46  C   UNL     1       1.190 -12.618   5.640  1.00  0.00     0.031 C 
ATOM     47  C   UNL     1       4.963  -7.435   8.208  1.00  0.00     0.029 A 
ATOM     48  C   UNL     1       5.405  -8.778   8.576  1.00  0.00     0.049 A 
ATOM     49  H   UNL     1       4.616 -10.591   7.923  1.00  0.00     0.167 HD
ATOM     50  C   UNL     1       2.625 -14.332   6.707  1.00  0.00     0.037 A 
ATOM     51  C   UNL     1       6.422  -9.072   9.409  1.00  0.00     0.037 A 
ATOM     52  C   UNL     1       3.748 -14.740   7.509  1.00  0.00     0.049 A 
ATOM     53  C   UNL     1       6.740 -10.516   9.691  1.00  0.00     0.074 A 
ATOM     54  C   UNL     1       4.186 -16.022   7.792  1.00  0.00     0.029 A 
ATOM     55  N   UNL     1       4.608 -13.869   8.161  1.00  0.00    -0.354 N 
ATOM     56  N   UNL     1       6.147 -11.598   9.243  1.00  0.00    -0.248 NA
ATOM     57  C   UNL     1       7.869 -10.781  10.593  1.00  0.00     0.031 C 
ATOM     58  C   UNL     1       5.282 -15.926   8.656  1.00  0.00     0.029 A 
ATOM     59  C   UNL     1       5.559 -14.585   8.868  1.00  0.00     0.049 A 
ATOM     60  H   UNL     1       4.550 -12.887   8.126  1.00  0.00     0.167 HD
ATOM     61  C   UNL     1       6.841 -12.669   9.792  1.00  0.00     0.074 A 
ATOM     62  C   UNL     1       7.913 -12.106  10.587  1.00  0.00     0.031 C 
ATOM     63  C   UNL     1       6.612 -13.999   9.658  1.00  0.00     0.037 A 
BRANCH  50  64
ATOM     64  C   UNL     1       1.734 -15.395   6.134  1.00  0.00     0.057 A 
ATOM     65  C   UNL     1       1.709 -15.692   4.765  1.00  0.00     0.134 A 
ATOM     66  C   UNL     1       0.914 -16.160   6.974  1.00  0.00     0.134 A 
ATOM     67  F   UNL     1       2.455 -14.986   3.902  1.00  0.00    -0.206 F 
ATOM     68  C   UNL     1       0.890 -16.700   4.252  1.00  0.00     0.040 A 
ATOM     69  C   UNL     1       0.110 -17.187   6.476  1.00  0.00     0.040 A 
ATOM     70  F   UNL     1       0.888 -15.928   8.296  1.00  0.00    -0.206 F 
ATOM     71  C   UNL     1       0.094 -17.457   5.110  1.00  0.00     0.006 A 
ENDBRANCH  50  64
BRANCH  51  72
ATOM     72  C   UNL     1       7.192  -7.981  10.058  1.00  0.00     0.057 A 
ATOM     73  C   UNL     1       8.532  -7.740   9.735  1.00  0.00     0.134 A 
ATOM     74  C   UNL     1       6.607  -7.160  11.031  1.00  0.00     0.134 A 
ATOM     75  F   UNL     1       9.156  -8.508   8.829  1.00  0.00    -0.206 F 
ATOM     76  C   UNL     1       9.268  -6.735  10.366  1.00  0.00     0.040 A 
ATOM     77  C   UNL     1       7.322  -6.133  11.650  1.00  0.00     0.040 A 
ATOM     78  F   UNL     1       5.326  -7.337  11.386  1.00  0.00    -0.206 F 
ATOM     79  C   UNL     1       8.660  -5.924  11.323  1.00  0.00     0.006 A 
ENDBRANCH  51  72
BRANCH  63  80
ATOM     80  C   UNL     1       7.554 -14.925  10.371  1.00  0.00     0.057 A 
ATOM     81  C   UNL     1       7.538 -15.065  11.764  1.00  0.00     0.134 A 
ATOM     82  C   UNL     1       8.476 -15.697   9.653  1.00  0.00     0.134 A 
ATOM     83  F   UNL     1       6.686 -14.345  12.510  1.00  0.00    -0.206 F 
ATOM     84  C   UNL     1       8.429 -15.914  12.421  1.00  0.00     0.040 A 
ATOM     85  C   UNL     1       9.352 -16.571  10.296  1.00  0.00     0.040 A 
ATOM     86  F   UNL     1       8.534 -15.620   8.315  1.00  0.00    -0.206 F 
ATOM     87  C   UNL     1       9.337 -16.674  11.685  1.00  0.00     0.006 A 
ENDBRANCH  63  80
ENDBRANCH  37  38
ENDBRANCH  30  32
ENDBRANCH  29  30
ENDBRANCH  28  29
ENDBRANCH  27  28
ENDBRANCH  26  27
ENDBRANCH  25  26
ENDBRANCH  24  25
ENDBRANCH   1  24
TORSDOF 23
