REMARK SMILES O=C(CCc1cccnc1)Nc1ccsc1C(=O)OCCOCCOCCOC(=O)c1ccc(-c2c3nc(c(-c4c(F)cccc4F)c4ccc([nH]4)c(-c4c(F)cccc4F)c4nc(c(-c5c(F)cccc5F)c5ccc2[nH]5)C=C4)C=C3)cc1
REMARK SMILES IDX 23 1 22 2 21 3 20 4 19 5 17 6 18 7 16 8 12 9 13 10 14 11
REMARK SMILES IDX 15 12 11 13 1 14 2 15 3 17 4 18 5 19 6 20 10 21 7 22 9 23
REMARK SMILES IDX 8 24 24 25 25 26 26 27 27 28 28 29 29 30 30 31 31 32 32 33
REMARK SMILES IDX 84 34 33 35 83 36 34 37 35 38 36 39 77 40 37 41 82 42 76 43
REMARK SMILES IDX 78 44 38 45 81 46 75 47 74 48 39 50 65 51 48 52 64 53 49 54
REMARK SMILES IDX 52 55 63 56 79 57 50 58 51 59 62 61 80 62 53 63 40 64 41 65
REMARK SMILES IDX 46 66 42 67 43 68 45 69 47 70 44 71 66 72 67 73 72 74 68 75
REMARK SMILES IDX 69 76 71 77 73 78 70 79 54 80 55 81 60 82 56 83 57 84 59 85
REMARK SMILES IDX 61 86 58 87
REMARK H PARENT 11 16 78 49 52 60
REMARK Flexibility Score: inf
ROOT
ATOM      1  C   UNL     1       3.235  -0.154   5.427  1.00  0.00     0.188 C 
ENDROOT
BRANCH   1   2
ATOM      2  O   UNL     1       4.505   0.224   5.945  1.00  0.00    -0.376 OA
BRANCH   2   3
ATOM      3  C   UNL     1       5.619   0.227   5.054  1.00  0.00     0.202 C 
BRANCH   3   4
ATOM      4  C   UNL     1       5.876  -1.070   4.282  1.00  0.00     0.261 C 
BRANCH   4   5
ATOM      5  O   UNL     1       4.832  -1.338   3.325  1.00  0.00    -0.459 OA
BRANCH   5   6
ATOM      6  C   UNL     1       4.548  -2.670   3.171  1.00  0.00     0.350 C 
ATOM      7  O   UNL     1       5.270  -3.567   3.592  1.00  0.00    -0.245 OA
BRANCH   6   8
ATOM      8  C   UNL     1       3.225  -2.844   2.593  1.00  0.00     0.136 A 
ATOM      9  C   UNL     1       2.491  -2.098   1.677  1.00  0.00     0.066 A 
ATOM     10  C   UNL     1       1.189  -2.668   1.480  1.00  0.00     0.039 A 
ATOM     11  C   UNL     1       0.971  -3.797   2.232  1.00  0.00     0.068 A 
ATOM     12  S   UNL     1       2.332  -4.207   3.160  1.00  0.00    -0.135 S 
BRANCH   9  13
ATOM     13  N   UNL     1       2.993  -0.963   1.030  1.00  0.00    -0.325 N 
ATOM     14  O   UNL     1       1.077  -0.251  -0.066  1.00  0.00    -0.275 OA
ATOM     15  C   UNL     1       2.289  -0.178   0.136  1.00  0.00     0.224 C 
ATOM     16  H   UNL     1       3.921  -0.702   1.229  1.00  0.00     0.169 HD
BRANCH  15  17
ATOM     17  C   UNL     1       3.120   0.751  -0.743  1.00  0.00     0.105 C 
BRANCH  17  18
ATOM     18  C   UNL     1       4.245   1.538  -0.078  1.00  0.00     0.047 C 
BRANCH  18  19
ATOM     19  C   UNL     1       5.539   0.821   0.218  1.00  0.00    -0.029 A 
ATOM     20  C   UNL     1       6.472   1.437   1.061  1.00  0.00     0.007 A 
ATOM     21  C   UNL     1       5.889  -0.424  -0.299  1.00  0.00     0.114 A 
ATOM     22  C   UNL     1       7.660   0.789   1.381  1.00  0.00     0.020 A 
ATOM     23  N   UNL     1       7.019  -1.090   0.023  1.00  0.00    -0.264 NA
ATOM     24  C   UNL     1       7.880  -0.470   0.854  1.00  0.00     0.111 A 
ENDBRANCH  18  19
ENDBRANCH  17  18
ENDBRANCH  15  17
ENDBRANCH   9  13
ENDBRANCH   6   8
ENDBRANCH   5   6
ENDBRANCH   4   5
ENDBRANCH   3   4
ENDBRANCH   2   3
ENDBRANCH   1   2
BRANCH   1  25
ATOM     25  C   UNL     1       2.670   0.630   4.228  1.00  0.00     0.188 C 
BRANCH  25  26
ATOM     26  O   UNL     1       3.505   1.666   3.727  1.00  0.00    -0.376 OA
BRANCH  26  27
ATOM     27  C   UNL     1       2.971   2.981   3.874  1.00  0.00     0.202 C 
BRANCH  27  28
ATOM     28  C   UNL     1       3.072   3.531   5.304  1.00  0.00     0.261 C 
BRANCH  28  29
ATOM     29  O   UNL     1       2.333   2.777   6.278  1.00  0.00    -0.460 OA
BRANCH  29  30
ATOM     30  C   UNL     1       0.988   2.771   6.142  1.00  0.00     0.338 C 
ATOM     31  O   UNL     1       0.329   3.383   5.321  1.00  0.00    -0.246 OA
BRANCH  30  32
ATOM     32  C   UNL     1       0.448   1.724   7.032  1.00  0.00     0.060 A 
ATOM     33  C   UNL     1      -0.406   0.757   6.487  1.00  0.00     0.016 A 
ATOM     34  C   UNL     1       0.788   1.690   8.388  1.00  0.00     0.016 A 
ATOM     35  C   UNL     1      -0.955  -0.227   7.309  1.00  0.00     0.010 A 
ATOM     36  C   UNL     1       0.219   0.720   9.214  1.00  0.00     0.010 A 
ATOM     37  C   UNL     1      -0.683  -0.218   8.684  1.00  0.00    -0.014 A 
BRANCH  37  38
ATOM     38  C   UNL     1      -1.529  -1.024   9.595  1.00  0.00     0.031 A 
ATOM     39  C   UNL     1      -2.793  -0.396  10.115  1.00  0.00     0.074 A 
ATOM     40  C   UNL     1      -1.201  -2.279   9.946  1.00  0.00     0.049 A 
ATOM     41  N   UNL     1      -3.708  -0.897  10.903  1.00  0.00    -0.248 NA
ATOM     42  C   UNL     1      -3.058   0.987   9.684  1.00  0.00     0.031 C 
ATOM     43  C   UNL     1      -0.013  -3.003   9.502  1.00  0.00     0.029 A 
ATOM     44  N   UNL     1      -1.850  -3.163  10.770  1.00  0.00    -0.354 N 
ATOM     45  C   UNL     1      -4.661   0.102  11.051  1.00  0.00     0.074 A 
ATOM     46  C   UNL     1      -4.199   1.250  10.301  1.00  0.00     0.031 C 
ATOM     47  C   UNL     1      -0.012  -4.224  10.069  1.00  0.00     0.029 A 
ATOM     48  C   UNL     1      -1.192  -4.358  10.923  1.00  0.00     0.049 A 
ATOM     49  H   UNL     1      -2.706  -2.960  11.211  1.00  0.00     0.167 HD
ATOM     50  C   UNL     1      -5.824   0.068  11.741  1.00  0.00     0.037 A 
ATOM     51  C   UNL     1      -1.510  -5.432  11.672  1.00  0.00     0.037 A 
ATOM     52  C   UNL     1      -6.277  -1.058  12.508  1.00  0.00     0.049 A 
ATOM     53  C   UNL     1      -2.784  -5.427  12.478  1.00  0.00     0.074 A 
ATOM     54  C   UNL     1      -7.441  -1.189  13.244  1.00  0.00     0.029 A 
ATOM     55  N   UNL     1      -5.577  -2.246  12.645  1.00  0.00    -0.354 N 
ATOM     56  N   UNL     1      -3.701  -4.495  12.574  1.00  0.00    -0.248 NA
ATOM     57  C   UNL     1      -3.070  -6.632  13.272  1.00  0.00     0.031 C 
ATOM     58  C   UNL     1      -7.430  -2.448  13.856  1.00  0.00     0.029 A 
ATOM     59  C   UNL     1      -6.277  -3.112  13.467  1.00  0.00     0.049 A 
ATOM     60  H   UNL     1      -4.712  -2.445  12.221  1.00  0.00     0.167 HD
ATOM     61  C   UNL     1      -4.685  -5.011  13.409  1.00  0.00     0.074 A 
ATOM     62  C   UNL     1      -4.256  -6.340  13.790  1.00  0.00     0.031 C 
ATOM     63  C   UNL     1      -5.842  -4.438  13.821  1.00  0.00     0.037 A 
BRANCH  50  64
ATOM     64  C   UNL     1      -6.670   1.302  11.704  1.00  0.00     0.057 A 
ATOM     65  C   UNL     1      -7.403   1.654  10.563  1.00  0.00     0.134 A 
ATOM     66  C   UNL     1      -6.752   2.148  12.816  1.00  0.00     0.134 A 
ATOM     67  F   UNL     1      -7.347   0.895   9.458  1.00  0.00    -0.206 F 
ATOM     68  C   UNL     1      -8.174   2.817  10.523  1.00  0.00     0.040 A 
ATOM     69  C   UNL     1      -7.535   3.303  12.795  1.00  0.00     0.040 A 
ATOM     70  F   UNL     1      -6.070   1.868  13.936  1.00  0.00    -0.206 F 
ATOM     71  C   UNL     1      -8.244   3.642  11.644  1.00  0.00     0.006 A 
ENDBRANCH  50  64
BRANCH  51  72
ATOM     72  C   UNL     1      -0.614  -6.614  11.699  1.00  0.00     0.057 A 
ATOM     73  C   UNL     1      -0.984  -7.817  11.087  1.00  0.00     0.134 A 
ATOM     74  C   UNL     1       0.614  -6.580  12.369  1.00  0.00     0.134 A 
ATOM     75  F   UNL     1      -2.162  -7.918  10.454  1.00  0.00    -0.206 F 
ATOM     76  C   UNL     1      -0.172  -8.951  11.156  1.00  0.00     0.040 A 
ATOM     77  C   UNL     1       1.445  -7.700  12.428  1.00  0.00     0.040 A 
ATOM     78  F   UNL     1       1.022  -5.457  12.979  1.00  0.00    -0.206 F 
ATOM     79  C   UNL     1       1.049  -8.893  11.825  1.00  0.00     0.006 A 
ENDBRANCH  51  72
BRANCH  63  80
ATOM     80  C   UNL     1      -6.747  -5.257  14.692  1.00  0.00     0.057 A 
ATOM     81  C   UNL     1      -6.462  -5.489  16.043  1.00  0.00     0.134 A 
ATOM     82  C   UNL     1      -7.942  -5.779  14.181  1.00  0.00     0.134 A 
ATOM     83  F   UNL     1      -5.328  -5.024  16.588  1.00  0.00    -0.206 F 
ATOM     84  C   UNL     1      -7.328  -6.226  16.852  1.00  0.00     0.040 A 
ATOM     85  C   UNL     1      -8.826  -6.499  14.986  1.00  0.00     0.040 A 
ATOM     86  F   UNL     1      -8.277  -5.583  12.897  1.00  0.00    -0.206 F 
ATOM     87  C   UNL     1      -8.517  -6.728  16.325  1.00  0.00     0.006 A 
ENDBRANCH  63  80
ENDBRANCH  37  38
ENDBRANCH  30  32
ENDBRANCH  29  30
ENDBRANCH  28  29
ENDBRANCH  27  28
ENDBRANCH  26  27
ENDBRANCH  25  26
ENDBRANCH   1  25
TORSDOF 21
