REMARK SMILES O=C(CC1(CC(=O)OCCOCCOCCOC(=O)c2ccc(-c3c4nc(c(-c5c(F)cccc5F)c5ccc([nH]5)c(-c5c(F)cccc5F)c5nc(c(-c6c(F)cccc6F)c6ccc3[nH]6)C=C5)C=C4)cc2)CCCC1)NNc1ccc([N+](=O)[O-])cc1
REMARK SMILES IDX 10 1 9 2 8 3 6 4 7 5 5 6 4 7 74 8 77 9 75 10 76 11 3 12 2 13
REMARK SMILES IDX 1 14 78 15 79 17 80 19 81 20 88 21 82 22 87 23 83 24 84 25
REMARK SMILES IDX 85 26 86 27 11 28 12 29 13 30 14 31 15 32 16 33 17 34 18 35
REMARK SMILES IDX 19 36 20 37 21 38 73 39 22 40 72 41 23 42 24 43 25 44 66 45
REMARK SMILES IDX 26 46 71 47 65 48 67 49 27 50 70 51 64 52 63 53 28 55 54 56
REMARK SMILES IDX 37 57 53 58 38 59 41 60 52 61 68 62 39 63 40 64 51 66 69 67
REMARK SMILES IDX 42 68 29 69 30 70 35 71 31 72 32 73 34 74 36 75 33 76 55 77
REMARK SMILES IDX 56 78 61 79 57 80 58 81 60 82 62 83 59 84 43 85 44 86 49 87
REMARK SMILES IDX 45 88 46 89 48 90 50 91 47 92
REMARK H PARENT 78 16 79 18 67 54 41 65
REMARK Flexibility Score: inf
ROOT
ATOM      1  C   UNL     1       6.575   2.565   0.207  1.00  0.00     0.202 C 
ENDROOT
BRANCH   1   2
ATOM      2  C   UNL     1       6.864   1.368  -0.708  1.00  0.00     0.261 C 
BRANCH   2   3
ATOM      3  O   UNL     1       5.819   0.367  -0.640  1.00  0.00    -0.463 OA
BRANCH   3   4
ATOM      4  C   UNL     1       6.264  -0.909  -0.805  1.00  0.00     0.306 C 
ATOM      5  O   UNL     1       7.423  -1.210  -1.068  1.00  0.00    -0.252 OA
BRANCH   4   6
ATOM      6  C   UNL     1       5.217  -1.957  -0.487  1.00  0.00     0.130 C 
BRANCH   6   7
ATOM      7  C   UNL     1       3.858  -1.935  -1.247  1.00  0.00    -0.010 C 
ATOM      8  C   UNL     1       3.425  -3.402  -1.510  1.00  0.00     0.008 C 
ATOM      9  C   UNL     1       3.964  -1.435  -2.702  1.00  0.00     0.008 C 
ATOM     10  C   UNL     1       4.237  -3.856  -2.722  1.00  0.00     0.001 C 
ATOM     11  C   UNL     1       4.559  -2.588  -3.505  1.00  0.00     0.001 C 
BRANCH   7  12
ATOM     12  C   UNL     1       2.775  -1.241  -0.376  1.00  0.00     0.109 C 
BRANCH  12  13
ATOM     13  C   UNL     1       1.926  -0.206  -1.087  1.00  0.00     0.238 C 
ATOM     14  O   UNL     1       0.818  -0.463  -1.551  1.00  0.00    -0.273 OA
ATOM     15  N   UNL     1       2.561   1.016  -1.190  1.00  0.00    -0.270 N 
ATOM     16  H   UNL     1       3.473   1.140  -0.840  1.00  0.00     0.191 HD
BRANCH  15  17
ATOM     17  N   UNL     1       1.887   2.063  -1.796  1.00  0.00    -0.299 N 
ATOM     18  H   UNL     1       0.909   2.053  -1.909  1.00  0.00     0.188 HD
BRANCH  17  19
ATOM     19  C   UNL     1       2.665   3.132  -2.237  1.00  0.00     0.055 A 
ATOM     20  C   UNL     1       2.251   4.444  -1.976  1.00  0.00     0.034 A 
ATOM     21  C   UNL     1       3.909   2.930  -2.853  1.00  0.00     0.034 A 
ATOM     22  C   UNL     1       3.070   5.533  -2.297  1.00  0.00     0.088 A 
ATOM     23  C   UNL     1       4.728   4.006  -3.202  1.00  0.00     0.088 A 
ATOM     24  C   UNL     1       4.309   5.307  -2.908  1.00  0.00     0.269 A 
BRANCH  24  25
ATOM     25  N   UNL     1       5.185   6.441  -3.224  1.00  0.00     0.062 N 
ATOM     26  O   UNL     1       4.811   7.571  -2.877  1.00  0.00    -0.258 OA
ATOM     27  O   UNL     1       6.253   6.200  -3.803  1.00  0.00    -0.258 OA
ENDBRANCH  24  25
ENDBRANCH  17  19
ENDBRANCH  15  17
ENDBRANCH  12  13
ENDBRANCH   7  12
ENDBRANCH   6   7
ENDBRANCH   4   6
ENDBRANCH   3   4
ENDBRANCH   2   3
ENDBRANCH   1   2
BRANCH   1  28
ATOM     28  O   UNL     1       6.720   2.343   1.615  1.00  0.00    -0.376 OA
BRANCH  28  29
ATOM     29  C   UNL     1       6.050   1.216   2.162  1.00  0.00     0.188 C 
BRANCH  29  30
ATOM     30  C   UNL     1       4.529   1.331   2.280  1.00  0.00     0.188 C 
BRANCH  30  31
ATOM     31  O   UNL     1       3.884   1.952   1.166  1.00  0.00    -0.376 OA
BRANCH  31  32
ATOM     32  C   UNL     1       3.396   3.272   1.474  1.00  0.00     0.202 C 
BRANCH  32  33
ATOM     33  C   UNL     1       1.908   3.261   1.835  1.00  0.00     0.261 C 
BRANCH  33  34
ATOM     34  O   UNL     1       1.708   2.473   3.017  1.00  0.00    -0.460 OA
BRANCH  34  35
ATOM     35  C   UNL     1       1.337   1.186   2.783  1.00  0.00     0.338 C 
ATOM     36  O   UNL     1       0.941   0.715   1.742  1.00  0.00    -0.246 OA
BRANCH  35  37
ATOM     37  C   UNL     1       1.703   0.362   3.960  1.00  0.00     0.060 A 
ATOM     38  C   UNL     1       2.026  -0.983   3.729  1.00  0.00     0.016 A 
ATOM     39  C   UNL     1       1.788   0.897   5.248  1.00  0.00     0.016 A 
ATOM     40  C   UNL     1       2.401  -1.805   4.787  1.00  0.00     0.010 A 
ATOM     41  C   UNL     1       2.163   0.075   6.309  1.00  0.00     0.010 A 
ATOM     42  C   UNL     1       2.437  -1.285   6.086  1.00  0.00    -0.014 A 
BRANCH  42  43
ATOM     43  C   UNL     1       2.559  -2.199   7.241  1.00  0.00     0.031 A 
ATOM     44  C   UNL     1       1.304  -2.566   7.979  1.00  0.00     0.074 A 
ATOM     45  C   UNL     1       3.752  -2.688   7.618  1.00  0.00     0.049 A 
ATOM     46  N   UNL     1       1.157  -3.259   9.077  1.00  0.00    -0.248 NA
ATOM     47  C   UNL     1       0.041  -2.073   7.402  1.00  0.00     0.031 C 
ATOM     48  C   UNL     1       5.024  -2.432   6.945  1.00  0.00     0.029 A 
ATOM     49  N   UNL     1       4.084  -3.496   8.674  1.00  0.00    -0.354 N 
ATOM     50  C   UNL     1      -0.208  -3.269   9.331  1.00  0.00     0.074 A 
ATOM     51  C   UNL     1      -0.844  -2.490   8.293  1.00  0.00     0.031 C 
ATOM     52  C   UNL     1       6.005  -3.062   7.616  1.00  0.00     0.029 A 
ATOM     53  C   UNL     1       5.432  -3.730   8.783  1.00  0.00     0.049 A 
ATOM     54  H   UNL     1       3.419  -3.872   9.295  1.00  0.00     0.167 HD
ATOM     55  C   UNL     1      -0.872  -3.881  10.339  1.00  0.00     0.037 A 
ATOM     56  C   UNL     1       6.120  -4.386   9.737  1.00  0.00     0.037 A 
ATOM     57  C   UNL     1      -0.227  -4.658  11.362  1.00  0.00     0.049 A 
ATOM     58  C   UNL     1       5.367  -5.005  10.885  1.00  0.00     0.074 A 
ATOM     59  C   UNL     1      -0.800  -5.331  12.425  1.00  0.00     0.029 A 
ATOM     60  N   UNL     1       1.143  -4.861  11.448  1.00  0.00    -0.354 N 
ATOM     61  N   UNL     1       4.075  -5.018  11.117  1.00  0.00    -0.248 NA
ATOM     62  C   UNL     1       6.165  -5.702  11.903  1.00  0.00     0.031 C 
ATOM     63  C   UNL     1       0.228  -5.902  13.182  1.00  0.00     0.029 A 
ATOM     64  C   UNL     1       1.437  -5.632  12.559  1.00  0.00     0.049 A 
ATOM     65  H   UNL     1       1.808  -4.508  10.813  1.00  0.00     0.167 HD
ATOM     66  C   UNL     1       3.904  -5.748  12.287  1.00  0.00     0.074 A 
ATOM     67  C   UNL     1       5.223  -6.169  12.710  1.00  0.00     0.031 C 
ATOM     68  C   UNL     1       2.760  -6.047  12.951  1.00  0.00     0.037 A 
BRANCH  55  69
ATOM     69  C   UNL     1      -2.360  -3.703  10.393  1.00  0.00     0.057 A 
ATOM     70  C   UNL     1      -3.216  -4.296   9.455  1.00  0.00     0.134 A 
ATOM     71  C   UNL     1      -2.947  -2.931  11.404  1.00  0.00     0.134 A 
ATOM     72  F   UNL     1      -2.717  -5.029   8.448  1.00  0.00    -0.206 F 
ATOM     73  C   UNL     1      -4.598  -4.108   9.505  1.00  0.00     0.040 A 
ATOM     74  C   UNL     1      -4.330  -2.759  11.481  1.00  0.00     0.040 A 
ATOM     75  F   UNL     1      -2.187  -2.333  12.333  1.00  0.00    -0.206 F 
ATOM     76  C   UNL     1      -5.159  -3.342  10.526  1.00  0.00     0.006 A 
ENDBRANCH  55  69
BRANCH  56  77
ATOM     77  C   UNL     1       7.601  -4.478   9.659  1.00  0.00     0.057 A 
ATOM     78  C   UNL     1       8.241  -5.701   9.426  1.00  0.00     0.134 A 
ATOM     79  C   UNL     1       8.413  -3.350   9.833  1.00  0.00     0.134 A 
ATOM     80  F   UNL     1       7.520  -6.821   9.274  1.00  0.00    -0.206 F 
ATOM     81  C   UNL     1       9.633  -5.803   9.385  1.00  0.00     0.040 A 
ATOM     82  C   UNL     1       9.805  -3.433   9.768  1.00  0.00     0.040 A 
ATOM     83  F   UNL     1       7.863  -2.148  10.057  1.00  0.00    -0.206 F 
ATOM     84  C   UNL     1      10.419  -4.664   9.551  1.00  0.00     0.006 A 
ENDBRANCH  56  77
BRANCH  68  85
ATOM     85  C   UNL     1       2.881  -6.906  14.176  1.00  0.00     0.057 A 
ATOM     86  C   UNL     1       3.417  -6.418  15.374  1.00  0.00     0.134 A 
ATOM     87  C   UNL     1       2.408  -8.224  14.167  1.00  0.00     0.134 A 
ATOM     88  F   UNL     1       3.897  -5.168  15.446  1.00  0.00    -0.206 F 
ATOM     89  C   UNL     1       3.499  -7.221  16.514  1.00  0.00     0.040 A 
ATOM     90  C   UNL     1       2.458  -9.026  15.307  1.00  0.00     0.040 A 
ATOM     91  F   UNL     1       1.871  -8.748  13.054  1.00  0.00    -0.206 F 
ATOM     92  C   UNL     1       3.012  -8.526  16.483  1.00  0.00     0.006 A 
ENDBRANCH  68  85
ENDBRANCH  42  43
ENDBRANCH  35  37
ENDBRANCH  34  35
ENDBRANCH  33  34
ENDBRANCH  32  33
ENDBRANCH  31  32
ENDBRANCH  30  31
ENDBRANCH  29  30
ENDBRANCH  28  29
ENDBRANCH   1  28
TORSDOF 23
