REMARK SMILES CCCCCC[C@@H](C)N1C[C@H](C(=O)OCCOCCOCCOC(=O)c2ccc(-c3c4nc(c(-c5c(F)cccc5F)c5ccc([nH]5)c(-c5c(F)cccc5F)c5nc(c(-c6c(F)cccc6F)c6ccc3[nH]6)C=C5)C=C4)cc2)CC1=O
REMARK SMILES IDX 16 1 15 2 14 3 12 4 13 5 11 6 9 7 10 8 81 9 80 10 82 11 7 12
REMARK SMILES IDX 8 13 6 14 5 15 4 16 3 17 2 18 1 19 17 20 18 21 19 22 20 23
REMARK SMILES IDX 21 24 22 25 23 26 24 27 25 28 26 29 27 30 79 31 28 32 78 33
REMARK SMILES IDX 29 34 30 35 31 36 72 37 32 38 77 39 71 40 73 41 33 42 76 43
REMARK SMILES IDX 70 44 69 45 34 47 60 48 43 49 59 50 44 51 47 52 58 53 74 54
REMARK SMILES IDX 45 55 46 56 57 58 75 59 48 60 35 61 36 62 41 63 37 64 38 65
REMARK SMILES IDX 40 66 42 67 39 68 61 69 62 70 67 71 63 72 64 73 66 74 68 75
REMARK SMILES IDX 65 76 49 77 50 78 55 79 51 80 52 81 54 82 56 83 53 84
REMARK H PARENT 73 46 47 57
REMARK Flexibility Score: inf
ROOT
ATOM      1  C   UNL     1       2.117  -5.405  -8.812  1.00  0.00     0.202 C 
ENDROOT
BRANCH   1   2
ATOM      2  C   UNL     1       1.923  -4.999  -7.344  1.00  0.00     0.261 C 
BRANCH   2   3
ATOM      3  O   UNL     1       0.592  -5.171  -6.846  1.00  0.00    -0.463 OA
BRANCH   3   4
ATOM      4  C   UNL     1      -0.122  -4.025  -6.648  1.00  0.00     0.311 C 
ATOM      5  O   UNL     1       0.326  -2.893  -6.751  1.00  0.00    -0.252 OA
BRANCH   4   6
ATOM      6  C   UNL     1      -1.581  -4.364  -6.389  1.00  0.00     0.128 C 
ATOM      7  N   UNL     1      -1.891  -3.858  -4.157  1.00  0.00    -0.339 N 
ATOM      8  C   UNL     1      -1.728  -4.995  -5.033  1.00  0.00     0.135 C 
ATOM      9  C   UNL     1      -2.311  -2.728  -4.873  1.00  0.00     0.223 C 
ATOM     10  C   UNL     1      -2.454  -3.128  -6.318  1.00  0.00     0.117 C 
ATOM     11  O   UNL     1      -2.557  -1.614  -4.468  1.00  0.00    -0.275 OA
BRANCH   7  12
ATOM     12  C   UNL     1      -1.309  -3.875  -2.806  1.00  0.00     0.082 C 
ATOM     13  C   UNL     1      -1.640  -5.186  -2.077  1.00  0.00     0.031 C 
BRANCH  12  14
ATOM     14  C   UNL     1      -1.683  -2.656  -1.945  1.00  0.00     0.025 C 
BRANCH  14  15
ATOM     15  C   UNL     1      -0.914  -2.538  -0.627  1.00  0.00     0.002 C 
BRANCH  15  16
ATOM     16  C   UNL     1       0.611  -2.478  -0.786  1.00  0.00     0.000 C 
BRANCH  16  17
ATOM     17  C   UNL     1       1.136  -1.337  -1.668  1.00  0.00    -0.000 C 
BRANCH  17  18
ATOM     18  C   UNL     1       0.702   0.068  -1.244  1.00  0.00    -0.003 C 
ATOM     19  C   UNL     1       1.087   0.412   0.185  1.00  0.00     0.004 C 
ENDBRANCH  17  18
ENDBRANCH  16  17
ENDBRANCH  15  16
ENDBRANCH  14  15
ENDBRANCH  12  14
ENDBRANCH   7  12
ENDBRANCH   4   6
ENDBRANCH   3   4
ENDBRANCH   2   3
ENDBRANCH   1   2
BRANCH   1  20
ATOM     20  O   UNL     1       1.113  -5.179  -9.787  1.00  0.00    -0.376 OA
BRANCH  20  21
ATOM     21  C   UNL     1      -0.245  -5.473  -9.515  1.00  0.00     0.188 C 
BRANCH  21  22
ATOM     22  C   UNL     1      -0.666  -6.831  -8.905  1.00  0.00     0.188 C 
BRANCH  22  23
ATOM     23  O   UNL     1       0.357  -7.736  -8.586  1.00  0.00    -0.376 OA
BRANCH  23  24
ATOM     24  C   UNL     1       0.895  -8.577  -9.588  1.00  0.00     0.202 C 
BRANCH  24  25
ATOM     25  C   UNL     1       0.451  -8.626 -11.065  1.00  0.00     0.261 C 
BRANCH  25  26
ATOM     26  O   UNL     1      -0.338  -7.548 -11.586  1.00  0.00    -0.460 OA
BRANCH  26  27
ATOM     27  C   UNL     1      -1.644  -7.834 -11.828  1.00  0.00     0.338 C 
ATOM     28  O   UNL     1      -2.219  -8.887 -11.612  1.00  0.00    -0.246 OA
BRANCH  27  29
ATOM     29  C   UNL     1      -2.355  -6.602 -12.228  1.00  0.00     0.060 A 
ATOM     30  C   UNL     1      -3.331  -6.074 -11.370  1.00  0.00     0.016 A 
ATOM     31  C   UNL     1      -2.096  -5.997 -13.458  1.00  0.00     0.016 A 
ATOM     32  C   UNL     1      -4.067  -4.948 -11.749  1.00  0.00     0.010 A 
ATOM     33  C   UNL     1      -2.852  -4.885 -13.847  1.00  0.00     0.010 A 
ATOM     34  C   UNL     1      -3.860  -4.370 -13.009  1.00  0.00    -0.014 A 
BRANCH  34  35
ATOM     35  C   UNL     1      -4.809  -3.354 -13.534  1.00  0.00     0.031 A 
ATOM     36  C   UNL     1      -5.894  -3.805 -14.475  1.00  0.00     0.074 A 
ATOM     37  C   UNL     1      -4.720  -2.056 -13.190  1.00  0.00     0.049 A 
ATOM     38  N   UNL     1      -6.766  -3.095 -15.145  1.00  0.00    -0.248 NA
ATOM     39  C   UNL     1      -6.008  -5.257 -14.689  1.00  0.00     0.031 C 
ATOM     40  C   UNL     1      -3.753  -1.490 -12.252  1.00  0.00     0.029 A 
ATOM     41  N   UNL     1      -5.453  -0.973 -13.613  1.00  0.00    -0.354 N 
ATOM     42  C   UNL     1      -7.530  -4.012 -15.857  1.00  0.00     0.074 A 
ATOM     43  C   UNL     1      -6.996  -5.325 -15.568  1.00  0.00     0.031 C 
ATOM     44  C   UNL     1      -3.936  -0.159 -12.190  1.00  0.00     0.029 A 
ATOM     45  C   UNL     1      -5.005   0.226 -13.110  1.00  0.00     0.049 A 
ATOM     46  H   UNL     1      -6.225  -1.048 -14.219  1.00  0.00     0.167 HD
ATOM     47  C   UNL     1      -8.588  -3.784 -16.671  1.00  0.00     0.037 A 
ATOM     48  C   UNL     1      -5.392   1.487 -13.389  1.00  0.00     0.037 A 
ATOM     49  C   UNL     1      -9.114  -2.478 -16.974  1.00  0.00     0.049 A 
ATOM     50  C   UNL     1      -6.505   1.722 -14.381  1.00  0.00     0.074 A 
ATOM     51  C   UNL     1     -10.172  -2.146 -17.802  1.00  0.00     0.029 A 
ATOM     52  N   UNL     1      -8.617  -1.290 -16.463  1.00  0.00    -0.354 N 
ATOM     53  N   UNL     1      -7.226   0.850 -15.045  1.00  0.00    -0.248 NA
ATOM     54  C   UNL     1      -6.860   3.123 -14.662  1.00  0.00     0.031 C 
ATOM     55  C   UNL     1     -10.287  -0.752 -17.828  1.00  0.00     0.029 A 
ATOM     56  C   UNL     1      -9.337  -0.221 -16.971  1.00  0.00     0.049 A 
ATOM     57  H   UNL     1      -7.864  -1.216 -15.833  1.00  0.00     0.167 HD
ATOM     58  C   UNL     1      -8.139   1.593 -15.786  1.00  0.00     0.074 A 
ATOM     59  C   UNL     1      -7.892   2.985 -15.482  1.00  0.00     0.031 C 
ATOM     60  C   UNL     1      -9.097   1.161 -16.642  1.00  0.00     0.037 A 
BRANCH  47  61
ATOM     61  C   UNL     1      -9.244  -4.976 -17.303  1.00  0.00     0.057 A 
ATOM     62  C   UNL     1     -10.013  -5.876 -16.554  1.00  0.00     0.134 A 
ATOM     63  C   UNL     1      -9.141  -5.205 -18.681  1.00  0.00     0.134 A 
ATOM     64  F   UNL     1     -10.140  -5.723 -15.227  1.00  0.00    -0.206 F 
ATOM     65  C   UNL     1     -10.641  -6.971 -17.150  1.00  0.00     0.040 A 
ATOM     66  C   UNL     1      -9.787  -6.281 -19.292  1.00  0.00     0.040 A 
ATOM     67  F   UNL     1      -8.423  -4.380 -19.457  1.00  0.00    -0.206 F 
ATOM     68  C   UNL     1     -10.536  -7.171 -18.525  1.00  0.00     0.006 A 
ENDBRANCH  47  61
BRANCH  48  69
ATOM     69  C   UNL     1      -4.707   2.646 -12.756  1.00  0.00     0.057 A 
ATOM     70  C   UNL     1      -5.385   3.503 -11.880  1.00  0.00     0.134 A 
ATOM     71  C   UNL     1      -3.379   2.966 -13.067  1.00  0.00     0.134 A 
ATOM     72  F   UNL     1      -6.667   3.270 -11.566  1.00  0.00    -0.206 F 
ATOM     73  C   UNL     1      -4.781   4.652 -11.365  1.00  0.00     0.040 A 
ATOM     74  C   UNL     1      -2.753   4.094 -12.534  1.00  0.00     0.040 A 
ATOM     75  F   UNL     1      -2.673   2.191 -13.903  1.00  0.00    -0.206 F 
ATOM     76  C   UNL     1      -3.459   4.948 -11.690  1.00  0.00     0.006 A 
ENDBRANCH  48  69
BRANCH  60  77
ATOM     77  C   UNL     1      -9.991   2.196 -17.266  1.00  0.00     0.057 A 
ATOM     78  C   UNL     1      -9.532   3.085 -18.246  1.00  0.00     0.134 A 
ATOM     79  C   UNL     1     -11.345   2.273 -16.909  1.00  0.00     0.134 A 
ATOM     80  F   UNL     1      -8.246   3.072 -18.628  1.00  0.00    -0.206 F 
ATOM     81  C   UNL     1     -10.379   4.031 -18.828  1.00  0.00     0.040 A 
ATOM     82  C   UNL     1     -12.208   3.194 -17.505  1.00  0.00     0.040 A 
ATOM     83  F   UNL     1     -11.854   1.443 -15.986  1.00  0.00    -0.206 F 
ATOM     84  C   UNL     1     -11.723   4.082 -18.462  1.00  0.00     0.006 A 
ENDBRANCH  60  77
ENDBRANCH  34  35
ENDBRANCH  27  29
ENDBRANCH  26  27
ENDBRANCH  25  26
ENDBRANCH  24  25
ENDBRANCH  23  24
ENDBRANCH  22  23
ENDBRANCH  21  22
ENDBRANCH  20  21
ENDBRANCH   1  20
TORSDOF 23
