REMARK SMILES O=C(Cc1cn2ccsc2n1)N[C@@H]1C=C[C@H](C(=O)OCCOCCOCCOC(=O)c2ccc(-c3c4nc(c(-c5c(F)cccc5F)c5ccc([nH]5)c(-c5c(F)cccc5F)c5nc(c(-c6c(F)cccc6F)c6ccc3[nH]6)C=C5)C=C4)cc2)C1
REMARK SMILES IDX 23 1 22 2 21 3 20 4 19 5 17 6 18 7 16 8 13 9 14 10 85 11
REMARK SMILES IDX 15 12 12 13 1 14 2 15 3 17 4 18 5 19 11 20 6 21 10 22 7 23
REMARK SMILES IDX 9 24 8 25 24 26 25 27 26 28 27 29 28 30 29 31 30 32 31 33
REMARK SMILES IDX 32 34 84 35 33 36 83 37 34 38 35 39 36 40 77 41 37 42 82 43
REMARK SMILES IDX 76 44 78 45 38 46 81 47 75 48 74 49 39 51 65 52 48 53 64 54
REMARK SMILES IDX 49 55 52 56 63 57 79 58 50 59 51 60 62 62 80 63 53 64 40 65
REMARK SMILES IDX 41 66 46 67 42 68 43 69 45 70 47 71 44 72 66 73 67 74 72 75
REMARK SMILES IDX 68 76 69 77 71 78 73 79 70 80 54 81 55 82 60 83 56 84 57 85
REMARK SMILES IDX 59 86 61 87 58 88
REMARK H PARENT 12 16 78 50 52 61
REMARK Flexibility Score: inf
ROOT
ATOM      1  C   UNL     1      -0.499   5.581   0.407  1.00  0.00     0.188 C 
ENDROOT
BRANCH   1   2
ATOM      2  O   UNL     1      -1.422   6.579   0.742  1.00  0.00    -0.376 OA
BRANCH   2   3
ATOM      3  C   UNL     1      -1.151   7.367   1.882  1.00  0.00     0.202 C 
BRANCH   3   4
ATOM      4  C   UNL     1       0.269   7.557   2.465  1.00  0.00     0.261 C 
BRANCH   4   5
ATOM      5  O   UNL     1       1.281   6.590   2.116  1.00  0.00    -0.463 OA
BRANCH   5   6
ATOM      6  C   UNL     1       1.636   5.638   3.025  1.00  0.00     0.312 C 
ATOM      7  O   UNL     1       1.225   5.632   4.179  1.00  0.00    -0.252 OA
BRANCH   6   8
ATOM      8  C   UNL     1       2.727   4.690   2.451  1.00  0.00     0.124 C 
ATOM      9  C   UNL     1       2.229   2.328   1.802  1.00  0.00     0.106 C 
ATOM     10  C   UNL     1       2.739   2.434   3.194  1.00  0.00    -0.006 C 
ATOM     11  C   UNL     1       2.410   3.757   1.263  1.00  0.00     0.048 C 
ATOM     12  C   UNL     1       3.099   3.687   3.506  1.00  0.00    -0.014 C 
BRANCH   9  13
ATOM     13  N   UNL     1       0.884   1.773   1.632  1.00  0.00    -0.350 N 
ATOM     14  O   UNL     1      -0.310   3.360   2.663  1.00  0.00    -0.275 OA
ATOM     15  C   UNL     1      -0.290   2.442   1.836  1.00  0.00     0.226 C 
ATOM     16  H   UNL     1       0.821   0.833   1.345  1.00  0.00     0.164 HD
BRANCH  15  17
ATOM     17  C   UNL     1      -1.619   2.100   1.127  1.00  0.00     0.157 C 
BRANCH  17  18
ATOM     18  C   UNL     1      -1.877   1.134  -0.036  1.00  0.00     0.070 A 
ATOM     19  C   UNL     1      -3.108  -0.224   0.090  1.00  0.00     0.118 A 
ATOM     20  N   UNL     1      -1.382   0.989  -2.058  1.00  0.00    -0.223 NA
ATOM     21  N   UNL     1      -3.262  -1.017  -1.564  1.00  0.00    -0.297 N 
ATOM     22  C   UNL     1      -2.206  -0.275  -2.800  1.00  0.00     0.193 A 
ATOM     23  C   UNL     1      -4.180  -1.805  -2.249  1.00  0.00     0.104 A 
ATOM     24  S   UNL     1      -2.794  -0.707  -4.358  1.00  0.00    -0.105 S 
ATOM     25  C   UNL     1      -4.042  -1.762  -3.603  1.00  0.00     0.087 A 
ENDBRANCH  17  18
ENDBRANCH  15  17
ENDBRANCH   9  13
ENDBRANCH   6   8
ENDBRANCH   5   6
ENDBRANCH   4   5
ENDBRANCH   3   4
ENDBRANCH   2   3
ENDBRANCH   1   2
BRANCH   1  26
ATOM     26  C   UNL     1       0.624   6.004  -0.570  1.00  0.00     0.188 C 
BRANCH  26  27
ATOM     27  O   UNL     1       0.477   7.138  -1.407  1.00  0.00    -0.376 OA
BRANCH  27  28
ATOM     28  C   UNL     1      -0.814   7.532  -1.828  1.00  0.00     0.202 C 
BRANCH  28  29
ATOM     29  C   UNL     1      -1.644   6.548  -2.662  1.00  0.00     0.261 C 
BRANCH  29  30
ATOM     30  O   UNL     1      -1.765   5.222  -2.131  1.00  0.00    -0.460 OA
BRANCH  30  31
ATOM     31  C   UNL     1      -0.864   4.297  -2.555  1.00  0.00     0.338 C 
ATOM     32  O   UNL     1       0.033   4.455  -3.362  1.00  0.00    -0.246 OA
BRANCH  31  33
ATOM     33  C   UNL     1      -1.097   3.050  -1.786  1.00  0.00     0.060 A 
ATOM     34  C   UNL     1       0.240   2.085  -1.343  1.00  0.00     0.016 A 
ATOM     35  C   UNL     1      -2.650   2.585  -1.805  1.00  0.00     0.016 A 
ATOM     36  C   UNL     1       0.180   0.449  -0.935  1.00  0.00     0.010 A 
ATOM     37  C   UNL     1      -2.961   0.970  -1.468  1.00  0.00     0.010 A 
ATOM     38  C   UNL     1      -1.377  -0.324  -0.973  1.00  0.00    -0.014 A 
BRANCH  38  39
ATOM     39  C   UNL     1      -1.149  -1.832  -0.354  1.00  0.00     0.031 A 
ATOM     40  C   UNL     1      -1.064  -2.974  -1.315  1.00  0.00     0.074 A 
ATOM     41  C   UNL     1      -1.090  -2.145   0.967  1.00  0.00     0.049 A 
ATOM     42  N   UNL     1      -1.544  -4.181  -1.199  1.00  0.00    -0.248 NA
ATOM     43  C   UNL     1      -0.476  -2.667  -2.617  1.00  0.00     0.031 C 
ATOM     44  C   UNL     1      -0.974  -1.213   2.079  1.00  0.00     0.029 A 
ATOM     45  N   UNL     1      -1.202  -3.365   1.609  1.00  0.00    -0.354 N 
ATOM     46  C   UNL     1      -1.471  -4.718  -2.476  1.00  0.00     0.074 A 
ATOM     47  C   UNL     1      -0.932  -3.684  -3.333  1.00  0.00     0.031 C 
ATOM     48  C   UNL     1      -1.091  -1.854   3.250  1.00  0.00     0.029 A 
ATOM     49  C   UNL     1      -1.323  -3.260   2.983  1.00  0.00     0.049 A 
ATOM     50  H   UNL     1      -1.197  -4.226   1.132  1.00  0.00     0.167 HD
ATOM     51  C   UNL     1      -1.817  -5.964  -2.876  1.00  0.00     0.037 A 
ATOM     52  C   UNL     1      -1.624  -4.177   3.925  1.00  0.00     0.037 A 
ATOM     53  C   UNL     1      -2.078  -7.035  -1.949  1.00  0.00     0.049 A 
ATOM     54  C   UNL     1      -1.865  -5.593   3.483  1.00  0.00     0.074 A 
ATOM     55  C   UNL     1      -2.270  -8.378  -2.219  1.00  0.00     0.029 A 
ATOM     56  N   UNL     1      -2.083  -6.900  -0.567  1.00  0.00    -0.354 N 
ATOM     57  N   UNL     1      -1.929  -6.072   2.264  1.00  0.00    -0.248 NA
ATOM     58  C   UNL     1      -2.049  -6.600   4.537  1.00  0.00     0.031 C 
ATOM     59  C   UNL     1      -2.394  -9.055  -1.002  1.00  0.00     0.029 A 
ATOM     60  C   UNL     1      -2.240  -8.140   0.027  1.00  0.00     0.049 A 
ATOM     61  H   UNL     1      -1.989  -6.049  -0.082  1.00  0.00     0.167 HD
ATOM     62  C   UNL     1      -2.100  -7.442   2.406  1.00  0.00     0.074 A 
ATOM     63  C   UNL     1      -2.124  -7.716   3.828  1.00  0.00     0.031 C 
ATOM     64  C   UNL     1      -2.223  -8.389   1.446  1.00  0.00     0.037 A 
BRANCH  51  65
ATOM     65  C   UNL     1      -1.903  -6.245  -4.351  1.00  0.00     0.057 A 
ATOM     66  C   UNL     1      -0.803  -6.158  -5.214  1.00  0.00     0.134 A 
ATOM     67  C   UNL     1      -3.125  -6.640  -4.917  1.00  0.00     0.134 A 
ATOM     68  F   UNL     1       0.404  -5.804  -4.747  1.00  0.00    -0.206 F 
ATOM     69  C   UNL     1      -0.926  -6.384  -6.586  1.00  0.00     0.040 A 
ATOM     70  C   UNL     1      -3.248  -6.928  -6.278  1.00  0.00     0.040 A 
ATOM     71  F   UNL     1      -4.223  -6.764  -4.155  1.00  0.00    -0.206 F 
ATOM     72  C   UNL     1      -2.149  -6.782  -7.120  1.00  0.00     0.006 A 
ENDBRANCH  51  65
BRANCH  52  73
ATOM     73  C   UNL     1      -1.687  -3.812   5.370  1.00  0.00     0.057 A 
ATOM     74  C   UNL     1      -0.730  -4.295   6.275  1.00  0.00     0.134 A 
ATOM     75  C   UNL     1      -2.708  -3.010   5.896  1.00  0.00     0.134 A 
ATOM     76  F   UNL     1       0.268  -5.079   5.841  1.00  0.00    -0.206 F 
ATOM     77  C   UNL     1      -0.808  -4.032   7.645  1.00  0.00     0.040 A 
ATOM     78  C   UNL     1      -2.780  -2.712   7.261  1.00  0.00     0.040 A 
ATOM     79  F   UNL     1      -3.651  -2.499   5.091  1.00  0.00    -0.206 F 
ATOM     80  C   UNL     1      -1.836  -3.236   8.142  1.00  0.00     0.006 A 
ENDBRANCH  52  73
BRANCH  64  81
ATOM     81  C   UNL     1      -2.315  -9.815   1.899  1.00  0.00     0.057 A 
ATOM     82  C   UNL     1      -3.454 -10.321   2.536  1.00  0.00     0.134 A 
ATOM     83  C   UNL     1      -1.261 -10.704   1.649  1.00  0.00     0.134 A 
ATOM     84  F   UNL     1      -4.490  -9.516   2.817  1.00  0.00    -0.206 F 
ATOM     85  C   UNL     1      -3.533 -11.656   2.930  1.00  0.00     0.040 A 
ATOM     86  C   UNL     1      -1.342 -12.049   2.006  1.00  0.00     0.040 A 
ATOM     87  F   UNL     1      -0.145 -10.283   1.034  1.00  0.00    -0.206 F 
ATOM     88  C   UNL     1      -2.479 -12.526   2.655  1.00  0.00     0.006 A 
ENDBRANCH  64  81
ENDBRANCH  38  39
ENDBRANCH  31  33
ENDBRANCH  30  31
ENDBRANCH  29  30
ENDBRANCH  28  29
ENDBRANCH  27  28
ENDBRANCH  26  27
ENDBRANCH   1  26
TORSDOF 20
