REMARK SMILES C=CC[N@@H+](CC(=O)OCCOCCOCCOC(=O)c1ccc(-c2c3nc(c(-c4c(F)cccc4F)c4ccc([nH]4)c(-c4c(F)cccc4F)c4nc(c(-c5c(F)cccc5F)c5ccc2[nH]5)C=C4)C=C3)cc1)Cc1ccc([N+](=O)[O-])o1
REMARK SMILES IDX 12 1 11 2 10 3 9 4 8 5 6 6 7 7 5 8 4 9 3 11 2 12 1 13 74 14
REMARK SMILES IDX 75 15 76 16 82 17 77 18 78 19 79 20 80 21 81 22 13 23 14 24
REMARK SMILES IDX 15 25 16 26 17 27 18 28 19 29 20 30 21 31 73 32 22 33 72 34
REMARK SMILES IDX 23 35 24 36 25 37 66 38 26 39 71 40 65 41 67 42 27 43 70 44
REMARK SMILES IDX 64 45 63 46 28 48 54 49 37 50 53 51 38 52 41 53 52 54 68 55
REMARK SMILES IDX 39 56 40 57 51 59 69 60 42 61 29 62 30 63 35 64 31 65 32 66
REMARK SMILES IDX 34 67 36 68 33 69 55 70 56 71 61 72 57 73 58 74 60 75 62 76
REMARK SMILES IDX 59 77 43 78 44 79 49 80 45 81 46 82 48 83 50 84 47 85
REMARK H PARENT 4 10 67 47 41 58
REMARK Flexibility Score: inf
ROOT
ATOM      1  C   UNL     1      -4.007  -0.592  -2.508  1.00  0.00     0.188 C 
ENDROOT
BRANCH   1   2
ATOM      2  O   UNL     1      -4.817   0.753  -2.527  1.00  0.00    -0.376 OA
BRANCH   2   3
ATOM      3  C   UNL     1      -4.648   1.678  -1.438  1.00  0.00     0.202 C 
BRANCH   3   4
ATOM      4  C   UNL     1      -5.085   1.226  -0.042  1.00  0.00     0.261 C 
BRANCH   4   5
ATOM      5  O   UNL     1      -4.124   0.344   0.568  1.00  0.00    -0.459 OA
BRANCH   5   6
ATOM      6  C   UNL     1      -4.564  -0.900   0.897  1.00  0.00     0.361 C 
ATOM      7  O   UNL     1      -5.728  -1.275   0.793  1.00  0.00    -0.245 OA
BRANCH   6   8
ATOM      8  C   UNL     1      -3.476  -1.798   1.464  1.00  0.00     0.387 C 
BRANCH   8   9
ATOM      9  N   UNL     1      -2.153  -1.759   0.830  1.00  0.00    -0.316 N 
ATOM     10  H   UNL     1      -1.652  -2.449   1.390  1.00  0.00     0.349 HD
BRANCH   9  11
ATOM     11  C   UNL     1      -1.367  -0.559   1.073  1.00  0.00     0.291 C 
BRANCH  11  12
ATOM     12  C   UNL     1       0.108  -0.855   1.103  1.00  0.00     0.025 C 
ATOM     13  C   UNL     1       1.028  -0.137   0.445  1.00  0.00     0.010 C 
ENDBRANCH  11  12
ENDBRANCH   9  11
BRANCH   9  14
ATOM     14  C   UNL     1      -2.015  -2.386  -0.478  1.00  0.00     0.339 C 
BRANCH  14  15
ATOM     15  C   UNL     1      -2.659  -1.748  -1.667  1.00  0.00     0.165 A 
ATOM     16  C   UNL     1      -3.357  -2.372  -3.168  1.00  0.00     0.059 A 
ATOM     17  O   UNL     1      -2.490   0.109  -1.958  1.00  0.00    -0.400 OA
ATOM     18  C   UNL     1      -3.557  -0.947  -4.436  1.00  0.00     0.134 A 
ATOM     19  C   UNL     1      -2.997   0.561  -3.715  1.00  0.00     0.433 A 
BRANCH  19  20
ATOM     20  N   UNL     1      -2.627   1.836  -4.213  1.00  0.00     0.102 N 
ATOM     21  O   UNL     1      -2.780   1.998  -5.430  1.00  0.00    -0.256 OA
ATOM     22  O   UNL     1      -2.125   2.641  -3.423  1.00  0.00    -0.256 OA
ENDBRANCH  19  20
ENDBRANCH  14  15
ENDBRANCH   9  14
ENDBRANCH   8   9
ENDBRANCH   6   8
ENDBRANCH   5   6
ENDBRANCH   4   5
ENDBRANCH   3   4
ENDBRANCH   2   3
ENDBRANCH   1   2
BRANCH   1  23
ATOM     23  C   UNL     1      -1.907  -0.958  -3.272  1.00  0.00     0.188 C 
BRANCH  23  24
ATOM     24  O   UNL     1      -0.623  -0.417  -2.592  1.00  0.00    -0.376 OA
BRANCH  24  25
ATOM     25  C   UNL     1       0.530  -0.070  -3.357  1.00  0.00     0.202 C 
BRANCH  25  26
ATOM     26  C   UNL     1       0.760  -0.549  -4.802  1.00  0.00     0.261 C 
BRANCH  26  27
ATOM     27  O   UNL     1       0.201  -1.819  -5.160  1.00  0.00    -0.460 OA
BRANCH  27  28
ATOM     28  C   UNL     1       0.567  -2.899  -4.438  1.00  0.00     0.338 C 
ATOM     29  O   UNL     1       1.469  -2.964  -3.624  1.00  0.00    -0.246 OA
BRANCH  28  30
ATOM     30  C   UNL     1      -0.457  -3.960  -4.668  1.00  0.00     0.060 A 
ATOM     31  C   UNL     1      -0.735  -4.856  -3.627  1.00  0.00     0.016 A 
ATOM     32  C   UNL     1      -1.187  -4.040  -5.864  1.00  0.00     0.016 A 
ATOM     33  C   UNL     1      -1.684  -5.870  -3.803  1.00  0.00     0.010 A 
ATOM     34  C   UNL     1      -2.133  -5.055  -6.043  1.00  0.00     0.010 A 
ATOM     35  C   UNL     1      -2.347  -6.009  -5.033  1.00  0.00    -0.014 A 
BRANCH  35  36
ATOM     36  C   UNL     1      -2.961  -7.315  -5.393  1.00  0.00     0.031 A 
ATOM     37  C   UNL     1      -2.062  -8.319  -6.071  1.00  0.00     0.074 A 
ATOM     38  C   UNL     1      -4.244  -7.634  -5.141  1.00  0.00     0.049 A 
ATOM     39  N   UNL     1      -2.336  -9.512  -6.530  1.00  0.00    -0.248 NA
ATOM     40  C   UNL     1      -0.659  -7.910  -6.257  1.00  0.00     0.031 C 
ATOM     41  C   UNL     1      -5.219  -6.789  -4.459  1.00  0.00     0.029 A 
ATOM     42  N   UNL     1      -4.946  -8.777  -5.449  1.00  0.00    -0.354 N 
ATOM     43  C   UNL     1      -1.142  -9.993  -7.053  1.00  0.00     0.074 A 
ATOM     44  C   UNL     1      -0.153  -8.952  -6.892  1.00  0.00     0.031 C 
ATOM     45  C   UNL     1      -6.398  -7.440  -4.407  1.00  0.00     0.029 A 
ATOM     46  C   UNL     1      -6.268  -8.736  -5.077  1.00  0.00     0.049 A 
ATOM     47  H   UNL     1      -4.537  -9.554  -5.894  1.00  0.00     0.167 HD
ATOM     48  C   UNL     1      -0.878 -11.197  -7.609  1.00  0.00     0.037 A 
ATOM     49  C   UNL     1      -7.258  -9.633  -5.273  1.00  0.00     0.037 A 
ATOM     50  C   UNL     1      -1.853 -12.232  -7.798  1.00  0.00     0.049 A 
ATOM     51  C   UNL     1      -6.965 -10.933  -5.989  1.00  0.00     0.074 A 
ATOM     52  C   UNL     1      -1.681 -13.481  -8.367  1.00  0.00     0.029 A 
ATOM     53  N   UNL     1      -3.186 -12.133  -7.437  1.00  0.00    -0.354 N 
ATOM     54  N   UNL     1      -5.826 -11.389  -6.452  1.00  0.00    -0.248 NA
ATOM     55  C   UNL     1      -8.101 -11.846  -6.208  1.00  0.00     0.031 C 
ATOM     56  C   UNL     1      -2.924 -14.119  -8.398  1.00  0.00     0.029 A 
ATOM     57  C   UNL     1      -3.854 -13.292  -7.790  1.00  0.00     0.049 A 
ATOM     58  H   UNL     1      -3.597 -11.355  -6.995  1.00  0.00     0.167 HD
ATOM     59  C   UNL     1      -6.099 -12.653  -6.969  1.00  0.00     0.074 A 
ATOM     60  C   UNL     1      -7.510 -12.893  -6.767  1.00  0.00     0.031 C 
ATOM     61  C   UNL     1      -5.253 -13.537  -7.552  1.00  0.00     0.037 A 
BRANCH  48  62
ATOM     62  C   UNL     1       0.523 -11.433  -8.085  1.00  0.00     0.057 A 
ATOM     63  C   UNL     1       1.589 -11.600  -7.191  1.00  0.00     0.134 A 
ATOM     64  C   UNL     1       0.808 -11.488  -9.454  1.00  0.00     0.134 A 
ATOM     65  F   UNL     1       1.383 -11.531  -5.867  1.00  0.00    -0.206 F 
ATOM     66  C   UNL     1       2.895 -11.787  -7.644  1.00  0.00     0.040 A 
ATOM     67  C   UNL     1       2.105 -11.705  -9.919  1.00  0.00     0.040 A 
ATOM     68  F   UNL     1      -0.168 -11.332 -10.361  1.00  0.00    -0.206 F 
ATOM     69  C   UNL     1       3.154 -11.847  -9.012  1.00  0.00     0.006 A 
ENDBRANCH  48  62
BRANCH  49  70
ATOM     70  C   UNL     1      -8.642  -9.348  -4.806  1.00  0.00     0.057 A 
ATOM     71  C   UNL     1      -9.240 -10.110  -3.793  1.00  0.00     0.134 A 
ATOM     72  C   UNL     1      -9.427  -8.358  -5.410  1.00  0.00     0.134 A 
ATOM     73  F   UNL     1      -8.554 -11.096  -3.197  1.00  0.00    -0.206 F 
ATOM     74  C   UNL     1     -10.572  -9.917  -3.418  1.00  0.00     0.040 A 
ATOM     75  C   UNL     1     -10.751  -8.136  -5.026  1.00  0.00     0.040 A 
ATOM     76  F   UNL     1      -8.920  -7.598  -6.391  1.00  0.00    -0.206 F 
ATOM     77  C   UNL     1     -11.331  -8.924  -4.034  1.00  0.00     0.006 A 
ENDBRANCH  49  70
BRANCH  61  78
ATOM     78  C   UNL     1      -5.792 -14.881  -7.953  1.00  0.00     0.057 A 
ATOM     79  C   UNL     1      -6.634 -15.051  -9.058  1.00  0.00     0.134 A 
ATOM     80  C   UNL     1      -5.378 -16.036  -7.274  1.00  0.00     0.134 A 
ATOM     81  F   UNL     1      -7.072 -13.988  -9.749  1.00  0.00    -0.206 F 
ATOM     82  C   UNL     1      -7.054 -16.319  -9.467  1.00  0.00     0.040 A 
ATOM     83  C   UNL     1      -5.769 -17.310  -7.689  1.00  0.00     0.040 A 
ATOM     84  F   UNL     1      -4.559 -15.947  -6.215  1.00  0.00    -0.206 F 
ATOM     85  C   UNL     1      -6.612 -17.453  -8.788  1.00  0.00     0.006 A 
ENDBRANCH  61  78
ENDBRANCH  35  36
ENDBRANCH  28  30
ENDBRANCH  27  28
ENDBRANCH  26  27
ENDBRANCH  25  26
ENDBRANCH  24  25
ENDBRANCH  23  24
ENDBRANCH   1  23
TORSDOF 23
