REMARK SMILES Cc1ccc(OCCn2ccnc2)c(/C=C/C(=O)OCCOCCOCCOC(=O)c2ccc(-c3c4nc(c(-c5c(F)cccc5F)c5ccc([nH]5)c(-c5c(F)cccc5F)c5nc(c(-c6c(F)cccc6F)c6ccc3[nH]6)C=C5)C=C4)cc2)n1
REMARK SMILES IDX 22 1 21 2 20 3 19 4 17 5 18 6 16 7 15 8 14 9 1 10 2 11 3 12
REMARK SMILES IDX 85 13 4 14 5 15 6 16 7 17 8 18 9 19 10 20 13 21 11 22 12 23
REMARK SMILES IDX 23 24 24 25 25 26 26 27 27 28 28 29 29 30 30 31 31 32 32 33
REMARK SMILES IDX 84 34 33 35 83 36 34 37 35 38 36 39 77 40 37 41 82 42 76 43
REMARK SMILES IDX 78 44 38 45 81 46 75 47 74 48 39 50 65 51 48 52 64 53 49 54
REMARK SMILES IDX 52 55 63 56 79 57 50 58 51 59 62 61 80 62 53 63 40 64 41 65
REMARK SMILES IDX 46 66 42 67 43 68 45 69 47 70 44 71 66 72 67 73 72 74 68 75
REMARK SMILES IDX 69 76 71 77 73 78 70 79 54 80 55 81 60 82 56 83 57 84 59 85
REMARK SMILES IDX 61 86 58 87
REMARK H PARENT 78 49 52 60
REMARK Flexibility Score: inf
ROOT
ATOM      1  O   UNL     1      -1.956   7.341   1.474  1.00  0.00    -0.376 OA
ENDROOT
BRANCH   1   2
ATOM      2  C   UNL     1      -2.870   7.518   0.404  1.00  0.00     0.202 C 
BRANCH   2   3
ATOM      3  C   UNL     1      -3.149   6.507  -0.732  1.00  0.00     0.261 C 
BRANCH   3   4
ATOM      4  O   UNL     1      -2.667   5.170  -0.579  1.00  0.00    -0.460 OA
BRANCH   4   5
ATOM      5  C   UNL     1      -1.722   4.774  -1.470  1.00  0.00     0.330 C 
ATOM      6  O   UNL     1      -1.260   5.451  -2.377  1.00  0.00    -0.247 OA
BRANCH   5   7
ATOM      7  C   UNL     1      -1.161   3.454  -1.129  1.00  0.00     0.096 C 
ATOM      8  C   UNL     1      -1.810   2.479  -0.472  1.00  0.00     0.040 C 
BRANCH   8   9
ATOM      9  C   UNL     1      -1.143   1.236  -0.036  1.00  0.00     0.105 A 
ATOM     10  C   UNL     1       2.386   0.194   0.232  1.00  0.00     0.067 C 
ATOM     11  C   UNL     1       0.893   0.173   0.359  1.00  0.00     0.038 A 
ATOM     12  C   UNL     1       0.256  -0.910   0.945  1.00  0.00     0.027 A 
ATOM     13  N   UNL     1       0.217   1.256  -0.090  1.00  0.00    -0.250 NA
ATOM     14  C   UNL     1      -1.136  -0.927   0.988  1.00  0.00     0.050 A 
ATOM     15  C   UNL     1      -1.861   0.126   0.431  1.00  0.00     0.145 A 
BRANCH  15  16
ATOM     16  O   UNL     1      -3.225   0.120   0.300  1.00  0.00    -0.489 OA
BRANCH  16  17
ATOM     17  C   UNL     1      -3.850  -1.143   0.023  1.00  0.00     0.251 C 
BRANCH  17  18
ATOM     18  C   UNL     1      -3.688  -1.609  -1.431  1.00  0.00     0.164 C 
BRANCH  18  19
ATOM     19  N   UNL     1      -2.406  -2.220  -1.724  1.00  0.00    -0.334 N 
ATOM     20  C   UNL     1      -1.359  -1.634  -2.380  1.00  0.00     0.107 A 
ATOM     21  C   UNL     1      -2.029  -3.494  -1.403  1.00  0.00     0.199 A 
ATOM     22  C   UNL     1      -0.353  -2.572  -2.352  1.00  0.00     0.130 A 
ATOM     23  N   UNL     1      -0.782  -3.726  -1.748  1.00  0.00    -0.245 NA
ENDBRANCH  18  19
ENDBRANCH  17  18
ENDBRANCH  16  17
ENDBRANCH  15  16
ENDBRANCH   8   9
ENDBRANCH   5   7
ENDBRANCH   4   5
ENDBRANCH   3   4
ENDBRANCH   2   3
ENDBRANCH   1   2
BRANCH   1  24
ATOM     24  C   UNL     1      -1.074   6.243   1.479  1.00  0.00     0.188 C 
BRANCH  24  25
ATOM     25  C   UNL     1      -1.579   4.979   2.199  1.00  0.00     0.188 C 
BRANCH  25  26
ATOM     26  O   UNL     1      -2.962   4.691   2.306  1.00  0.00    -0.376 OA
BRANCH  26  27
ATOM     27  C   UNL     1      -3.881   5.575   2.925  1.00  0.00     0.202 C 
BRANCH  27  28
ATOM     28  C   UNL     1      -3.567   6.436   4.149  1.00  0.00     0.261 C 
BRANCH  28  29
ATOM     29  O   UNL     1      -2.216   6.800   4.350  1.00  0.00    -0.460 OA
BRANCH  29  30
ATOM     30  C   UNL     1      -1.576   5.980   5.209  1.00  0.00     0.338 C 
ATOM     31  O   UNL     1      -1.892   4.851   5.537  1.00  0.00    -0.246 OA
BRANCH  30  32
ATOM     32  C   UNL     1      -0.464   6.713   5.812  1.00  0.00     0.060 A 
ATOM     33  C   UNL     1       0.567   5.966   6.385  1.00  0.00     0.016 A 
ATOM     34  C   UNL     1      -0.584   8.096   6.010  1.00  0.00     0.016 A 
ATOM     35  C   UNL     1       1.418   6.590   7.273  1.00  0.00     0.010 A 
ATOM     36  C   UNL     1       0.256   8.713   6.907  1.00  0.00     0.010 A 
ATOM     37  C   UNL     1       1.210   7.940   7.573  1.00  0.00    -0.014 A 
BRANCH  37  38
ATOM     38  C   UNL     1       2.066   8.559   8.568  1.00  0.00     0.031 A 
ATOM     39  C   UNL     1       3.432   8.870   8.088  1.00  0.00     0.074 A 
ATOM     40  C   UNL     1       1.579   8.951   9.762  1.00  0.00     0.049 A 
ATOM     41  N   UNL     1       4.559   8.548   8.630  1.00  0.00    -0.248 NA
ATOM     42  C   UNL     1       3.562   9.558   6.791  1.00  0.00     0.031 C 
ATOM     43  C   UNL     1       0.169   8.938  10.168  1.00  0.00     0.029 A 
ATOM     44  N   UNL     1       2.203   9.566  10.811  1.00  0.00    -0.354 N 
ATOM     45  C   UNL     1       5.532   9.172   7.856  1.00  0.00     0.074 A 
ATOM     46  C   UNL     1       4.885   9.644   6.664  1.00  0.00     0.031 C 
ATOM     47  C   UNL     1       0.018   9.711  11.263  1.00  0.00     0.029 A 
ATOM     48  C   UNL     1       1.325  10.181  11.694  1.00  0.00     0.049 A 
ATOM     49  H   UNL     1       3.180   9.572  10.929  1.00  0.00     0.167 HD
ATOM     50  C   UNL     1       6.728   9.516   8.398  1.00  0.00     0.037 A 
ATOM     51  C   UNL     1       1.629  11.074  12.666  1.00  0.00     0.037 A 
ATOM     52  C   UNL     1       7.006   8.759   9.588  1.00  0.00     0.049 A 
ATOM     53  C   UNL     1       3.072  10.955  12.975  1.00  0.00     0.074 A 
ATOM     54  C   UNL     1       7.358   7.462   9.887  1.00  0.00     0.029 A 
ATOM     55  N   UNL     1       6.596   9.351  10.749  1.00  0.00    -0.354 N 
ATOM     56  N   UNL     1       3.615   9.936  13.579  1.00  0.00    -0.248 NA
ATOM     57  C   UNL     1       4.012  11.889  12.363  1.00  0.00     0.031 C 
ATOM     58  C   UNL     1       6.966   7.246  11.240  1.00  0.00     0.029 A 
ATOM     59  C   UNL     1       6.387   8.417  11.726  1.00  0.00     0.049 A 
ATOM     60  H   UNL     1       6.468  10.320  10.867  1.00  0.00     0.167 HD
ATOM     61  C   UNL     1       4.894   9.875  13.062  1.00  0.00     0.074 A 
ATOM     62  C   UNL     1       5.142  11.189  12.491  1.00  0.00     0.031 C 
ATOM     63  C   UNL     1       5.501   8.675  12.841  1.00  0.00     0.037 A 
BRANCH  50  64
ATOM     64  C   UNL     1       7.389  10.857   8.160  1.00  0.00     0.057 A 
ATOM     65  C   UNL     1       8.664  11.088   8.707  1.00  0.00     0.134 A 
ATOM     66  C   UNL     1       6.706  12.014   7.727  1.00  0.00     0.134 A 
ATOM     67  F   UNL     1       9.408  10.072   9.171  1.00  0.00    -0.206 F 
ATOM     68  C   UNL     1       9.184  12.376   8.883  1.00  0.00     0.040 A 
ATOM     69  C   UNL     1       7.238  13.300   7.851  1.00  0.00     0.040 A 
ATOM     70  F   UNL     1       5.452  11.980   7.261  1.00  0.00    -0.206 F 
ATOM     71  C   UNL     1       8.466  13.489   8.463  1.00  0.00     0.006 A 
ENDBRANCH  50  64
BRANCH  51  72
ATOM     72  C   UNL     1       0.794  12.157  13.236  1.00  0.00     0.057 A 
ATOM     73  C   UNL     1       1.146  12.777  14.444  1.00  0.00     0.134 A 
ATOM     74  C   UNL     1      -0.231  12.781  12.502  1.00  0.00     0.134 A 
ATOM     75  F   UNL     1       2.137  12.286  15.201  1.00  0.00    -0.206 F 
ATOM     76  C   UNL     1       0.535  13.959  14.883  1.00  0.00     0.040 A 
ATOM     77  C   UNL     1      -0.863  13.949  12.939  1.00  0.00     0.040 A 
ATOM     78  F   UNL     1      -0.598  12.329  11.294  1.00  0.00    -0.206 F 
ATOM     79  C   UNL     1      -0.469  14.552  14.125  1.00  0.00     0.006 A 
ENDBRANCH  51  72
BRANCH  63  80
ATOM     80  C   UNL     1       5.060   7.514  13.674  1.00  0.00     0.057 A 
ATOM     81  C   UNL     1       3.783   6.940  13.626  1.00  0.00     0.134 A 
ATOM     82  C   UNL     1       6.005   6.903  14.508  1.00  0.00     0.134 A 
ATOM     83  F   UNL     1       2.842   7.407  12.793  1.00  0.00    -0.206 F 
ATOM     84  C   UNL     1       3.452   5.834  14.413  1.00  0.00     0.040 A 
ATOM     85  C   UNL     1       5.698   5.776  15.269  1.00  0.00     0.040 A 
ATOM     86  F   UNL     1       7.261   7.376  14.568  1.00  0.00    -0.206 F 
ATOM     87  C   UNL     1       4.412   5.245  15.233  1.00  0.00     0.006 A 
ENDBRANCH  63  80
ENDBRANCH  37  38
ENDBRANCH  30  32
ENDBRANCH  29  30
ENDBRANCH  28  29
ENDBRANCH  27  28
ENDBRANCH  26  27
ENDBRANCH  25  26
ENDBRANCH  24  25
ENDBRANCH   1  24
TORSDOF 22
