REMARK SMILES CC(C)Cc1cc2c(cc1Cl)C=C(C(=O)OCCOCCOCCOC(=O)c1ccc(-c3c4nc(c(-c5c(F)cccc5F)c5ccc([nH]5)c(-c5c(F)cccc5F)c5nc(c(-c6c(F)cccc6F)c6ccc3[nH]6)C=C5)C=C4)cc1)[C@@H](C(F)(F)F)O2
REMARK SMILES IDX 20 1 19 2 18 3 17 4 16 5 14 6 15 7 13 8 5 9 6 10 10 11 7 12
REMARK SMILES IDX 9 13 11 14 8 15 87 16 12 17 82 18 4 19 2 20 1 21 3 22 83 23
REMARK SMILES IDX 84 24 85 25 86 26 21 27 22 28 23 29 24 30 25 31 26 32 27 33
REMARK SMILES IDX 28 34 29 35 81 36 30 37 80 38 31 39 32 40 33 41 74 42 34 43
REMARK SMILES IDX 79 44 73 45 75 46 35 47 78 48 72 49 71 50 36 52 62 53 45 54
REMARK SMILES IDX 61 55 46 56 49 57 60 58 76 59 47 60 48 61 59 63 77 64 50 65
REMARK SMILES IDX 37 66 38 67 43 68 39 69 40 70 42 71 44 72 41 73 63 74 64 75
REMARK SMILES IDX 69 76 65 77 66 78 68 79 70 80 67 81 51 82 52 83 57 84 53 85
REMARK SMILES IDX 54 86 56 87 58 88 55 89
REMARK H PARENT 75 51 49 62
REMARK Flexibility Score: inf
ROOT
ATOM      1  C   UNL     1      -4.364   5.441  -5.543  1.00  0.00     0.188 C 
ENDROOT
BRANCH   1   2
ATOM      2  O   UNL     1      -4.476   6.263  -6.683  1.00  0.00    -0.376 OA
BRANCH   2   3
ATOM      3  C   UNL     1      -4.225   5.759  -7.983  1.00  0.00     0.202 C 
BRANCH   3   4
ATOM      4  C   UNL     1      -3.252   4.611  -8.287  1.00  0.00     0.261 C 
BRANCH   4   5
ATOM      5  O   UNL     1      -3.210   3.556  -7.321  1.00  0.00    -0.460 OA
BRANCH   5   6
ATOM      6  C   UNL     1      -2.019   3.401  -6.696  1.00  0.00     0.338 C 
ATOM      7  O   UNL     1      -1.000   4.044  -6.883  1.00  0.00    -0.246 OA
BRANCH   6   8
ATOM      8  C   UNL     1      -2.166   2.429  -5.599  1.00  0.00     0.087 C 
ATOM      9  C   UNL     1      -1.506   0.029  -1.251  1.00  0.00    -0.025 A 
ATOM     10  C   UNL     1      -1.892  -0.365  -2.547  1.00  0.00     0.052 A 
ATOM     11  C   UNL     1      -1.467   1.401  -0.958  1.00  0.00     0.045 A 
ATOM     12  C   UNL     1      -2.105   0.582  -3.550  1.00  0.00     0.128 A 
ATOM     13  C   UNL     1      -1.628   2.346  -1.975  1.00  0.00     0.032 A 
ATOM     14  Cl  UNL     1      -1.183   2.002   0.636  1.00  0.00    -0.084 Cl
ATOM     15  C   UNL     1      -1.891   1.931  -3.281  1.00  0.00     0.019 A 
ATOM     16  O   UNL     1      -2.451   0.100  -4.779  1.00  0.00    -0.475 OA
ATOM     17  C   UNL     1      -1.827   2.873  -4.382  1.00  0.00     0.027 C 
ATOM     18  C   UNL     1      -2.685   1.043  -5.867  1.00  0.00     0.316 C 
BRANCH   9  19
ATOM     19  C   UNL     1      -1.044  -1.035  -0.276  1.00  0.00     0.040 C 
BRANCH  19  20
ATOM     20  C   UNL     1       0.469  -1.354  -0.405  1.00  0.00    -0.013 C 
ATOM     21  C   UNL     1       1.377  -0.185  -0.010  1.00  0.00     0.008 C 
ATOM     22  C   UNL     1       0.825  -2.567   0.458  1.00  0.00     0.008 C 
ENDBRANCH  19  20
ENDBRANCH   9  19
BRANCH  18  23
ATOM     23  C   UNL     1      -2.106   0.410  -7.141  1.00  0.00     0.430 C 
ATOM     24  F   UNL     1      -2.619  -0.828  -7.346  1.00  0.00    -0.167 F 
ATOM     25  F   UNL     1      -2.393   1.133  -8.248  1.00  0.00    -0.167 F 
ATOM     26  F   UNL     1      -0.761   0.287  -7.074  1.00  0.00    -0.167 F 
ENDBRANCH  18  23
ENDBRANCH   6   8
ENDBRANCH   5   6
ENDBRANCH   4   5
ENDBRANCH   3   4
ENDBRANCH   2   3
ENDBRANCH   1   2
BRANCH   1  27
ATOM     27  C   UNL     1      -5.304   4.232  -5.353  1.00  0.00     0.188 C 
BRANCH  27  28
ATOM     28  O   UNL     1      -6.232   3.872  -6.351  1.00  0.00    -0.376 OA
BRANCH  28  29
ATOM     29  C   UNL     1      -7.260   4.769  -6.738  1.00  0.00     0.202 C 
BRANCH  29  30
ATOM     30  C   UNL     1      -7.966   5.733  -5.772  1.00  0.00     0.261 C 
BRANCH  30  31
ATOM     31  O   UNL     1      -7.148   6.347  -4.772  1.00  0.00    -0.460 OA
BRANCH  31  32
ATOM     32  C   UNL     1      -7.369   5.922  -3.502  1.00  0.00     0.338 C 
ATOM     33  O   UNL     1      -8.157   5.068  -3.132  1.00  0.00    -0.246 OA
BRANCH  32  34
ATOM     34  C   UNL     1      -6.348   6.521  -2.622  1.00  0.00     0.060 A 
ATOM     35  C   UNL     1      -6.206   7.906  -2.543  1.00  0.00     0.016 A 
ATOM     36  C   UNL     1      -5.523   5.673  -1.870  1.00  0.00     0.016 A 
ATOM     37  C   UNL     1      -5.246   8.444  -1.686  1.00  0.00     0.010 A 
ATOM     38  C   UNL     1      -4.557   6.214  -1.020  1.00  0.00     0.010 A 
ATOM     39  C   UNL     1      -4.427   7.606  -0.907  1.00  0.00    -0.014 A 
BRANCH  39  40
ATOM     40  C   UNL     1      -3.554   8.206   0.131  1.00  0.00     0.031 A 
ATOM     41  C   UNL     1      -2.078   8.361  -0.062  1.00  0.00     0.074 A 
ATOM     42  C   UNL     1      -4.134   8.640   1.266  1.00  0.00     0.049 A 
ATOM     43  N   UNL     1      -1.216   9.006   0.684  1.00  0.00    -0.248 NA
ATOM     44  C   UNL     1      -1.489   7.701  -1.234  1.00  0.00     0.031 C 
ATOM     45  C   UNL     1      -5.555   8.499   1.590  1.00  0.00     0.029 A 
ATOM     46  N   UNL     1      -3.607   9.301   2.345  1.00  0.00    -0.354 N 
ATOM     47  C   UNL     1       0.015   8.860   0.058  1.00  0.00     0.074 A 
ATOM     48  C   UNL     1      -0.205   8.011  -1.097  1.00  0.00     0.031 C 
ATOM     49  C   UNL     1      -5.795   9.092   2.769  1.00  0.00     0.029 A 
ATOM     50  C   UNL     1      -4.546   9.638   3.289  1.00  0.00     0.049 A 
ATOM     51  H   UNL     1      -2.650   9.513   2.434  1.00  0.00     0.167 HD
ATOM     52  C   UNL     1       1.209   9.401   0.405  1.00  0.00     0.037 A 
ATOM     53  C   UNL     1      -4.417  10.327   4.437  1.00  0.00     0.037 A 
ATOM     54  C   UNL     1       1.428  10.216   1.577  1.00  0.00     0.049 A 
ATOM     55  C   UNL     1      -3.073  10.884   4.814  1.00  0.00     0.074 A 
ATOM     56  C   UNL     1       2.595  10.833   1.996  1.00  0.00     0.029 A 
ATOM     57  N   UNL     1       0.463  10.510   2.530  1.00  0.00    -0.354 N 
ATOM     58  N   UNL     1      -1.938  10.826   4.162  1.00  0.00    -0.248 NA
ATOM     59  C   UNL     1      -3.002  11.619   6.084  1.00  0.00     0.031 C 
ATOM     60  C   UNL     1       2.349  11.457   3.225  1.00  0.00     0.029 A 
ATOM     61  C   UNL     1       1.014  11.278   3.546  1.00  0.00     0.049 A 
ATOM     62  H   UNL     1      -0.476  10.217   2.491  1.00  0.00     0.167 HD
ATOM     63  C   UNL     1      -1.026  11.545   4.925  1.00  0.00     0.074 A 
ATOM     64  C   UNL     1      -1.748  12.046   6.076  1.00  0.00     0.031 C 
ATOM     65  C   UNL     1       0.290  11.772   4.691  1.00  0.00     0.037 A 
BRANCH  52  66
ATOM     66  C   UNL     1       2.377   9.130  -0.501  1.00  0.00     0.057 A 
ATOM     67  C   UNL     1       3.451   8.336  -0.078  1.00  0.00     0.134 A 
ATOM     68  C   UNL     1       2.457   9.692  -1.783  1.00  0.00     0.134 A 
ATOM     69  F   UNL     1       3.447   7.778   1.141  1.00  0.00    -0.206 F 
ATOM     70  C   UNL     1       4.559   8.109  -0.897  1.00  0.00     0.040 A 
ATOM     71  C   UNL     1       3.547   9.450  -2.621  1.00  0.00     0.040 A 
ATOM     72  F   UNL     1       1.462  10.460  -2.252  1.00  0.00    -0.206 F 
ATOM     73  C   UNL     1       4.605   8.660  -2.176  1.00  0.00     0.006 A 
ENDBRANCH  52  66
BRANCH  53  74
ATOM     74  C   UNL     1      -5.601  10.569   5.297  1.00  0.00     0.057 A 
ATOM     75  C   UNL     1      -6.210   9.528   6.006  1.00  0.00     0.134 A 
ATOM     76  C   UNL     1      -6.129  11.856   5.455  1.00  0.00     0.134 A 
ATOM     77  F   UNL     1      -5.757   8.271   5.888  1.00  0.00    -0.206 F 
ATOM     78  C   UNL     1      -7.300   9.758   6.846  1.00  0.00     0.040 A 
ATOM     79  C   UNL     1      -7.200  12.105   6.314  1.00  0.00     0.040 A 
ATOM     80  F   UNL     1      -5.578  12.896   4.812  1.00  0.00    -0.206 F 
ATOM     81  C   UNL     1      -7.789  11.052   7.012  1.00  0.00     0.006 A 
ENDBRANCH  53  74
BRANCH  65  82
ATOM     82  C   UNL     1       1.016  12.635   5.685  1.00  0.00     0.057 A 
ATOM     83  C   UNL     1       1.440  13.924   5.333  1.00  0.00     0.134 A 
ATOM     84  C   UNL     1       1.282  12.206   6.992  1.00  0.00     0.134 A 
ATOM     85  F   UNL     1       1.226  14.398   4.097  1.00  0.00    -0.206 F 
ATOM     86  C   UNL     1       2.089  14.755   6.247  1.00  0.00     0.040 A 
ATOM     87  C   UNL     1       1.901  13.040   7.925  1.00  0.00     0.040 A 
ATOM     88  F   UNL     1       0.889  10.989   7.402  1.00  0.00    -0.206 F 
ATOM     89  C   UNL     1       2.310  14.319   7.551  1.00  0.00     0.006 A 
ENDBRANCH  65  82
ENDBRANCH  39  40
ENDBRANCH  32  34
ENDBRANCH  31  32
ENDBRANCH  30  31
ENDBRANCH  29  30
ENDBRANCH  28  29
ENDBRANCH  27  28
ENDBRANCH   1  27
TORSDOF 20
