REMARK SMILES C[C@@H](O)CN(C)C(=O)N[C@H]1C=C[C@@H](C(=O)OCCOCCOCCOC(=O)c2ccc(-c3c4nc(c(-c5c(F)cccc5F)c5ccc([nH]5)c(-c5c(F)cccc5F)c5nc(c(-c6c(F)cccc6F)c6ccc3[nH]6)C=C5)C=C4)cc2)C1
REMARK SMILES IDX 19 1 18 2 17 3 16 4 14 5 15 6 13 7 10 8 11 9 82 10 12 11
REMARK SMILES IDX 9 12 7 13 8 14 5 16 6 17 4 18 2 19 1 20 3 21 20 23 21 24
REMARK SMILES IDX 22 25 23 26 24 27 25 28 26 29 27 30 28 31 29 32 81 33 30 34
REMARK SMILES IDX 80 35 31 36 32 37 33 38 74 39 34 40 79 41 73 42 75 43 35 44
REMARK SMILES IDX 78 45 72 46 71 47 36 49 62 50 45 51 61 52 46 53 49 54 60 55
REMARK SMILES IDX 76 56 47 57 48 58 59 60 77 61 50 62 37 63 38 64 43 65 39 66
REMARK SMILES IDX 40 67 42 68 44 69 41 70 63 71 64 72 69 73 65 74 66 75 68 76
REMARK SMILES IDX 70 77 67 78 51 79 52 80 57 81 53 82 54 83 56 84 58 85 55 86
REMARK H PARENT 9 15 3 22 75 48 49 59
REMARK Flexibility Score: inf
ROOT
ATOM      1  O   UNL     1      -4.138   9.485   2.220  1.00  0.00    -0.376 OA
ENDROOT
BRANCH   1   2
ATOM      2  C   UNL     1      -4.346   8.676   3.375  1.00  0.00     0.202 C 
BRANCH   2   3
ATOM      3  C   UNL     1      -5.034   7.309   3.213  1.00  0.00     0.261 C 
BRANCH   3   4
ATOM      4  O   UNL     1      -4.455   6.453   2.207  1.00  0.00    -0.463 OA
BRANCH   4   5
ATOM      5  C   UNL     1      -5.300   5.978   1.257  1.00  0.00     0.312 C 
ATOM      6  O   UNL     1      -6.509   6.196   1.242  1.00  0.00    -0.252 OA
BRANCH   5   7
ATOM      7  C   UNL     1      -4.607   5.214   0.123  1.00  0.00     0.124 C 
ATOM      8  C   UNL     1      -3.019   3.403  -0.367  1.00  0.00     0.107 C 
ATOM      9  C   UNL     1      -4.418   2.902  -0.287  1.00  0.00    -0.006 C 
ATOM     10  C   UNL     1      -3.135   4.797   0.255  1.00  0.00     0.048 C 
ATOM     11  C   UNL     1      -5.288   3.888  -0.051  1.00  0.00    -0.014 C 
BRANCH   8  12
ATOM     12  N   UNL     1      -2.152   2.536   0.381  1.00  0.00    -0.332 N 
ATOM     13  C   UNL     1      -1.564   1.352   0.141  1.00  0.00     0.317 C 
ATOM     14  O   UNL     1      -1.037   0.827   1.127  1.00  0.00    -0.249 OA
ATOM     15  H   UNL     1      -1.940   2.891   1.275  1.00  0.00     0.165 HD
BRANCH  13  16
ATOM     16  N   UNL     1      -1.539   0.765  -1.094  1.00  0.00    -0.325 N 
ATOM     17  C   UNL     1      -2.007   1.326  -2.351  1.00  0.00     0.148 C 
BRANCH  16  18
ATOM     18  C   UNL     1      -0.872  -0.538  -1.196  1.00  0.00     0.152 C 
BRANCH  18  19
ATOM     19  C   UNL     1       0.641  -0.449  -1.477  1.00  0.00     0.130 C 
ATOM     20  C   UNL     1       1.465  -0.083  -0.247  1.00  0.00     0.040 C 
BRANCH  19  21
ATOM     21  O   UNL     1       1.080  -1.723  -1.962  1.00  0.00    -0.392 OA
ATOM     22  H   UNL     1       0.928  -2.398  -1.283  1.00  0.00     0.211 HD
ENDBRANCH  19  21
ENDBRANCH  18  19
ENDBRANCH  16  18
ENDBRANCH  13  16
ENDBRANCH   8  12
ENDBRANCH   5   7
ENDBRANCH   4   5
ENDBRANCH   3   4
ENDBRANCH   2   3
ENDBRANCH   1   2
BRANCH   1  23
ATOM     23  C   UNL     1      -3.496   8.922   1.083  1.00  0.00     0.188 C 
BRANCH  23  24
ATOM     24  C   UNL     1      -2.275   8.009   1.282  1.00  0.00     0.188 C 
BRANCH  24  25
ATOM     25  O   UNL     1      -1.901   7.800   2.620  1.00  0.00    -0.376 OA
BRANCH  25  26
ATOM     26  C   UNL     1      -0.660   8.313   3.063  1.00  0.00     0.202 C 
BRANCH  26  27
ATOM     27  C   UNL     1      -0.244   9.757   2.724  1.00  0.00     0.261 C 
BRANCH  27  28
ATOM     28  O   UNL     1      -0.620  10.273   1.436  1.00  0.00    -0.460 OA
BRANCH  28  29
ATOM     29  C   UNL     1       0.150   9.944   0.373  1.00  0.00     0.338 C 
ATOM     30  O   UNL     1       1.141   9.230   0.374  1.00  0.00    -0.246 OA
BRANCH  29  31
ATOM     31  C   UNL     1      -0.552  10.411  -0.844  1.00  0.00     0.060 A 
ATOM     32  C   UNL     1      -1.054   9.470  -1.758  1.00  0.00     0.016 A 
ATOM     33  C   UNL     1      -0.752  11.774  -1.061  1.00  0.00     0.016 A 
ATOM     34  C   UNL     1      -1.767   9.892  -2.885  1.00  0.00     0.010 A 
ATOM     35  C   UNL     1      -1.438  12.195  -2.204  1.00  0.00     0.010 A 
ATOM     36  C   UNL     1      -1.942  11.260  -3.127  1.00  0.00    -0.014 A 
BRANCH  36  37
ATOM     37  C   UNL     1      -2.528  11.746  -4.401  1.00  0.00     0.031 A 
ATOM     38  C   UNL     1      -1.601  12.225  -5.482  1.00  0.00     0.074 A 
ATOM     39  C   UNL     1      -3.859  11.815  -4.579  1.00  0.00     0.049 A 
ATOM     40  N   UNL     1      -1.875  12.854  -6.596  1.00  0.00    -0.248 NA
ATOM     41  C   UNL     1      -0.168  11.962  -5.272  1.00  0.00     0.031 C 
ATOM     42  C   UNL     1      -4.866  11.337  -3.635  1.00  0.00     0.029 A 
ATOM     43  N   UNL     1      -4.591  12.349  -5.613  1.00  0.00    -0.354 N 
ATOM     44  C   UNL     1      -0.650  13.081  -7.210  1.00  0.00     0.074 A 
ATOM     45  C   UNL     1       0.369  12.537  -6.338  1.00  0.00     0.031 C 
ATOM     46  C   UNL     1      -6.087  11.628  -4.118  1.00  0.00     0.029 A 
ATOM     47  C   UNL     1      -5.946  12.356  -5.379  1.00  0.00     0.049 A 
ATOM     48  H   UNL     1      -4.185  12.694  -6.441  1.00  0.00     0.167 HD
ATOM     49  C   UNL     1      -0.398  13.691  -8.392  1.00  0.00     0.037 A 
ATOM     50  C   UNL     1      -6.949  12.926  -6.077  1.00  0.00     0.037 A 
ATOM     51  C   UNL     1      -1.414  14.238  -9.253  1.00  0.00     0.049 A 
ATOM     52  C   UNL     1      -6.636  13.694  -7.337  1.00  0.00     0.074 A 
ATOM     53  C   UNL     1      -1.260  14.851 -10.484  1.00  0.00     0.029 A 
ATOM     54  N   UNL     1      -2.770  14.252  -8.965  1.00  0.00    -0.354 N 
ATOM     55  N   UNL     1      -5.479  13.883  -7.926  1.00  0.00    -0.248 NA
ATOM     56  C   UNL     1      -7.766  14.339  -8.023  1.00  0.00     0.031 C 
ATOM     57  C   UNL     1      -2.515  15.294 -10.911  1.00  0.00     0.029 A 
ATOM     58  C   UNL     1      -3.459  14.901  -9.976  1.00  0.00     0.049 A 
ATOM     59  H   UNL     1      -3.182  13.859  -8.162  1.00  0.00     0.167 HD
ATOM     60  C   UNL     1      -5.747  14.644  -9.060  1.00  0.00     0.074 A 
ATOM     61  C   UNL     1      -7.176  14.870  -9.085  1.00  0.00     0.031 C 
ATOM     62  C   UNL     1      -4.885  15.115  -9.994  1.00  0.00     0.037 A 
BRANCH  49  63
ATOM     63  C   UNL     1       1.037  13.833  -8.808  1.00  0.00     0.057 A 
ATOM     64  C   UNL     1       1.807  12.734  -9.209  1.00  0.00     0.134 A 
ATOM     65  C   UNL     1       1.644  15.095  -8.843  1.00  0.00     0.134 A 
ATOM     66  F   UNL     1       1.290  11.496  -9.186  1.00  0.00    -0.206 F 
ATOM     67  C   UNL     1       3.137  12.882  -9.607  1.00  0.00     0.040 A 
ATOM     68  C   UNL     1       2.963  15.259  -9.267  1.00  0.00     0.040 A 
ATOM     69  F   UNL     1       0.962  16.190  -8.477  1.00  0.00    -0.206 F 
ATOM     70  C   UNL     1       3.716  14.149  -9.644  1.00  0.00     0.006 A 
ENDBRANCH  49  63
BRANCH  50  71
ATOM     71  C   UNL     1      -8.348  12.837  -5.583  1.00  0.00     0.057 A 
ATOM     72  C   UNL     1      -9.321  12.120  -6.290  1.00  0.00     0.134 A 
ATOM     73  C   UNL     1      -8.756  13.492  -4.415  1.00  0.00     0.134 A 
ATOM     74  F   UNL     1      -9.001  11.495  -7.433  1.00  0.00    -0.206 F 
ATOM     75  C   UNL     1     -10.649  12.070  -5.863  1.00  0.00     0.040 A 
ATOM     76  C   UNL     1     -10.075  13.427  -3.960  1.00  0.00     0.040 A 
ATOM     77  F   UNL     1      -7.876  14.203  -3.694  1.00  0.00    -0.206 F 
ATOM     78  C   UNL     1     -11.028  12.721  -4.690  1.00  0.00     0.006 A 
ENDBRANCH  50  71
BRANCH  62  79
ATOM     79  C   UNL     1      -5.456  15.900 -11.141  1.00  0.00     0.057 A 
ATOM     80  C   UNL     1      -5.939  17.204 -10.976  1.00  0.00     0.134 A 
ATOM     81  C   UNL     1      -5.455  15.372 -12.439  1.00  0.00     0.134 A 
ATOM     82  F   UNL     1      -5.979  17.766  -9.759  1.00  0.00    -0.206 F 
ATOM     83  C   UNL     1      -6.411  17.950 -12.059  1.00  0.00     0.040 A 
ATOM     84  C   UNL     1      -5.897  16.117 -13.533  1.00  0.00     0.040 A 
ATOM     85  F   UNL     1      -4.996  14.132 -12.669  1.00  0.00    -0.206 F 
ATOM     86  C   UNL     1      -6.380  17.410 -13.343  1.00  0.00     0.006 A 
ENDBRANCH  62  79
ENDBRANCH  36  37
ENDBRANCH  29  31
ENDBRANCH  28  29
ENDBRANCH  27  28
ENDBRANCH  26  27
ENDBRANCH  25  26
ENDBRANCH  24  25
ENDBRANCH  23  24
ENDBRANCH   1  23
TORSDOF 22
