REMARK SMILES O=C(CSc1nnc(-c2ccncc2)s1)Nc1cccc(C(=O)OCCOCCOCCOC(=O)c2ccc(-c3c4nc(c(-c5c(F)cccc5F)c5ccc([nH]5)c(-c5c(F)cccc5F)c5nc(c(-c6c(F)cccc6F)c6ccc3[nH]6)C=C5)C=C4)cc2)c1
REMARK SMILES IDX 27 1 26 2 25 3 24 4 22 5 23 6 21 7 17 8 18 9 90 10 19 11
REMARK SMILES IDX 20 12 16 13 1 14 2 15 3 17 4 18 5 19 6 20 15 21 7 22 8 23
REMARK SMILES IDX 9 24 10 25 14 26 11 27 13 28 12 29 28 30 29 31 30 32 31 33
REMARK SMILES IDX 32 34 33 35 34 36 35 37 36 38 37 39 89 40 38 41 88 42 39 43
REMARK SMILES IDX 40 44 41 45 82 46 42 47 87 48 81 49 83 50 43 51 86 52 80 53
REMARK SMILES IDX 79 54 44 56 70 57 53 58 69 59 54 60 57 61 68 62 84 63 55 64
REMARK SMILES IDX 56 65 67 67 85 68 58 69 45 70 46 71 51 72 47 73 48 74 50 75
REMARK SMILES IDX 52 76 49 77 71 78 72 79 77 80 73 81 74 82 76 83 78 84 75 85
REMARK SMILES IDX 59 86 60 87 65 88 61 89 62 90 64 91 66 92 63 93
REMARK H PARENT 16 16 83 55 57 66
REMARK Flexibility Score: inf
ROOT
ATOM      1  O   UNL     1      -1.803  -0.954  -6.484  1.00  0.00    -0.376 OA
ENDROOT
BRANCH   1   2
ATOM      2  C   UNL     1      -2.421   0.060  -5.709  1.00  0.00     0.202 C 
BRANCH   2   3
ATOM      3  C   UNL     1      -2.564  -0.036  -4.181  1.00  0.00     0.261 C 
BRANCH   3   4
ATOM      4  O   UNL     1      -1.407  -0.497  -3.477  1.00  0.00    -0.460 OA
BRANCH   4   5
ATOM      5  C   UNL     1      -1.519  -1.723  -2.897  1.00  0.00     0.338 C 
ATOM      6  O   UNL     1      -2.482  -2.458  -2.908  1.00  0.00    -0.246 OA
BRANCH   5   7
ATOM      7  C   UNL     1      -0.181  -2.135  -2.415  1.00  0.00     0.062 A 
ATOM      8  C   UNL     1       1.873  -1.650  -1.236  1.00  0.00     0.042 A 
ATOM      9  C   UNL     1       2.388  -2.885  -1.650  1.00  0.00     0.026 A 
ATOM     10  C   UNL     1       0.604  -1.259  -1.666  1.00  0.00     0.041 A 
ATOM     11  C   UNL     1       1.601  -3.762  -2.405  1.00  0.00     0.003 A 
ATOM     12  C   UNL     1       0.304  -3.399  -2.766  1.00  0.00     0.016 A 
BRANCH   8  13
ATOM     13  N   UNL     1       2.655  -0.849  -0.379  1.00  0.00    -0.325 N 
ATOM     14  O   UNL     1       0.962   0.410   0.606  1.00  0.00    -0.274 OA
ATOM     15  C   UNL     1       2.152   0.143   0.450  1.00  0.00     0.234 C 
ATOM     16  H   UNL     1       3.627  -1.005  -0.368  1.00  0.00     0.169 HD
BRANCH  15  17
ATOM     17  C   UNL     1       3.200   0.940   1.195  1.00  0.00     0.177 C 
BRANCH  17  18
ATOM     18  S   UNL     1       4.271  -0.084   2.222  1.00  0.00    -0.084 SA
BRANCH  18  19
ATOM     19  C   UNL     1       3.143  -1.071   3.126  1.00  0.00     0.175 A 
ATOM     20  N   UNL     1       3.321  -2.372   3.175  1.00  0.00    -0.131 NA
ATOM     21  S   UNL     1       1.840  -0.501   4.083  1.00  0.00    -0.086 S 
ATOM     22  N   UNL     1       2.433  -2.987   4.033  1.00  0.00    -0.137 NA
ATOM     23  C   UNL     1       1.596  -2.131   4.584  1.00  0.00     0.148 A 
BRANCH  23  24
ATOM     24  C   UNL     1       0.616  -2.483   5.609  1.00  0.00     0.015 A 
ATOM     25  C   UNL     1      -0.747  -2.223   5.457  1.00  0.00     0.031 A 
ATOM     26  C   UNL     1       1.048  -3.147   6.762  1.00  0.00     0.031 A 
ATOM     27  C   UNL     1      -1.610  -2.631   6.462  1.00  0.00     0.111 A 
ATOM     28  C   UNL     1       0.109  -3.505   7.714  1.00  0.00     0.111 A 
ATOM     29  N   UNL     1      -1.210  -3.258   7.589  1.00  0.00    -0.265 NA
ENDBRANCH  23  24
ENDBRANCH  18  19
ENDBRANCH  17  18
ENDBRANCH  15  17
ENDBRANCH   8  13
ENDBRANCH   5   7
ENDBRANCH   4   5
ENDBRANCH   3   4
ENDBRANCH   2   3
ENDBRANCH   1   2
BRANCH   1  30
ATOM     30  C   UNL     1      -0.624  -1.589  -6.026  1.00  0.00     0.188 C 
BRANCH  30  31
ATOM     31  C   UNL     1       0.625  -0.761  -5.658  1.00  0.00     0.188 C 
BRANCH  31  32
ATOM     32  O   UNL     1       0.521   0.641  -5.676  1.00  0.00    -0.376 OA
BRANCH  32  33
ATOM     33  C   UNL     1       0.547   1.355  -6.899  1.00  0.00     0.202 C 
BRANCH  33  34
ATOM     34  C   UNL     1       0.827   0.766  -8.296  1.00  0.00     0.261 C 
BRANCH  34  35
ATOM     35  O   UNL     1       0.763  -0.652  -8.465  1.00  0.00    -0.460 OA
BRANCH  35  36
ATOM     36  C   UNL     1       1.957  -1.280  -8.605  1.00  0.00     0.338 C 
ATOM     37  O   UNL     1       3.068  -0.783  -8.564  1.00  0.00    -0.246 OA
BRANCH  36  38
ATOM     38  C   UNL     1       1.724  -2.736  -8.647  1.00  0.00     0.060 A 
ATOM     39  C   UNL     1       2.155  -3.519  -7.568  1.00  0.00     0.016 A 
ATOM     40  C   UNL     1       1.116  -3.325  -9.755  1.00  0.00     0.016 A 
ATOM     41  C   UNL     1       1.990  -4.904  -7.601  1.00  0.00     0.010 A 
ATOM     42  C   UNL     1       0.972  -4.715  -9.796  1.00  0.00     0.010 A 
ATOM     43  C   UNL     1       1.429  -5.513  -8.731  1.00  0.00    -0.014 A 
BRANCH  43  44
ATOM     44  C   UNL     1       1.457  -6.989  -8.872  1.00  0.00     0.031 A 
ATOM     45  C   UNL     1       2.531  -7.614  -9.718  1.00  0.00     0.074 A 
ATOM     46  C   UNL     1       0.545  -7.766  -8.261  1.00  0.00     0.049 A 
ATOM     47  N   UNL     1       2.703  -8.866 -10.055  1.00  0.00    -0.248 NA
ATOM     48  C   UNL     1       3.549  -6.698 -10.260  1.00  0.00     0.031 C 
ATOM     49  C   UNL     1      -0.518  -7.289  -7.379  1.00  0.00     0.029 A 
ATOM     50  N   UNL     1       0.362  -9.126  -8.307  1.00  0.00    -0.354 N 
ATOM     51  C   UNL     1       3.838  -8.889 -10.856  1.00  0.00     0.074 A 
ATOM     52  C   UNL     1       4.299  -7.522 -10.976  1.00  0.00     0.031 C 
ATOM     53  C   UNL     1      -1.257  -8.340  -6.982  1.00  0.00     0.029 A 
ATOM     54  C   UNL     1      -0.742  -9.555  -7.612  1.00  0.00     0.049 A 
ATOM     55  H   UNL     1       0.965  -9.735  -8.792  1.00  0.00     0.167 HD
ATOM     56  C   UNL     1       4.443  -9.953 -11.435  1.00  0.00     0.037 A 
ATOM     57  C   UNL     1      -1.291 -10.783  -7.522  1.00  0.00     0.037 A 
ATOM     58  C   UNL     1       3.979 -11.310 -11.321  1.00  0.00     0.049 A 
ATOM     59  C   UNL     1      -0.648 -11.938  -8.248  1.00  0.00     0.074 A 
ATOM     60  C   UNL     1       4.534 -12.459 -11.858  1.00  0.00     0.029 A 
ATOM     61  N   UNL     1       2.840 -11.701 -10.633  1.00  0.00    -0.354 N 
ATOM     62  N   UNL     1       0.438 -11.956  -8.983  1.00  0.00    -0.248 NA
ATOM     63  C   UNL     1      -1.311 -13.245  -8.131  1.00  0.00     0.031 C 
ATOM     64  C   UNL     1       3.699 -13.536 -11.545  1.00  0.00     0.029 A 
ATOM     65  C   UNL     1       2.659 -13.069 -10.758  1.00  0.00     0.049 A 
ATOM     66  H   UNL     1       2.248 -11.096 -10.131  1.00  0.00     0.167 HD
ATOM     67  C   UNL     1       0.606 -13.276  -9.386  1.00  0.00     0.074 A 
ATOM     68  C   UNL     1      -0.483 -14.031  -8.804  1.00  0.00     0.031 C 
ATOM     69  C   UNL     1       1.575 -13.814 -10.167  1.00  0.00     0.037 A 
BRANCH  56  70
ATOM     70  C   UNL     1       5.659  -9.684 -12.274  1.00  0.00     0.057 A 
ATOM     71  C   UNL     1       6.879  -9.289 -11.711  1.00  0.00     0.134 A 
ATOM     72  C   UNL     1       5.616  -9.857 -13.664  1.00  0.00     0.134 A 
ATOM     73  F   UNL     1       6.985  -9.091 -10.388  1.00  0.00    -0.206 F 
ATOM     74  C   UNL     1       8.005  -9.051 -12.501  1.00  0.00     0.040 A 
ATOM     75  C   UNL     1       6.743  -9.651 -14.461  1.00  0.00     0.040 A 
ATOM     76  F   UNL     1       4.481 -10.239 -14.268  1.00  0.00    -0.206 F 
ATOM     77  C   UNL     1       7.941  -9.240 -13.880  1.00  0.00     0.006 A 
ENDBRANCH  56  70
BRANCH  57  78
ATOM     78  C   UNL     1      -2.533 -10.990  -6.734  1.00  0.00     0.057 A 
ATOM     79  C   UNL     1      -2.531 -11.758  -5.564  1.00  0.00     0.134 A 
ATOM     80  C   UNL     1      -3.759 -10.454  -7.149  1.00  0.00     0.134 A 
ATOM     81  F   UNL     1      -1.395 -12.322  -5.129  1.00  0.00    -0.206 F 
ATOM     82  C   UNL     1      -3.704 -12.004  -4.847  1.00  0.00     0.040 A 
ATOM     83  C   UNL     1      -4.934 -10.666  -6.427  1.00  0.00     0.040 A 
ATOM     84  F   UNL     1      -3.830  -9.711  -8.264  1.00  0.00    -0.206 F 
ATOM     85  C   UNL     1      -4.910 -11.452  -5.276  1.00  0.00     0.006 A 
ENDBRANCH  57  78
BRANCH  69  86
ATOM     86  C   UNL     1       1.534 -15.298 -10.401  1.00  0.00     0.057 A 
ATOM     87  C   UNL     1       0.557 -15.899 -11.206  1.00  0.00     0.134 A 
ATOM     88  C   UNL     1       2.513 -16.133  -9.845  1.00  0.00     0.134 A 
ATOM     89  F   UNL     1      -0.416 -15.160 -11.761  1.00  0.00    -0.206 F 
ATOM     90  C   UNL     1       0.540 -17.277 -11.428  1.00  0.00     0.040 A 
ATOM     91  C   UNL     1       2.525 -17.508 -10.085  1.00  0.00     0.040 A 
ATOM     92  F   UNL     1       3.485 -15.624  -9.074  1.00  0.00    -0.206 F 
ATOM     93  C   UNL     1       1.531 -18.085 -10.873  1.00  0.00     0.006 A 
ENDBRANCH  69  86
ENDBRANCH  43  44
ENDBRANCH  36  38
ENDBRANCH  35  36
ENDBRANCH  34  35
ENDBRANCH  33  34
ENDBRANCH  32  33
ENDBRANCH  31  32
ENDBRANCH  30  31
ENDBRANCH   1  30
TORSDOF 22
