REMARK SMILES CCN(CC)C(=O)[C@@H]1CC=CC[C@H]1C(=O)Nc1ccc(C(=O)OCCOCCOCCOC(=O)c2ccc(-c3c4nc(c(-c5c(F)cccc5F)c5ccc([nH]5)c(-c5c(F)cccc5F)c5nc(c(-c6c(F)cccc6F)c6ccc3[nH]6)C=C5)C=C4)cc2)cc1
REMARK SMILES IDX 27 1 26 2 25 3 24 4 23 5 21 6 22 7 20 8 17 9 18 10 90 11
REMARK SMILES IDX 19 12 89 13 16 14 14 15 15 16 13 18 8 19 9 20 10 21 12 22
REMARK SMILES IDX 11 23 6 24 3 25 7 26 2 27 1 28 4 29 5 30 28 31 29 32 30 33
REMARK SMILES IDX 31 34 32 35 33 36 34 37 35 38 36 39 88 40 37 41 87 42 38 43
REMARK SMILES IDX 39 44 40 45 81 46 41 47 86 48 80 49 82 50 42 51 85 52 79 53
REMARK SMILES IDX 78 54 43 56 69 57 52 58 68 59 53 60 56 61 67 62 83 63 54 64
REMARK SMILES IDX 55 65 66 67 84 68 57 69 44 70 45 71 50 72 46 73 47 74 49 75
REMARK SMILES IDX 51 76 48 77 70 78 71 79 76 80 72 81 73 82 75 83 77 84 74 85
REMARK SMILES IDX 58 86 59 87 64 88 60 89 61 90 63 91 65 92 62 93
REMARK H PARENT 16 17 82 55 56 66
REMARK Flexibility Score: inf
ROOT
ATOM      1  C   UNL     1       1.383   0.902  -3.896  1.00  0.00     0.188 C 
ENDROOT
BRANCH   1   2
ATOM      2  O   UNL     1       2.184   1.005  -5.070  1.00  0.00    -0.376 OA
BRANCH   2   3
ATOM      3  C   UNL     1       3.007  -0.083  -5.475  1.00  0.00     0.202 C 
BRANCH   3   4
ATOM      4  C   UNL     1       4.041  -0.646  -4.491  1.00  0.00     0.261 C 
BRANCH   4   5
ATOM      5  O   UNL     1       3.501  -0.951  -3.200  1.00  0.00    -0.460 OA
BRANCH   5   6
ATOM      6  C   UNL     1       3.969  -0.187  -2.179  1.00  0.00     0.338 C 
ATOM      7  O   UNL     1       4.868   0.623  -2.225  1.00  0.00    -0.246 OA
BRANCH   6   8
ATOM      8  C   UNL     1       3.113  -0.371  -0.979  1.00  0.00     0.060 A 
ATOM      9  C   UNL     1       1.798  -0.710   1.433  1.00  0.00     0.041 A 
ATOM     10  C   UNL     1       2.328   0.541   1.123  1.00  0.00     0.027 A 
ATOM     11  C   UNL     1       1.701  -1.694   0.459  1.00  0.00     0.027 A 
ATOM     12  C   UNL     1       3.007   0.703  -0.083  1.00  0.00     0.018 A 
ATOM     13  C   UNL     1       2.408  -1.552  -0.732  1.00  0.00     0.018 A 
BRANCH   9  14
ATOM     14  N   UNL     1       1.530  -1.006   2.767  1.00  0.00    -0.326 N 
ATOM     15  C   UNL     1       2.296  -1.793   3.597  1.00  0.00     0.228 C 
ATOM     16  O   UNL     1       2.089  -1.663   4.812  1.00  0.00    -0.274 OA
ATOM     17  H   UNL     1       0.715  -0.613   3.155  1.00  0.00     0.169 HD
BRANCH  15  18
ATOM     18  C   UNL     1       3.499  -2.655   3.125  1.00  0.00     0.095 C 
ATOM     19  C   UNL     1       3.271  -3.860   2.152  1.00  0.00     0.095 C 
ATOM     20  C   UNL     1       4.610  -4.559   1.870  1.00  0.00     0.041 C 
ATOM     21  C   UNL     1       5.735  -3.622   1.548  1.00  0.00    -0.030 C 
ATOM     22  C   UNL     1       4.653  -1.713   2.720  1.00  0.00     0.041 C 
ATOM     23  C   UNL     1       5.738  -2.335   1.905  1.00  0.00    -0.030 C 
BRANCH  19  24
ATOM     24  C   UNL     1       2.094  -4.733   2.653  1.00  0.00     0.226 C 
ATOM     25  N   UNL     1       1.775  -5.983   2.134  1.00  0.00    -0.343 N 
ATOM     26  O   UNL     1       1.313  -4.235   3.474  1.00  0.00    -0.275 OA
BRANCH  25  27
ATOM     27  C   UNL     1       0.541  -6.608   2.643  1.00  0.00     0.116 C 
ATOM     28  C   UNL     1       0.645  -7.036   4.103  1.00  0.00     0.027 C 
ENDBRANCH  25  27
BRANCH  25  29
ATOM     29  C   UNL     1       2.462  -6.719   1.074  1.00  0.00     0.116 C 
ATOM     30  C   UNL     1       2.169  -6.158  -0.308  1.00  0.00     0.027 C 
ENDBRANCH  25  29
ENDBRANCH  19  24
ENDBRANCH  15  18
ENDBRANCH   9  14
ENDBRANCH   6   8
ENDBRANCH   5   6
ENDBRANCH   4   5
ENDBRANCH   3   4
ENDBRANCH   2   3
ENDBRANCH   1   2
BRANCH   1  31
ATOM     31  C   UNL     1       0.609  -0.398  -3.595  1.00  0.00     0.188 C 
BRANCH  31  32
ATOM     32  O   UNL     1       0.756  -1.394  -4.581  1.00  0.00    -0.376 OA
BRANCH  32  33
ATOM     33  C   UNL     1      -0.364  -1.669  -5.403  1.00  0.00     0.202 C 
BRANCH  33  34
ATOM     34  C   UNL     1      -1.090  -0.519  -6.128  1.00  0.00     0.261 C 
BRANCH  34  35
ATOM     35  O   UNL     1      -1.263   0.713  -5.408  1.00  0.00    -0.460 OA
BRANCH  35  36
ATOM     36  C   UNL     1      -2.296   0.787  -4.538  1.00  0.00     0.338 C 
ATOM     37  O   UNL     1      -3.091  -0.095  -4.270  1.00  0.00    -0.246 OA
BRANCH  36  38
ATOM     38  C   UNL     1      -2.195   2.073  -3.809  1.00  0.00     0.060 A 
ATOM     39  C   UNL     1      -2.016   2.049  -2.420  1.00  0.00     0.016 A 
ATOM     40  C   UNL     1      -2.290   3.293  -4.484  1.00  0.00     0.016 A 
ATOM     41  C   UNL     1      -1.970   3.246  -1.700  1.00  0.00     0.010 A 
ATOM     42  C   UNL     1      -2.258   4.491  -3.759  1.00  0.00     0.010 A 
ATOM     43  C   UNL     1      -2.131   4.473  -2.358  1.00  0.00    -0.014 A 
BRANCH  43  44
ATOM     44  C   UNL     1      -2.322   5.713  -1.562  1.00  0.00     0.031 A 
ATOM     45  C   UNL     1      -3.721   6.218  -1.325  1.00  0.00     0.074 A 
ATOM     46  C   UNL     1      -1.277   6.365  -1.022  1.00  0.00     0.049 A 
ATOM     47  N   UNL     1      -4.127   7.258  -0.642  1.00  0.00    -0.248 NA
ATOM     48  C   UNL     1      -4.808   5.443  -1.943  1.00  0.00     0.031 C 
ATOM     49  C   UNL     1       0.125   5.976  -1.157  1.00  0.00     0.029 A 
ATOM     50  N   UNL     1      -1.238   7.499  -0.247  1.00  0.00    -0.354 N 
ATOM     51  C   UNL     1      -5.513   7.261  -0.744  1.00  0.00     0.074 A 
ATOM     52  C   UNL     1      -5.876   6.142  -1.587  1.00  0.00     0.031 C 
ATOM     53  C   UNL     1       0.888   6.859  -0.489  1.00  0.00     0.029 A 
ATOM     54  C   UNL     1       0.032   7.885   0.103  1.00  0.00     0.049 A 
ATOM     55  H   UNL     1      -2.046   7.989   0.031  1.00  0.00     0.167 HD
ATOM     56  C   UNL     1      -6.405   8.109  -0.178  1.00  0.00     0.037 A 
ATOM     57  C   UNL     1       0.455   8.950   0.813  1.00  0.00     0.037 A 
ATOM     58  C   UNL     1      -6.049   9.229   0.654  1.00  0.00     0.049 A 
ATOM     59  C   UNL     1      -0.554   9.910   1.388  1.00  0.00     0.074 A 
ATOM     60  C   UNL     1      -6.884  10.137   1.282  1.00  0.00     0.029 A 
ATOM     61  N   UNL     1      -4.750   9.600   0.966  1.00  0.00    -0.354 N 
ATOM     62  N   UNL     1      -1.863   9.881   1.315  1.00  0.00    -0.248 NA
ATOM     63  C   UNL     1      -0.023  11.046   2.156  1.00  0.00     0.031 C 
ATOM     64  C   UNL     1      -6.088  11.085   1.936  1.00  0.00     0.029 A 
ATOM     65  C   UNL     1      -4.760  10.734   1.762  1.00  0.00     0.049 A 
ATOM     66  H   UNL     1      -3.940   9.127   0.666  1.00  0.00     0.167 HD
ATOM     67  C   UNL     1      -2.311  10.970   2.055  1.00  0.00     0.074 A 
ATOM     68  C   UNL     1      -1.135  11.632   2.578  1.00  0.00     0.031 C 
ATOM     69  C   UNL     1      -3.583  11.382   2.283  1.00  0.00     0.037 A 
BRANCH  56  70
ATOM     70  C   UNL     1      -7.860   7.867  -0.461  1.00  0.00     0.057 A 
ATOM     71  C   UNL     1      -8.548   6.777   0.089  1.00  0.00     0.134 A 
ATOM     72  C   UNL     1      -8.588   8.749  -1.269  1.00  0.00     0.134 A 
ATOM     73  F   UNL     1      -7.907   5.885   0.859  1.00  0.00    -0.206 F 
ATOM     74  C   UNL     1      -9.902   6.561  -0.174  1.00  0.00     0.040 A 
ATOM     75  C   UNL     1      -9.948   8.559  -1.517  1.00  0.00     0.040 A 
ATOM     76  F   UNL     1      -7.991   9.815  -1.823  1.00  0.00    -0.206 F 
ATOM     77  C   UNL     1     -10.608   7.458  -0.974  1.00  0.00     0.006 A 
ENDBRANCH  56  70
BRANCH  57  78
ATOM     78  C   UNL     1       1.908   9.170   1.032  1.00  0.00     0.057 A 
ATOM     79  C   UNL     1       2.480   9.038   2.303  1.00  0.00     0.134 A 
ATOM     80  C   UNL     1       2.752   9.550  -0.018  1.00  0.00     0.134 A 
ATOM     81  F   UNL     1       1.718   8.703   3.354  1.00  0.00    -0.206 F 
ATOM     82  C   UNL     1       3.834   9.295   2.526  1.00  0.00     0.040 A 
ATOM     83  C   UNL     1       4.113   9.783   0.185  1.00  0.00     0.040 A 
ATOM     84  F   UNL     1       2.265   9.695  -1.260  1.00  0.00    -0.206 F 
ATOM     85  C   UNL     1       4.656   9.664   1.463  1.00  0.00     0.006 A 
ENDBRANCH  57  78
BRANCH  69  86
ATOM     86  C   UNL     1      -3.769  12.578   3.174  1.00  0.00     0.057 A 
ATOM     87  C   UNL     1      -3.415  13.872   2.770  1.00  0.00     0.134 A 
ATOM     88  C   UNL     1      -4.324  12.432   4.453  1.00  0.00     0.134 A 
ATOM     89  F   UNL     1      -2.869  14.082   1.563  1.00  0.00    -0.206 F 
ATOM     90  C   UNL     1      -3.573  14.970   3.618  1.00  0.00     0.040 A 
ATOM     91  C   UNL     1      -4.514  13.526   5.298  1.00  0.00     0.040 A 
ATOM     92  F   UNL     1      -4.698  11.223   4.900  1.00  0.00    -0.206 F 
ATOM     93  C   UNL     1      -4.128  14.799   4.885  1.00  0.00     0.006 A 
ENDBRANCH  69  86
ENDBRANCH  43  44
ENDBRANCH  36  38
ENDBRANCH  35  36
ENDBRANCH  34  35
ENDBRANCH  33  34
ENDBRANCH  32  33
ENDBRANCH  31  32
ENDBRANCH   1  31
TORSDOF 22
