REMARK SMILES Cc1c(C(=O)OCCOCCOCCOC(=O)c2ccc(-c3c4nc(c(-c5c(F)cccc5F)c5ccc([nH]5)c(-c5c(F)cccc5F)c5nc(c(-c6c(F)cccc6F)c6ccc3[nH]6)C=C5)C=C4)cc2)sc2c1=C(CSc1nncn1-c1ccccc1)CC(=O)N=2
REMARK SMILES IDX 10 1 9 2 8 3 7 4 6 5 4 6 5 7 3 8 1 9 2 10 74 11 72 12 73 13
REMARK SMILES IDX 75 14 92 15 89 16 90 17 91 18 76 19 77 20 78 21 79 22 82 23
REMARK SMILES IDX 80 24 81 25 83 26 84 27 88 28 85 29 87 30 86 31 11 32 12 33
REMARK SMILES IDX 13 34 14 35 15 36 16 37 17 38 18 39 19 40 71 41 20 42 70 43
REMARK SMILES IDX 21 44 22 45 23 46 64 47 24 48 69 49 63 50 65 51 25 52 68 53
REMARK SMILES IDX 62 54 61 55 26 57 52 58 35 59 51 60 36 61 39 62 50 63 66 64
REMARK SMILES IDX 37 65 38 66 49 68 67 69 40 70 27 71 28 72 33 73 29 74 30 75
REMARK SMILES IDX 32 76 34 77 31 78 53 79 54 80 59 81 55 82 56 83 58 84 60 85
REMARK SMILES IDX 57 86 41 87 42 88 47 89 43 90 44 91 46 92 48 93 45 94
REMARK H PARENT 65 56 39 67
REMARK Flexibility Score: inf
ROOT
ATOM      1  C   UNL     1       3.368  -4.318   2.153  1.00  0.00     0.188 C 
ENDROOT
BRANCH   1   2
ATOM      2  O   UNL     1       4.718  -3.947   1.932  1.00  0.00    -0.376 OA
BRANCH   2   3
ATOM      3  C   UNL     1       5.119  -3.908   0.565  1.00  0.00     0.202 C 
BRANCH   3   4
ATOM      4  C   UNL     1       4.541  -2.735  -0.234  1.00  0.00     0.261 C 
BRANCH   4   5
ATOM      5  O   UNL     1       3.105  -2.701  -0.328  1.00  0.00    -0.459 OA
BRANCH   5   6
ATOM      6  C   UNL     1       2.502  -3.665  -1.067  1.00  0.00     0.348 C 
ATOM      7  O   UNL     1       3.090  -4.556  -1.637  1.00  0.00    -0.245 OA
BRANCH   6   8
ATOM      8  C   UNL     1       1.014  -3.493  -1.069  1.00  0.00     0.118 A 
ATOM      9  C   UNL     1       0.548  -1.203   0.025  1.00  0.00     0.047 C 
ATOM     10  C   UNL     1       0.233  -2.440  -0.752  1.00  0.00    -0.016 A 
ATOM     11  C   UNL     1      -1.170  -2.689  -1.005  1.00  0.00     0.016 A 
ATOM     12  S   UNL     1       0.062  -4.952  -1.375  1.00  0.00    -0.108 S 
ATOM     13  C   UNL     1      -1.468  -4.137  -1.077  1.00  0.00     0.128 A 
ATOM     14  C   UNL     1      -2.158  -1.966  -1.563  1.00  0.00    -0.040 C 
ATOM     15  N   UNL     1      -2.598  -4.738  -1.048  1.00  0.00    -0.202 NA
ATOM     16  C   UNL     1      -3.574  -2.448  -1.298  1.00  0.00     0.135 C 
ATOM     17  C   UNL     1      -3.702  -3.927  -0.912  1.00  0.00     0.251 C 
ATOM     18  O   UNL     1      -4.789  -4.357  -0.534  1.00  0.00    -0.272 OA
BRANCH  14  19
ATOM     19  C   UNL     1      -2.105  -0.732  -2.441  1.00  0.00     0.110 C 
BRANCH  19  20
ATOM     20  S   UNL     1      -0.507  -0.369  -3.228  1.00  0.00    -0.081 SA
BRANCH  20  21
ATOM     21  C   UNL     1      -0.597   1.368  -3.206  1.00  0.00     0.195 A 
ATOM     22  N   UNL     1      -1.585   2.043  -3.753  1.00  0.00    -0.123 NA
ATOM     23  N   UNL     1       0.119   2.184  -2.349  1.00  0.00    -0.277 N 
ATOM     24  N   UNL     1      -1.569   3.309  -3.227  1.00  0.00    -0.138 NA
ATOM     25  C   UNL     1      -0.578   3.368  -2.368  1.00  0.00     0.231 A 
BRANCH  23  26
ATOM     26  C   UNL     1       1.246   1.894  -1.541  1.00  0.00     0.049 A 
ATOM     27  C   UNL     1       2.259   1.048  -2.009  1.00  0.00     0.027 A 
ATOM     28  C   UNL     1       1.304   2.404  -0.235  1.00  0.00     0.027 A 
ATOM     29  C   UNL     1       3.306   0.686  -1.160  1.00  0.00     0.002 A 
ATOM     30  C   UNL     1       2.334   2.003   0.618  1.00  0.00     0.002 A 
ATOM     31  C   UNL     1       3.331   1.144   0.158  1.00  0.00     0.000 A 
ENDBRANCH  23  26
ENDBRANCH  20  21
ENDBRANCH  19  20
ENDBRANCH  14  19
ENDBRANCH   6   8
ENDBRANCH   5   6
ENDBRANCH   4   5
ENDBRANCH   3   4
ENDBRANCH   2   3
ENDBRANCH   1   2
BRANCH   1  32
ATOM     32  C   UNL     1       2.414  -3.164   2.522  1.00  0.00     0.188 C 
BRANCH  32  33
ATOM     33  O   UNL     1       2.862  -1.830   2.746  1.00  0.00    -0.376 OA
BRANCH  33  34
ATOM     34  C   UNL     1       4.141  -1.552   3.298  1.00  0.00     0.202 C 
BRANCH  34  35
ATOM     35  C   UNL     1       4.469  -2.020   4.710  1.00  0.00     0.261 C 
BRANCH  35  36
ATOM     36  O   UNL     1       4.097  -3.363   4.961  1.00  0.00    -0.460 OA
BRANCH  36  37
ATOM     37  C   UNL     1       2.875  -3.490   5.516  1.00  0.00     0.338 C 
ATOM     38  O   UNL     1       2.047  -2.613   5.702  1.00  0.00    -0.246 OA
BRANCH  37  39
ATOM     39  C   UNL     1       2.685  -4.881   5.933  1.00  0.00     0.060 A 
ATOM     40  C   UNL     1       1.401  -5.248   6.344  1.00  0.00     0.016 A 
ATOM     41  C   UNL     1       3.798  -5.709   6.135  1.00  0.00     0.016 A 
ATOM     42  C   UNL     1       1.263  -6.353   7.153  1.00  0.00     0.010 A 
ATOM     43  C   UNL     1       3.663  -6.802   6.955  1.00  0.00     0.010 A 
ATOM     44  C   UNL     1       2.413  -7.052   7.523  1.00  0.00    -0.014 A 
BRANCH  44  45
ATOM     45  C   UNL     1       2.296  -8.020   8.591  1.00  0.00     0.031 A 
ATOM     46  C   UNL     1       1.815  -9.352   8.184  1.00  0.00     0.074 A 
ATOM     47  C   UNL     1       2.728  -7.726   9.832  1.00  0.00     0.049 A 
ATOM     48  N   UNL     1       0.775  -9.985   8.613  1.00  0.00    -0.248 NA
ATOM     49  C   UNL     1       2.538 -10.032   7.099  1.00  0.00     0.031 C 
ATOM     50  C   UNL     1       3.494  -6.543  10.243  1.00  0.00     0.029 A 
ATOM     51  N   UNL     1       2.688  -8.482  10.963  1.00  0.00    -0.354 N 
ATOM     52  C   UNL     1       0.833 -11.235   8.008  1.00  0.00     0.074 A 
ATOM     53  C   UNL     1       1.826 -11.150   6.971  1.00  0.00     0.031 C 
ATOM     54  C   UNL     1       4.030  -6.769  11.461  1.00  0.00     0.029 A 
ATOM     55  C   UNL     1       3.562  -8.054  11.952  1.00  0.00     0.049 A 
ATOM     56  H   UNL     1       2.094  -9.260  11.070  1.00  0.00     0.167 HD
ATOM     57  C   UNL     1       0.276 -12.320   8.605  1.00  0.00     0.037 A 
ATOM     58  C   UNL     1       3.943  -8.749  13.050  1.00  0.00     0.037 A 
ATOM     59  C   UNL     1      -0.749 -11.945   9.546  1.00  0.00     0.049 A 
ATOM     60  C   UNL     1       2.960  -9.838  13.266  1.00  0.00     0.074 A 
ATOM     61  C   UNL     1      -1.910 -11.198   9.482  1.00  0.00     0.029 A 
ATOM     62  N   UNL     1      -0.485 -12.106  10.883  1.00  0.00    -0.354 N 
ATOM     63  N   UNL     1       1.738  -9.665  13.684  1.00  0.00    -0.248 NA
ATOM     64  C   UNL     1       3.230 -11.136  12.663  1.00  0.00     0.031 C 
ATOM     65  C   UNL     1      -2.035 -10.580  10.760  1.00  0.00     0.029 A 
ATOM     66  C   UNL     1      -0.956 -11.000  11.538  1.00  0.00     0.049 A 
ATOM     67  H   UNL     1      -0.037 -12.879  11.297  1.00  0.00     0.167 HD
ATOM     68  C   UNL     1       0.999 -10.633  13.021  1.00  0.00     0.074 A 
ATOM     69  C   UNL     1       1.982 -11.588  12.527  1.00  0.00     0.031 C 
ATOM     70  C   UNL     1      -0.306 -10.412  12.686  1.00  0.00     0.037 A 
BRANCH  57  71
ATOM     71  C   UNL     1       0.966 -13.665   8.652  1.00  0.00     0.057 A 
ATOM     72  C   UNL     1       0.270 -14.764   9.183  1.00  0.00     0.134 A 
ATOM     73  C   UNL     1       2.358 -13.850   8.507  1.00  0.00     0.134 A 
ATOM     74  F   UNL     1      -1.056 -14.707   9.380  1.00  0.00    -0.206 F 
ATOM     75  C   UNL     1       0.924 -15.918   9.631  1.00  0.00     0.040 A 
ATOM     76  C   UNL     1       3.012 -15.021   8.897  1.00  0.00     0.040 A 
ATOM     77  F   UNL     1       3.178 -12.882   8.081  1.00  0.00    -0.206 F 
ATOM     78  C   UNL     1       2.301 -16.044   9.498  1.00  0.00     0.006 A 
ENDBRANCH  57  71
BRANCH  58  79
ATOM     79  C   UNL     1       5.224  -8.684  13.791  1.00  0.00     0.057 A 
ATOM     80  C   UNL     1       5.346  -9.244  15.070  1.00  0.00     0.134 A 
ATOM     81  C   UNL     1       6.427  -8.288  13.177  1.00  0.00     0.134 A 
ATOM     82  F   UNL     1       4.266  -9.696  15.723  1.00  0.00    -0.206 F 
ATOM     83  C   UNL     1       6.588  -9.414  15.695  1.00  0.00     0.040 A 
ATOM     84  C   UNL     1       7.671  -8.434  13.798  1.00  0.00     0.040 A 
ATOM     85  F   UNL     1       6.450  -7.825  11.920  1.00  0.00    -0.206 F 
ATOM     86  C   UNL     1       7.757  -9.012  15.057  1.00  0.00     0.006 A 
ENDBRANCH  58  79
BRANCH  70  87
ATOM     87  C   UNL     1      -1.023  -9.289  13.376  1.00  0.00     0.057 A 
ATOM     88  C   UNL     1      -0.665  -7.939  13.261  1.00  0.00     0.134 A 
ATOM     89  C   UNL     1      -2.191  -9.580  14.092  1.00  0.00     0.134 A 
ATOM     90  F   UNL     1       0.375  -7.557  12.507  1.00  0.00    -0.206 F 
ATOM     91  C   UNL     1      -1.405  -6.929  13.884  1.00  0.00     0.040 A 
ATOM     92  C   UNL     1      -2.957  -8.578  14.689  1.00  0.00     0.040 A 
ATOM     93  F   UNL     1      -2.626 -10.847  14.192  1.00  0.00    -0.206 F 
ATOM     94  C   UNL     1      -2.557  -7.248  14.598  1.00  0.00     0.006 A 
ENDBRANCH  70  87
ENDBRANCH  44  45
ENDBRANCH  37  39
ENDBRANCH  36  37
ENDBRANCH  35  36
ENDBRANCH  34  35
ENDBRANCH  33  34
ENDBRANCH  32  33
ENDBRANCH   1  32
TORSDOF 21
