REMARK SMILES CC1=C(C)C[C@@H](C(=O)OCCOCCOCCOC(=O)c2ccc(-c3c4nc(c(-c5c(F)cccc5F)c5ccc([nH]5)c(-c5c(F)cccc5F)c5nc(c(-c6c(F)cccc6F)c6ccc3[nH]6)C=C5)C=C4)cc2)[C@H](C(=O)NCc2cccnc2)C1
REMARK SMILES IDX 13 1 12 2 11 3 10 4 9 5 7 6 8 7 6 8 1 9 2 10 3 11 86 12 4 13
REMARK SMILES IDX 5 14 75 15 76 16 77 17 78 18 79 20 80 21 81 22 85 23 82 24
REMARK SMILES IDX 84 25 83 26 14 27 15 28 16 29 17 30 18 31 19 32 20 33 21 34
REMARK SMILES IDX 22 35 74 36 23 37 73 38 24 39 25 40 26 41 67 42 27 43 72 44
REMARK SMILES IDX 66 45 68 46 28 47 71 48 65 49 64 50 29 52 55 53 38 54 54 55
REMARK SMILES IDX 39 56 42 57 53 58 69 59 40 60 41 61 52 63 70 64 43 65 30 66
REMARK SMILES IDX 31 67 36 68 32 69 33 70 35 71 37 72 34 73 56 74 57 75 62 76
REMARK SMILES IDX 58 77 59 78 61 79 63 80 60 81 44 82 45 83 50 84 46 85 47 86
REMARK SMILES IDX 49 87 51 88 48 89
REMARK H PARENT 78 19 68 51 42 62
REMARK Flexibility Score: inf
ROOT
ATOM      1  C   UNL     1      -2.852   2.490  -5.703  1.00  0.00     0.188 C 
ENDROOT
BRANCH   1   2
ATOM      2  O   UNL     1      -4.177   1.977  -5.746  1.00  0.00    -0.376 OA
BRANCH   2   3
ATOM      3  C   UNL     1      -4.819   1.710  -4.504  1.00  0.00     0.202 C 
BRANCH   3   4
ATOM      4  C   UNL     1      -4.207   0.630  -3.596  1.00  0.00     0.261 C 
BRANCH   4   5
ATOM      5  O   UNL     1      -2.790   0.734  -3.340  1.00  0.00    -0.463 OA
BRANCH   5   6
ATOM      6  C   UNL     1      -2.019  -0.076  -4.109  1.00  0.00     0.310 C 
ATOM      7  O   UNL     1      -2.459  -0.818  -4.985  1.00  0.00    -0.252 OA
BRANCH   6   8
ATOM      8  C   UNL     1      -0.528  -0.046  -3.797  1.00  0.00     0.116 C 
ATOM      9  C   UNL     1       0.843  -0.194   0.457  1.00  0.00     0.039 C 
ATOM     10  C   UNL     1       0.417  -0.241  -0.989  1.00  0.00    -0.074 C 
ATOM     11  C   UNL     1       0.128  -1.371  -1.663  1.00  0.00    -0.073 C 
ATOM     12  C   UNL     1       0.360   1.126  -1.627  1.00  0.00     0.045 C 
ATOM     13  C   UNL     1       0.161  -2.765  -1.088  1.00  0.00     0.039 C 
ATOM     14  C   UNL     1      -0.249  -1.382  -3.118  1.00  0.00     0.046 C 
ATOM     15  C   UNL     1       0.040   1.207  -3.121  1.00  0.00     0.097 C 
BRANCH  15  16
ATOM     16  C   UNL     1       1.202   1.838  -3.898  1.00  0.00     0.224 C 
ATOM     17  O   UNL     1       1.031   2.916  -4.477  1.00  0.00    -0.275 OA
ATOM     18  N   UNL     1       2.444   1.308  -3.998  1.00  0.00    -0.352 N 
ATOM     19  H   UNL     1       3.092   1.906  -4.436  1.00  0.00     0.163 HD
BRANCH  18  20
ATOM     20  C   UNL     1       3.012   0.039  -3.590  1.00  0.00     0.153 C 
BRANCH  20  21
ATOM     21  C   UNL     1       3.052  -0.969  -4.706  1.00  0.00    -0.010 A 
ATOM     22  C   UNL     1       3.196  -0.619  -6.053  1.00  0.00     0.009 A 
ATOM     23  C   UNL     1       2.990  -2.330  -4.415  1.00  0.00     0.116 A 
ATOM     24  C   UNL     1       3.198  -1.610  -7.032  1.00  0.00     0.020 A 
ATOM     25  N   UNL     1       2.981  -3.313  -5.343  1.00  0.00    -0.264 NA
ATOM     26  C   UNL     1       3.073  -2.929  -6.632  1.00  0.00     0.111 A 
ENDBRANCH  20  21
ENDBRANCH  18  20
ENDBRANCH  15  16
ENDBRANCH   6   8
ENDBRANCH   5   6
ENDBRANCH   4   5
ENDBRANCH   3   4
ENDBRANCH   2   3
ENDBRANCH   1   2
BRANCH   1  27
ATOM     27  C   UNL     1      -2.606   3.717  -4.832  1.00  0.00     0.188 C 
BRANCH  27  28
ATOM     28  O   UNL     1      -3.237   3.747  -3.562  1.00  0.00    -0.376 OA
BRANCH  28  29
ATOM     29  C   UNL     1      -3.159   4.993  -2.862  1.00  0.00     0.202 C 
BRANCH  29  30
ATOM     30  C   UNL     1      -3.628   6.267  -3.611  1.00  0.00     0.261 C 
BRANCH  30  31
ATOM     31  O   UNL     1      -2.974   6.569  -4.867  1.00  0.00    -0.460 OA
BRANCH  31  32
ATOM     32  C   UNL     1      -1.617   6.641  -4.868  1.00  0.00     0.338 C 
ATOM     33  O   UNL     1      -0.912   6.748  -3.891  1.00  0.00    -0.246 OA
BRANCH  32  34
ATOM     34  C   UNL     1      -1.117   6.296  -6.240  1.00  0.00     0.060 A 
ATOM     35  C   UNL     1      -0.008   5.443  -6.331  1.00  0.00     0.016 A 
ATOM     36  C   UNL     1      -1.741   6.723  -7.416  1.00  0.00     0.016 A 
ATOM     37  C   UNL     1       0.499   5.042  -7.574  1.00  0.00     0.010 A 
ATOM     38  C   UNL     1      -1.212   6.350  -8.666  1.00  0.00     0.010 A 
ATOM     39  C   UNL     1      -0.068   5.532  -8.755  1.00  0.00    -0.014 A 
BRANCH  39  40
ATOM     40  C   UNL     1       0.668   5.394 -10.045  1.00  0.00     0.031 A 
ATOM     41  C   UNL     1       1.511   6.557 -10.505  1.00  0.00     0.074 A 
ATOM     42  C   UNL     1       0.641   4.273 -10.792  1.00  0.00     0.049 A 
ATOM     43  N   UNL     1       2.178   6.722 -11.620  1.00  0.00    -0.248 NA
ATOM     44  C   UNL     1       1.611   7.690  -9.572  1.00  0.00     0.031 C 
ATOM     45  C   UNL     1      -0.066   3.041 -10.454  1.00  0.00     0.029 A 
ATOM     46  N   UNL     1       1.225   4.001 -12.010  1.00  0.00    -0.354 N 
ATOM     47  C   UNL     1       2.757   7.983 -11.530  1.00  0.00     0.074 A 
ATOM     48  C   UNL     1       2.347   8.546 -10.262  1.00  0.00     0.031 C 
ATOM     49  C   UNL     1       0.104   2.153 -11.451  1.00  0.00     0.029 A 
ATOM     50  C   UNL     1       0.902   2.764 -12.516  1.00  0.00     0.049 A 
ATOM     51  H   UNL     1       1.818   4.634 -12.475  1.00  0.00     0.167 HD
ATOM     52  C   UNL     1       3.561   8.617 -12.416  1.00  0.00     0.037 A 
ATOM     53  C   UNL     1       1.187   2.202 -13.710  1.00  0.00     0.037 A 
ATOM     54  C   UNL     1       3.981   8.065 -13.677  1.00  0.00     0.049 A 
ATOM     55  C   UNL     1       2.011   2.961 -14.723  1.00  0.00     0.074 A 
ATOM     56  C   UNL     1       4.809   8.631 -14.631  1.00  0.00     0.029 A 
ATOM     57  N   UNL     1       3.598   6.826 -14.165  1.00  0.00    -0.354 N 
ATOM     58  N   UNL     1       2.562   4.146 -14.625  1.00  0.00    -0.248 NA
ATOM     59  C   UNL     1       2.252   2.300 -16.017  1.00  0.00     0.031 C 
ATOM     60  C   UNL     1       4.878   7.760 -15.723  1.00  0.00     0.029 A 
ATOM     61  C   UNL     1       4.148   6.623 -15.420  1.00  0.00     0.049 A 
ATOM     62  H   UNL     1       3.022   6.184 -13.690  1.00  0.00     0.167 HD
ATOM     63  C   UNL     1       3.236   4.358 -15.824  1.00  0.00     0.074 A 
ATOM     64  C   UNL     1       3.038   3.174 -16.631  1.00  0.00     0.031 C 
ATOM     65  C   UNL     1       3.958   5.437 -16.218  1.00  0.00     0.037 A 
BRANCH  52  66
ATOM     66  C   UNL     1       4.005  10.009 -12.069  1.00  0.00     0.057 A 
ATOM     67  C   UNL     1       4.927  10.265 -11.045  1.00  0.00     0.134 A 
ATOM     68  C   UNL     1       3.516  11.108 -12.787  1.00  0.00     0.134 A 
ATOM     69  F   UNL     1       5.423   9.259 -10.308  1.00  0.00    -0.206 F 
ATOM     70  C   UNL     1       5.323  11.566 -10.729  1.00  0.00     0.040 A 
ATOM     71  C   UNL     1       3.928  12.410 -12.501  1.00  0.00     0.040 A 
ATOM     72  F   UNL     1       2.636  10.933 -13.784  1.00  0.00    -0.206 F 
ATOM     73  C   UNL     1       4.828  12.643 -11.463  1.00  0.00     0.006 A 
ENDBRANCH  52  66
BRANCH  53  74
ATOM     74  C   UNL     1       0.658   0.852 -14.047  1.00  0.00     0.057 A 
ATOM     75  C   UNL     1       1.510  -0.246 -14.220  1.00  0.00     0.134 A 
ATOM     76  C   UNL     1      -0.712   0.639 -14.253  1.00  0.00     0.134 A 
ATOM     77  F   UNL     1       2.835  -0.102 -14.074  1.00  0.00    -0.206 F 
ATOM     78  C   UNL     1       1.023  -1.500 -14.599  1.00  0.00     0.040 A 
ATOM     79  C   UNL     1      -1.215  -0.615 -14.602  1.00  0.00     0.040 A 
ATOM     80  F   UNL     1      -1.581   1.651 -14.117  1.00  0.00    -0.206 F 
ATOM     81  C   UNL     1      -0.345  -1.688 -14.784  1.00  0.00     0.006 A 
ENDBRANCH  53  74
BRANCH  65  82
ATOM     82  C   UNL     1       4.630   5.379 -17.562  1.00  0.00     0.057 A 
ATOM     83  C   UNL     1       3.909   5.441 -18.761  1.00  0.00     0.134 A 
ATOM     84  C   UNL     1       6.028   5.312 -17.655  1.00  0.00     0.134 A 
ATOM     85  F   UNL     1       2.569   5.498 -18.747  1.00  0.00    -0.206 F 
ATOM     86  C   UNL     1       4.551   5.414 -20.002  1.00  0.00     0.040 A 
ATOM     87  C   UNL     1       6.682   5.315 -18.888  1.00  0.00     0.040 A 
ATOM     88  F   UNL     1       6.783   5.263 -16.547  1.00  0.00    -0.206 F 
ATOM     89  C   UNL     1       5.942   5.359 -20.067  1.00  0.00     0.006 A 
ENDBRANCH  65  82
ENDBRANCH  39  40
ENDBRANCH  32  34
ENDBRANCH  31  32
ENDBRANCH  30  31
ENDBRANCH  29  30
ENDBRANCH  28  29
ENDBRANCH  27  28
ENDBRANCH   1  27
TORSDOF 20
