REMARK SMILES CC(C)Nc1cc2ccccc2cc1C(=O)OCCOCCOCCOC(=O)c1ccc(-c2c3nc(c(-c4c(F)cccc4F)c4ccc([nH]4)c(-c4c(F)cccc4F)c4nc(c(-c5c(F)cccc5F)c5ccc2[nH]5)C=C4)C=C3)cc1
REMARK SMILES IDX 21 1 20 2 19 3 18 4 17 5 15 6 16 7 14 8 5 9 6 10 7 11 13 12
REMARK SMILES IDX 8 13 12 14 9 15 11 16 10 17 4 18 2 20 1 21 3 22 22 23 23 24
REMARK SMILES IDX 24 25 25 26 26 27 27 28 28 29 29 30 30 31 82 32 31 33 81 34
REMARK SMILES IDX 32 35 33 36 34 37 75 38 35 39 80 40 74 41 76 42 36 43 79 44
REMARK SMILES IDX 73 45 72 46 37 48 63 49 46 50 62 51 47 52 50 53 61 54 77 55
REMARK SMILES IDX 48 56 49 57 60 59 78 60 51 61 38 62 39 63 44 64 40 65 41 66
REMARK SMILES IDX 43 67 45 68 42 69 64 70 65 71 70 72 66 73 67 74 69 75 71 76
REMARK SMILES IDX 68 77 52 78 53 79 58 80 54 81 55 82 57 83 59 84 56 85
REMARK H PARENT 4 19 76 47 50 58
REMARK Flexibility Score: inf
ROOT
ATOM      1  C   UNL     1      -0.225   2.611  -5.631  1.00  0.00     0.188 C 
ENDROOT
BRANCH   1   2
ATOM      2  O   UNL     1       1.098   2.340  -6.076  1.00  0.00    -0.376 OA
BRANCH   2   3
ATOM      3  C   UNL     1       2.002   1.731  -5.156  1.00  0.00     0.202 C 
BRANCH   3   4
ATOM      4  C   UNL     1       2.187   2.478  -3.842  1.00  0.00     0.261 C 
BRANCH   4   5
ATOM      5  O   UNL     1       1.004   2.296  -3.052  1.00  0.00    -0.460 OA
BRANCH   5   6
ATOM      6  C   UNL     1       0.784   3.233  -2.107  1.00  0.00     0.340 C 
ATOM      7  O   UNL     1       1.530   4.155  -1.818  1.00  0.00    -0.246 OA
BRANCH   6   8
ATOM      8  C   UNL     1      -0.605   3.116  -1.620  1.00  0.00     0.083 A 
ATOM      9  C   UNL     1      -1.182   1.979  -1.028  1.00  0.00     0.050 A 
ATOM     10  C   UNL     1      -2.522   2.121  -0.593  1.00  0.00     0.035 A 
ATOM     11  C   UNL     1      -3.278   3.296  -0.765  1.00  0.00    -0.016 A 
ATOM     12  C   UNL     1      -1.365   4.287  -1.845  1.00  0.00     0.026 A 
ATOM     13  C   UNL     1      -4.591   3.411  -0.277  1.00  0.00     0.009 A 
ATOM     14  C   UNL     1      -2.698   4.387  -1.433  1.00  0.00    -0.017 A 
ATOM     15  C   UNL     1      -5.325   4.582  -0.470  1.00  0.00     0.001 A 
ATOM     16  C   UNL     1      -3.457   5.550  -1.649  1.00  0.00     0.009 A 
ATOM     17  C   UNL     1      -4.763   5.646  -1.169  1.00  0.00     0.001 A 
BRANCH   9  18
ATOM     18  N   UNL     1      -0.604   0.755  -0.746  1.00  0.00    -0.382 N 
ATOM     19  H   UNL     1      -1.238   0.043  -0.504  1.00  0.00     0.160 HD
BRANCH  18  20
ATOM     20  C   UNL     1       0.793   0.356  -0.749  1.00  0.00     0.073 C 
ATOM     21  C   UNL     1       1.115  -0.255   0.615  1.00  0.00     0.030 C 
ATOM     22  C   UNL     1       1.019  -0.679  -1.851  1.00  0.00     0.030 C 
ENDBRANCH  18  20
ENDBRANCH   9  18
ENDBRANCH   6   8
ENDBRANCH   5   6
ENDBRANCH   4   5
ENDBRANCH   3   4
ENDBRANCH   2   3
ENDBRANCH   1   2
BRANCH   1  23
ATOM     23  C   UNL     1      -1.105   1.458  -5.101  1.00  0.00     0.188 C 
BRANCH  23  24
ATOM     24  O   UNL     1      -0.743   0.104  -5.325  1.00  0.00    -0.376 OA
BRANCH  24  25
ATOM     25  C   UNL     1      -0.346  -0.310  -6.625  1.00  0.00     0.202 C 
BRANCH  25  26
ATOM     26  C   UNL     1      -1.365  -0.174  -7.755  1.00  0.00     0.261 C 
BRANCH  26  27
ATOM     27  O   UNL     1      -1.715   1.196  -8.003  1.00  0.00    -0.460 OA
BRANCH  27  28
ATOM     28  C   UNL     1      -3.032   1.486  -7.879  1.00  0.00     0.338 C 
ATOM     29  O   UNL     1      -3.948   0.715  -7.654  1.00  0.00    -0.246 OA
BRANCH  28  30
ATOM     30  C   UNL     1      -3.204   2.950  -7.887  1.00  0.00     0.060 A 
ATOM     31  C   UNL     1      -3.879   3.537  -6.809  1.00  0.00     0.016 A 
ATOM     32  C   UNL     1      -2.742   3.728  -8.950  1.00  0.00     0.016 A 
ATOM     33  C   UNL     1      -4.127   4.908  -6.808  1.00  0.00     0.010 A 
ATOM     34  C   UNL     1      -3.009   5.099  -8.957  1.00  0.00     0.010 A 
ATOM     35  C   UNL     1      -3.727   5.688  -7.901  1.00  0.00    -0.014 A 
BRANCH  35  36
ATOM     36  C   UNL     1      -4.198   7.085  -8.019  1.00  0.00     0.031 A 
ATOM     37  C   UNL     1      -5.461   7.358  -8.785  1.00  0.00     0.074 A 
ATOM     38  C   UNL     1      -3.512   8.095  -7.457  1.00  0.00     0.049 A 
ATOM     39  N   UNL     1      -6.034   8.501  -9.060  1.00  0.00    -0.248 NA
ATOM     40  C   UNL     1      -6.171   6.182  -9.314  1.00  0.00     0.031 C 
ATOM     41  C   UNL     1      -2.290   7.953  -6.668  1.00  0.00     0.029 A 
ATOM     42  N   UNL     1      -3.745   9.447  -7.482  1.00  0.00    -0.354 N 
ATOM     43  C   UNL     1      -7.170   8.183  -9.792  1.00  0.00     0.074 A 
ATOM     44  C   UNL     1      -7.195   6.744  -9.940  1.00  0.00     0.031 C 
ATOM     45  C   UNL     1      -1.865   9.176  -6.303  1.00  0.00     0.029 A 
ATOM     46  C   UNL     1      -2.772  10.182  -6.852  1.00  0.00     0.049 A 
ATOM     47  H   UNL     1      -4.534   9.850  -7.911  1.00  0.00     0.167 HD
ATOM     48  C   UNL     1      -8.112   9.017 -10.292  1.00  0.00     0.037 A 
ATOM     49  C   UNL     1      -2.622  11.517  -6.756  1.00  0.00     0.037 A 
ATOM     50  C   UNL     1      -8.082  10.448 -10.157  1.00  0.00     0.049 A 
ATOM     51  C   UNL     1      -3.644  12.426  -7.385  1.00  0.00     0.074 A 
ATOM     52  C   UNL     1      -9.003  11.376 -10.609  1.00  0.00     0.029 A 
ATOM     53  N   UNL     1      -7.069  11.158  -9.532  1.00  0.00    -0.354 N 
ATOM     54  N   UNL     1      -4.737  12.116  -8.039  1.00  0.00    -0.248 NA
ATOM     55  C   UNL     1      -3.411  13.873  -7.260  1.00  0.00     0.031 C 
ATOM     56  C   UNL     1      -8.526  12.653 -10.295  1.00  0.00     0.029 A 
ATOM     57  C   UNL     1      -7.329  12.516  -9.610  1.00  0.00     0.049 A 
ATOM     58  H   UNL     1      -6.283  10.757  -9.098  1.00  0.00     0.167 HD
ATOM     59  C   UNL     1      -5.332  13.324  -8.384  1.00  0.00     0.074 A 
ATOM     60  C   UNL     1      -4.485  14.373  -7.856  1.00  0.00     0.031 C 
ATOM     61  C   UNL     1      -6.477  13.546  -9.074  1.00  0.00     0.037 A 
BRANCH  48  62
ATOM     62  C   UNL     1      -9.244   8.396 -11.053  1.00  0.00     0.057 A 
ATOM     63  C   UNL     1     -10.274   7.704 -10.404  1.00  0.00     0.134 A 
ATOM     64  C   UNL     1      -9.318   8.516 -12.446  1.00  0.00     0.134 A 
ATOM     65  F   UNL     1     -10.251   7.542  -9.073  1.00  0.00    -0.206 F 
ATOM     66  C   UNL     1     -11.332   7.139 -11.118  1.00  0.00     0.040 A 
ATOM     67  C   UNL     1     -10.381   7.973 -13.168  1.00  0.00     0.040 A 
ATOM     68  F   UNL     1      -8.362   9.167 -13.125  1.00  0.00    -0.206 F 
ATOM     69  C   UNL     1     -11.390   7.278 -12.503  1.00  0.00     0.006 A 
ENDBRANCH  48  62
BRANCH  49  70
ATOM     70  C   UNL     1      -1.444  12.085  -6.054  1.00  0.00     0.057 A 
ATOM     71  C   UNL     1      -1.579  12.744  -4.828  1.00  0.00     0.134 A 
ATOM     72  C   UNL     1      -0.162  12.010  -6.611  1.00  0.00     0.134 A 
ATOM     73  F   UNL     1      -2.787  12.870  -4.259  1.00  0.00    -0.206 F 
ATOM     74  C   UNL     1      -0.484  13.325  -4.187  1.00  0.00     0.040 A 
ATOM     75  C   UNL     1       0.946  12.566  -5.970  1.00  0.00     0.040 A 
ATOM     76  F   UNL     1       0.032  11.393  -7.786  1.00  0.00    -0.206 F 
ATOM     77  C   UNL     1       0.784  13.233  -4.757  1.00  0.00     0.006 A 
ENDBRANCH  49  70
BRANCH  61  78
ATOM     78  C   UNL     1      -6.895  14.972  -9.274  1.00  0.00     0.057 A 
ATOM     79  C   UNL     1      -6.248  15.809 -10.191  1.00  0.00     0.134 A 
ATOM     80  C   UNL     1      -7.988  15.499  -8.574  1.00  0.00     0.134 A 
ATOM     81  F   UNL     1      -5.187  15.367 -10.884  1.00  0.00    -0.206 F 
ATOM     82  C   UNL     1      -6.662  17.127 -10.392  1.00  0.00     0.040 A 
ATOM     83  C   UNL     1      -8.425  16.808  -8.783  1.00  0.00     0.040 A 
ATOM     84  F   UNL     1      -8.656  14.747  -7.687  1.00  0.00    -0.206 F 
ATOM     85  C   UNL     1      -7.758  17.627  -9.691  1.00  0.00     0.006 A 
ENDBRANCH  61  78
ENDBRANCH  35  36
ENDBRANCH  28  30
ENDBRANCH  27  28
ENDBRANCH  26  27
ENDBRANCH  25  26
ENDBRANCH  24  25
ENDBRANCH  23  24
ENDBRANCH   1  23
TORSDOF 19
