REMARK SMILES O=C(OCCOCCOCCOC(=O)[C@H](CO)NC(=O)[C@H]1CC(=O)N(CC(F)(F)F)C1)c1ccc(-c2c3nc(c(-c4c(F)cccc4F)c4ccc([nH]4)c(-c4c(F)cccc4F)c4nc(c(-c5c(F)cccc5F)c5ccc2[nH]5)C=C4)C=C3)cc1
REMARK SMILES IDX 8 1 7 2 6 3 5 4 4 5 3 6 2 7 1 8 32 9 33 10 85 11 34 12 84 13
REMARK SMILES IDX 35 14 36 15 37 16 78 17 38 18 83 19 77 20 79 21 39 22 82 23
REMARK SMILES IDX 76 24 75 25 40 27 66 28 49 29 65 30 50 31 53 32 64 33 80 34
REMARK SMILES IDX 51 35 52 36 63 38 81 39 54 40 41 41 42 42 47 43 43 44 44 45
REMARK SMILES IDX 46 46 48 47 45 48 67 49 68 50 73 51 69 52 70 53 72 54 74 55
REMARK SMILES IDX 71 56 55 57 56 58 61 59 57 60 58 61 60 62 62 63 59 64 9 65
REMARK SMILES IDX 10 66 11 67 12 68 13 69 14 70 15 71 18 72 19 73 20 75 21 76
REMARK SMILES IDX 22 77 31 78 23 79 25 80 24 81 26 82 27 83 28 84 29 85 30 86
REMARK SMILES IDX 16 87 17 88
REMARK H PARENT 79 26 53 37 18 74 17 89
REMARK Flexibility Score: inf
ROOT
ATOM      1  C   UNL     1       1.152  -3.197   1.213  1.00  0.00     0.188 C 
ENDROOT
BRANCH   1   2
ATOM      2  C   UNL     1       2.357  -2.252   1.214  1.00  0.00     0.188 C 
BRANCH   2   3
ATOM      3  O   UNL     1       3.622  -2.924   1.159  1.00  0.00    -0.376 OA
BRANCH   3   4
ATOM      4  C   UNL     1       4.529  -2.487   2.175  1.00  0.00     0.202 C 
BRANCH   4   5
ATOM      5  C   UNL     1       5.166  -1.105   1.961  1.00  0.00     0.261 C 
BRANCH   5   6
ATOM      6  O   UNL     1       4.417  -0.228   1.107  1.00  0.00    -0.460 OA
BRANCH   6   7
ATOM      7  C   UNL     1       4.386  -0.125  -0.242  1.00  0.00     0.338 C 
ATOM      8  O   UNL     1       3.685   0.765  -0.724  1.00  0.00    -0.246 OA
BRANCH   7   9
ATOM      9  C   UNL     1       5.114  -1.028  -1.198  1.00  0.00     0.060 A 
ATOM     10  C   UNL     1       5.935  -2.104  -0.856  1.00  0.00     0.016 A 
ATOM     11  C   UNL     1       4.940  -0.759  -2.573  1.00  0.00     0.016 A 
ATOM     12  C   UNL     1       6.590  -2.861  -1.827  1.00  0.00     0.010 A 
ATOM     13  C   UNL     1       5.590  -1.514  -3.557  1.00  0.00     0.010 A 
ATOM     14  C   UNL     1       6.440  -2.556  -3.179  1.00  0.00    -0.014 A 
BRANCH  14  15
ATOM     15  C   UNL     1       7.350  -3.214  -4.138  1.00  0.00     0.031 A 
ATOM     16  C   UNL     1       8.635  -2.518  -4.441  1.00  0.00     0.074 A 
ATOM     17  C   UNL     1       7.102  -4.451  -4.603  1.00  0.00     0.049 A 
ATOM     18  N   UNL     1       9.643  -2.932  -5.156  1.00  0.00    -0.248 NA
ATOM     19  C   UNL     1       8.825  -1.193  -3.826  1.00  0.00     0.031 C 
ATOM     20  C   UNL     1       5.922  -5.228  -4.266  1.00  0.00     0.029 A 
ATOM     21  N   UNL     1       7.810  -5.285  -5.423  1.00  0.00    -0.354 N 
ATOM     22  C   UNL     1      10.591  -1.925  -5.069  1.00  0.00     0.074 A 
ATOM     23  C   UNL     1      10.035  -0.872  -4.251  1.00  0.00     0.031 C 
ATOM     24  C   UNL     1       5.962  -6.421  -4.872  1.00  0.00     0.029 A 
ATOM     25  C   UNL     1       7.176  -6.483  -5.670  1.00  0.00     0.049 A 
ATOM     26  H   UNL     1       8.689  -5.053  -5.801  1.00  0.00     0.167 HD
ATOM     27  C   UNL     1      11.817  -1.893  -5.635  1.00  0.00     0.037 A 
ATOM     28  C   UNL     1       7.529  -7.507  -6.466  1.00  0.00     0.037 A 
ATOM     29  C   UNL     1      12.312  -2.936  -6.490  1.00  0.00     0.049 A 
ATOM     30  C   UNL     1       8.847  -7.397  -7.173  1.00  0.00     0.074 A 
ATOM     31  C   UNL     1      13.507  -2.996  -7.178  1.00  0.00     0.029 A 
ATOM     32  N   UNL     1      11.612  -4.100  -6.792  1.00  0.00    -0.354 N 
ATOM     33  N   UNL     1       9.736  -6.433  -7.098  1.00  0.00    -0.248 NA
ATOM     34  C   UNL     1       9.219  -8.497  -8.067  1.00  0.00     0.031 C 
ATOM     35  C   UNL     1      13.505  -4.169  -7.942  1.00  0.00     0.029 A 
ATOM     36  C   UNL     1      12.337  -4.872  -7.682  1.00  0.00     0.049 A 
ATOM     37  H   UNL     1      10.730  -4.339  -6.426  1.00  0.00     0.167 HD
ATOM     38  C   UNL     1      10.779  -6.812  -7.925  1.00  0.00     0.074 A 
ATOM     39  C   UNL     1      10.419  -8.108  -8.474  1.00  0.00     0.031 C 
ATOM     40  C   UNL     1      11.929  -6.152  -8.210  1.00  0.00     0.037 A 
BRANCH  27  41
ATOM     41  C   UNL     1      12.627  -0.654  -5.403  1.00  0.00     0.057 A 
ATOM     42  C   UNL     1      13.174  -0.342  -4.150  1.00  0.00     0.134 A 
ATOM     43  C   UNL     1      12.794   0.281  -6.432  1.00  0.00     0.134 A 
ATOM     44  F   UNL     1      13.014  -1.176  -3.111  1.00  0.00    -0.206 F 
ATOM     45  C   UNL     1      13.831   0.869  -3.922  1.00  0.00     0.040 A 
ATOM     46  C   UNL     1      13.471   1.483  -6.223  1.00  0.00     0.040 A 
ATOM     47  F   UNL     1      12.280   0.052  -7.649  1.00  0.00    -0.206 F 
ATOM     48  C   UNL     1      13.982   1.785  -4.962  1.00  0.00     0.006 A 
ENDBRANCH  27  41
BRANCH  28  49
ATOM     49  C   UNL     1       6.621  -8.672  -6.647  1.00  0.00     0.057 A 
ATOM     50  C   UNL     1       6.966  -9.956  -6.211  1.00  0.00     0.134 A 
ATOM     51  C   UNL     1       5.364  -8.521  -7.253  1.00  0.00     0.134 A 
ATOM     52  F   UNL     1       8.154 -10.175  -5.630  1.00  0.00    -0.206 F 
ATOM     53  C   UNL     1       6.106 -11.045  -6.381  1.00  0.00     0.040 A 
ATOM     54  C   UNL     1       4.484  -9.594  -7.405  1.00  0.00     0.040 A 
ATOM     55  F   UNL     1       4.958  -7.316  -7.681  1.00  0.00    -0.206 F 
ATOM     56  C   UNL     1       4.857 -10.864  -6.974  1.00  0.00     0.006 A 
ENDBRANCH  28  49
BRANCH  40  57
ATOM     57  C   UNL     1      12.876  -6.842  -9.142  1.00  0.00     0.057 A 
ATOM     58  C   UNL     1      12.612  -6.954 -10.512  1.00  0.00     0.134 A 
ATOM     59  C   UNL     1      14.082  -7.368  -8.663  1.00  0.00     0.134 A 
ATOM     60  F   UNL     1      11.464  -6.485 -11.025  1.00  0.00    -0.206 F 
ATOM     61  C   UNL     1      13.507  -7.588 -11.372  1.00  0.00     0.040 A 
ATOM     62  C   UNL     1      14.998  -7.976  -9.518  1.00  0.00     0.040 A 
ATOM     63  F   UNL     1      14.392  -7.284  -7.360  1.00  0.00    -0.206 F 
ATOM     64  C   UNL     1      14.708  -8.093 -10.876  1.00  0.00     0.006 A 
ENDBRANCH  40  57
ENDBRANCH  14  15
ENDBRANCH   7   9
ENDBRANCH   6   7
ENDBRANCH   5   6
ENDBRANCH   4   5
ENDBRANCH   3   4
ENDBRANCH   2   3
ENDBRANCH   1   2
BRANCH   1  65
ATOM     65  O   UNL     1       0.999  -4.125   2.279  1.00  0.00    -0.376 OA
BRANCH  65  66
ATOM     66  C   UNL     1       2.075  -4.990   2.612  1.00  0.00     0.202 C 
BRANCH  66  67
ATOM     67  C   UNL     1       2.551  -6.041   1.595  1.00  0.00     0.261 C 
BRANCH  67  68
ATOM     68  O   UNL     1       2.725  -5.550   0.262  1.00  0.00    -0.462 OA
BRANCH  68  69
ATOM     69  C   UNL     1       1.730  -5.843  -0.618  1.00  0.00     0.331 C 
ATOM     70  O   UNL     1       0.757  -6.545  -0.370  1.00  0.00    -0.250 OA
BRANCH  69  71
ATOM     71  C   UNL     1       1.937  -5.157  -1.971  1.00  0.00     0.218 C 
BRANCH  71  72
ATOM     72  N   UNL     1       0.770  -4.350  -2.373  1.00  0.00    -0.341 N 
ATOM     73  C   UNL     1       0.078  -4.399  -3.546  1.00  0.00     0.226 C 
ATOM     74  H   UNL     1       0.452  -3.694  -1.712  1.00  0.00     0.164 HD
ATOM     75  O   UNL     1      -0.681  -3.482  -3.841  1.00  0.00    -0.275 OA
BRANCH  73  76
ATOM     76  C   UNL     1       0.291  -5.604  -4.417  1.00  0.00     0.107 C 
ATOM     77  C   UNL     1      -0.333  -6.847  -3.781  1.00  0.00     0.115 C 
ATOM     78  C   UNL     1      -0.399  -5.518  -5.764  1.00  0.00     0.133 C 
ATOM     79  C   UNL     1      -0.601  -7.718  -4.974  1.00  0.00     0.223 C 
ATOM     80  N   UNL     1      -0.571  -6.913  -6.096  1.00  0.00    -0.333 N 
ATOM     81  O   UNL     1      -0.810  -8.920  -4.945  1.00  0.00    -0.275 OA
BRANCH  80  82
ATOM     82  C   UNL     1      -0.891  -7.381  -7.442  1.00  0.00     0.234 C 
BRANCH  82  83
ATOM     83  C   UNL     1      -2.213  -6.868  -8.003  1.00  0.00     0.406 C 
ATOM     84  F   UNL     1      -2.156  -5.534  -8.226  1.00  0.00    -0.169 F 
ATOM     85  F   UNL     1      -2.492  -7.463  -9.185  1.00  0.00    -0.169 F 
ATOM     86  F   UNL     1      -3.246  -7.104  -7.167  1.00  0.00    -0.169 F 
ENDBRANCH  82  83
ENDBRANCH  80  82
ENDBRANCH  73  76
ENDBRANCH  71  72
BRANCH  71  87
ATOM     87  C   UNL     1       3.178  -4.277  -2.046  1.00  0.00     0.193 C 
BRANCH  87  88
ATOM     88  O   UNL     1       3.245  -3.605  -3.307  1.00  0.00    -0.394 OA
ATOM     89  H   UNL     1       3.291  -4.260  -4.020  1.00  0.00     0.210 HD
ENDBRANCH  87  88
ENDBRANCH  71  87
ENDBRANCH  69  71
ENDBRANCH  68  69
ENDBRANCH  67  68
ENDBRANCH  66  67
ENDBRANCH  65  66
ENDBRANCH   1  65
TORSDOF 23
