REMARK SMILES C[C@@H](NC(=O)c1cc(C(=O)OCCOCCOCCOC(=O)c2ccc(-c3c4nc(c(-c5c(F)cccc5F)c5ccc([nH]5)c(-c5c(F)cccc5F)c5nc(c(-c6c(F)cccc6F)c6ccc3[nH]6)C=C5)C=C4)cc2)n(C)n1)c1ccccc1
REMARK SMILES IDX 15 1 14 2 13 3 12 4 11 5 9 6 10 7 8 8 6 9 7 10 79 11 77 12
REMARK SMILES IDX 78 13 4 14 3 15 5 17 2 18 1 19 80 20 81 21 85 22 82 23 84 24
REMARK SMILES IDX 83 25 16 26 17 27 18 28 19 29 20 30 21 31 22 32 23 33 24 34
REMARK SMILES IDX 76 35 25 36 75 37 26 38 27 39 28 40 69 41 29 42 74 43 68 44
REMARK SMILES IDX 70 45 30 46 73 47 67 48 66 49 31 51 57 52 40 53 56 54 41 55
REMARK SMILES IDX 44 56 55 57 71 58 42 59 43 60 54 62 72 63 45 64 32 65 33 66
REMARK SMILES IDX 38 67 34 68 35 69 37 70 39 71 36 72 58 73 59 74 64 75 60 76
REMARK SMILES IDX 61 77 63 78 65 79 62 80 46 81 47 82 52 83 48 84 49 85 51 86
REMARK SMILES IDX 53 87 50 88
REMARK H PARENT 3 16 70 50 44 61
REMARK Flexibility Score: inf
ROOT
ATOM      1  C   UNL     1      -5.459   2.635   2.104  1.00  0.00     0.188 C 
ENDROOT
BRANCH   1   2
ATOM      2  O   UNL     1      -6.657   3.393   2.022  1.00  0.00    -0.376 OA
BRANCH   2   3
ATOM      3  C   UNL     1      -7.424   3.147   0.839  1.00  0.00     0.202 C 
BRANCH   3   4
ATOM      4  C   UNL     1      -6.894   3.829  -0.439  1.00  0.00     0.261 C 
BRANCH   4   5
ATOM      5  O   UNL     1      -5.738   3.188  -1.047  1.00  0.00    -0.459 OA
BRANCH   5   6
ATOM      6  C   UNL     1      -4.771   4.040  -1.528  1.00  0.00     0.356 C 
ATOM      7  O   UNL     1      -4.795   5.250  -1.370  1.00  0.00    -0.244 OA
BRANCH   6   8
ATOM      8  C   UNL     1      -3.676   3.345  -2.184  1.00  0.00     0.146 A 
ATOM      9  C   UNL     1      -1.608   2.750  -2.897  1.00  0.00     0.151 A 
ATOM     10  C   UNL     1      -2.354   3.779  -2.260  1.00  0.00     0.071 A 
ATOM     11  N   UNL     1      -2.450   1.804  -3.352  1.00  0.00    -0.167 NA
ATOM     12  N   UNL     1      -3.676   2.178  -2.908  1.00  0.00    -0.260 N 
ATOM     13  C   UNL     1      -4.802   1.389  -3.354  1.00  0.00     0.174 C 
BRANCH   9  14
ATOM     14  C   UNL     1      -0.162   2.734  -3.208  1.00  0.00     0.272 C 
ATOM     15  N   UNL     1       0.727   1.862  -2.593  1.00  0.00    -0.344 N 
ATOM     16  H   UNL     1       1.421   1.496  -3.188  1.00  0.00     0.164 HD
ATOM     17  O   UNL     1       0.306   3.485  -4.067  1.00  0.00    -0.267 OA
BRANCH  15  18
ATOM     18  C   UNL     1       0.803   1.396  -1.205  1.00  0.00     0.109 C 
ATOM     19  C   UNL     1       1.819   0.258  -1.040  1.00  0.00     0.036 C 
BRANCH  18  20
ATOM     20  C   UNL     1      -0.532   1.026  -0.629  1.00  0.00    -0.026 A 
ATOM     21  C   UNL     1      -1.155   1.950   0.215  1.00  0.00     0.006 A 
ATOM     22  C   UNL     1      -1.224  -0.124  -1.039  1.00  0.00     0.006 A 
ATOM     23  C   UNL     1      -2.492   1.791   0.535  1.00  0.00     0.000 A 
ATOM     24  C   UNL     1      -2.566  -0.283  -0.709  1.00  0.00     0.000 A 
ATOM     25  C   UNL     1      -3.207   0.698   0.041  1.00  0.00     0.000 A 
ENDBRANCH  18  20
ENDBRANCH  15  18
ENDBRANCH   9  14
ENDBRANCH   6   8
ENDBRANCH   5   6
ENDBRANCH   4   5
ENDBRANCH   3   4
ENDBRANCH   2   3
ENDBRANCH   1   2
BRANCH   1  26
ATOM     26  C   UNL     1      -5.636   1.191   2.591  1.00  0.00     0.188 C 
BRANCH  26  27
ATOM     27  O   UNL     1      -6.400   0.424   1.667  1.00  0.00    -0.376 OA
BRANCH  27  28
ATOM     28  C   UNL     1      -6.422  -0.997   1.814  1.00  0.00     0.202 C 
BRANCH  28  29
ATOM     29  C   UNL     1      -6.201  -1.617   3.205  1.00  0.00     0.261 C 
BRANCH  29  30
ATOM     30  O   UNL     1      -4.942  -1.277   3.819  1.00  0.00    -0.460 OA
BRANCH  30  31
ATOM     31  C   UNL     1      -3.826  -1.734   3.201  1.00  0.00     0.338 C 
ATOM     32  O   UNL     1      -3.788  -2.508   2.261  1.00  0.00    -0.246 OA
BRANCH  31  33
ATOM     33  C   UNL     1      -2.650  -0.985   3.719  1.00  0.00     0.060 A 
ATOM     34  C   UNL     1      -1.663  -0.620   2.802  1.00  0.00     0.016 A 
ATOM     35  C   UNL     1      -2.511  -0.610   5.059  1.00  0.00     0.016 A 
ATOM     36  C   UNL     1      -0.560   0.138   3.195  1.00  0.00     0.010 A 
ATOM     37  C   UNL     1      -1.378   0.115   5.468  1.00  0.00     0.010 A 
ATOM     38  C   UNL     1      -0.391   0.487   4.537  1.00  0.00    -0.014 A 
BRANCH  38  39
ATOM     39  C   UNL     1       0.931   1.011   4.969  1.00  0.00     0.031 A 
ATOM     40  C   UNL     1       1.955   0.019   5.448  1.00  0.00     0.074 A 
ATOM     41  C   UNL     1       1.275   2.306   4.844  1.00  0.00     0.049 A 
ATOM     42  N   UNL     1       3.162   0.222   5.911  1.00  0.00    -0.248 NA
ATOM     43  C   UNL     1       1.566  -1.398   5.376  1.00  0.00     0.031 C 
ATOM     44  C   UNL     1       0.437   3.362   4.281  1.00  0.00     0.029 A 
ATOM     45  N   UNL     1       2.444   2.948   5.181  1.00  0.00    -0.354 N 
ATOM     46  C   UNL     1       3.670  -1.038   6.195  1.00  0.00     0.074 A 
ATOM     47  C   UNL     1       2.638  -1.998   5.866  1.00  0.00     0.031 C 
ATOM     48  C   UNL     1       1.117   4.523   4.318  1.00  0.00     0.029 A 
ATOM     49  C   UNL     1       2.421   4.302   4.946  1.00  0.00     0.049 A 
ATOM     50  H   UNL     1       3.225   2.481   5.557  1.00  0.00     0.167 HD
ATOM     51  C   UNL     1       4.886  -1.374   6.686  1.00  0.00     0.037 A 
ATOM     52  C   UNL     1       3.334   5.253   5.232  1.00  0.00     0.037 A 
ATOM     53  C   UNL     1       5.920  -0.432   7.019  1.00  0.00     0.049 A 
ATOM     54  C   UNL     1       4.630   4.870   5.908  1.00  0.00     0.074 A 
ATOM     55  C   UNL     1       7.172  -0.681   7.551  1.00  0.00     0.029 A 
ATOM     56  N   UNL     1       5.819   0.940   6.855  1.00  0.00    -0.354 N 
ATOM     57  N   UNL     1       5.088   3.681   6.213  1.00  0.00    -0.248 NA
ATOM     58  C   UNL     1       5.530   5.971   6.291  1.00  0.00     0.031 C 
ATOM     59  C   UNL     1       7.813   0.545   7.755  1.00  0.00     0.029 A 
ATOM     60  C   UNL     1       6.979   1.553   7.299  1.00  0.00     0.049 A 
ATOM     61  H   UNL     1       5.040   1.409   6.479  1.00  0.00     0.167 HD
ATOM     62  C   UNL     1       6.338   3.888   6.789  1.00  0.00     0.074 A 
ATOM     63  C   UNL     1       6.571   5.315   6.784  1.00  0.00     0.031 C 
ATOM     64  C   UNL     1       7.214   2.974   7.276  1.00  0.00     0.037 A 
BRANCH  51  65
ATOM     65  C   UNL     1       5.134  -2.829   6.944  1.00  0.00     0.057 A 
ATOM     66  C   UNL     1       5.331  -3.746   5.904  1.00  0.00     0.134 A 
ATOM     67  C   UNL     1       5.170  -3.316   8.256  1.00  0.00     0.134 A 
ATOM     68  F   UNL     1       5.283  -3.345   4.625  1.00  0.00    -0.206 F 
ATOM     69  C   UNL     1       5.529  -5.104   6.161  1.00  0.00     0.040 A 
ATOM     70  C   UNL     1       5.395  -4.666   8.526  1.00  0.00     0.040 A 
ATOM     71  F   UNL     1       4.987  -2.488   9.295  1.00  0.00    -0.206 F 
ATOM     72  C   UNL     1       5.567  -5.565   7.476  1.00  0.00     0.006 A 
ENDBRANCH  51  65
BRANCH  52  73
ATOM     73  C   UNL     1       3.058   6.682   4.930  1.00  0.00     0.057 A 
ATOM     74  C   UNL     1       3.816   7.388   3.987  1.00  0.00     0.134 A 
ATOM     75  C   UNL     1       2.077   7.396   5.629  1.00  0.00     0.134 A 
ATOM     76  F   UNL     1       4.795   6.770   3.310  1.00  0.00    -0.206 F 
ATOM     77  C   UNL     1       3.623   8.754   3.766  1.00  0.00     0.040 A 
ATOM     78  C   UNL     1       1.855   8.755   5.399  1.00  0.00     0.040 A 
ATOM     79  F   UNL     1       1.325   6.784   6.555  1.00  0.00    -0.206 F 
ATOM     80  C   UNL     1       2.637   9.440   4.471  1.00  0.00     0.006 A 
ENDBRANCH  52  73
BRANCH  64  81
ATOM     81  C   UNL     1       8.530   3.476   7.800  1.00  0.00     0.057 A 
ATOM     82  C   UNL     1       8.632   4.171   9.012  1.00  0.00     0.134 A 
ATOM     83  C   UNL     1       9.719   3.213   7.106  1.00  0.00     0.134 A 
ATOM     84  F   UNL     1       7.533   4.466   9.722  1.00  0.00    -0.206 F 
ATOM     85  C   UNL     1       9.866   4.604   9.503  1.00  0.00     0.040 A 
ATOM     86  C   UNL     1      10.960   3.616   7.600  1.00  0.00     0.040 A 
ATOM     87  F   UNL     1       9.695   2.542   5.944  1.00  0.00    -0.206 F 
ATOM     88  C   UNL     1      11.036   4.319   8.800  1.00  0.00     0.006 A 
ENDBRANCH  64  81
ENDBRANCH  38  39
ENDBRANCH  31  33
ENDBRANCH  30  31
ENDBRANCH  29  30
ENDBRANCH  28  29
ENDBRANCH  27  28
ENDBRANCH  26  27
ENDBRANCH   1  26
TORSDOF 20
