REMARK SMILES C[C@@H](C(=O)OCCOCCOCCOC(=O)c1ccc(-c2c3nc(c(-c4c(F)cccc4F)c4ccc([nH]4)c(-c4c(F)cccc4F)c4nc(c(-c5c(F)cccc5F)c5ccc2[nH]5)C=C4)C=C3)cc1)N1C(=O)CSc2cccn2-c2ccccc21
REMARK SMILES IDX 8 1 7 2 6 3 5 4 3 5 4 6 2 7 1 8 71 9 72 10 73 11 86 13 81 14
REMARK SMILES IDX 85 15 82 16 84 17 83 18 80 19 76 20 79 21 77 22 78 23 75 24
REMARK SMILES IDX 74 25 9 27 10 28 11 29 12 30 13 31 14 32 15 33 16 34 17 35
REMARK SMILES IDX 18 36 70 37 19 38 69 39 20 40 21 41 22 42 63 43 23 44 68 45
REMARK SMILES IDX 62 46 64 47 24 48 67 49 61 50 60 51 25 53 51 54 34 55 50 56
REMARK SMILES IDX 35 57 38 58 49 59 65 60 36 61 37 62 48 64 66 65 39 66 26 67
REMARK SMILES IDX 27 68 32 69 28 70 29 71 31 72 33 73 30 74 52 75 53 76 58 77
REMARK SMILES IDX 54 78 55 79 57 80 59 81 56 82 40 83 41 84 46 85 42 86 43 87
REMARK SMILES IDX 45 88 47 89 44 90
REMARK H PARENT 64 52 38 63
REMARK Flexibility Score: 80.00
ROOT
ATOM      1  O   UNL     1       2.021  -3.841  -3.011  1.00  0.00    -0.376 OA
ENDROOT
BRANCH   1   2
ATOM      2  C   UNL     1       2.909  -2.724  -3.061  1.00  0.00     0.202 C 
BRANCH   2   3
ATOM      3  C   UNL     1       2.216  -1.363  -3.190  1.00  0.00     0.261 C 
BRANCH   3   4
ATOM      4  O   UNL     1       1.681  -0.955  -1.910  1.00  0.00    -0.462 OA
BRANCH   4   5
ATOM      5  C   UNL     1       0.713  -0.001  -1.941  1.00  0.00     0.329 C 
ATOM      6  O   UNL     1       0.372   0.578  -2.967  1.00  0.00    -0.250 OA
BRANCH   5   7
ATOM      7  C   UNL     1       0.096   0.288  -0.531  1.00  0.00     0.197 C 
ATOM      8  C   UNL     1       1.213   0.462   0.503  1.00  0.00     0.044 C 
BRANCH   7   9
ATOM      9  N   UNL     1      -1.136  -0.445  -0.107  1.00  0.00    -0.296 N 
BRANCH   9  10
ATOM     10  C   UNL     1      -2.141  -0.535  -1.076  1.00  0.00     0.238 CG0
ATOM     11  O   UNL     1      -1.868  -0.869  -2.233  1.00  0.00    -0.274 OA
ATOM     12  G   UNL     1      -3.583  -0.253  -0.715  1.00  0.00     0.000 G0
ENDBRANCH   9  10
BRANCH   9  13
ATOM     13  C   UNL     1      -1.361  -0.916   1.237  1.00  0.00     0.069 A 
ATOM     14  C   UNL     1      -2.526  -0.694   1.993  1.00  0.00     0.070 A 
ATOM     15  C   UNL     1      -0.510  -1.914   1.732  1.00  0.00     0.028 A 
ATOM     16  C   UNL     1      -2.954  -1.621   2.973  1.00  0.00     0.029 A 
ATOM     17  C   UNL     1      -0.887  -2.784   2.769  1.00  0.00     0.002 A 
ATOM     18  C   UNL     1      -2.147  -2.687   3.335  1.00  0.00     0.002 A 
BRANCH  14  19
ATOM     19  N   UNL     1      -2.963   0.647   2.207  1.00  0.00    -0.310 N 
ATOM     20  C   UNL     1      -3.273   1.667   1.330  1.00  0.00     0.080 A 
ATOM     21  C   UNL     1      -2.933   1.201   3.485  1.00  0.00     0.092 A 
ATOM     22  C   UNL     1      -3.294   2.856   2.038  1.00  0.00     0.035 A 
ATOM     23  C   UNL     1      -3.078   2.562   3.397  1.00  0.00     0.021 A 
BRANCH  20  24
ATOM     24  S   UNL     1      -3.741   1.501  -0.335  1.00  0.00    -0.098 SA
BRANCH  24  25
ATOM     25  C   UNL     1      -3.583  -0.253  -0.715  1.00  0.00     0.177 CG0
ATOM     26  G   UNL     1      -2.141  -0.535  -1.076  1.00  0.00     0.000 G0
ENDBRANCH  24  25
ENDBRANCH  20  24
ENDBRANCH  14  19
ENDBRANCH   9  13
ENDBRANCH   7   9
ENDBRANCH   5   7
ENDBRANCH   4   5
ENDBRANCH   3   4
ENDBRANCH   2   3
ENDBRANCH   1   2
BRANCH   1  27
ATOM     27  C   UNL     1       1.070  -3.854  -1.952  1.00  0.00     0.188 C 
BRANCH  27  28
ATOM     28  C   UNL     1       1.621  -3.568  -0.547  1.00  0.00     0.188 C 
BRANCH  28  29
ATOM     29  O   UNL     1       2.880  -4.129  -0.207  1.00  0.00    -0.376 OA
BRANCH  29  30
ATOM     30  C   UNL     1       2.951  -5.549  -0.277  1.00  0.00     0.202 C 
BRANCH  30  31
ATOM     31  C   UNL     1       2.015  -6.250   0.709  1.00  0.00     0.261 C 
BRANCH  31  32
ATOM     32  O   UNL     1       0.646  -6.141   0.263  1.00  0.00    -0.460 OA
BRANCH  32  33
ATOM     33  C   UNL     1      -0.266  -6.500   1.196  1.00  0.00     0.338 C 
ATOM     34  O   UNL     1      -0.029  -7.020   2.272  1.00  0.00    -0.246 OA
BRANCH  33  35
ATOM     35  C   UNL     1      -1.637  -6.125   0.778  1.00  0.00     0.060 A 
ATOM     36  C   UNL     1      -1.927  -4.850   0.289  1.00  0.00     0.016 A 
ATOM     37  C   UNL     1      -2.682  -7.004   1.062  1.00  0.00     0.016 A 
ATOM     38  C   UNL     1      -3.249  -4.411   0.202  1.00  0.00     0.010 A 
ATOM     39  C   UNL     1      -4.009  -6.588   0.897  1.00  0.00     0.010 A 
ATOM     40  C   UNL     1      -4.308  -5.267   0.521  1.00  0.00    -0.014 A 
BRANCH  40  41
ATOM     41  C   UNL     1      -5.713  -4.775   0.575  1.00  0.00     0.031 A 
ATOM     42  C   UNL     1      -6.476  -4.849   1.872  1.00  0.00     0.074 A 
ATOM     43  C   UNL     1      -6.316  -4.230  -0.498  1.00  0.00     0.049 A 
ATOM     44  N   UNL     1      -7.762  -4.739   2.088  1.00  0.00    -0.248 NA
ATOM     45  C   UNL     1      -5.679  -5.068   3.090  1.00  0.00     0.031 C 
ATOM     46  C   UNL     1      -5.686  -3.958  -1.789  1.00  0.00     0.029 A 
ATOM     47  N   UNL     1      -7.617  -3.815  -0.669  1.00  0.00    -0.354 N 
ATOM     48  C   UNL     1      -7.934  -4.915   3.455  1.00  0.00     0.074 A 
ATOM     49  C   UNL     1      -6.620  -5.136   4.021  1.00  0.00     0.031 C 
ATOM     50  C   UNL     1      -6.596  -3.423  -2.617  1.00  0.00     0.029 A 
ATOM     51  C   UNL     1      -7.896  -3.415  -1.953  1.00  0.00     0.049 A 
ATOM     52  H   UNL     1      -8.281  -3.806   0.058  1.00  0.00     0.167 HD
ATOM     53  C   UNL     1      -9.082  -4.902   4.172  1.00  0.00     0.037 A 
ATOM     54  C   UNL     1      -9.072  -3.152  -2.556  1.00  0.00     0.037 A 
ATOM     55  C   UNL     1     -10.389  -4.669   3.615  1.00  0.00     0.049 A 
ATOM     56  C   UNL     1     -10.354  -3.301  -1.786  1.00  0.00     0.074 A 
ATOM     57  C   UNL     1     -11.618  -4.687   4.253  1.00  0.00     0.029 A 
ATOM     58  N   UNL     1     -10.634  -4.366   2.286  1.00  0.00    -0.354 N 
ATOM     59  N   UNL     1     -10.529  -3.594  -0.521  1.00  0.00    -0.248 NA
ATOM     60  C   UNL     1     -11.604  -3.121  -2.539  1.00  0.00     0.031 C 
ATOM     61  C   UNL     1     -12.610  -4.430   3.300  1.00  0.00     0.029 A 
ATOM     62  C   UNL     1     -11.994  -4.215   2.078  1.00  0.00     0.049 A 
ATOM     63  H   UNL     1      -9.942  -4.272   1.591  1.00  0.00     0.167 HD
ATOM     64  C   UNL     1     -11.904  -3.629  -0.326  1.00  0.00     0.074 A 
ATOM     65  C   UNL     1     -12.518  -3.310  -1.598  1.00  0.00     0.031 C 
ATOM     66  C   UNL     1     -12.596  -3.907   0.807  1.00  0.00     0.037 A 
BRANCH  53  67
ATOM     67  C   UNL     1      -8.982  -5.199   5.638  1.00  0.00     0.057 A 
ATOM     68  C   UNL     1      -8.522  -4.249   6.557  1.00  0.00     0.134 A 
ATOM     69  C   UNL     1      -9.383  -6.445   6.136  1.00  0.00     0.134 A 
ATOM     70  F   UNL     1      -8.104  -3.045   6.139  1.00  0.00    -0.206 F 
ATOM     71  C   UNL     1      -8.454  -4.533   7.922  1.00  0.00     0.040 A 
ATOM     72  C   UNL     1      -9.335  -6.735   7.500  1.00  0.00     0.040 A 
ATOM     73  F   UNL     1      -9.832  -7.397   5.304  1.00  0.00    -0.206 F 
ATOM     74  C   UNL     1      -8.867  -5.777   8.397  1.00  0.00     0.006 A 
ENDBRANCH  53  67
BRANCH  54  75
ATOM     75  C   UNL     1      -9.095  -2.822  -4.003  1.00  0.00     0.057 A 
ATOM     76  C   UNL     1      -9.449  -1.546  -4.452  1.00  0.00     0.134 A 
ATOM     77  C   UNL     1      -8.763  -3.780  -4.970  1.00  0.00     0.134 A 
ATOM     78  F   UNL     1      -9.811  -0.598  -3.576  1.00  0.00    -0.206 F 
ATOM     79  C   UNL     1      -9.468  -1.233  -5.813  1.00  0.00     0.040 A 
ATOM     80  C   UNL     1      -8.751  -3.474  -6.330  1.00  0.00     0.040 A 
ATOM     81  F   UNL     1      -8.425  -5.025  -4.601  1.00  0.00    -0.206 F 
ATOM     82  C   UNL     1      -9.108  -2.196  -6.755  1.00  0.00     0.006 A 
ENDBRANCH  54  75
BRANCH  66  83
ATOM     83  C   UNL     1     -14.091  -3.864   0.725  1.00  0.00     0.057 A 
ATOM     84  C   UNL     1     -14.822  -4.891   0.115  1.00  0.00     0.134 A 
ATOM     85  C   UNL     1     -14.810  -2.801   1.286  1.00  0.00     0.134 A 
ATOM     86  F   UNL     1     -14.191  -5.929  -0.453  1.00  0.00    -0.206 F 
ATOM     87  C   UNL     1     -16.216  -4.854   0.052  1.00  0.00     0.040 A 
ATOM     88  C   UNL     1     -16.204  -2.763   1.247  1.00  0.00     0.040 A 
ATOM     89  F   UNL     1     -14.168  -1.790   1.890  1.00  0.00    -0.206 F 
ATOM     90  C   UNL     1     -16.911  -3.789   0.624  1.00  0.00     0.006 A 
ENDBRANCH  66  83
ENDBRANCH  40  41
ENDBRANCH  33  35
ENDBRANCH  32  33
ENDBRANCH  31  32
ENDBRANCH  30  31
ENDBRANCH  29  30
ENDBRANCH  28  29
ENDBRANCH  27  28
ENDBRANCH   1  27
TORSDOF 18
