REMARK SMILES O=C(CCCN1C(=O)/C(=C/c2ccccc2Cl)SC1=S)Nc1cccc(C(=O)OCCOCCOCCOC(=O)c2ccc(-c3c4nc(c(-c5c(F)cccc5F)c5ccc([nH]5)c(-c5c(F)cccc5F)c5nc(c(-c6c(F)cccc6F)c6ccc3[nH]6)C=C5)C=C4)cc2)c1
REMARK SMILES IDX 31 1 30 2 29 3 27 4 28 5 26 6 22 7 23 8 95 9 24 10 25 11
REMARK SMILES IDX 21 12 1 13 2 14 3 16 4 17 5 18 6 19 7 20 19 21 8 22 9 23
REMARK SMILES IDX 18 24 20 25 10 26 11 27 12 28 16 29 13 30 15 31 17 32 14 33
REMARK SMILES IDX 32 34 33 35 34 36 35 37 36 38 37 39 38 40 39 41 40 42 41 43
REMARK SMILES IDX 42 44 94 45 43 46 93 47 44 48 45 49 46 50 87 51 47 52 92 53
REMARK SMILES IDX 86 54 88 55 48 56 91 57 85 58 84 59 49 61 75 62 58 63 74 64
REMARK SMILES IDX 59 65 62 66 73 67 89 68 60 69 61 70 72 72 90 73 63 74 50 75
REMARK SMILES IDX 51 76 56 77 52 78 53 79 55 80 57 81 54 82 76 83 77 84 82 85
REMARK SMILES IDX 78 86 79 87 81 88 83 89 80 90 64 91 65 92 70 93 66 94 67 95
REMARK SMILES IDX 69 96 71 97 68 98
REMARK H PARENT 21 15 88 60 62 71
REMARK Flexibility Score: inf
ROOT
ATOM      1  C   UNL     1      -2.247   0.959   6.106  1.00  0.00     0.202 C 
ENDROOT
BRANCH   1   2
ATOM      2  C   UNL     1      -2.471   1.076   4.587  1.00  0.00     0.261 C 
BRANCH   2   3
ATOM      3  O   UNL     1      -1.319   1.375   3.796  1.00  0.00    -0.460 OA
BRANCH   3   4
ATOM      4  C   UNL     1      -1.284   2.609   3.230  1.00  0.00     0.338 C 
ATOM      5  O   UNL     1      -2.128   3.487   3.318  1.00  0.00    -0.246 OA
BRANCH   4   6
ATOM      6  C   UNL     1       0.072   2.828   2.681  1.00  0.00     0.062 A 
ATOM      7  C   UNL     1       2.023   2.005   1.516  1.00  0.00     0.042 A 
ATOM      8  C   UNL     1       2.736   3.137   1.928  1.00  0.00     0.026 A 
ATOM      9  C   UNL     1       0.698   1.838   1.923  1.00  0.00     0.041 A 
ATOM     10  C   UNL     1       2.100   4.140   2.665  1.00  0.00     0.003 A 
ATOM     11  C   UNL     1       0.761   3.995   3.027  1.00  0.00     0.016 A 
BRANCH   7  12
ATOM     12  N   UNL     1       2.686   1.064   0.706  1.00  0.00    -0.326 N 
ATOM     13  O   UNL     1       0.840   0.104  -0.334  1.00  0.00    -0.275 OA
ATOM     14  C   UNL     1       2.048   0.159  -0.121  1.00  0.00     0.224 C 
ATOM     15  H   UNL     1       3.670   1.050   0.730  1.00  0.00     0.169 HD
BRANCH  14  16
ATOM     16  C   UNL     1       2.976  -0.819  -0.798  1.00  0.00     0.102 C 
BRANCH  16  17
ATOM     17  C   UNL     1       3.891  -0.181  -1.842  1.00  0.00     0.032 C 
BRANCH  17  18
ATOM     18  C   UNL     1       5.275   0.279  -1.358  1.00  0.00     0.128 C 
BRANCH  18  19
ATOM     19  N   UNL     1       5.936  -0.545  -0.339  1.00  0.00    -0.293 N 
ATOM     20  C   UNL     1       6.568   0.097   0.721  1.00  0.00     0.266 C 
ATOM     21  C   UNL     1       6.129  -1.912  -0.396  1.00  0.00     0.148 C 
ATOM     22  O   UNL     1       6.557   1.300   0.944  1.00  0.00    -0.268 OA
ATOM     23  C   UNL     1       7.286  -0.894   1.566  1.00  0.00     0.081 C 
ATOM     24  S   UNL     1       6.745  -2.471   1.151  1.00  0.00    -0.054 SA
ATOM     25  S   UNL     1       5.865  -2.966  -1.659  1.00  0.00    -0.052 S 
ATOM     26  C   UNL     1       8.248  -0.561   2.440  1.00  0.00     0.031 C 
BRANCH  26  27
ATOM     27  C   UNL     1       8.991  -1.522   3.277  1.00  0.00    -0.006 A 
ATOM     28  C   UNL     1       8.820  -1.418   4.667  1.00  0.00     0.010 A 
ATOM     29  C   UNL     1       9.823  -2.541   2.778  1.00  0.00     0.048 A 
ATOM     30  C   UNL     1       9.409  -2.345   5.530  1.00  0.00     0.001 A 
ATOM     31  C   UNL     1      10.382  -3.487   3.643  1.00  0.00     0.021 A 
ATOM     32  Cl  UNL     1      10.238  -2.663   1.100  1.00  0.00    -0.084 Cl
ATOM     33  C   UNL     1      10.168  -3.393   5.017  1.00  0.00     0.002 A 
ENDBRANCH  26  27
ENDBRANCH  18  19
ENDBRANCH  17  18
ENDBRANCH  16  17
ENDBRANCH  14  16
ENDBRANCH   7  12
ENDBRANCH   4   6
ENDBRANCH   3   4
ENDBRANCH   2   3
ENDBRANCH   1   2
BRANCH   1  34
ATOM     34  O   UNL     1      -1.341   1.769   6.837  1.00  0.00    -0.376 OA
BRANCH  34  35
ATOM     35  C   UNL     1      -0.126   2.197   6.256  1.00  0.00     0.188 C 
BRANCH  35  36
ATOM     36  C   UNL     1       0.909   1.165   5.764  1.00  0.00     0.188 C 
BRANCH  36  37
ATOM     37  O   UNL     1       0.540  -0.191   5.743  1.00  0.00    -0.376 OA
BRANCH  37  38
ATOM     38  C   UNL     1       0.490  -0.948   6.939  1.00  0.00     0.202 C 
BRANCH  38  39
ATOM     39  C   UNL     1       0.978  -0.492   8.330  1.00  0.00     0.261 C 
BRANCH  39  40
ATOM     40  O   UNL     1       1.201   0.901   8.554  1.00  0.00    -0.460 OA
BRANCH  40  41
ATOM     41  C   UNL     1       2.500   1.285   8.599  1.00  0.00     0.338 C 
ATOM     42  O   UNL     1       3.487   0.588   8.438  1.00  0.00    -0.246 OA
BRANCH  41  43
ATOM     43  C   UNL     1       2.562   2.754   8.703  1.00  0.00     0.060 A 
ATOM     44  C   UNL     1       3.091   3.480   7.628  1.00  0.00     0.016 A 
ATOM     45  C   UNL     1       2.158   3.403   9.870  1.00  0.00     0.016 A 
ATOM     46  C   UNL     1       3.254   4.861   7.731  1.00  0.00     0.010 A 
ATOM     47  C   UNL     1       2.340   4.785   9.980  1.00  0.00     0.010 A 
ATOM     48  C   UNL     1       2.925   5.513   8.927  1.00  0.00    -0.014 A 
BRANCH  48  49
ATOM     49  C   UNL     1       3.390   6.903   9.152  1.00  0.00     0.031 A 
ATOM     50  C   UNL     1       4.644   7.115   9.958  1.00  0.00     0.074 A 
ATOM     51  C   UNL     1       2.738   7.957   8.633  1.00  0.00     0.049 A 
ATOM     52  N   UNL     1       5.223   8.230  10.323  1.00  0.00    -0.248 NA
ATOM     53  C   UNL     1       5.336   5.899  10.415  1.00  0.00     0.031 C 
ATOM     54  C   UNL     1       1.542   7.886   7.797  1.00  0.00     0.029 A 
ATOM     55  N   UNL     1       2.995   9.301   8.743  1.00  0.00    -0.354 N 
ATOM     56  C   UNL     1       6.339   7.850  11.059  1.00  0.00     0.074 A 
ATOM     57  C   UNL     1       6.335   6.405  11.120  1.00  0.00     0.031 C 
ATOM     58  C   UNL     1       1.162   9.135   7.476  1.00  0.00     0.029 A 
ATOM     59  C   UNL     1       2.067  10.092   8.111  1.00  0.00     0.049 A 
ATOM     60  H   UNL     1       3.771   9.664   9.229  1.00  0.00     0.167 HD
ATOM     61  C   UNL     1       7.288   8.633  11.624  1.00  0.00     0.037 A 
ATOM     62  C   UNL     1       1.953  11.434   8.071  1.00  0.00     0.037 A 
ATOM     63  C   UNL     1       7.286  10.071  11.571  1.00  0.00     0.049 A 
ATOM     64  C   UNL     1       2.973  12.287   8.782  1.00  0.00     0.074 A 
ATOM     65  C   UNL     1       8.205  10.956  12.107  1.00  0.00     0.029 A 
ATOM     66  N   UNL     1       6.308  10.836  10.953  1.00  0.00    -0.354 N 
ATOM     67  N   UNL     1       4.036  11.922   9.458  1.00  0.00    -0.248 NA
ATOM     68  C   UNL     1       2.777  13.743   8.719  1.00  0.00     0.031 C 
ATOM     69  C   UNL     1       7.753  12.257  11.864  1.00  0.00     0.029 A 
ATOM     70  C   UNL     1       6.589  12.183  11.117  1.00  0.00     0.049 A 
ATOM     71  H   UNL     1       5.530  10.476  10.470  1.00  0.00     0.167 HD
ATOM     72  C   UNL     1       4.655  13.099   9.864  1.00  0.00     0.074 A 
ATOM     73  C   UNL     1       3.853  14.190   9.352  1.00  0.00     0.031 C 
ATOM     74  C   UNL     1       5.790  13.262  10.590  1.00  0.00     0.037 A 
BRANCH  61  75
ATOM     75  C   UNL     1       8.389   7.942  12.377  1.00  0.00     0.057 A 
ATOM     76  C   UNL     1       9.363   7.169  11.730  1.00  0.00     0.134 A 
ATOM     77  C   UNL     1       8.482   8.059  13.770  1.00  0.00     0.134 A 
ATOM     78  F   UNL     1       9.324   7.002  10.399  1.00  0.00    -0.206 F 
ATOM     79  C   UNL     1      10.366   6.511  12.443  1.00  0.00     0.040 A 
ATOM     80  C   UNL     1       9.499   7.432  14.491  1.00  0.00     0.040 A 
ATOM     81  F   UNL     1       7.586   8.787  14.454  1.00  0.00    -0.206 F 
ATOM     82  C   UNL     1      10.440   6.647  13.828  1.00  0.00     0.006 A 
ENDBRANCH  61  75
BRANCH  62  83
ATOM     83  C   UNL     1       0.829  12.065   7.333  1.00  0.00     0.057 A 
ATOM     84  C   UNL     1       1.054  12.817   6.173  1.00  0.00     0.134 A 
ATOM     85  C   UNL     1      -0.493  11.958   7.783  1.00  0.00     0.134 A 
ATOM     86  F   UNL     1       2.301  12.979   5.706  1.00  0.00    -0.206 F 
ATOM     87  C   UNL     1       0.011  13.454   5.499  1.00  0.00     0.040 A 
ATOM     88  C   UNL     1      -1.550  12.566   7.103  1.00  0.00     0.040 A 
ATOM     89  F   UNL     1      -0.777  11.254   8.889  1.00  0.00    -0.206 F 
ATOM     90  C   UNL     1      -1.297  13.324   5.961  1.00  0.00     0.006 A 
ENDBRANCH  62  83
BRANCH  74  91
ATOM     91  C   UNL     1       6.269  14.668  10.825  1.00  0.00     0.057 A 
ATOM     92  C   UNL     1       5.598  15.556  11.674  1.00  0.00     0.134 A 
ATOM     93  C   UNL     1       7.449  15.123  10.219  1.00  0.00     0.134 A 
ATOM     94  F   UNL     1       4.458  15.189  12.279  1.00  0.00    -0.206 F 
ATOM     95  C   UNL     1       6.065  16.855  11.889  1.00  0.00     0.040 A 
ATOM     96  C   UNL     1       7.943  16.408  10.452  1.00  0.00     0.040 A 
ATOM     97  F   UNL     1       8.150  14.322   9.403  1.00  0.00    -0.206 F 
ATOM     98  C   UNL     1       7.245  17.281  11.283  1.00  0.00     0.006 A 
ENDBRANCH  74  91
ENDBRANCH  48  49
ENDBRANCH  41  43
ENDBRANCH  40  41
ENDBRANCH  39  40
ENDBRANCH  38  39
ENDBRANCH  37  38
ENDBRANCH  36  37
ENDBRANCH  35  36
ENDBRANCH  34  35
ENDBRANCH   1  34
TORSDOF 23
