REMARK SMILES Cc1ccc(O[C@H](C)C(=O)NNC(=O)[C@@H]2[C@@H](C(=O)OCCOCCOCCOC(=O)c3ccc(-c4c5nc(c(-c6c(F)cccc6F)c6ccc([nH]6)c(-c6c(F)cccc6F)c6nc(c(-c7c(F)cccc7F)c7ccc4[nH]7)C=C6)C=C5)cc3)[C@@H]3C=C[C@H]2C3)cc1C
REMARK SMILES IDX 22 1 21 2 20 3 19 4 17 5 18 6 16 7 15 8 88 9 85 10 87 11
REMARK SMILES IDX 89 12 86 13 13 14 12 15 14 17 11 18 9 19 10 20 7 22 8 23
REMARK SMILES IDX 6 24 5 25 1 26 2 27 3 28 91 29 4 30 90 31 92 32 23 33 24 34
REMARK SMILES IDX 25 35 26 36 27 37 28 38 29 39 30 40 31 41 32 42 84 43 33 44
REMARK SMILES IDX 83 45 34 46 35 47 36 48 77 49 37 50 82 51 76 52 78 53 38 54
REMARK SMILES IDX 81 55 75 56 74 57 39 59 65 60 48 61 64 62 49 63 52 64 63 65
REMARK SMILES IDX 79 66 50 67 51 68 62 70 80 71 53 72 40 73 41 74 46 75 42 76
REMARK SMILES IDX 43 77 45 78 47 79 44 80 66 81 67 82 72 83 68 84 69 85 71 86
REMARK SMILES IDX 73 87 70 88 54 89 55 90 60 91 56 92 57 93 59 94 61 95 58 96
REMARK H PARENT 12 16 11 21 78 58 52 69
REMARK Flexibility Score: inf
ROOT
ATOM      1  O   UNL     1       1.469   7.210  -3.383  1.00  0.00    -0.376 OA
ENDROOT
BRANCH   1   2
ATOM      2  C   UNL     1       2.220   6.720  -2.272  1.00  0.00     0.202 C 
BRANCH   2   3
ATOM      3  C   UNL     1       1.458   6.488  -0.953  1.00  0.00     0.261 C 
BRANCH   3   4
ATOM      4  O   UNL     1       0.367   5.530  -1.002  1.00  0.00    -0.463 OA
BRANCH   4   5
ATOM      5  C   UNL     1      -0.863   6.030  -0.702  1.00  0.00     0.310 C 
ATOM      6  O   UNL     1      -1.077   7.216  -0.465  1.00  0.00    -0.252 OA
BRANCH   5   7
ATOM      7  C   UNL     1      -1.993   5.013  -0.660  1.00  0.00     0.119 C 
ATOM      8  C   UNL     1      -1.817   3.598  -1.341  1.00  0.00     0.102 C 
ATOM      9  C   UNL     1      -3.031   3.559  -2.310  1.00  0.00     0.025 C 
ATOM     10  C   UNL     1      -3.224   5.593  -1.417  1.00  0.00     0.027 C 
ATOM     11  C   UNL     1      -4.329   3.585  -1.538  1.00  0.00    -0.027 C 
ATOM     12  C   UNL     1      -3.059   5.000  -2.816  1.00  0.00     0.017 C 
ATOM     13  C   UNL     1      -4.440   4.803  -0.993  1.00  0.00    -0.027 C 
BRANCH   8  14
ATOM     14  C   UNL     1      -1.708   2.529  -0.245  1.00  0.00     0.242 C 
ATOM     15  N   UNL     1      -2.165   1.246  -0.384  1.00  0.00    -0.267 N 
ATOM     16  H   UNL     1      -1.937   0.617   0.338  1.00  0.00     0.191 HD
ATOM     17  O   UNL     1      -1.095   2.786   0.799  1.00  0.00    -0.273 OA
BRANCH  15  18
ATOM     18  N   UNL     1      -2.914   0.741  -1.431  1.00  0.00    -0.264 N 
ATOM     19  C   UNL     1      -3.946  -0.159  -1.288  1.00  0.00     0.279 C 
ATOM     20  O   UNL     1      -4.699  -0.350  -2.248  1.00  0.00    -0.269 OA
ATOM     21  H   UNL     1      -2.695   1.046  -2.341  1.00  0.00     0.191 HD
BRANCH  19  22
ATOM     22  C   UNL     1      -4.054  -1.010  -0.008  1.00  0.00     0.260 C 
ATOM     23  C   UNL     1      -2.825  -1.930   0.036  1.00  0.00     0.064 C 
BRANCH  22  24
ATOM     24  O   UNL     1      -4.166  -0.203   1.163  1.00  0.00    -0.481 OA
BRANCH  24  25
ATOM     25  C   UNL     1      -4.486  -0.816   2.349  1.00  0.00     0.120 A 
ATOM     26  C   UNL     1      -5.134  -2.484   6.295  1.00  0.00     0.044 C 
ATOM     27  C   UNL     1      -4.940  -1.861   4.940  1.00  0.00    -0.048 A 
ATOM     28  C   UNL     1      -4.987  -2.684   3.806  1.00  0.00     0.007 A 
ATOM     29  C   UNL     1      -4.711  -0.484   4.768  1.00  0.00    -0.045 A 
ATOM     30  C   UNL     1      -4.778  -2.165   2.525  1.00  0.00     0.047 A 
ATOM     31  C   UNL     1      -4.482   0.019   3.470  1.00  0.00     0.050 A 
ATOM     32  C   UNL     1      -4.701   0.492   5.914  1.00  0.00     0.045 C 
ENDBRANCH  24  25
ENDBRANCH  22  24
ENDBRANCH  19  22
ENDBRANCH  15  18
ENDBRANCH   8  14
ENDBRANCH   5   7
ENDBRANCH   4   5
ENDBRANCH   3   4
ENDBRANCH   2   3
ENDBRANCH   1   2
BRANCH   1  33
ATOM     33  C   UNL     1       0.404   6.380  -3.821  1.00  0.00     0.188 C 
BRANCH  33  34
ATOM     34  C   UNL     1       0.803   4.986  -4.308  1.00  0.00     0.188 C 
BRANCH  34  35
ATOM     35  O   UNL     1       1.659   4.263  -3.438  1.00  0.00    -0.376 OA
BRANCH  35  36
ATOM     36  C   UNL     1       2.114   2.981  -3.875  1.00  0.00     0.202 C 
BRANCH  36  37
ATOM     37  C   UNL     1       2.610   2.840  -5.330  1.00  0.00     0.261 C 
BRANCH  37  38
ATOM     38  O   UNL     1       1.676   3.208  -6.368  1.00  0.00    -0.460 OA
BRANCH  38  39
ATOM     39  C   UNL     1       0.426   2.685  -6.322  1.00  0.00     0.338 C 
ATOM     40  O   UNL     1       0.045   1.777  -5.618  1.00  0.00    -0.246 OA
BRANCH  39  41
ATOM     41  C   UNL     1      -0.485   3.597  -7.076  1.00  0.00     0.060 A 
ATOM     42  C   UNL     1      -1.766   3.825  -6.550  1.00  0.00     0.016 A 
ATOM     43  C   UNL     1      -0.083   4.272  -8.232  1.00  0.00     0.016 A 
ATOM     44  C   UNL     1      -2.656   4.689  -7.194  1.00  0.00     0.010 A 
ATOM     45  C   UNL     1      -0.982   5.124  -8.888  1.00  0.00     0.010 A 
ATOM     46  C   UNL     1      -2.286   5.310  -8.393  1.00  0.00    -0.014 A 
BRANCH  46  47
ATOM     47  C   UNL     1      -3.319   5.956  -9.245  1.00  0.00     0.031 A 
ATOM     48  C   UNL     1      -3.883   5.160 -10.393  1.00  0.00     0.074 A 
ATOM     49  C   UNL     1      -3.780   7.198  -9.010  1.00  0.00     0.049 A 
ATOM     50  N   UNL     1      -4.716   5.523 -11.334  1.00  0.00    -0.248 NA
ATOM     51  C   UNL     1      -3.443   3.758 -10.486  1.00  0.00     0.031 C 
ATOM     52  C   UNL     1      -3.383   8.057  -7.897  1.00  0.00     0.029 A 
ATOM     53  N   UNL     1      -4.689   7.955  -9.712  1.00  0.00    -0.354 N 
ATOM     54  C   UNL     1      -4.885   4.402 -12.138  1.00  0.00     0.074 A 
ATOM     55  C   UNL     1      -4.051   3.355 -11.589  1.00  0.00     0.031 C 
ATOM     56  C   UNL     1      -4.035   9.230  -7.999  1.00  0.00     0.029 A 
ATOM     57  C   UNL     1      -4.861   9.222  -9.206  1.00  0.00     0.049 A 
ATOM     58  H   UNL     1      -5.171   7.621 -10.502  1.00  0.00     0.167 HD
ATOM     59  C   UNL     1      -5.667   4.253 -13.233  1.00  0.00     0.037 A 
ATOM     60  C   UNL     1      -5.577  10.261  -9.682  1.00  0.00     0.037 A 
ATOM     61  C   UNL     1      -6.500   5.288 -13.782  1.00  0.00     0.049 A 
ATOM     62  C   UNL     1      -6.366  10.104 -10.960  1.00  0.00     0.074 A 
ATOM     63  C   UNL     1      -7.324   5.233 -14.892  1.00  0.00     0.029 A 
ATOM     64  N   UNL     1      -6.612   6.569 -13.263  1.00  0.00    -0.354 N 
ATOM     65  N   UNL     1      -6.513   9.045 -11.719  1.00  0.00    -0.248 NA
ATOM     66  C   UNL     1      -7.086  11.291 -11.449  1.00  0.00     0.031 C 
ATOM     67  C   UNL     1      -7.894   6.496 -15.077  1.00  0.00     0.029 A 
ATOM     68  C   UNL     1      -7.474   7.320 -14.045  1.00  0.00     0.049 A 
ATOM     69  H   UNL     1      -6.149   6.896 -12.458  1.00  0.00     0.167 HD
ATOM     70  C   UNL     1      -7.367   9.427 -12.749  1.00  0.00     0.074 A 
ATOM     71  C   UNL     1      -7.711  10.813 -12.515  1.00  0.00     0.031 C 
ATOM     72  C   UNL     1      -7.827   8.693 -13.793  1.00  0.00     0.037 A 
BRANCH  59  73
ATOM     73  C   UNL     1      -5.621   2.927 -13.935  1.00  0.00     0.057 A 
ATOM     74  C   UNL     1      -6.182   1.770 -13.378  1.00  0.00     0.134 A 
ATOM     75  C   UNL     1      -5.019   2.812 -15.194  1.00  0.00     0.134 A 
ATOM     76  F   UNL     1      -6.756   1.808 -12.166  1.00  0.00    -0.206 F 
ATOM     77  C   UNL     1      -6.121   0.541 -14.037  1.00  0.00     0.040 A 
ATOM     78  C   UNL     1      -4.979   1.595 -15.876  1.00  0.00     0.040 A 
ATOM     79  F   UNL     1      -4.465   3.881 -15.785  1.00  0.00    -0.206 F 
ATOM     80  C   UNL     1      -5.524   0.453 -15.293  1.00  0.00     0.006 A 
ENDBRANCH  59  73
BRANCH  60  81
ATOM     81  C   UNL     1      -5.565  11.569  -8.972  1.00  0.00     0.057 A 
ATOM     82  C   UNL     1      -6.719  12.082  -8.367  1.00  0.00     0.134 A 
ATOM     83  C   UNL     1      -4.410  12.361  -8.925  1.00  0.00     0.134 A 
ATOM     84  F   UNL     1      -7.866  11.388  -8.406  1.00  0.00    -0.206 F 
ATOM     85  C   UNL     1      -6.731  13.339  -7.759  1.00  0.00     0.040 A 
ATOM     86  C   UNL     1      -4.401  13.607  -8.296  1.00  0.00     0.040 A 
ATOM     87  F   UNL     1      -3.273  11.934  -9.493  1.00  0.00    -0.206 F 
ATOM     88  C   UNL     1      -5.567  14.104  -7.718  1.00  0.00     0.006 A 
ENDBRANCH  60  81
BRANCH  72  89
ATOM     89  C   UNL     1      -8.800   9.346 -14.734  1.00  0.00     0.057 A 
ATOM     90  C   UNL     1      -8.409  10.335 -15.645  1.00  0.00     0.134 A 
ATOM     91  C   UNL     1     -10.139   8.930 -14.769  1.00  0.00     0.134 A 
ATOM     92  F   UNL     1      -7.146  10.785 -15.659  1.00  0.00    -0.206 F 
ATOM     93  C   UNL     1      -9.317  10.899 -16.543  1.00  0.00     0.040 A 
ATOM     94  C   UNL     1     -11.049   9.467 -15.681  1.00  0.00     0.040 A 
ATOM     95  F   UNL     1     -10.579   7.978 -13.932  1.00  0.00    -0.206 F 
ATOM     96  C   UNL     1     -10.639  10.459 -16.569  1.00  0.00     0.006 A 
ENDBRANCH  72  89
ENDBRANCH  46  47
ENDBRANCH  39  41
ENDBRANCH  38  39
ENDBRANCH  37  38
ENDBRANCH  36  37
ENDBRANCH  35  36
ENDBRANCH  34  35
ENDBRANCH  33  34
ENDBRANCH   1  33
TORSDOF 22
