REMARK SMILES O=C(OCCOCCOCCOC(=O)c1ccccc1-c1ccccc1C(=O)N1CC[NH+](Cc2ccc3c(c2)OCO3)CC1)c1ccc(-c2c3nc(c(-c4c(F)cccc4F)c4ccc([nH]4)c(-c4c(F)cccc4F)c4nc(c(-c5c(F)cccc5F)c5ccc2[nH]5)C=C4)C=C3)cc1
REMARK SMILES IDX 8 1 7 2 6 3 5 4 4 5 3 6 2 7 1 8 45 9 46 10 98 11 47 12 97 13
REMARK SMILES IDX 48 14 49 15 50 16 91 17 51 18 96 19 90 20 92 21 52 22 95 23
REMARK SMILES IDX 89 24 88 25 53 27 79 28 62 29 78 30 63 31 66 32 77 33 93 34
REMARK SMILES IDX 64 35 65 36 76 38 94 39 67 40 54 41 55 42 60 43 56 44 57 45
REMARK SMILES IDX 59 46 61 47 58 48 80 49 81 50 86 51 82 52 83 53 85 54 87 55
REMARK SMILES IDX 84 56 68 57 69 58 74 59 70 60 71 61 73 62 75 63 72 64 9 65
REMARK SMILES IDX 10 66 11 67 12 68 13 69 14 70 15 71 16 72 20 73 17 74 19 75
REMARK SMILES IDX 18 76 21 77 22 78 26 79 23 80 25 81 24 82 27 83 28 84 29 85
REMARK SMILES IDX 30 86 44 87 31 88 43 89 32 90 33 92 34 93 35 94 39 95 36 96
REMARK SMILES IDX 38 97 37 98 40 99 42 100 41 101
REMARK H PARENT 92 26 66 37 32 91
REMARK Flexibility Score: inf
ROOT
ATOM      1  C   UNL     1       3.036   0.428  -3.462  1.00  0.00     0.188 C 
ENDROOT
BRANCH   1   2
ATOM      2  C   UNL     1       2.871  -0.145  -2.045  1.00  0.00     0.188 C 
BRANCH   2   3
ATOM      3  O   UNL     1       4.111  -0.144  -1.329  1.00  0.00    -0.376 OA
BRANCH   3   4
ATOM      4  C   UNL     1       4.726  -1.411  -1.177  1.00  0.00     0.202 C 
BRANCH   4   5
ATOM      5  C   UNL     1       4.371  -2.040   0.174  1.00  0.00     0.261 C 
BRANCH   5   6
ATOM      6  O   UNL     1       2.976  -1.861   0.483  1.00  0.00    -0.460 OA
BRANCH   6   7
ATOM      7  C   UNL     1       2.390  -0.892   1.232  1.00  0.00     0.338 C 
ATOM      8  O   UNL     1       1.165  -0.905   1.348  1.00  0.00    -0.246 OA
BRANCH   7   9
ATOM      9  C   UNL     1       3.147   0.126   2.032  1.00  0.00     0.060 A 
ATOM     10  C   UNL     1       4.387   0.670   1.693  1.00  0.00     0.016 A 
ATOM     11  C   UNL     1       2.522   0.607   3.200  1.00  0.00     0.016 A 
ATOM     12  C   UNL     1       5.053   1.550   2.552  1.00  0.00     0.010 A 
ATOM     13  C   UNL     1       3.159   1.531   4.039  1.00  0.00     0.010 A 
ATOM     14  C   UNL     1       4.459   1.960   3.747  1.00  0.00    -0.014 A 
BRANCH  14  15
ATOM     15  C   UNL     1       5.279   2.690   4.746  1.00  0.00     0.031 A 
ATOM     16  C   UNL     1       5.830   1.920   5.905  1.00  0.00     0.074 A 
ATOM     17  C   UNL     1       5.622   3.978   4.569  1.00  0.00     0.049 A 
ATOM     18  N   UNL     1       6.652   2.316   6.840  1.00  0.00    -0.248 NA
ATOM     19  C   UNL     1       5.427   0.508   6.010  1.00  0.00     0.031 C 
ATOM     20  C   UNL     1       5.217   4.784   3.431  1.00  0.00     0.029 A 
ATOM     21  N   UNL     1       6.397   4.832   5.311  1.00  0.00    -0.354 N 
ATOM     22  C   UNL     1       6.869   1.203   7.638  1.00  0.00     0.074 A 
ATOM     23  C   UNL     1       6.070   0.124   7.100  1.00  0.00     0.031 C 
ATOM     24  C   UNL     1       5.721   6.020   3.543  1.00  0.00     0.029 A 
ATOM     25  C   UNL     1       6.515   6.087   4.757  1.00  0.00     0.049 A 
ATOM     26  H   UNL     1       6.827   4.573   6.158  1.00  0.00     0.167 HD
ATOM     27  C   UNL     1       7.674   1.090   8.718  1.00  0.00     0.037 A 
ATOM     28  C   UNL     1       7.210   7.164   5.164  1.00  0.00     0.037 A 
ATOM     29  C   UNL     1       8.448   2.174   9.254  1.00  0.00     0.049 A 
ATOM     30  C   UNL     1       8.055   7.029   6.395  1.00  0.00     0.074 A 
ATOM     31  C   UNL     1       9.249   2.193  10.380  1.00  0.00     0.029 A 
ATOM     32  N   UNL     1       8.511   3.443   8.692  1.00  0.00    -0.354 N 
ATOM     33  N   UNL     1       8.243   5.971   7.146  1.00  0.00    -0.248 NA
ATOM     34  C   UNL     1       8.793   8.220   6.828  1.00  0.00     0.031 C 
ATOM     35  C   UNL     1       9.772   3.485  10.518  1.00  0.00     0.029 A 
ATOM     36  C   UNL     1       9.326   4.259   9.457  1.00  0.00     0.049 A 
ATOM     37  H   UNL     1       8.045   3.721   7.871  1.00  0.00     0.167 HD
ATOM     38  C   UNL     1       9.133   6.360   8.133  1.00  0.00     0.074 A 
ATOM     39  C   UNL     1       9.464   7.748   7.870  1.00  0.00     0.031 C 
ATOM     40  C   UNL     1       9.629   5.638   9.167  1.00  0.00     0.037 A 
BRANCH  27  41
ATOM     41  C   UNL     1       7.689  -0.245   9.394  1.00  0.00     0.057 A 
ATOM     42  C   UNL     1       8.343  -1.351   8.833  1.00  0.00     0.134 A 
ATOM     43  C   UNL     1       6.972  -0.447  10.579  1.00  0.00     0.134 A 
ATOM     44  F   UNL     1       9.014  -1.229   7.678  1.00  0.00    -0.206 F 
ATOM     45  C   UNL     1       8.257  -2.618   9.413  1.00  0.00     0.040 A 
ATOM     46  C   UNL     1       6.896  -1.704  11.178  1.00  0.00     0.040 A 
ATOM     47  F   UNL     1       6.312   0.568  11.156  1.00  0.00    -0.206 F 
ATOM     48  C   UNL     1       7.531  -2.796  10.589  1.00  0.00     0.006 A 
ENDBRANCH  27  41
BRANCH  28  49
ATOM     49  C   UNL     1       7.178   8.423   4.375  1.00  0.00     0.057 A 
ATOM     50  C   UNL     1       8.298   8.856   3.655  1.00  0.00     0.134 A 
ATOM     51  C   UNL     1       6.024   9.214   4.302  1.00  0.00     0.134 A 
ATOM     52  F   UNL     1       9.436   8.149   3.688  1.00  0.00    -0.206 F 
ATOM     53  C   UNL     1       8.278  10.035   2.905  1.00  0.00     0.040 A 
ATOM     54  C   UNL     1       5.983  10.384   3.540  1.00  0.00     0.040 A 
ATOM     55  F   UNL     1       4.911   8.851   4.956  1.00  0.00    -0.206 F 
ATOM     56  C   UNL     1       7.115  10.801   2.843  1.00  0.00     0.006 A 
ENDBRANCH  28  49
BRANCH  40  57
ATOM     57  C   UNL     1      10.580   6.347  10.078  1.00  0.00     0.057 A 
ATOM     58  C   UNL     1      10.130   7.284  11.015  1.00  0.00     0.134 A 
ATOM     59  C   UNL     1      11.950   6.070  10.033  1.00  0.00     0.134 A 
ATOM     60  F   UNL     1       8.828   7.600  11.090  1.00  0.00    -0.206 F 
ATOM     61  C   UNL     1      11.018   7.939  11.867  1.00  0.00     0.040 A 
ATOM     62  C   UNL     1      12.845   6.703  10.894  1.00  0.00     0.040 A 
ATOM     63  F   UNL     1      12.438   5.179   9.156  1.00  0.00    -0.206 F 
ATOM     64  C   UNL     1      12.379   7.644  11.811  1.00  0.00     0.006 A 
ENDBRANCH  40  57
ENDBRANCH  14  15
ENDBRANCH   7   9
ENDBRANCH   6   7
ENDBRANCH   5   6
ENDBRANCH   4   5
ENDBRANCH   3   4
ENDBRANCH   2   3
ENDBRANCH   1   2
BRANCH   1  65
ATOM     65  O   UNL     1       3.520   1.774  -3.516  1.00  0.00    -0.376 OA
BRANCH  65  66
ATOM     66  C   UNL     1       4.923   1.909  -3.285  1.00  0.00     0.202 C 
BRANCH  66  67
ATOM     67  C   UNL     1       5.285   3.325  -2.830  1.00  0.00     0.261 C 
BRANCH  67  68
ATOM     68  O   UNL     1       5.029   3.748  -1.462  1.00  0.00    -0.460 OA
BRANCH  68  69
ATOM     69  C   UNL     1       3.859   3.468  -0.856  1.00  0.00     0.338 C 
ATOM     70  O   UNL     1       3.142   2.510  -1.065  1.00  0.00    -0.246 OA
BRANCH  69  71
ATOM     71  C   UNL     1       3.426   4.474   0.150  1.00  0.00     0.067 A 
ATOM     72  C   UNL     1       2.554   3.993   1.152  1.00  0.00     0.016 A 
ATOM     73  C   UNL     1       3.687   5.854   0.067  1.00  0.00    -0.003 A 
ATOM     74  C   UNL     1       1.967   4.851   2.080  1.00  0.00     0.001 A 
ATOM     75  C   UNL     1       3.103   6.702   1.035  1.00  0.00     0.009 A 
ATOM     76  C   UNL     1       2.254   6.208   2.029  1.00  0.00     0.001 A 
BRANCH  73  77
ATOM     77  C   UNL     1       4.543   6.460  -0.961  1.00  0.00    -0.005 A 
ATOM     78  C   UNL     1       5.850   6.824  -0.549  1.00  0.00     0.009 A 
ATOM     79  C   UNL     1       4.188   6.634  -2.317  1.00  0.00     0.047 A 
ATOM     80  C   UNL     1       6.795   7.324  -1.442  1.00  0.00     0.001 A 
ATOM     81  C   UNL     1       5.164   7.149  -3.203  1.00  0.00     0.014 A 
ATOM     82  C   UNL     1       6.451   7.484  -2.774  1.00  0.00     0.001 A 
BRANCH  79  83
ATOM     83  C   UNL     1       2.909   6.178  -2.979  1.00  0.00     0.254 C 
ATOM     84  O   UNL     1       2.871   6.107  -4.209  1.00  0.00    -0.269 OA
ATOM     85  N   UNL     1       1.829   5.750  -2.206  1.00  0.00    -0.327 N 
ATOM     86  C   UNL     1       1.200   4.506  -2.639  1.00  0.00     0.181 C 
ATOM     87  C   UNL     1       0.846   6.745  -1.794  1.00  0.00     0.181 C 
ATOM     88  C   UNL     1       0.285   3.914  -1.551  1.00  0.00     0.284 C 
ATOM     89  C   UNL     1      -0.261   6.200  -0.850  1.00  0.00     0.284 C 
ATOM     90  N   UNL     1      -0.750   4.826  -1.035  1.00  0.00    -0.328 N 
ATOM     91  H   UNL     1      -0.940   4.518  -0.082  1.00  0.00     0.348 HD
BRANCH  90  92
ATOM     92  C   UNL     1      -2.088   4.655  -1.613  1.00  0.00     0.299 C 
BRANCH  92  93
ATOM     93  C   UNL     1      -2.111   4.670  -3.125  1.00  0.00     0.010 A 
ATOM     94  C   UNL     1      -2.126   5.901  -3.817  1.00  0.00     0.013 A 
ATOM     95  C   UNL     1      -1.854   3.473  -3.819  1.00  0.00     0.060 A 
ATOM     96  C   UNL     1      -1.725   5.967  -5.152  1.00  0.00     0.051 A 
ATOM     97  C   UNL     1      -1.378   3.583  -5.102  1.00  0.00     0.166 A 
ATOM     98  C   UNL     1      -1.292   4.799  -5.741  1.00  0.00     0.165 A 
ATOM     99  O   UNL     1      -0.778   2.583  -5.806  1.00  0.00    -0.454 OA
ATOM    100  O   UNL     1      -0.629   4.699  -6.928  1.00  0.00    -0.454 OA
ATOM    101  C   UNL     1      -0.070   3.376  -6.782  1.00  0.00     0.468 C 
ENDBRANCH  92  93
ENDBRANCH  90  92
ENDBRANCH  79  83
ENDBRANCH  73  77
ENDBRANCH  69  71
ENDBRANCH  68  69
ENDBRANCH  67  68
ENDBRANCH  66  67
ENDBRANCH  65  66
ENDBRANCH   1  65
TORSDOF 21
