REMARK SMILES C[NH2+][C@]1(C(=O)OCCOCCOCCOC(=O)c2ccc(-c3c4nc(c(-c5c(F)cccc5F)c5ccc([nH]5)c(-c5c(F)cccc5F)c5nc(c(-c6c(F)cccc6F)c6ccc3[nH]6)C=C5)C=C4)cc2)CCC[C@H]1CC[NH+]1C[C@@H](C)O[C@H](C)C1
REMARK SMILES IDX 10 1 9 2 8 3 7 4 6 5 4 6 5 7 3 8 72 9 75 10 73 11 74 12 2 13
REMARK SMILES IDX 1 14 76 17 77 18 78 19 79 20 85 21 80 23 83 24 81 25 82 26
REMARK SMILES IDX 84 27 11 28 12 29 13 30 14 31 15 32 16 33 17 34 18 35 19 36
REMARK SMILES IDX 71 37 20 38 70 39 21 40 22 41 23 42 64 43 24 44 69 45 63 46
REMARK SMILES IDX 65 47 25 48 68 49 62 50 61 51 26 53 52 54 35 55 51 56 36 57
REMARK SMILES IDX 39 58 50 59 66 60 37 61 38 62 49 64 67 65 40 66 27 67 28 68
REMARK SMILES IDX 33 69 29 70 30 71 32 72 34 73 31 74 53 75 54 76 59 77 55 78
REMARK SMILES IDX 56 79 58 80 60 81 57 82 41 83 42 84 47 85 43 86 44 87 46 88
REMARK SMILES IDX 48 89 45 90
REMARK H PARENT 2 15 2 16 78 22 65 52 39 63
REMARK Flexibility Score: inf
ROOT
ATOM      1  C   UNL     1       2.269   0.679   2.321  1.00  0.00     0.188 C 
ENDROOT
BRANCH   1   2
ATOM      2  O   UNL     1       3.541   0.439   1.763  1.00  0.00    -0.376 OA
BRANCH   2   3
ATOM      3  C   UNL     1       3.663  -0.363   0.601  1.00  0.00     0.202 C 
BRANCH   3   4
ATOM      4  C   UNL     1       2.619  -1.402   0.179  1.00  0.00     0.261 C 
BRANCH   4   5
ATOM      5  O   UNL     1       1.246  -0.971   0.110  1.00  0.00    -0.459 OA
BRANCH   5   6
ATOM      6  C   UNL     1       0.390  -1.602   0.976  1.00  0.00     0.368 C 
ATOM      7  O   UNL     1       0.775  -2.400   1.827  1.00  0.00    -0.245 OA
BRANCH   6   8
ATOM      8  C   UNL     1      -1.115  -1.247   0.745  1.00  0.00     0.197 C 
ATOM      9  C   UNL     1      -1.467   0.013  -0.090  1.00  0.00     0.081 C 
ATOM     10  C   UNL     1      -1.777  -2.345  -0.131  1.00  0.00     0.068 C 
ATOM     11  C   UNL     1      -2.905  -0.216  -0.573  1.00  0.00     0.008 C 
ATOM     12  C   UNL     1      -3.134  -1.724  -0.516  1.00  0.00     0.011 C 
BRANCH   8  13
ATOM     13  N   UNL     1      -1.747  -1.002   2.087  1.00  0.00    -0.334 N 
ATOM     14  C   UNL     1      -2.112  -2.194   2.839  1.00  0.00     0.331 C 
ATOM     15  H   UNL     1      -1.088  -0.465   2.651  1.00  0.00     0.347 HD
ATOM     16  H   UNL     1      -2.622  -0.513   1.897  1.00  0.00     0.347 HD
ENDBRANCH   8  13
BRANCH  10  17
ATOM     17  C   UNL     1      -1.017  -2.693  -1.441  1.00  0.00     0.072 C 
BRANCH  17  18
ATOM     18  C   UNL     1       0.195  -3.633  -1.358  1.00  0.00     0.262 C 
BRANCH  18  19
ATOM     19  N   UNL     1       0.056  -4.861  -0.580  1.00  0.00    -0.331 N 
ATOM     20  C   UNL     1      -1.147  -5.664  -0.840  1.00  0.00     0.294 C 
ATOM     21  C   UNL     1       1.231  -5.744  -0.775  1.00  0.00     0.294 C 
ATOM     22  H   UNL     1      -0.023  -4.519   0.378  1.00  0.00     0.348 HD
ATOM     23  C   UNL     1      -1.172  -6.439  -2.173  1.00  0.00     0.170 C 
ATOM     24  C   UNL     1       1.238  -6.431  -2.162  1.00  0.00     0.170 C 
ATOM     25  C   UNL     1      -1.525  -5.589  -3.389  1.00  0.00     0.045 C 
ATOM     26  O   UNL     1       0.036  -7.184  -2.391  1.00  0.00    -0.364 OA
ATOM     27  C   UNL     1       2.410  -7.396  -2.294  1.00  0.00     0.045 C 
ENDBRANCH  18  19
ENDBRANCH  17  18
ENDBRANCH  10  17
ENDBRANCH   6   8
ENDBRANCH   5   6
ENDBRANCH   4   5
ENDBRANCH   3   4
ENDBRANCH   2   3
ENDBRANCH   1   2
BRANCH   1  28
ATOM     28  C   UNL     1       1.249   1.474   1.495  1.00  0.00     0.188 C 
BRANCH  28  29
ATOM     29  O   UNL     1       1.585   2.065   0.258  1.00  0.00    -0.376 OA
BRANCH  29  30
ATOM     30  C   UNL     1       2.696   2.944   0.218  1.00  0.00     0.202 C 
BRANCH  30  31
ATOM     31  C   UNL     1       2.892   4.038   1.285  1.00  0.00     0.261 C 
BRANCH  31  32
ATOM     32  O   UNL     1       2.539   3.685   2.632  1.00  0.00    -0.460 OA
BRANCH  32  33
ATOM     33  C   UNL     1       1.376   4.215   3.097  1.00  0.00     0.338 C 
ATOM     34  O   UNL     1       0.657   5.022   2.529  1.00  0.00    -0.246 OA
BRANCH  33  35
ATOM     35  C   UNL     1       0.954   3.473   4.311  1.00  0.00     0.060 A 
ATOM     36  C   UNL     1      -0.298   2.833   4.303  1.00  0.00     0.016 A 
ATOM     37  C   UNL     1       1.779   3.381   5.430  1.00  0.00     0.016 A 
ATOM     38  C   UNL     1      -0.737   2.118   5.417  1.00  0.00     0.010 A 
ATOM     39  C   UNL     1       1.319   2.704   6.565  1.00  0.00     0.010 A 
ATOM     40  C   UNL     1       0.046   2.099   6.575  1.00  0.00    -0.014 A 
BRANCH  40  41
ATOM     41  C   UNL     1      -0.564   1.693   7.865  1.00  0.00     0.031 A 
ATOM     42  C   UNL     1      -1.143   2.779   8.733  1.00  0.00     0.074 A 
ATOM     43  C   UNL     1      -0.621   0.411   8.266  1.00  0.00     0.049 A 
ATOM     44  N   UNL     1      -1.634   2.709   9.943  1.00  0.00    -0.248 NA
ATOM     45  C   UNL     1      -1.165   4.131   8.150  1.00  0.00     0.031 C 
ATOM     46  C   UNL     1      -0.162  -0.743   7.498  1.00  0.00     0.029 A 
ATOM     47  N   UNL     1      -1.084  -0.127   9.443  1.00  0.00    -0.354 N 
ATOM     48  C   UNL     1      -2.008   4.007  10.270  1.00  0.00     0.074 A 
ATOM     49  C   UNL     1      -1.667   4.847   9.143  1.00  0.00     0.031 C 
ATOM     50  C   UNL     1      -0.341  -1.853   8.237  1.00  0.00     0.029 A 
ATOM     51  C   UNL     1      -0.894  -1.483   9.539  1.00  0.00     0.049 A 
ATOM     52  H   UNL     1      -1.510   0.410  10.150  1.00  0.00     0.167 HD
ATOM     53  C   UNL     1      -2.587   4.460  11.405  1.00  0.00     0.037 A 
ATOM     54  C   UNL     1      -1.115  -2.320  10.574  1.00  0.00     0.037 A 
ATOM     55  C   UNL     1      -2.925   3.630  12.529  1.00  0.00     0.049 A 
ATOM     56  C   UNL     1      -1.676  -1.778  11.865  1.00  0.00     0.074 A 
ATOM     57  C   UNL     1      -3.520   3.995  13.723  1.00  0.00     0.029 A 
ATOM     58  N   UNL     1      -2.687   2.266  12.599  1.00  0.00    -0.354 N 
ATOM     59  N   UNL     1      -2.035  -0.553  12.166  1.00  0.00    -0.248 NA
ATOM     60  C   UNL     1      -1.861  -2.739  12.964  1.00  0.00     0.031 C 
ATOM     61  C   UNL     1      -3.596   2.861  14.537  1.00  0.00     0.029 A 
ATOM     62  C   UNL     1      -3.101   1.779  13.828  1.00  0.00     0.049 A 
ATOM     63  H   UNL     1      -2.283   1.724  11.883  1.00  0.00     0.167 HD
ATOM     64  C   UNL     1      -2.518  -0.603  13.469  1.00  0.00     0.074 A 
ATOM     65  C   UNL     1      -2.415  -1.980  13.900  1.00  0.00     0.031 C 
ATOM     66  C   UNL     1      -3.005   0.402  14.240  1.00  0.00     0.037 A 
BRANCH  53  67
ATOM     67  C   UNL     1      -2.857   5.933  11.497  1.00  0.00     0.057 A 
ATOM     68  C   UNL     1      -3.861   6.553  10.742  1.00  0.00     0.134 A 
ATOM     69  C   UNL     1      -2.110   6.739  12.366  1.00  0.00     0.134 A 
ATOM     70  F   UNL     1      -4.598   5.841   9.876  1.00  0.00    -0.206 F 
ATOM     71  C   UNL     1      -4.097   7.926  10.831  1.00  0.00     0.040 A 
ATOM     72  C   UNL     1      -2.356   8.107  12.484  1.00  0.00     0.040 A 
ATOM     73  F   UNL     1      -1.134   6.208  13.118  1.00  0.00    -0.206 F 
ATOM     74  C   UNL     1      -3.348   8.705  11.710  1.00  0.00     0.006 A 
ENDBRANCH  53  67
BRANCH  54  75
ATOM     75  C   UNL     1      -0.780  -3.763  10.453  1.00  0.00     0.057 A 
ATOM     76  C   UNL     1      -1.780  -4.743  10.453  1.00  0.00     0.134 A 
ATOM     77  C   UNL     1       0.548  -4.200  10.380  1.00  0.00     0.134 A 
ATOM     78  F   UNL     1      -3.070  -4.391  10.553  1.00  0.00    -0.206 F 
ATOM     79  C   UNL     1      -1.472  -6.104  10.402  1.00  0.00     0.040 A 
ATOM     80  C   UNL     1       0.870  -5.556  10.302  1.00  0.00     0.040 A 
ATOM     81  F   UNL     1       1.554  -3.313  10.386  1.00  0.00    -0.206 F 
ATOM     82  C   UNL     1      -0.142  -6.513  10.321  1.00  0.00     0.006 A 
ENDBRANCH  54  75
BRANCH  66  83
ATOM     83  C   UNL     1      -3.511   0.047  15.609  1.00  0.00     0.057 A 
ATOM     84  C   UNL     1      -2.647  -0.300  16.655  1.00  0.00     0.134 A 
ATOM     85  C   UNL     1      -4.882   0.105  15.897  1.00  0.00     0.134 A 
ATOM     86  F   UNL     1      -1.324  -0.384  16.445  1.00  0.00    -0.206 F 
ATOM     87  C   UNL     1      -3.129  -0.598  17.931  1.00  0.00     0.040 A 
ATOM     88  C   UNL     1      -5.373  -0.163  17.176  1.00  0.00     0.040 A 
ATOM     89  F   UNL     1      -5.764   0.443  14.945  1.00  0.00    -0.206 F 
ATOM     90  C   UNL     1      -4.495  -0.522  18.196  1.00  0.00     0.006 A 
ENDBRANCH  66  83
ENDBRANCH  40  41
ENDBRANCH  33  35
ENDBRANCH  32  33
ENDBRANCH  31  32
ENDBRANCH  30  31
ENDBRANCH  29  30
ENDBRANCH  28  29
ENDBRANCH   1  28
TORSDOF 21
