REMARK SMILES O=C(CC1CCN(S(=O)(=O)c2cc[nH]c2)CC1)OCCOCCOCCOC(=O)c1ccc(-c2c3nc(c(-c4c(F)cccc4F)c4ccc([nH]4)c(-c4c(F)cccc4F)c4nc(c(-c5c(F)cccc5F)c5ccc2[nH]5)C=C4)C=C3)cc1
REMARK SMILES IDX 22 1 21 2 20 3 19 4 18 5 2 6 1 7 3 8 4 9 5 10 17 11 6 12
REMARK SMILES IDX 16 13 7 14 8 15 9 16 10 17 11 18 12 19 15 20 13 21 14 22
REMARK SMILES IDX 23 24 24 25 25 26 26 27 27 28 28 29 29 30 30 31 31 32 83 33
REMARK SMILES IDX 32 34 82 35 33 36 34 37 35 38 76 39 36 40 81 41 75 42 77 43
REMARK SMILES IDX 37 44 80 45 74 46 73 47 38 49 64 50 47 51 63 52 48 53 51 54
REMARK SMILES IDX 62 55 78 56 49 57 50 58 61 60 79 61 52 62 39 63 40 64 45 65
REMARK SMILES IDX 41 66 42 67 44 68 46 69 43 70 65 71 66 72 71 73 67 74 68 75
REMARK SMILES IDX 70 76 72 77 69 78 53 79 54 80 59 81 55 82 56 83 58 84 60 85
REMARK SMILES IDX 57 86
REMARK H PARENT 14 23 77 48 51 59
REMARK Flexibility Score: inf
ROOT
ATOM      1  C   UNL     1       2.964  -0.651  -1.780  1.00  0.00     0.188 C 
ENDROOT
BRANCH   1   2
ATOM      2  O   UNL     1       4.152  -0.773  -1.000  1.00  0.00    -0.376 OA
BRANCH   2   3
ATOM      3  C   UNL     1       4.147  -1.823  -0.046  1.00  0.00     0.202 C 
BRANCH   3   4
ATOM      4  C   UNL     1       3.555  -1.419   1.296  1.00  0.00     0.261 C 
BRANCH   4   5
ATOM      5  O   UNL     1       2.374  -0.618   1.183  1.00  0.00    -0.463 OA
BRANCH   5   6
ATOM      6  C   UNL     1       2.415   0.641   1.691  1.00  0.00     0.306 C 
ATOM      7  O   UNL     1       1.634   0.994   2.569  1.00  0.00    -0.252 OA
BRANCH   6   8
ATOM      8  C   UNL     1       3.321   1.633   0.979  1.00  0.00     0.126 C 
BRANCH   8   9
ATOM      9  C   UNL     1       4.420   2.265   1.856  1.00  0.00     0.003 C 
ATOM     10  C   UNL     1       4.806   3.667   1.345  1.00  0.00     0.021 C 
ATOM     11  C   UNL     1       5.723   1.459   1.930  1.00  0.00     0.021 C 
ATOM     12  C   UNL     1       5.581   3.631   0.025  1.00  0.00     0.103 C 
ATOM     13  C   UNL     1       6.453   1.387   0.590  1.00  0.00     0.103 C 
ATOM     14  N   UNL     1       6.790   2.755   0.127  1.00  0.00    -0.198 NA
BRANCH  14  15
ATOM     15  S   UNL     1       7.718   2.809  -1.324  1.00  0.00     0.244 S 
ATOM     16  O   UNL     1       6.893   2.253  -2.393  1.00  0.00    -0.207 OA
ATOM     17  O   UNL     1       8.307   4.112  -1.435  1.00  0.00    -0.207 OA
BRANCH  15  18
ATOM     18  C   UNL     1       9.048   1.705  -1.215  1.00  0.00     0.100 A 
ATOM     19  C   UNL     1       8.979   0.302  -1.444  1.00  0.00     0.041 A 
ATOM     20  C   UNL     1      10.363   2.003  -0.908  1.00  0.00     0.104 A 
ATOM     21  C   UNL     1      10.242  -0.209  -1.249  1.00  0.00     0.083 A 
ATOM     22  N   UNL     1      11.080   0.835  -0.940  1.00  0.00    -0.366 N 
ATOM     23  H   UNL     1      12.046   0.756  -0.768  1.00  0.00     0.165 HD
ENDBRANCH  15  18
ENDBRANCH  14  15
ENDBRANCH   8   9
ENDBRANCH   6   8
ENDBRANCH   5   6
ENDBRANCH   4   5
ENDBRANCH   3   4
ENDBRANCH   2   3
ENDBRANCH   1   2
BRANCH   1  24
ATOM     24  C   UNL     1       2.468  -1.928  -2.474  1.00  0.00     0.188 C 
BRANCH  24  25
ATOM     25  O   UNL     1       3.395  -2.915  -2.922  1.00  0.00    -0.376 OA
BRANCH  25  26
ATOM     26  C   UNL     1       4.708  -2.567  -3.341  1.00  0.00     0.202 C 
BRANCH  26  27
ATOM     27  C   UNL     1       4.820  -1.864  -4.677  1.00  0.00     0.261 C 
BRANCH  27  28
ATOM     28  O   UNL     1       4.510  -0.483  -4.534  1.00  0.00    -0.460 OA
BRANCH  28  29
ATOM     29  C   UNL     1       3.293  -0.151  -5.001  1.00  0.00     0.338 C 
ATOM     30  O   UNL     1       2.374  -0.901  -5.286  1.00  0.00    -0.246 OA
BRANCH  29  31
ATOM     31  C   UNL     1       3.279   1.269  -5.365  1.00  0.00     0.060 A 
ATOM     32  C   UNL     1       2.019   1.726  -5.757  1.00  0.00     0.016 A 
ATOM     33  C   UNL     1       4.469   1.742  -5.934  1.00  0.00     0.016 A 
ATOM     34  C   UNL     1       1.934   2.397  -6.952  1.00  0.00     0.010 A 
ATOM     35  C   UNL     1       4.381   2.362  -7.156  1.00  0.00     0.010 A 
ATOM     36  C   UNL     1       3.109   2.618  -7.680  1.00  0.00    -0.014 A 
BRANCH  36  37
ATOM     37  C   UNL     1       2.970   3.249  -8.990  1.00  0.00     0.031 A 
ATOM     38  C   UNL     1       2.925   4.759  -8.839  1.00  0.00     0.074 A 
ATOM     39  C   UNL     1       2.825   2.401 -10.049  1.00  0.00     0.049 A 
ATOM     40  N   UNL     1       2.343   5.646  -9.579  1.00  0.00    -0.248 NA
ATOM     41  C   UNL     1       3.546   5.374  -7.629  1.00  0.00     0.031 C 
ATOM     42  C   UNL     1       2.909   0.926  -9.966  1.00  0.00     0.029 A 
ATOM     43  N   UNL     1       2.567   2.586 -11.389  1.00  0.00    -0.354 N 
ATOM     44  C   UNL     1       2.700   6.900  -9.058  1.00  0.00     0.074 A 
ATOM     45  C   UNL     1       3.313   6.674  -7.788  1.00  0.00     0.031 C 
ATOM     46  C   UNL     1       2.639   0.363 -11.162  1.00  0.00     0.029 A 
ATOM     47  C   UNL     1       2.362   1.398 -12.139  1.00  0.00     0.049 A 
ATOM     48  H   UNL     1       2.528   3.480 -11.799  1.00  0.00     0.167 HD
ATOM     49  C   UNL     1       2.610   8.054  -9.768  1.00  0.00     0.037 A 
ATOM     50  C   UNL     1       1.957   1.264 -13.441  1.00  0.00     0.037 A 
ATOM     51  C   UNL     1       2.031   7.821 -11.047  1.00  0.00     0.049 A 
ATOM     52  C   UNL     1       1.898   2.637 -13.967  1.00  0.00     0.074 A 
ATOM     53  C   UNL     1       0.747   7.556 -11.442  1.00  0.00     0.029 A 
ATOM     54  N   UNL     1       2.888   7.492 -12.069  1.00  0.00    -0.354 N 
ATOM     55  N   UNL     1       2.937   3.365 -14.243  1.00  0.00    -0.248 NA
ATOM     56  C   UNL     1       0.590   3.284 -14.124  1.00  0.00     0.031 C 
ATOM     57  C   UNL     1       0.891   6.710 -12.563  1.00  0.00     0.029 A 
ATOM     58  C   UNL     1       2.248   6.579 -12.876  1.00  0.00     0.049 A 
ATOM     59  H   UNL     1       3.797   7.846 -12.201  1.00  0.00     0.167 HD
ATOM     60  C   UNL     1       2.416   4.638 -14.268  1.00  0.00     0.074 A 
ATOM     61  C   UNL     1       0.996   4.495 -14.496  1.00  0.00     0.031 C 
ATOM     62  C   UNL     1       3.063   5.639 -13.618  1.00  0.00     0.037 A 
BRANCH  49  63
ATOM     63  C   UNL     1       3.204   9.391  -9.478  1.00  0.00     0.057 A 
ATOM     64  C   UNL     1       2.597  10.533 -10.036  1.00  0.00     0.134 A 
ATOM     65  C   UNL     1       4.481   9.574  -8.931  1.00  0.00     0.134 A 
ATOM     66  F   UNL     1       1.364  10.468 -10.565  1.00  0.00    -0.206 F 
ATOM     67  C   UNL     1       3.254  11.760 -10.124  1.00  0.00     0.040 A 
ATOM     68  C   UNL     1       5.132  10.812  -8.975  1.00  0.00     0.040 A 
ATOM     69  F   UNL     1       5.176   8.550  -8.418  1.00  0.00    -0.206 F 
ATOM     70  C   UNL     1       4.533  11.899  -9.603  1.00  0.00     0.006 A 
ENDBRANCH  49  63
BRANCH  50  71
ATOM     71  C   UNL     1       1.520   0.167 -14.388  1.00  0.00     0.057 A 
ATOM     72  C   UNL     1       1.475  -1.202 -14.111  1.00  0.00     0.134 A 
ATOM     73  C   UNL     1       1.019   0.500 -15.679  1.00  0.00     0.134 A 
ATOM     74  F   UNL     1       1.989  -1.710 -12.988  1.00  0.00    -0.206 F 
ATOM     75  C   UNL     1       0.896  -2.140 -14.993  1.00  0.00     0.040 A 
ATOM     76  C   UNL     1       0.408  -0.411 -16.547  1.00  0.00     0.040 A 
ATOM     77  F   UNL     1       1.089   1.747 -16.167  1.00  0.00    -0.206 F 
ATOM     78  C   UNL     1       0.329  -1.743 -16.198  1.00  0.00     0.006 A 
ENDBRANCH  50  71
BRANCH  62  79
ATOM     79  C   UNL     1       4.540   5.355 -13.403  1.00  0.00     0.057 A 
ATOM     80  C   UNL     1       5.396   5.180 -14.499  1.00  0.00     0.134 A 
ATOM     81  C   UNL     1       5.109   5.087 -12.149  1.00  0.00     0.134 A 
ATOM     82  F   UNL     1       4.955   5.423 -15.743  1.00  0.00    -0.206 F 
ATOM     83  C   UNL     1       6.716   4.730 -14.353  1.00  0.00     0.040 A 
ATOM     84  C   UNL     1       6.427   4.645 -11.982  1.00  0.00     0.040 A 
ATOM     85  F   UNL     1       4.400   5.237 -11.034  1.00  0.00    -0.206 F 
ATOM     86  C   UNL     1       7.234   4.451 -13.092  1.00  0.00     0.006 A 
ENDBRANCH  62  79
ENDBRANCH  36  37
ENDBRANCH  29  31
ENDBRANCH  28  29
ENDBRANCH  27  28
ENDBRANCH  26  27
ENDBRANCH  25  26
ENDBRANCH  24  25
ENDBRANCH   1  24
TORSDOF 20
