REMARK SMILES Cc1ccc(-c2cc(C(=O)OCCOCCOCCOC(=O)c3ccc(-c4c5nc(c(-c6c(F)cccc6F)c6ccc([nH]6)c(-c6c(F)cccc6F)c6nc(c(-c7c(F)cccc7F)c7ccc4[nH]7)C=C6)C=C5)cc3)c3cc(C)ccc3n2)c(C)c1
REMARK SMILES IDX 16 1 15 2 14 3 13 4 12 5 11 6 9 7 10 8 8 9 6 10 7 11 84 12
REMARK SMILES IDX 83 13 77 14 82 15 78 16 81 17 79 18 80 19 5 20 1 21 2 22
REMARK SMILES IDX 3 23 87 24 4 25 85 26 86 27 17 28 18 29 19 30 20 31 21 32
REMARK SMILES IDX 22 33 23 34 24 35 76 36 25 37 75 38 26 39 27 40 28 41 69 42
REMARK SMILES IDX 29 43 74 44 68 45 70 46 30 47 73 48 67 49 66 50 31 52 57 53
REMARK SMILES IDX 40 54 56 55 41 56 44 57 55 58 71 59 42 60 43 61 54 63 72 64
REMARK SMILES IDX 45 65 32 66 33 67 38 68 34 69 35 70 37 71 39 72 36 73 58 74
REMARK SMILES IDX 59 75 64 76 60 77 61 78 63 79 65 80 62 81 46 82 47 83 52 84
REMARK SMILES IDX 48 85 49 86 51 87 53 88 50 89
REMARK H PARENT 70 51 44 62
REMARK Flexibility Score: inf
ROOT
ATOM      1  C   UNL     1      -3.534  -6.205   1.232  1.00  0.00     0.188 C 
ENDROOT
BRANCH   1   2
ATOM      2  C   UNL     1      -2.967  -5.859   2.627  1.00  0.00     0.188 C 
BRANCH   2   3
ATOM      3  O   UNL     1      -3.530  -6.477   3.780  1.00  0.00    -0.376 OA
BRANCH   3   4
ATOM      4  C   UNL     1      -4.943  -6.435   3.970  1.00  0.00     0.202 C 
BRANCH   4   5
ATOM      5  C   UNL     1      -5.646  -5.074   3.889  1.00  0.00     0.261 C 
BRANCH   5   6
ATOM      6  O   UNL     1      -5.446  -4.416   2.625  1.00  0.00    -0.460 OA
BRANCH   6   7
ATOM      7  C   UNL     1      -5.023  -3.131   2.681  1.00  0.00     0.338 C 
ATOM      8  O   UNL     1      -4.873  -2.459   3.688  1.00  0.00    -0.246 OA
BRANCH   7   9
ATOM      9  C   UNL     1      -4.543  -2.679   1.353  1.00  0.00     0.071 A 
ATOM     10  C   UNL     1      -2.765  -1.615   0.161  1.00  0.00     0.072 A 
ATOM     11  C   UNL     1      -3.275  -2.089   1.354  1.00  0.00     0.045 A 
ATOM     12  N   UNL     1      -3.455  -1.695  -0.997  1.00  0.00    -0.248 NA
ATOM     13  C   UNL     1      -4.674  -2.258  -0.999  1.00  0.00     0.072 A 
ATOM     14  C   UNL     1      -5.282  -2.798   0.152  1.00  0.00     0.015 A 
ATOM     15  C   UNL     1      -5.357  -2.297  -2.205  1.00  0.00     0.029 A 
ATOM     16  C   UNL     1      -6.560  -3.402   0.022  1.00  0.00     0.014 A 
ATOM     17  C   UNL     1      -6.617  -2.887  -2.323  1.00  0.00     0.005 A 
ATOM     18  C   UNL     1      -7.225  -3.456  -1.209  1.00  0.00    -0.050 A 
ATOM     19  C   UNL     1      -8.537  -4.173  -1.331  1.00  0.00     0.044 C 
BRANCH  10  20
ATOM     20  C   UNL     1      -1.465  -0.941   0.090  1.00  0.00     0.003 A 
ATOM     21  C   UNL     1       2.430   0.959   0.004  1.00  0.00     0.044 C 
ATOM     22  C   UNL     1       1.089   0.286   0.028  1.00  0.00    -0.051 A 
ATOM     23  C   UNL     1       0.976  -1.104   0.011  1.00  0.00     0.004 A 
ATOM     24  C   UNL     1      -0.077   1.060   0.059  1.00  0.00     0.007 A 
ATOM     25  C   UNL     1      -0.286  -1.708   0.039  1.00  0.00     0.011 A 
ATOM     26  C   UNL     1      -1.352   0.465   0.093  1.00  0.00    -0.041 A 
ATOM     27  C   UNL     1      -2.551   1.377   0.095  1.00  0.00     0.045 C 
ENDBRANCH  10  20
ENDBRANCH   7   9
ENDBRANCH   6   7
ENDBRANCH   5   6
ENDBRANCH   4   5
ENDBRANCH   3   4
ENDBRANCH   2   3
ENDBRANCH   1   2
BRANCH   1  28
ATOM     28  O   UNL     1      -4.638  -7.077   1.272  1.00  0.00    -0.376 OA
BRANCH  28  29
ATOM     29  C   UNL     1      -4.457  -8.448   0.970  1.00  0.00     0.202 C 
BRANCH  29  30
ATOM     30  C   UNL     1      -3.198  -9.255   1.347  1.00  0.00     0.261 C 
BRANCH  30  31
ATOM     31  O   UNL     1      -1.995  -8.535   1.635  1.00  0.00    -0.460 OA
BRANCH  31  32
ATOM     32  C   UNL     1      -1.125  -8.364   0.612  1.00  0.00     0.338 C 
ATOM     33  O   UNL     1      -1.271  -8.703  -0.546  1.00  0.00    -0.246 OA
BRANCH  32  34
ATOM     34  C   UNL     1      -0.005  -7.532   1.097  1.00  0.00     0.060 A 
ATOM     35  C   UNL     1       0.167  -6.252   0.556  1.00  0.00     0.016 A 
ATOM     36  C   UNL     1       0.880  -8.019   2.063  1.00  0.00     0.016 A 
ATOM     37  C   UNL     1       1.242  -5.462   0.966  1.00  0.00     0.010 A 
ATOM     38  C   UNL     1       1.967  -7.232   2.458  1.00  0.00     0.010 A 
ATOM     39  C   UNL     1       2.167  -5.960   1.894  1.00  0.00    -0.014 A 
BRANCH  39  40
ATOM     40  C   UNL     1       3.435  -5.226   2.134  1.00  0.00     0.031 A 
ATOM     41  C   UNL     1       4.659  -5.642   1.363  1.00  0.00     0.074 A 
ATOM     42  C   UNL     1       3.498  -4.189   2.988  1.00  0.00     0.049 A 
ATOM     43  N   UNL     1       5.887  -5.200   1.451  1.00  0.00    -0.248 NA
ATOM     44  C   UNL     1       4.467  -6.694   0.351  1.00  0.00     0.031 C 
ATOM     45  C   UNL     1       2.374  -3.644   3.746  1.00  0.00     0.029 A 
ATOM     46  N   UNL     1       4.567  -3.413   3.366  1.00  0.00    -0.354 N 
ATOM     47  C   UNL     1       6.612  -5.913   0.505  1.00  0.00     0.074 A 
ATOM     48  C   UNL     1       5.695  -6.839  -0.125  1.00  0.00     0.031 C 
ATOM     49  C   UNL     1       2.817  -2.631   4.513  1.00  0.00     0.029 A 
ATOM     50  C   UNL     1       4.259  -2.482   4.328  1.00  0.00     0.049 A 
ATOM     51  H   UNL     1       5.468  -3.515   2.983  1.00  0.00     0.167 HD
ATOM     52  C   UNL     1       7.921  -5.801   0.180  1.00  0.00     0.037 A 
ATOM     53  C   UNL     1       5.059  -1.630   5.000  1.00  0.00     0.037 A 
ATOM     54  C   UNL     1       8.839  -4.893   0.812  1.00  0.00     0.049 A 
ATOM     55  C   UNL     1       6.538  -1.608   4.700  1.00  0.00     0.074 A 
ATOM     56  C   UNL     1      10.192  -4.728   0.572  1.00  0.00     0.029 A 
ATOM     57  N   UNL     1       8.498  -3.996   1.811  1.00  0.00    -0.354 N 
ATOM     58  N   UNL     1       7.214  -2.289   3.807  1.00  0.00    -0.248 NA
ATOM     59  C   UNL     1       7.365  -0.697   5.507  1.00  0.00     0.031 C 
ATOM     60  C   UNL     1      10.678  -3.757   1.452  1.00  0.00     0.029 A 
ATOM     61  C   UNL     1       9.617  -3.283   2.207  1.00  0.00     0.049 A 
ATOM     62  H   UNL     1       7.594  -3.882   2.185  1.00  0.00     0.167 HD
ATOM     63  C   UNL     1       8.532  -1.859   3.917  1.00  0.00     0.074 A 
ATOM     64  C   UNL     1       8.560  -0.852   4.956  1.00  0.00     0.031 C 
ATOM     65  C   UNL     1       9.623  -2.261   3.220  1.00  0.00     0.037 A 
BRANCH  52  66
ATOM     66  C   UNL     1       8.443  -6.694  -0.905  1.00  0.00     0.057 A 
ATOM     67  C   UNL     1       8.129  -6.473  -2.252  1.00  0.00     0.134 A 
ATOM     68  C   UNL     1       9.305  -7.756  -0.606  1.00  0.00     0.134 A 
ATOM     69  F   UNL     1       7.295  -5.482  -2.601  1.00  0.00    -0.206 F 
ATOM     70  C   UNL     1       8.647  -7.283  -3.263  1.00  0.00     0.040 A 
ATOM     71  C   UNL     1       9.848  -8.559  -1.610  1.00  0.00     0.040 A 
ATOM     72  F   UNL     1       9.645  -8.020   0.664  1.00  0.00    -0.206 F 
ATOM     73  C   UNL     1       9.516  -8.324  -2.943  1.00  0.00     0.006 A 
ENDBRANCH  52  66
BRANCH  53  74
ATOM     74  C   UNL     1       4.506  -0.741   6.056  1.00  0.00     0.057 A 
ATOM     75  C   UNL     1       4.514   0.652   5.911  1.00  0.00     0.134 A 
ATOM     76  C   UNL     1       4.034  -1.258   7.268  1.00  0.00     0.134 A 
ATOM     77  F   UNL     1       4.983   1.211   4.785  1.00  0.00    -0.206 F 
ATOM     78  C   UNL     1       4.106   1.498   6.944  1.00  0.00     0.040 A 
ATOM     79  C   UNL     1       3.595  -0.425   8.298  1.00  0.00     0.040 A 
ATOM     80  F   UNL     1       4.005  -2.583   7.474  1.00  0.00    -0.206 F 
ATOM     81  C   UNL     1       3.643   0.959   8.142  1.00  0.00     0.006 A 
ENDBRANCH  53  74
BRANCH  65  82
ATOM     82  C   UNL     1      10.925  -1.571   3.510  1.00  0.00     0.057 A 
ATOM     83  C   UNL     1      11.638  -1.794   4.694  1.00  0.00     0.134 A 
ATOM     84  C   UNL     1      11.492  -0.704   2.566  1.00  0.00     0.134 A 
ATOM     85  F   UNL     1      11.144  -2.603   5.643  1.00  0.00    -0.206 F 
ATOM     86  C   UNL     1      12.857  -1.160   4.940  1.00  0.00     0.040 A 
ATOM     87  C   UNL     1      12.724  -0.087   2.789  1.00  0.00     0.040 A 
ATOM     88  F   UNL     1      10.867  -0.456   1.405  1.00  0.00    -0.206 F 
ATOM     89  C   UNL     1      13.407  -0.309   3.982  1.00  0.00     0.006 A 
ENDBRANCH  65  82
ENDBRANCH  39  40
ENDBRANCH  32  34
ENDBRANCH  31  32
ENDBRANCH  30  31
ENDBRANCH  29  30
ENDBRANCH  28  29
ENDBRANCH   1  28
TORSDOF 18
