REMARK SMILES Cc1cc(C)n2ncc(C(=O)N(C)CCCC(=O)OCCOCCOCCOC(=O)c3ccc(-c4c5nc(c(-c6c(F)cccc6F)c6ccc([nH]6)c(-c6c(F)cccc6F)c6nc(c(-c7c(F)cccc7F)c7ccc4[nH]7)C=C6)C=C5)cc3)c2n1
REMARK SMILES IDX 22 1 21 2 20 3 19 4 17 5 18 6 16 7 15 8 14 9 12 10 13 11
REMARK SMILES IDX 10 12 11 13 9 14 1 15 2 16 3 17 86 18 4 19 85 20 5 21 6 22
REMARK SMILES IDX 7 23 8 24 23 25 24 26 25 27 26 28 27 29 28 30 29 31 30 32
REMARK SMILES IDX 31 33 32 34 84 35 33 36 83 37 34 38 35 39 36 40 77 41 37 42
REMARK SMILES IDX 82 43 76 44 78 45 38 46 81 47 75 48 74 49 39 51 65 52 48 53
REMARK SMILES IDX 64 54 49 55 52 56 63 57 79 58 50 59 51 60 62 62 80 63 53 64
REMARK SMILES IDX 40 65 41 66 46 67 42 68 43 69 45 70 47 71 44 72 66 73 67 74
REMARK SMILES IDX 72 75 68 76 69 77 71 78 73 79 70 80 54 81 55 82 60 83 56 84
REMARK SMILES IDX 57 85 59 86 61 87 58 88
REMARK H PARENT 78 50 52 61
REMARK Flexibility Score: inf
ROOT
ATOM      1  O   UNL     1      -3.936   5.611   4.533  1.00  0.00    -0.376 OA
ENDROOT
BRANCH   1   2
ATOM      2  C   UNL     1      -4.348   4.510   3.735  1.00  0.00     0.202 C 
BRANCH   2   3
ATOM      3  C   UNL     1      -3.481   3.257   3.481  1.00  0.00     0.261 C 
BRANCH   3   4
ATOM      4  O   UNL     1      -2.653   2.830   4.572  1.00  0.00    -0.463 OA
BRANCH   4   5
ATOM      5  C   UNL     1      -1.333   2.674   4.307  1.00  0.00     0.305 C 
ATOM      6  O   UNL     1      -0.801   2.996   3.246  1.00  0.00    -0.252 OA
BRANCH   5   7
ATOM      7  C   UNL     1      -0.494   2.205   5.487  1.00  0.00     0.124 C 
BRANCH   7   8
ATOM      8  C   UNL     1      -1.084   1.721   6.818  1.00  0.00     0.033 C 
BRANCH   8   9
ATOM      9  C   UNL     1      -2.322   0.825   6.803  1.00  0.00     0.120 C 
BRANCH   9  10
ATOM     10  N   UNL     1      -1.993  -0.540   6.404  1.00  0.00    -0.342 N 
ATOM     11  C   UNL     1      -1.940  -1.495   7.496  1.00  0.00     0.147 C 
BRANCH  10  12
ATOM     12  C   UNL     1      -1.869  -0.772   5.031  1.00  0.00     0.259 C 
ATOM     13  O   UNL     1      -2.391   0.016   4.240  1.00  0.00    -0.269 OA
BRANCH  12  14
ATOM     14  C   UNL     1      -1.072  -1.869   4.508  1.00  0.00     0.104 A 
ATOM     15  C   UNL     1       0.783   0.107   0.373  1.00  0.00     0.067 C 
ATOM     16  C   UNL     1       0.486  -1.011   1.342  1.00  0.00     0.042 A 
ATOM     17  C   UNL     1       0.903  -2.384   0.917  1.00  0.00     0.047 A 
ATOM     18  N   UNL     1      -0.090  -0.730   2.475  1.00  0.00    -0.233 NA
ATOM     19  C   UNL     1       0.716  -3.367   1.814  1.00  0.00     0.043 A 
ATOM     20  C   UNL     1      -0.338  -1.777   3.327  1.00  0.00     0.168 A 
ATOM     21  C   UNL     1       1.064  -4.796   1.546  1.00  0.00     0.067 C 
ATOM     22  N   UNL     1       0.121  -3.065   3.045  1.00  0.00    -0.219 N 
ATOM     23  N   UNL     1      -0.128  -3.913   4.071  1.00  0.00    -0.174 NA
ATOM     24  C   UNL     1      -0.872  -3.199   4.913  1.00  0.00     0.151 A 
ENDBRANCH  12  14
ENDBRANCH  10  12
ENDBRANCH   9  10
ENDBRANCH   8   9
ENDBRANCH   7   8
ENDBRANCH   5   7
ENDBRANCH   4   5
ENDBRANCH   3   4
ENDBRANCH   2   3
ENDBRANCH   1   2
BRANCH   1  25
ATOM     25  C   UNL     1      -2.795   5.470   5.341  1.00  0.00     0.188 C 
BRANCH  25  26
ATOM     26  C   UNL     1      -2.930   4.720   6.673  1.00  0.00     0.188 C 
BRANCH  26  27
ATOM     27  O   UNL     1      -3.796   3.625   6.917  1.00  0.00    -0.376 OA
BRANCH  27  28
ATOM     28  C   UNL     1      -5.213   3.646   6.825  1.00  0.00     0.202 C 
BRANCH  28  29
ATOM     29  C   UNL     1      -6.077   4.820   7.280  1.00  0.00     0.261 C 
BRANCH  29  30
ATOM     30  O   UNL     1      -5.355   6.005   7.487  1.00  0.00    -0.460 OA
BRANCH  30  31
ATOM     31  C   UNL     1      -4.734   6.046   8.679  1.00  0.00     0.338 C 
ATOM     32  O   UNL     1      -4.697   5.181   9.546  1.00  0.00    -0.246 OA
BRANCH  31  33
ATOM     33  C   UNL     1      -4.075   7.343   8.774  1.00  0.00     0.060 A 
ATOM     34  C   UNL     1      -3.142   7.510   9.799  1.00  0.00     0.016 A 
ATOM     35  C   UNL     1      -4.610   8.412   8.045  1.00  0.00     0.016 A 
ATOM     36  C   UNL     1      -2.990   8.771  10.309  1.00  0.00     0.010 A 
ATOM     37  C   UNL     1      -4.490   9.660   8.577  1.00  0.00     0.010 A 
ATOM     38  C   UNL     1      -3.781   9.787   9.767  1.00  0.00    -0.014 A 
BRANCH  38  39
ATOM     39  C   UNL     1      -3.849  11.045  10.460  1.00  0.00     0.031 A 
ATOM     40  C   UNL     1      -2.691  11.894  10.144  1.00  0.00     0.074 A 
ATOM     41  C   UNL     1      -4.926  11.365  11.201  1.00  0.00     0.049 A 
ATOM     42  N   UNL     1      -1.692  12.162  10.915  1.00  0.00    -0.248 NA
ATOM     43  C   UNL     1      -2.490  12.282   8.737  1.00  0.00     0.031 C 
ATOM     44  C   UNL     1      -6.194  10.635  11.318  1.00  0.00     0.029 A 
ATOM     45  N   UNL     1      -5.151  12.483  11.938  1.00  0.00    -0.354 N 
ATOM     46  C   UNL     1      -0.877  12.989  10.154  1.00  0.00     0.074 A 
ATOM     47  C   UNL     1      -1.258  12.789   8.785  1.00  0.00     0.031 C 
ATOM     48  C   UNL     1      -7.122  11.438  11.889  1.00  0.00     0.029 A 
ATOM     49  C   UNL     1      -6.485  12.679  12.288  1.00  0.00     0.049 A 
ATOM     50  H   UNL     1      -4.433  13.103  12.202  1.00  0.00     0.167 HD
ATOM     51  C   UNL     1      -0.234  14.031  10.744  1.00  0.00     0.037 A 
ATOM     52  C   UNL     1      -7.002  13.834  12.784  1.00  0.00     0.037 A 
ATOM     53  C   UNL     1      -0.143  13.831  12.171  1.00  0.00     0.049 A 
ATOM     54  C   UNL     1      -5.858  14.624  13.316  1.00  0.00     0.074 A 
ATOM     55  C   UNL     1       0.397  12.849  12.979  1.00  0.00     0.029 A 
ATOM     56  N   UNL     1      -1.021  14.533  12.960  1.00  0.00    -0.354 N 
ATOM     57  N   UNL     1      -5.158  14.272  14.359  1.00  0.00    -0.248 NA
ATOM     58  C   UNL     1      -5.193  15.538  12.398  1.00  0.00     0.031 C 
ATOM     59  C   UNL     1      -0.503  12.731  14.078  1.00  0.00     0.029 A 
ATOM     60  C   UNL     1      -1.504  13.694  13.928  1.00  0.00     0.049 A 
ATOM     61  H   UNL     1      -1.263  15.481  12.849  1.00  0.00     0.167 HD
ATOM     62  C   UNL     1      -3.843  14.553  14.012  1.00  0.00     0.074 A 
ATOM     63  C   UNL     1      -3.935  15.401  12.825  1.00  0.00     0.031 C 
ATOM     64  C   UNL     1      -2.811  13.825  14.532  1.00  0.00     0.037 A 
BRANCH  51  65
ATOM     65  C   UNL     1      -0.113  15.395  10.104  1.00  0.00     0.057 A 
ATOM     66  C   UNL     1       0.638  16.378  10.769  1.00  0.00     0.134 A 
ATOM     67  C   UNL     1      -0.909  15.875   9.040  1.00  0.00     0.134 A 
ATOM     68  F   UNL     1       1.423  16.057  11.808  1.00  0.00    -0.206 F 
ATOM     69  C   UNL     1       0.541  17.738  10.454  1.00  0.00     0.040 A 
ATOM     70  C   UNL     1      -0.970  17.223   8.682  1.00  0.00     0.040 A 
ATOM     71  F   UNL     1      -1.750  15.103   8.345  1.00  0.00    -0.206 F 
ATOM     72  C   UNL     1      -0.270  18.165   9.411  1.00  0.00     0.006 A 
ENDBRANCH  51  65
BRANCH  52  73
ATOM     73  C   UNL     1      -8.321  14.453  12.504  1.00  0.00     0.057 A 
ATOM     74  C   UNL     1      -8.774  15.552  13.252  1.00  0.00     0.134 A 
ATOM     75  C   UNL     1      -9.038  14.180  11.325  1.00  0.00     0.134 A 
ATOM     76  F   UNL     1      -8.135  15.923  14.371  1.00  0.00    -0.206 F 
ATOM     77  C   UNL     1      -9.851  16.349  12.837  1.00  0.00     0.040 A 
ATOM     78  C   UNL     1     -10.119  14.962  10.903  1.00  0.00     0.040 A 
ATOM     79  F   UNL     1      -8.659  13.201  10.492  1.00  0.00    -0.206 F 
ATOM     80  C   UNL     1     -10.520  16.062  11.651  1.00  0.00     0.006 A 
ENDBRANCH  52  73
BRANCH  64  81
ATOM     81  C   UNL     1      -3.100  12.905  15.688  1.00  0.00     0.057 A 
ATOM     82  C   UNL     1      -3.915  11.764  15.607  1.00  0.00     0.134 A 
ATOM     83  C   UNL     1      -2.365  13.074  16.867  1.00  0.00     0.134 A 
ATOM     84  F   UNL     1      -4.590  11.472  14.488  1.00  0.00    -0.206 F 
ATOM     85  C   UNL     1      -4.002  10.845  16.659  1.00  0.00     0.040 A 
ATOM     86  C   UNL     1      -2.416  12.147  17.909  1.00  0.00     0.040 A 
ATOM     87  F   UNL     1      -1.528  14.116  16.995  1.00  0.00    -0.206 F 
ATOM     88  C   UNL     1      -3.239  11.029  17.809  1.00  0.00     0.006 A 
ENDBRANCH  64  81
ENDBRANCH  38  39
ENDBRANCH  31  33
ENDBRANCH  30  31
ENDBRANCH  29  30
ENDBRANCH  28  29
ENDBRANCH  27  28
ENDBRANCH  26  27
ENDBRANCH  25  26
ENDBRANCH   1  25
TORSDOF 22
