REMARK SMILES CC(C)(C)OC(=O)Nc1ccc(SCC(=O)OCCOCCOCCOC(=O)c2ccc(-c3c4nc(c(-c5c(F)cccc5F)c5ccc([nH]5)c(-c5c(F)cccc5F)c5nc(c(-c6c(F)cccc6F)c6ccc3[nH]6)C=C5)C=C4)cc2)cc1
REMARK SMILES IDX 20 1 19 2 18 3 17 4 15 5 16 6 14 7 13 8 12 9 9 10 10 11
REMARK SMILES IDX 84 12 11 13 83 14 8 15 6 16 7 17 5 19 2 20 1 21 3 22 4 23
REMARK SMILES IDX 21 24 22 25 23 26 24 27 25 28 26 29 27 30 28 31 29 32 30 33
REMARK SMILES IDX 82 34 31 35 81 36 32 37 33 38 34 39 75 40 35 41 80 42 74 43
REMARK SMILES IDX 76 44 36 45 79 46 73 47 72 48 37 50 63 51 46 52 62 53 47 54
REMARK SMILES IDX 50 55 61 56 77 57 48 58 49 59 60 61 78 62 51 63 38 64 39 65
REMARK SMILES IDX 44 66 40 67 41 68 43 69 45 70 42 71 64 72 65 73 70 74 66 75
REMARK SMILES IDX 67 76 69 77 71 78 68 79 52 80 53 81 58 82 54 83 55 84 57 85
REMARK SMILES IDX 59 86 56 87
REMARK H PARENT 8 18 76 49 50 60
REMARK Flexibility Score: inf
ROOT
ATOM      1  O   UNL     1       4.833  -0.156  -4.599  1.00  0.00    -0.376 OA
ENDROOT
BRANCH   1   2
ATOM      2  C   UNL     1       4.671  -0.527  -5.968  1.00  0.00     0.202 C 
BRANCH   2   3
ATOM      3  C   UNL     1       5.599  -1.669  -6.416  1.00  0.00     0.261 C 
BRANCH   3   4
ATOM      4  O   UNL     1       5.195  -2.927  -5.816  1.00  0.00    -0.463 OA
BRANCH   4   5
ATOM      5  C   UNL     1       6.153  -3.716  -5.262  1.00  0.00     0.316 C 
ATOM      6  O   UNL     1       7.355  -3.542  -5.435  1.00  0.00    -0.251 OA
BRANCH   5   7
ATOM      7  C   UNL     1       5.612  -4.690  -4.210  1.00  0.00     0.197 C 
BRANCH   7   8
ATOM      8  S   UNL     1       4.058  -5.556  -4.651  1.00  0.00    -0.114 SA
BRANCH   8   9
ATOM      9  C   UNL     1       3.126  -5.671  -3.105  1.00  0.00     0.008 A 
ATOM     10  C   UNL     1       1.475  -5.568  -0.769  1.00  0.00     0.044 A 
ATOM     11  C   UNL     1       0.905  -5.633  -2.040  1.00  0.00     0.027 A 
ATOM     12  C   UNL     1       2.861  -5.738  -0.672  1.00  0.00     0.027 A 
ATOM     13  C   UNL     1       1.724  -5.678  -3.192  1.00  0.00     0.017 A 
ATOM     14  C   UNL     1       3.683  -5.768  -1.828  1.00  0.00     0.017 A 
BRANCH  10  15
ATOM     15  N   UNL     1       0.679  -5.567   0.390  1.00  0.00    -0.291 N 
ATOM     16  C   UNL     1      -0.047  -4.588   1.054  1.00  0.00     0.412 C 
ATOM     17  O   UNL     1      -0.846  -4.982   1.907  1.00  0.00    -0.224 OA
ATOM     18  H   UNL     1       0.625  -6.449   0.823  1.00  0.00     0.173 HD
BRANCH  16  19
ATOM     19  O   UNL     1       0.168  -3.253   0.795  1.00  0.00    -0.444 OA
BRANCH  19  20
ATOM     20  C   UNL     1      -0.626  -2.239   1.525  1.00  0.00     0.106 C 
ATOM     21  C   UNL     1      -0.274  -0.802   1.065  1.00  0.00     0.056 C 
ATOM     22  C   UNL     1      -0.346  -2.267   3.038  1.00  0.00     0.056 C 
ATOM     23  C   UNL     1      -2.118  -2.402   1.203  1.00  0.00     0.056 C 
ENDBRANCH  19  20
ENDBRANCH  16  19
ENDBRANCH  10  15
ENDBRANCH   8   9
ENDBRANCH   7   8
ENDBRANCH   5   7
ENDBRANCH   4   5
ENDBRANCH   3   4
ENDBRANCH   2   3
ENDBRANCH   1   2
BRANCH   1  24
ATOM     24  C   UNL     1       4.455  -1.135  -3.634  1.00  0.00     0.188 C 
BRANCH  24  25
ATOM     25  C   UNL     1       3.201  -1.948  -3.958  1.00  0.00     0.188 C 
BRANCH  25  26
ATOM     26  O   UNL     1       2.100  -1.079  -4.189  1.00  0.00    -0.376 OA
BRANCH  26  27
ATOM     27  C   UNL     1       0.986  -1.408  -3.385  1.00  0.00     0.202 C 
BRANCH  27  28
ATOM     28  C   UNL     1       1.030  -0.610  -2.077  1.00  0.00     0.261 C 
BRANCH  28  29
ATOM     29  O   UNL     1       2.187  -0.751  -1.202  1.00  0.00    -0.460 OA
BRANCH  29  30
ATOM     30  C   UNL     1       2.409  -2.017  -0.796  1.00  0.00     0.338 C 
ATOM     31  O   UNL     1       1.813  -2.972  -1.246  1.00  0.00    -0.246 OA
BRANCH  30  32
ATOM     32  C   UNL     1       3.467  -2.229   0.213  1.00  0.00     0.060 A 
ATOM     33  C   UNL     1       4.564  -3.017  -0.141  1.00  0.00     0.016 A 
ATOM     34  C   UNL     1       3.218  -1.980   1.562  1.00  0.00     0.016 A 
ATOM     35  C   UNL     1       5.352  -3.619   0.848  1.00  0.00     0.010 A 
ATOM     36  C   UNL     1       4.022  -2.551   2.553  1.00  0.00     0.010 A 
ATOM     37  C   UNL     1       5.084  -3.394   2.208  1.00  0.00    -0.014 A 
BRANCH  37  38
ATOM     38  C   UNL     1       5.983  -3.897   3.278  1.00  0.00     0.031 A 
ATOM     39  C   UNL     1       5.515  -4.856   4.339  1.00  0.00     0.074 A 
ATOM     40  C   UNL     1       7.210  -3.351   3.359  1.00  0.00     0.049 A 
ATOM     41  N   UNL     1       6.111  -5.204   5.454  1.00  0.00    -0.248 NA
ATOM     42  C   UNL     1       4.209  -5.499   4.132  1.00  0.00     0.031 C 
ATOM     43  C   UNL     1       7.759  -2.381   2.409  1.00  0.00     0.029 A 
ATOM     44  N   UNL     1       8.194  -3.492   4.302  1.00  0.00    -0.354 N 
ATOM     45  C   UNL     1       5.243  -6.078   6.100  1.00  0.00     0.074 A 
ATOM     46  C   UNL     1       4.079  -6.212   5.247  1.00  0.00     0.031 C 
ATOM     47  C   UNL     1       8.973  -2.000   2.824  1.00  0.00     0.029 A 
ATOM     48  C   UNL     1       9.258  -2.649   4.097  1.00  0.00     0.049 A 
ATOM     49  H   UNL     1       8.144  -4.131   5.049  1.00  0.00     0.167 HD
ATOM     50  C   UNL     1       5.405  -6.698   7.296  1.00  0.00     0.037 A 
ATOM     51  C   UNL     1      10.326  -2.378   4.867  1.00  0.00     0.037 A 
ATOM     52  C   UNL     1       6.578  -6.570   8.130  1.00  0.00     0.049 A 
ATOM     53  C   UNL     1      10.483  -3.076   6.178  1.00  0.00     0.074 A 
ATOM     54  C   UNL     1       6.865  -7.215   9.323  1.00  0.00     0.029 A 
ATOM     55  N   UNL     1       7.653  -5.734   7.865  1.00  0.00    -0.354 N 
ATOM     56  N   UNL     1       9.669  -3.919   6.762  1.00  0.00    -0.248 NA
ATOM     57  C   UNL     1      11.705  -2.785   6.937  1.00  0.00     0.031 C 
ATOM     58  C   UNL     1       8.094  -6.741   9.798  1.00  0.00     0.029 A 
ATOM     59  C   UNL     1       8.592  -5.830   8.881  1.00  0.00     0.049 A 
ATOM     60  H   UNL     1       7.737  -5.157   7.072  1.00  0.00     0.167 HD
ATOM     61  C   UNL     1      10.280  -4.266   7.957  1.00  0.00     0.074 A 
ATOM     62  C   UNL     1      11.542  -3.555   8.004  1.00  0.00     0.031 C 
ATOM     63  C   UNL     1       9.833  -5.100   8.927  1.00  0.00     0.037 A 
BRANCH  50  64
ATOM     64  C   UNL     1       4.287  -7.564   7.804  1.00  0.00     0.057 A 
ATOM     65  C   UNL     1       4.028  -8.832   7.271  1.00  0.00     0.134 A 
ATOM     66  C   UNL     1       3.519  -7.161   8.906  1.00  0.00     0.134 A 
ATOM     67  F   UNL     1       4.726  -9.281   6.217  1.00  0.00    -0.206 F 
ATOM     68  C   UNL     1       3.038  -9.663   7.805  1.00  0.00     0.040 A 
ATOM     69  C   UNL     1       2.541  -7.989   9.461  1.00  0.00     0.040 A 
ATOM     70  F   UNL     1       3.723  -5.964   9.477  1.00  0.00    -0.206 F 
ATOM     71  C   UNL     1       2.297  -9.245   8.909  1.00  0.00     0.006 A 
ENDBRANCH  50  64
BRANCH  51  72
ATOM     72  C   UNL     1      11.307  -1.378   4.391  1.00  0.00     0.057 A 
ATOM     73  C   UNL     1      12.529  -1.778   3.845  1.00  0.00     0.134 A 
ATOM     74  C   UNL     1      11.000  -0.011   4.374  1.00  0.00     0.134 A 
ATOM     75  F   UNL     1      12.874  -3.074   3.843  1.00  0.00    -0.206 F 
ATOM     76  C   UNL     1      13.414  -0.854   3.291  1.00  0.00     0.040 A 
ATOM     77  C   UNL     1      11.865   0.921   3.804  1.00  0.00     0.040 A 
ATOM     78  F   UNL     1       9.830   0.426   4.866  1.00  0.00    -0.206 F 
ATOM     79  C   UNL     1      13.076   0.499   3.259  1.00  0.00     0.006 A 
ENDBRANCH  51  72
BRANCH  63  80
ATOM     80  C   UNL     1      10.728  -5.286  10.113  1.00  0.00     0.057 A 
ATOM     81  C   UNL     1      10.853  -4.299  11.099  1.00  0.00     0.134 A 
ATOM     82  C   UNL     1      11.480  -6.457  10.266  1.00  0.00     0.134 A 
ATOM     83  F   UNL     1      10.172  -3.147  10.997  1.00  0.00    -0.206 F 
ATOM     84  C   UNL     1      11.715  -4.460  12.184  1.00  0.00     0.040 A 
ATOM     85  C   UNL     1      12.331  -6.638  11.357  1.00  0.00     0.040 A 
ATOM     86  F   UNL     1      11.403  -7.439   9.356  1.00  0.00    -0.206 F 
ATOM     87  C   UNL     1      12.455  -5.634  12.316  1.00  0.00     0.006 A 
ENDBRANCH  63  80
ENDBRANCH  37  38
ENDBRANCH  30  32
ENDBRANCH  29  30
ENDBRANCH  28  29
ENDBRANCH  27  28
ENDBRANCH  26  27
ENDBRANCH  25  26
ENDBRANCH  24  25
ENDBRANCH   1  24
TORSDOF 22
