REMARK SMILES COc1ncccc1C[C@H](C(=O)OCCOCCOCCOC(=O)c1ccc(-c2c3nc(c(-c4c(F)cccc4F)c4ccc([nH]4)c(-c4c(F)cccc4F)c4nc(c(-c5c(F)cccc5F)c5ccc2[nH]5)C=C4)C=C3)cc1)c1ccc(F)cc1
REMARK SMILES IDX 17 1 16 2 15 3 14 4 13 5 11 6 12 7 10 8 9 9 8 10 3 11 4 12
REMARK SMILES IDX 5 13 7 14 6 15 2 16 1 17 79 18 80 19 85 20 81 21 84 22 82 23
REMARK SMILES IDX 83 24 18 25 19 26 20 27 21 28 22 29 23 30 24 31 25 32 26 33
REMARK SMILES IDX 78 34 27 35 77 36 28 37 29 38 30 39 71 40 31 41 76 42 70 43
REMARK SMILES IDX 72 44 32 45 75 46 69 47 68 48 33 50 59 51 42 52 58 53 43 54
REMARK SMILES IDX 46 55 57 56 73 57 44 58 45 59 56 61 74 62 47 63 34 64 35 65
REMARK SMILES IDX 40 66 36 67 37 68 39 69 41 70 38 71 60 72 61 73 66 74 62 75
REMARK SMILES IDX 63 76 65 77 67 78 64 79 48 80 49 81 54 82 50 83 51 84 53 85
REMARK SMILES IDX 55 86 52 87
REMARK H PARENT 72 49 46 60
REMARK Flexibility Score: inf
ROOT
ATOM      1  C   UNL     1       3.278  -1.108   3.572  1.00  0.00     0.188 C 
ENDROOT
BRANCH   1   2
ATOM      2  O   UNL     1       3.735  -0.124   4.488  1.00  0.00    -0.376 OA
BRANCH   2   3
ATOM      3  C   UNL     1       3.162   1.176   4.487  1.00  0.00     0.202 C 
BRANCH   3   4
ATOM      4  C   UNL     1       3.162   2.003   3.187  1.00  0.00     0.261 C 
BRANCH   4   5
ATOM      5  O   UNL     1       2.638   1.345   2.010  1.00  0.00    -0.463 OA
BRANCH   5   6
ATOM      6  C   UNL     1       3.570   0.988   1.090  1.00  0.00     0.313 C 
ATOM      7  O   UNL     1       4.764   1.247   1.225  1.00  0.00    -0.252 OA
BRANCH   6   8
ATOM      8  C   UNL     1       3.042   0.089  -0.067  1.00  0.00     0.134 C 
BRANCH   8   9
ATOM      9  C   UNL     1       1.556   0.262  -0.527  1.00  0.00     0.061 C 
BRANCH   9  10
ATOM     10  C   UNL     1       0.615  -0.902  -0.217  1.00  0.00     0.015 A 
ATOM     11  C   UNL     1       0.736  -2.153  -0.825  1.00  0.00     0.216 A 
ATOM     12  N   UNL     1      -0.009  -3.244  -0.522  1.00  0.00    -0.222 NA
ATOM     13  C   UNL     1      -0.981  -3.075   0.400  1.00  0.00     0.115 A 
ATOM     14  C   UNL     1      -0.433  -0.769   0.703  1.00  0.00     0.011 A 
ATOM     15  C   UNL     1      -1.242  -1.863   1.015  1.00  0.00     0.021 A 
BRANCH  11  16
ATOM     16  O   UNL     1       1.561  -2.251  -1.917  1.00  0.00    -0.481 OA
ATOM     17  C   UNL     1       2.620  -3.165  -1.683  1.00  0.00     0.280 C 
ENDBRANCH  11  16
ENDBRANCH   9  10
ENDBRANCH   8   9
BRANCH   8  18
ATOM     18  C   UNL     1       4.042   0.276  -1.215  1.00  0.00    -0.033 A 
ATOM     19  C   UNL     1       5.074  -0.661  -1.404  1.00  0.00     0.007 A 
ATOM     20  C   UNL     1       4.079   1.484  -1.933  1.00  0.00     0.007 A 
ATOM     21  C   UNL     1       6.101  -0.412  -2.313  1.00  0.00     0.039 A 
ATOM     22  C   UNL     1       5.124   1.742  -2.819  1.00  0.00     0.039 A 
ATOM     23  C   UNL     1       6.120   0.792  -3.005  1.00  0.00     0.123 A 
ATOM     24  F   UNL     1       7.132   1.053  -3.842  1.00  0.00    -0.207 F 
ENDBRANCH   8  18
ENDBRANCH   6   8
ENDBRANCH   5   6
ENDBRANCH   4   5
ENDBRANCH   3   4
ENDBRANCH   2   3
ENDBRANCH   1   2
BRANCH   1  25
ATOM     25  C   UNL     1       1.815  -1.114   3.103  1.00  0.00     0.188 C 
BRANCH  25  26
ATOM     26  O   UNL     1       0.975  -0.173   3.735  1.00  0.00    -0.376 OA
BRANCH  26  27
ATOM     27  C   UNL     1      -0.113  -0.670   4.490  1.00  0.00     0.202 C 
BRANCH  27  28
ATOM     28  C   UNL     1       0.218  -1.599   5.666  1.00  0.00     0.261 C 
BRANCH  28  29
ATOM     29  O   UNL     1       1.131  -2.675   5.389  1.00  0.00    -0.460 OA
BRANCH  29  30
ATOM     30  C   UNL     1       0.683  -3.700   4.630  1.00  0.00     0.338 C 
ATOM     31  O   UNL     1      -0.434  -3.823   4.147  1.00  0.00    -0.246 OA
BRANCH  30  32
ATOM     32  C   UNL     1       1.850  -4.550   4.295  1.00  0.00     0.060 A 
ATOM     33  C   UNL     1       2.218  -4.730   2.952  1.00  0.00     0.016 A 
ATOM     34  C   UNL     1       2.595  -5.149   5.313  1.00  0.00     0.016 A 
ATOM     35  C   UNL     1       3.316  -5.532   2.626  1.00  0.00     0.010 A 
ATOM     36  C   UNL     1       3.678  -5.968   4.984  1.00  0.00     0.010 A 
ATOM     37  C   UNL     1       4.028  -6.188   3.639  1.00  0.00    -0.014 A 
BRANCH  37  38
ATOM     38  C   UNL     1       5.016  -7.248   3.311  1.00  0.00     0.031 A 
ATOM     39  C   UNL     1       4.584  -8.685   3.419  1.00  0.00     0.074 A 
ATOM     40  C   UNL     1       6.282  -6.957   2.969  1.00  0.00     0.049 A 
ATOM     41  N   UNL     1       5.291  -9.780   3.315  1.00  0.00    -0.248 NA
ATOM     42  C   UNL     1       3.157  -8.909   3.700  1.00  0.00     0.031 C 
ATOM     43  C   UNL     1       6.826  -5.612   2.804  1.00  0.00     0.029 A 
ATOM     44  N   UNL     1       7.351  -7.788   2.730  1.00  0.00    -0.354 N 
ATOM     45  C   UNL     1       4.402 -10.823   3.542  1.00  0.00     0.074 A 
ATOM     46  C   UNL     1       3.111 -10.227   3.815  1.00  0.00     0.031 C 
ATOM     47  C   UNL     1       8.138  -5.707   2.523  1.00  0.00     0.029 A 
ATOM     48  C   UNL     1       8.531  -7.117   2.527  1.00  0.00     0.049 A 
ATOM     49  H   UNL     1       7.277  -8.770   2.706  1.00  0.00     0.167 HD
ATOM     50  C   UNL     1       4.637 -12.158   3.525  1.00  0.00     0.037 A 
ATOM     51  C   UNL     1       9.790  -7.583   2.399  1.00  0.00     0.037 A 
ATOM     52  C   UNL     1       5.922 -12.748   3.259  1.00  0.00     0.049 A 
ATOM     53  C   UNL     1      10.047  -9.067   2.439  1.00  0.00     0.074 A 
ATOM     54  C   UNL     1       6.253 -14.089   3.174  1.00  0.00     0.029 A 
ATOM     55  N   UNL     1       7.094 -12.034   3.057  1.00  0.00    -0.354 N 
ATOM     56  N   UNL     1       9.196 -10.050   2.610  1.00  0.00    -0.248 NA
ATOM     57  C   UNL     1      11.440  -9.507   2.266  1.00  0.00     0.031 C 
ATOM     58  C   UNL     1       7.636 -14.187   2.990  1.00  0.00     0.029 A 
ATOM     59  C   UNL     1       8.157 -12.907   2.887  1.00  0.00     0.049 A 
ATOM     60  H   UNL     1       7.161 -11.052   3.036  1.00  0.00     0.167 HD
ATOM     61  C   UNL     1       9.942 -11.222   2.539  1.00  0.00     0.074 A 
ATOM     62  C   UNL     1      11.315 -10.827   2.302  1.00  0.00     0.031 C 
ATOM     63  C   UNL     1       9.524 -12.507   2.654  1.00  0.00     0.037 A 
BRANCH  50  64
ATOM     64  C   UNL     1       3.483 -13.062   3.856  1.00  0.00     0.057 A 
ATOM     65  C   UNL     1       2.369 -13.195   3.015  1.00  0.00     0.134 A 
ATOM     66  C   UNL     1       3.484 -13.804   5.044  1.00  0.00     0.134 A 
ATOM     67  F   UNL     1       2.296 -12.504   1.868  1.00  0.00    -0.206 F 
ATOM     68  C   UNL     1       1.281 -13.998   3.365  1.00  0.00     0.040 A 
ATOM     69  C   UNL     1       2.418 -14.637   5.388  1.00  0.00     0.040 A 
ATOM     70  F   UNL     1       4.520 -13.732   5.893  1.00  0.00    -0.206 F 
ATOM     71  C   UNL     1       1.306 -14.725   4.553  1.00  0.00     0.006 A 
ENDBRANCH  50  64
BRANCH  51  72
ATOM     72  C   UNL     1      10.912  -6.620   2.247  1.00  0.00     0.057 A 
ATOM     73  C   UNL     1      11.601  -6.489   1.037  1.00  0.00     0.134 A 
ATOM     74  C   UNL     1      11.306  -5.794   3.308  1.00  0.00     0.134 A 
ATOM     75  F   UNL     1      11.288  -7.270  -0.006  1.00  0.00    -0.206 F 
ATOM     76  C   UNL     1      12.643  -5.572   0.886  1.00  0.00     0.040 A 
ATOM     77  C   UNL     1      12.328  -4.855   3.163  1.00  0.00     0.040 A 
ATOM     78  F   UNL     1      10.687  -5.873   4.494  1.00  0.00    -0.206 F 
ATOM     79  C   UNL     1      13.002  -4.744   1.949  1.00  0.00     0.006 A 
ENDBRANCH  51  72
BRANCH  63  80
ATOM     80  C   UNL     1      10.550 -13.594   2.490  1.00  0.00     0.057 A 
ATOM     81  C   UNL     1      11.532 -13.846   3.457  1.00  0.00     0.134 A 
ATOM     82  C   UNL     1      10.515 -14.442   1.374  1.00  0.00     0.134 A 
ATOM     83  F   UNL     1      11.629 -13.068   4.546  1.00  0.00    -0.206 F 
ATOM     84  C   UNL     1      12.451 -14.888   3.312  1.00  0.00     0.040 A 
ATOM     85  C   UNL     1      11.409 -15.505   1.232  1.00  0.00     0.040 A 
ATOM     86  F   UNL     1       9.595 -14.266   0.413  1.00  0.00    -0.206 F 
ATOM     87  C   UNL     1      12.384 -15.727   2.201  1.00  0.00     0.006 A 
ENDBRANCH  63  80
ENDBRANCH  37  38
ENDBRANCH  30  32
ENDBRANCH  29  30
ENDBRANCH  28  29
ENDBRANCH  27  28
ENDBRANCH  26  27
ENDBRANCH  25  26
ENDBRANCH   1  25
TORSDOF 21
