REMARK SMILES CCOC(=O)[C@H]1CCCN(C(=O)N[C@](C)(CC)C(=O)OCCOCCOCCOC(=O)c2ccc(-c3c4nc(c(-c5c(F)cccc5F)c5ccc([nH]5)c(-c5c(F)cccc5F)c5nc(c(-c6c(F)cccc6F)c6ccc3[nH]6)C=C5)C=C4)cc2)C1
REMARK SMILES IDX 23 1 22 2 21 3 20 4 18 5 19 6 14 7 15 8 13 9 11 10 12 11
REMARK SMILES IDX 10 13 6 14 7 15 86 16 8 17 9 18 4 19 5 20 3 21 2 22 1 23
REMARK SMILES IDX 16 24 17 25 24 26 25 27 26 28 27 29 28 30 29 31 30 32 31 33
REMARK SMILES IDX 32 34 33 35 85 36 34 37 84 38 35 39 36 40 37 41 78 42 38 43
REMARK SMILES IDX 83 44 77 45 79 46 39 47 82 48 76 49 75 50 40 52 66 53 49 54
REMARK SMILES IDX 65 55 50 56 53 57 64 58 80 59 51 60 52 61 63 63 81 64 54 65
REMARK SMILES IDX 41 66 42 67 47 68 43 69 44 70 46 71 48 72 45 73 67 74 68 75
REMARK SMILES IDX 73 76 69 77 70 78 72 79 74 80 71 81 55 82 56 83 61 84 57 85
REMARK SMILES IDX 58 86 60 87 62 88 59 89
REMARK H PARENT 13 12 79 51 53 62
REMARK Flexibility Score: inf
ROOT
ATOM      1  O   UNL     1       4.774   4.511   1.646  1.00  0.00    -0.376 OA
ENDROOT
BRANCH   1   2
ATOM      2  C   UNL     1       5.305   4.939   2.902  1.00  0.00     0.202 C 
BRANCH   2   3
ATOM      3  C   UNL     1       4.658   6.191   3.495  1.00  0.00     0.261 C 
BRANCH   3   4
ATOM      4  O   UNL     1       3.328   5.905   4.011  1.00  0.00    -0.462 OA
BRANCH   4   5
ATOM      5  C   UNL     1       2.347   6.758   3.632  1.00  0.00     0.331 C 
ATOM      6  O   UNL     1       2.569   7.648   2.805  1.00  0.00    -0.249 OA
BRANCH   5   7
ATOM      7  C   UNL     1       1.000   6.730   4.451  1.00  0.00     0.136 C 
ATOM      8  C   UNL     1      -0.043   7.230   3.399  1.00  0.00     0.047 C 
BRANCH   7   9
ATOM      9  N   UNL     1       1.377   7.766   5.416  1.00  0.00    -0.322 N 
ATOM     10  C   UNL     1       2.214   7.759   6.473  1.00  0.00     0.318 C 
ATOM     11  O   UNL     1       2.368   8.880   6.974  1.00  0.00    -0.249 OA
ATOM     12  H   UNL     1       0.934   8.632   5.263  1.00  0.00     0.166 HD
BRANCH  10  13
ATOM     13  N   UNL     1       2.857   6.643   6.978  1.00  0.00    -0.324 N 
ATOM     14  C   UNL     1       4.949   6.262   8.267  1.00  0.00     0.119 C 
ATOM     15  C   UNL     1       4.896   4.757   8.024  1.00  0.00     0.019 C 
ATOM     16  C   UNL     1       3.545   6.870   8.238  1.00  0.00     0.136 C 
ATOM     17  C   UNL     1       4.141   4.466   6.739  1.00  0.00     0.023 C 
ATOM     18  C   UNL     1       2.794   5.193   6.675  1.00  0.00     0.121 C 
BRANCH  14  19
ATOM     19  C   UNL     1       5.611   6.566   9.591  1.00  0.00     0.310 C 
ATOM     20  O   UNL     1       6.814   6.473   9.793  1.00  0.00    -0.252 OA
BRANCH  19  21
ATOM     21  O   UNL     1       4.684   6.926  10.515  1.00  0.00    -0.466 OA
BRANCH  21  22
ATOM     22  C   UNL     1       5.147   7.408  11.775  1.00  0.00     0.229 C 
ATOM     23  C   UNL     1       5.329   6.244  12.722  1.00  0.00     0.049 C 
ENDBRANCH  21  22
ENDBRANCH  19  21
ENDBRANCH  14  19
ENDBRANCH  10  13
ENDBRANCH   7   9
BRANCH   7  24
ATOM     24  C   UNL     1       0.183   5.700   5.276  1.00  0.00     0.037 C 
ATOM     25  C   UNL     1      -0.003   4.293   4.768  1.00  0.00     0.007 C 
ENDBRANCH   7  24
ENDBRANCH   5   7
ENDBRANCH   4   5
ENDBRANCH   3   4
ENDBRANCH   2   3
ENDBRANCH   1   2
BRANCH   1  26
ATOM     26  C   UNL     1       3.373   4.302   1.602  1.00  0.00     0.188 C 
BRANCH  26  27
ATOM     27  C   UNL     1       2.859   3.057   2.314  1.00  0.00     0.188 C 
BRANCH  27  28
ATOM     28  O   UNL     1       3.352   2.773   3.623  1.00  0.00    -0.376 OA
BRANCH  28  29
ATOM     29  C   UNL     1       4.167   1.591   3.665  1.00  0.00     0.202 C 
BRANCH  29  30
ATOM     30  C   UNL     1       3.397   0.253   3.627  1.00  0.00     0.261 C 
BRANCH  30  31
ATOM     31  O   UNL     1       2.426   0.199   2.565  1.00  0.00    -0.460 OA
BRANCH  31  32
ATOM     32  C   UNL     1       1.155   0.513   2.941  1.00  0.00     0.338 C 
ATOM     33  O   UNL     1       0.738   0.608   4.076  1.00  0.00    -0.246 OA
BRANCH  32  34
ATOM     34  C   UNL     1       0.379   0.972   1.755  1.00  0.00     0.060 A 
ATOM     35  C   UNL     1      -0.555   1.995   1.972  1.00  0.00     0.016 A 
ATOM     36  C   UNL     1       0.587   0.494   0.460  1.00  0.00     0.016 A 
ATOM     37  C   UNL     1      -1.281   2.546   0.918  1.00  0.00     0.010 A 
ATOM     38  C   UNL     1      -0.171   1.016  -0.598  1.00  0.00     0.010 A 
ATOM     39  C   UNL     1      -1.127   2.025  -0.368  1.00  0.00    -0.014 A 
BRANCH  39  40
ATOM     40  C   UNL     1      -2.135   2.355  -1.405  1.00  0.00     0.031 A 
ATOM     41  C   UNL     1      -3.249   1.370  -1.633  1.00  0.00     0.074 A 
ATOM     42  C   UNL     1      -2.100   3.507  -2.098  1.00  0.00     0.049 A 
ATOM     43  N   UNL     1      -4.196   1.373  -2.533  1.00  0.00    -0.248 NA
ATOM     44  C   UNL     1      -3.292   0.219  -0.716  1.00  0.00     0.031 C 
ATOM     45  C   UNL     1      -1.121   4.577  -1.920  1.00  0.00     0.029 A 
ATOM     46  N   UNL     1      -2.916   3.960  -3.106  1.00  0.00    -0.354 N 
ATOM     47  C   UNL     1      -4.929   0.215  -2.308  1.00  0.00     0.074 A 
ATOM     48  C   UNL     1      -4.306  -0.477  -1.202  1.00  0.00     0.031 C 
ATOM     49  C   UNL     1      -1.378   5.554  -2.808  1.00  0.00     0.029 A 
ATOM     50  C   UNL     1      -2.513   5.159  -3.643  1.00  0.00     0.049 A 
ATOM     51  H   UNL     1      -3.713   3.473  -3.415  1.00  0.00     0.167 HD
ATOM     52  C   UNL     1      -6.025  -0.233  -2.964  1.00  0.00     0.037 A 
ATOM     53  C   UNL     1      -2.985   5.837  -4.709  1.00  0.00     0.037 A 
ATOM     54  C   UNL     1      -6.645   0.464  -4.059  1.00  0.00     0.049 A 
ATOM     55  C   UNL     1      -4.158   5.282  -5.477  1.00  0.00     0.074 A 
ATOM     56  C   UNL     1      -7.769   0.105  -4.781  1.00  0.00     0.029 A 
ATOM     57  N   UNL     1      -6.188   1.659  -4.593  1.00  0.00    -0.354 N 
ATOM     58  N   UNL     1      -4.849   4.188  -5.258  1.00  0.00    -0.248 NA
ATOM     59  C   UNL     1      -4.617   6.054  -6.641  1.00  0.00     0.031 C 
ATOM     60  C   UNL     1      -7.954   1.050  -5.795  1.00  0.00     0.029 A 
ATOM     61  C   UNL     1      -6.987   2.035  -5.660  1.00  0.00     0.049 A 
ATOM     62  H   UNL     1      -5.410   2.164  -4.264  1.00  0.00     0.167 HD
ATOM     63  C   UNL     1      -5.838   4.157  -6.236  1.00  0.00     0.074 A 
ATOM     64  C   UNL     1      -5.665   5.348  -7.040  1.00  0.00     0.031 C 
ATOM     65  C   UNL     1      -6.804   3.228  -6.447  1.00  0.00     0.037 A 
BRANCH  52  66
ATOM     66  C   UNL     1      -6.584  -1.562  -2.545  1.00  0.00     0.057 A 
ATOM     67  C   UNL     1      -7.224  -1.752  -1.313  1.00  0.00     0.134 A 
ATOM     68  C   UNL     1      -6.482  -2.670  -3.397  1.00  0.00     0.134 A 
ATOM     69  F   UNL     1      -7.336  -0.738  -0.442  1.00  0.00    -0.206 F 
ATOM     70  C   UNL     1      -7.715  -3.002  -0.931  1.00  0.00     0.040 A 
ATOM     71  C   UNL     1      -6.997  -3.916  -3.039  1.00  0.00     0.040 A 
ATOM     72  F   UNL     1      -5.881  -2.559  -4.591  1.00  0.00    -0.206 F 
ATOM     73  C   UNL     1      -7.608  -4.087  -1.799  1.00  0.00     0.006 A 
ENDBRANCH  52  66
BRANCH  53  74
ATOM     74  C   UNL     1      -2.326   7.098  -5.142  1.00  0.00     0.057 A 
ATOM     75  C   UNL     1      -2.981   8.332  -5.059  1.00  0.00     0.134 A 
ATOM     76  C   UNL     1      -1.030   7.095  -5.675  1.00  0.00     0.134 A 
ATOM     77  F   UNL     1      -4.234   8.400  -4.585  1.00  0.00    -0.206 F 
ATOM     78  C   UNL     1      -2.380   9.513  -5.502  1.00  0.00     0.040 A 
ATOM     79  C   UNL     1      -0.406   8.270  -6.095  1.00  0.00     0.040 A 
ATOM     80  F   UNL     1      -0.348   5.946  -5.788  1.00  0.00    -0.206 F 
ATOM     81  C   UNL     1      -1.085   9.484  -6.015  1.00  0.00     0.006 A 
ENDBRANCH  53  74
BRANCH  65  82
ATOM     82  C   UNL     1      -7.777   3.480  -7.564  1.00  0.00     0.057 A 
ATOM     83  C   UNL     1      -7.406   3.386  -8.911  1.00  0.00     0.134 A 
ATOM     84  C   UNL     1      -9.120   3.769  -7.284  1.00  0.00     0.134 A 
ATOM     85  F   UNL     1      -6.135   3.121  -9.249  1.00  0.00    -0.206 F 
ATOM     86  C   UNL     1      -8.328   3.594  -9.939  1.00  0.00     0.040 A 
ATOM     87  C   UNL     1     -10.057   3.949  -8.302  1.00  0.00     0.040 A 
ATOM     88  F   UNL     1      -9.547   3.861  -6.016  1.00  0.00    -0.206 F 
ATOM     89  C   UNL     1      -9.660   3.868  -9.635  1.00  0.00     0.006 A 
ENDBRANCH  65  82
ENDBRANCH  39  40
ENDBRANCH  32  34
ENDBRANCH  31  32
ENDBRANCH  30  31
ENDBRANCH  29  30
ENDBRANCH  28  29
ENDBRANCH  27  28
ENDBRANCH  26  27
ENDBRANCH   1  26
TORSDOF 23
