REMARK SMILES Cc1cc(C[N@H+]2CC[C@](C)(C(=O)OCCOCCOCCOC(=O)c3ccc(-c4c5nc(c(-c6c(F)cccc6F)c6ccc([nH]6)c(-c6c(F)cccc6F)c6nc(c(-c7c(F)cccc7F)c7ccc4[nH]7)C=C6)C=C5)cc3)C2)c2ccccc2n1
REMARK SMILES IDX 17 1 16 2 15 3 14 4 13 5 11 6 12 7 9 8 6 9 7 10 79 11 8 13
REMARK SMILES IDX 10 14 5 15 4 16 1 17 2 18 3 19 86 20 85 21 80 22 84 23 81 24
REMARK SMILES IDX 83 25 82 26 18 27 19 28 20 29 21 30 22 31 23 32 24 33 25 34
REMARK SMILES IDX 26 35 78 36 27 37 77 38 28 39 29 40 30 41 71 42 31 43 76 44
REMARK SMILES IDX 70 45 72 46 32 47 75 48 69 49 68 50 33 52 59 53 42 54 58 55
REMARK SMILES IDX 43 56 46 57 57 58 73 59 44 60 45 61 56 63 74 64 47 65 34 66
REMARK SMILES IDX 35 67 40 68 36 69 37 70 39 71 41 72 38 73 60 74 61 75 66 76
REMARK SMILES IDX 62 77 63 78 65 79 67 80 64 81 48 82 49 83 54 84 50 85 51 86
REMARK SMILES IDX 53 87 55 88 52 89
REMARK H PARENT 6 12 72 51 46 62
REMARK Flexibility Score: inf
ROOT
ATOM      1  C   UNL     1       3.613   5.550   3.503  1.00  0.00     0.188 C 
ENDROOT
BRANCH   1   2
ATOM      2  O   UNL     1       4.845   5.467   4.211  1.00  0.00    -0.376 OA
BRANCH   2   3
ATOM      3  C   UNL     1       5.826   4.520   3.818  1.00  0.00     0.202 C 
BRANCH   3   4
ATOM      4  C   UNL     1       5.472   3.025   3.841  1.00  0.00     0.261 C 
BRANCH   4   5
ATOM      5  O   UNL     1       4.241   2.643   3.196  1.00  0.00    -0.463 OA
BRANCH   5   6
ATOM      6  C   UNL     1       3.213   2.307   4.019  1.00  0.00     0.317 C 
ATOM      7  O   UNL     1       3.283   2.328   5.245  1.00  0.00    -0.251 OA
BRANCH   6   8
ATOM      8  C   UNL     1       1.949   1.845   3.297  1.00  0.00     0.119 C 
ATOM      9  N   UNL     1       0.676   2.957   1.550  1.00  0.00    -0.330 N 
ATOM     10  C   UNL     1      -0.232   2.707   2.666  1.00  0.00     0.263 C 
ATOM     11  C   UNL     1       1.841   2.078   1.783  1.00  0.00     0.281 C 
ATOM     12  H   UNL     1       0.985   3.928   1.528  1.00  0.00     0.348 HD
ATOM     13  C   UNL     1       0.727   2.601   3.845  1.00  0.00     0.086 C 
ATOM     14  C   UNL     1       1.835   0.329   3.559  1.00  0.00     0.030 C 
BRANCH   9  15
ATOM     15  C   UNL     1       0.044   2.879   0.209  1.00  0.00     0.299 C 
BRANCH  15  16
ATOM     16  C   UNL     1      -0.404   1.493  -0.242  1.00  0.00     0.017 A 
ATOM     17  C   UNL     1      -3.467  -0.717   0.079  1.00  0.00     0.067 C 
ATOM     18  C   UNL     1      -2.058  -0.242  -0.108  1.00  0.00     0.038 A 
ATOM     19  C   UNL     1      -1.734   1.104  -0.033  1.00  0.00     0.033 A 
ATOM     20  N   UNL     1      -1.117  -1.200  -0.268  1.00  0.00    -0.253 NA
ATOM     21  C   UNL     1       0.153  -0.829  -0.503  1.00  0.00     0.071 A 
ATOM     22  C   UNL     1       0.537   0.515  -0.652  1.00  0.00     0.009 A 
ATOM     23  C   UNL     1       1.150  -1.797  -0.513  1.00  0.00     0.029 A 
ATOM     24  C   UNL     1       1.866   0.811  -1.049  1.00  0.00     0.011 A 
ATOM     25  C   UNL     1       2.493  -1.479  -0.743  1.00  0.00     0.002 A 
ATOM     26  C   UNL     1       2.845  -0.177  -1.064  1.00  0.00     0.001 A 
ENDBRANCH  15  16
ENDBRANCH   9  15
ENDBRANCH   6   8
ENDBRANCH   5   6
ENDBRANCH   4   5
ENDBRANCH   3   4
ENDBRANCH   2   3
ENDBRANCH   1   2
BRANCH   1  27
ATOM     27  C   UNL     1       3.559   5.217   2.003  1.00  0.00     0.188 C 
BRANCH  27  28
ATOM     28  O   UNL     1       4.817   5.178   1.366  1.00  0.00    -0.376 OA
BRANCH  28  29
ATOM     29  C   UNL     1       5.059   6.140   0.358  1.00  0.00     0.202 C 
BRANCH  29  30
ATOM     30  C   UNL     1       4.998   7.618   0.777  1.00  0.00     0.261 C 
BRANCH  30  31
ATOM     31  O   UNL     1       3.845   8.016   1.543  1.00  0.00    -0.460 OA
BRANCH  31  32
ATOM     32  C   UNL     1       2.665   8.124   0.891  1.00  0.00     0.338 C 
ATOM     33  O   UNL     1       2.470   7.950  -0.301  1.00  0.00    -0.246 OA
BRANCH  32  34
ATOM     34  C   UNL     1       1.593   8.274   1.906  1.00  0.00     0.060 A 
ATOM     35  C   UNL     1       0.582   7.304   1.982  1.00  0.00     0.016 A 
ATOM     36  C   UNL     1       1.591   9.355   2.790  1.00  0.00     0.016 A 
ATOM     37  C   UNL     1      -0.446   7.429   2.922  1.00  0.00     0.010 A 
ATOM     38  C   UNL     1       0.548   9.490   3.716  1.00  0.00     0.010 A 
ATOM     39  C   UNL     1      -0.493   8.545   3.769  1.00  0.00    -0.014 A 
BRANCH  39  40
ATOM     40  C   UNL     1      -1.714   8.828   4.571  1.00  0.00     0.031 A 
ATOM     41  C   UNL     1      -2.704   9.832   4.037  1.00  0.00     0.074 A 
ATOM     42  C   UNL     1      -1.963   8.206   5.738  1.00  0.00     0.049 A 
ATOM     43  N   UNL     1      -3.790  10.309   4.590  1.00  0.00    -0.248 NA
ATOM     44  C   UNL     1      -2.427  10.370   2.695  1.00  0.00     0.031 C 
ATOM     45  C   UNL     1      -1.122   7.180   6.351  1.00  0.00     0.029 A 
ATOM     46  N   UNL     1      -3.000   8.365   6.628  1.00  0.00    -0.354 N 
ATOM     47  C   UNL     1      -4.326  11.197   3.665  1.00  0.00     0.074 A 
ATOM     48  C   UNL     1      -3.427  11.223   2.532  1.00  0.00     0.031 C 
ATOM     49  C   UNL     1      -1.666   6.816   7.527  1.00  0.00     0.029 A 
ATOM     50  C   UNL     1      -2.872   7.608   7.768  1.00  0.00     0.049 A 
ATOM     51  H   UNL     1      -3.763   8.965   6.463  1.00  0.00     0.167 HD
ATOM     52  C   UNL     1      -5.470  11.917   3.743  1.00  0.00     0.037 A 
ATOM     53  C   UNL     1      -3.624   7.582   8.887  1.00  0.00     0.037 A 
ATOM     54  C   UNL     1      -6.365  11.906   4.870  1.00  0.00     0.049 A 
ATOM     55  C   UNL     1      -4.840   8.473   8.991  1.00  0.00     0.074 A 
ATOM     56  C   UNL     1      -7.539  12.618   5.045  1.00  0.00     0.029 A 
ATOM     57  N   UNL     1      -6.184  11.146   6.014  1.00  0.00    -0.354 N 
ATOM     58  N   UNL     1      -5.342   9.301   8.107  1.00  0.00    -0.248 NA
ATOM     59  C   UNL     1      -5.596   8.422  10.253  1.00  0.00     0.031 C 
ATOM     60  C   UNL     1      -8.047  12.321   6.312  1.00  0.00     0.029 A 
ATOM     61  C   UNL     1      -7.219  11.382   6.904  1.00  0.00     0.049 A 
ATOM     62  H   UNL     1      -5.433  10.530   6.171  1.00  0.00     0.167 HD
ATOM     63  C   UNL     1      -6.488   9.833   8.689  1.00  0.00     0.074 A 
ATOM     64  C   UNL     1      -6.618   9.224   9.993  1.00  0.00     0.031 C 
ATOM     65  C   UNL     1      -7.355  10.748   8.189  1.00  0.00     0.037 A 
BRANCH  52  66
ATOM     66  C   UNL     1      -5.823  12.789   2.574  1.00  0.00     0.057 A 
ATOM     67  C   UNL     1      -6.271  12.247   1.363  1.00  0.00     0.134 A 
ATOM     68  C   UNL     1      -5.774  14.185   2.680  1.00  0.00     0.134 A 
ATOM     69  F   UNL     1      -6.326  10.918   1.192  1.00  0.00    -0.206 F 
ATOM     70  C   UNL     1      -6.650  13.062   0.295  1.00  0.00     0.040 A 
ATOM     71  C   UNL     1      -6.175  15.011   1.629  1.00  0.00     0.040 A 
ATOM     72  F   UNL     1      -5.358  14.768   3.814  1.00  0.00    -0.206 F 
ATOM     73  C   UNL     1      -6.612  14.449   0.431  1.00  0.00     0.006 A 
ENDBRANCH  52  66
BRANCH  53  74
ATOM     74  C   UNL     1      -3.249   6.714  10.037  1.00  0.00     0.057 A 
ATOM     75  C   UNL     1      -4.076   5.667  10.462  1.00  0.00     0.134 A 
ATOM     76  C   UNL     1      -2.099   6.970  10.795  1.00  0.00     0.134 A 
ATOM     77  F   UNL     1      -5.208   5.390   9.798  1.00  0.00    -0.206 F 
ATOM     78  C   UNL     1      -3.797   4.934  11.618  1.00  0.00     0.040 A 
ATOM     79  C   UNL     1      -1.790   6.223  11.934  1.00  0.00     0.040 A 
ATOM     80  F   UNL     1      -1.265   7.961  10.449  1.00  0.00    -0.206 F 
ATOM     81  C   UNL     1      -2.649   5.211  12.356  1.00  0.00     0.006 A 
ENDBRANCH  53  74
BRANCH  65  82
ATOM     82  C   UNL     1      -8.555  11.100   9.024  1.00  0.00     0.057 A 
ATOM     83  C   UNL     1      -8.450  11.846  10.205  1.00  0.00     0.134 A 
ATOM     84  C   UNL     1      -9.840  10.714   8.619  1.00  0.00     0.134 A 
ATOM     85  F   UNL     1      -7.250  12.240  10.656  1.00  0.00    -0.206 F 
ATOM     86  C   UNL     1      -9.575  12.168  10.967  1.00  0.00     0.040 A 
ATOM     87  C   UNL     1     -10.975  11.057   9.356  1.00  0.00     0.040 A 
ATOM     88  F   UNL     1     -10.016  10.008   7.491  1.00  0.00    -0.206 F 
ATOM     89  C   UNL     1     -10.842  11.779  10.540  1.00  0.00     0.006 A 
ENDBRANCH  65  82
ENDBRANCH  39  40
ENDBRANCH  32  34
ENDBRANCH  31  32
ENDBRANCH  30  31
ENDBRANCH  29  30
ENDBRANCH  28  29
ENDBRANCH  27  28
ENDBRANCH   1  27
TORSDOF 19
