REMARK SMILES O=C(OCCOCCOCCOC(=O)[C@H]1C[N@H+](Cc2ccc(Cl)c(Cl)c2)CC12CCCCC2)c1ccc(-c2c3nc(c(-c4c(F)cccc4F)c4ccc([nH]4)c(-c4c(F)cccc4F)c4nc(c(-c5c(F)cccc5F)c5ccc2[nH]5)C=C4)C=C3)cc1
REMARK SMILES IDX 7 1 6 2 5 3 4 4 3 5 2 6 1 7 34 8 35 9 87 10 36 11 86 12
REMARK SMILES IDX 37 13 38 14 39 15 80 16 40 17 85 18 79 19 81 20 41 21 84 22
REMARK SMILES IDX 78 23 77 24 42 26 68 27 51 28 67 29 52 30 55 31 66 32 82 33
REMARK SMILES IDX 53 34 54 35 65 37 83 38 56 39 43 40 44 41 49 42 45 43 46 44
REMARK SMILES IDX 48 45 50 46 47 47 69 48 70 49 75 50 71 51 72 52 74 53 76 54
REMARK SMILES IDX 73 55 57 56 58 57 63 58 59 59 60 60 62 61 64 62 61 63 8 64
REMARK SMILES IDX 9 65 10 66 11 67 12 68 13 69 14 70 15 71 16 72 28 73 17 74
REMARK SMILES IDX 27 75 29 76 33 77 30 79 32 80 31 81 18 82 19 83 20 84 26 85
REMARK SMILES IDX 21 86 24 87 22 88 25 89 23 90
REMARK H PARENT 81 25 55 36 17 78
REMARK Flexibility Score: inf
ROOT
ATOM      1  C   UNL     1       2.467  -0.491   1.732  1.00  0.00     0.188 C 
ENDROOT
BRANCH   1   2
ATOM      2  O   UNL     1       3.755  -0.859   1.215  1.00  0.00    -0.376 OA
BRANCH   2   3
ATOM      3  C   UNL     1       4.747   0.165   1.358  1.00  0.00     0.202 C 
BRANCH   3   4
ATOM      4  C   UNL     1       4.592   1.390   0.442  1.00  0.00     0.261 C 
BRANCH   4   5
ATOM      5  O   UNL     1       3.250   1.602  -0.019  1.00  0.00    -0.460 OA
BRANCH   5   6
ATOM      6  C   UNL     1       2.644   1.127  -1.134  1.00  0.00     0.338 C 
ATOM      7  O   UNL     1       1.473   1.447  -1.338  1.00  0.00    -0.246 OA
BRANCH   6   8
ATOM      8  C   UNL     1       3.309   0.253  -2.150  1.00  0.00     0.060 A 
ATOM      9  C   UNL     1       4.392  -0.595  -1.913  1.00  0.00     0.016 A 
ATOM     10  C   UNL     1       2.737   0.240  -3.437  1.00  0.00     0.016 A 
ATOM     11  C   UNL     1       4.949  -1.362  -2.937  1.00  0.00     0.010 A 
ATOM     12  C   UNL     1       3.271  -0.547  -4.463  1.00  0.00     0.010 A 
ATOM     13  C   UNL     1       4.404  -1.326  -4.222  1.00  0.00    -0.014 A 
BRANCH  13  14
ATOM     14  C   UNL     1       5.092  -2.062  -5.305  1.00  0.00     0.031 A 
ATOM     15  C   UNL     1       5.993  -1.322  -6.217  1.00  0.00     0.074 A 
ATOM     16  C   UNL     1       4.935  -3.387  -5.444  1.00  0.00     0.049 A 
ATOM     17  N   UNL     1       6.658  -1.785  -7.236  1.00  0.00    -0.248 NA
ATOM     18  C   UNL     1       6.126   0.124  -5.992  1.00  0.00     0.031 C 
ATOM     19  C   UNL     1       3.984  -4.136  -4.659  1.00  0.00     0.029 A 
ATOM     20  N   UNL     1       5.518  -4.337  -6.240  1.00  0.00    -0.354 N 
ATOM     21  C   UNL     1       7.228  -0.677  -7.829  1.00  0.00     0.074 A 
ATOM     22  C   UNL     1       6.870   0.476  -7.030  1.00  0.00     0.031 C 
ATOM     23  C   UNL     1       4.090  -5.440  -4.942  1.00  0.00     0.029 A 
ATOM     24  C   UNL     1       5.098  -5.620  -5.960  1.00  0.00     0.049 A 
ATOM     25  H   UNL     1       6.173  -4.124  -6.944  1.00  0.00     0.167 HD
ATOM     26  C   UNL     1       7.937  -0.648  -8.977  1.00  0.00     0.037 A 
ATOM     27  C   UNL     1       5.454  -6.811  -6.474  1.00  0.00     0.037 A 
ATOM     28  C   UNL     1       8.238  -1.823  -9.753  1.00  0.00     0.049 A 
ATOM     29  C   UNL     1       6.339  -6.759  -7.675  1.00  0.00     0.074 A 
ATOM     30  C   UNL     1       8.943  -1.914 -10.937  1.00  0.00     0.029 A 
ATOM     31  N   UNL     1       7.835  -3.114  -9.424  1.00  0.00    -0.354 N 
ATOM     32  N   UNL     1       6.874  -5.702  -8.235  1.00  0.00    -0.248 NA
ATOM     33  C   UNL     1       6.592  -8.021  -8.374  1.00  0.00     0.031 C 
ATOM     34  C   UNL     1       8.931  -3.252 -11.346  1.00  0.00     0.029 A 
ATOM     35  C   UNL     1       8.265  -4.007 -10.392  1.00  0.00     0.049 A 
ATOM     36  H   UNL     1       7.320  -3.357  -8.621  1.00  0.00     0.167 HD
ATOM     37  C   UNL     1       7.466  -6.154  -9.395  1.00  0.00     0.074 A 
ATOM     38  C   UNL     1       7.298  -7.598  -9.413  1.00  0.00     0.031 C 
ATOM     39  C   UNL     1       8.050  -5.434 -10.381  1.00  0.00     0.037 A 
BRANCH  26  40
ATOM     40  C   UNL     1       8.316   0.706  -9.484  1.00  0.00     0.057 A 
ATOM     41  C   UNL     1       9.287   1.496  -8.857  1.00  0.00     0.134 A 
ATOM     42  C   UNL     1       7.640   1.254 -10.581  1.00  0.00     0.134 A 
ATOM     43  F   UNL     1       9.934   1.045  -7.772  1.00  0.00    -0.206 F 
ATOM     44  C   UNL     1       9.557   2.795  -9.291  1.00  0.00     0.040 A 
ATOM     45  C   UNL     1       7.920   2.541 -11.040  1.00  0.00     0.040 A 
ATOM     46  F   UNL     1       6.681   0.557 -11.209  1.00  0.00    -0.206 F 
ATOM     47  C   UNL     1       8.875   3.318 -10.389  1.00  0.00     0.006 A 
ENDBRANCH  26  40
BRANCH  27  48
ATOM     48  C   UNL     1       4.920  -8.101  -5.948  1.00  0.00     0.057 A 
ATOM     49  C   UNL     1       5.767  -9.052  -5.362  1.00  0.00     0.134 A 
ATOM     50  C   UNL     1       3.560  -8.428  -6.024  1.00  0.00     0.134 A 
ATOM     51  F   UNL     1       7.085  -8.821  -5.277  1.00  0.00    -0.206 F 
ATOM     52  C   UNL     1       5.284 -10.273  -4.877  1.00  0.00     0.040 A 
ATOM     53  C   UNL     1       3.060  -9.632  -5.522  1.00  0.00     0.040 A 
ATOM     54  F   UNL     1       2.685  -7.568  -6.566  1.00  0.00    -0.206 F 
ATOM     55  C   UNL     1       3.923 -10.561  -4.949  1.00  0.00     0.006 A 
ENDBRANCH  27  48
BRANCH  39  56
ATOM     56  C   UNL     1       8.524  -6.222 -11.556  1.00  0.00     0.057 A 
ATOM     57  C   UNL     1       7.628  -6.736 -12.501  1.00  0.00     0.134 A 
ATOM     58  C   UNL     1       9.888  -6.467 -11.739  1.00  0.00     0.134 A 
ATOM     59  F   UNL     1       6.306  -6.556 -12.356  1.00  0.00    -0.206 F 
ATOM     60  C   UNL     1       8.076  -7.484 -13.587  1.00  0.00     0.040 A 
ATOM     61  C   UNL     1      10.349  -7.192 -12.834  1.00  0.00     0.040 A 
ATOM     62  F   UNL     1      10.787  -6.003 -10.857  1.00  0.00    -0.206 F 
ATOM     63  C   UNL     1       9.442  -7.707 -13.759  1.00  0.00     0.006 A 
ENDBRANCH  39  56
ENDBRANCH  13  14
ENDBRANCH   6   8
ENDBRANCH   5   6
ENDBRANCH   4   5
ENDBRANCH   3   4
ENDBRANCH   2   3
ENDBRANCH   1   2
BRANCH   1  64
ATOM     64  C   UNL     1       1.766  -1.644   2.453  1.00  0.00     0.188 C 
BRANCH  64  65
ATOM     65  O   UNL     1       2.280  -2.017   3.731  1.00  0.00    -0.376 OA
BRANCH  65  66
ATOM     66  C   UNL     1       3.680  -2.234   3.841  1.00  0.00     0.202 C 
BRANCH  66  67
ATOM     67  C   UNL     1       4.258  -3.494   3.193  1.00  0.00     0.261 C 
BRANCH  67  68
ATOM     68  O   UNL     1       3.751  -3.778   1.887  1.00  0.00    -0.463 OA
BRANCH  68  69
ATOM     69  C   UNL     1       2.831  -4.776   1.824  1.00  0.00     0.315 C 
ATOM     70  O   UNL     1       2.362  -5.367   2.792  1.00  0.00    -0.252 OA
BRANCH  69  71
ATOM     71  C   UNL     1       2.494  -5.157   0.407  1.00  0.00     0.166 C 
ATOM     72  C   UNL     1       2.168  -3.976  -0.501  1.00  0.00     0.278 C 
ATOM     73  C   UNL     1       3.576  -5.987  -0.329  1.00  0.00     0.038 C 
ATOM     74  N   UNL     1       2.398  -4.473  -1.847  1.00  0.00    -0.330 N 
ATOM     75  C   UNL     1       3.519  -5.407  -1.754  1.00  0.00     0.270 C 
ATOM     76  C   UNL     1       5.010  -5.864   0.251  1.00  0.00     0.014 C 
ATOM     77  C   UNL     1       3.188  -7.484  -0.316  1.00  0.00     0.014 C 
ATOM     78  H   UNL     1       2.654  -3.695  -2.454  1.00  0.00     0.348 HD
ATOM     79  C   UNL     1       6.030  -6.777  -0.437  1.00  0.00     0.001 C 
ATOM     80  C   UNL     1       4.192  -8.386  -1.033  1.00  0.00     0.001 C 
ATOM     81  C   UNL     1       5.580  -8.234  -0.431  1.00  0.00     0.000 C 
BRANCH  74  82
ATOM     82  C   UNL     1       1.245  -4.833  -2.679  1.00  0.00     0.299 C 
BRANCH  82  83
ATOM     83  C   UNL     1       0.420  -6.013  -2.238  1.00  0.00     0.008 A 
ATOM     84  C   UNL     1      -0.518  -5.860  -1.213  1.00  0.00     0.011 A 
ATOM     85  C   UNL     1       0.620  -7.286  -2.797  1.00  0.00     0.031 A 
ATOM     86  C   UNL     1      -1.134  -6.975  -0.650  1.00  0.00     0.022 A 
ATOM     87  C   UNL     1      -0.007  -8.407  -2.243  1.00  0.00     0.060 A 
ATOM     88  C   UNL     1      -0.856  -8.252  -1.141  1.00  0.00     0.059 A 
ATOM     89  Cl  UNL     1       0.371  -9.956  -2.907  1.00  0.00    -0.083 Cl
ATOM     90  Cl  UNL     1      -1.553  -9.597  -0.312  1.00  0.00    -0.083 Cl
ENDBRANCH  82  83
ENDBRANCH  74  82
ENDBRANCH  69  71
ENDBRANCH  68  69
ENDBRANCH  67  68
ENDBRANCH  66  67
ENDBRANCH  65  66
ENDBRANCH  64  65
ENDBRANCH   1  64
TORSDOF 19
