REMARK SMILES O=C(N[C@@H](Cc1ccc(O)cc1)C(=O)N[C@@H](CO)C(=O)OCCOCCOCCOC(=O)c1ccc(-c2c3nc(c(-c4c(F)cccc4F)c4ccc([nH]4)c(-c4c(F)cccc4F)c4nc(c(-c5c(F)cccc5F)c5ccc2[nH]5)C=C4)C=C3)cc1)c1ccc(F)cc1
REMARK SMILES IDX 24 1 23 2 22 3 21 4 19 5 20 6 16 7 15 8 13 9 14 10 4 12 3 13
REMARK SMILES IDX 1 14 2 15 87 17 88 18 93 19 89 20 92 21 90 22 91 23 5 24
REMARK SMILES IDX 6 25 7 26 12 27 8 28 11 29 9 30 10 31 17 33 18 34 25 36
REMARK SMILES IDX 26 37 27 38 28 39 29 40 30 41 31 42 32 43 33 44 34 45 86 46
REMARK SMILES IDX 35 47 85 48 36 49 37 50 38 51 79 52 39 53 84 54 78 55 80 56
REMARK SMILES IDX 40 57 83 58 77 59 76 60 41 62 67 63 50 64 66 65 51 66 54 67
REMARK SMILES IDX 65 68 81 69 52 70 53 71 64 73 82 74 55 75 42 76 43 77 48 78
REMARK SMILES IDX 44 79 45 80 47 81 49 82 46 83 68 84 69 85 74 86 70 87 71 88
REMARK SMILES IDX 73 89 75 90 72 91 56 92 57 93 62 94 58 95 59 96 61 97 63 98
REMARK SMILES IDX 60 99
REMARK H PARENT 15 11 3 16 10 32 18 35 80 61 54 72
REMARK Flexibility Score: inf
ROOT
ATOM      1  O   UNL     1       7.309   7.269  -0.461  1.00  0.00    -0.376 OA
ENDROOT
BRANCH   1   2
ATOM      2  C   UNL     1       6.066   7.966  -0.521  1.00  0.00     0.202 C 
BRANCH   2   3
ATOM      3  C   UNL     1       5.248   7.768   0.752  1.00  0.00     0.261 C 
BRANCH   3   4
ATOM      4  O   UNL     1       4.767   6.417   0.889  1.00  0.00    -0.462 OA
BRANCH   4   5
ATOM      5  C   UNL     1       3.513   6.144   0.432  1.00  0.00     0.331 C 
ATOM      6  O   UNL     1       2.815   6.943  -0.184  1.00  0.00    -0.250 OA
BRANCH   5   7
ATOM      7  C   UNL     1       3.046   4.736   0.880  1.00  0.00     0.218 C 
BRANCH   7   8
ATOM      8  N   UNL     1       4.136   3.866   1.346  1.00  0.00    -0.339 N 
ATOM      9  C   UNL     1       4.560   2.624   1.012  1.00  0.00     0.243 C 
ATOM     10  O   UNL     1       5.605   2.252   1.563  1.00  0.00    -0.273 OA
ATOM     11  H   UNL     1       4.676   4.277   2.059  1.00  0.00     0.164 HD
BRANCH   9  12
ATOM     12  C   UNL     1       3.874   1.658   0.016  1.00  0.00     0.176 C 
BRANCH  12  13
ATOM     13  N   UNL     1       2.515   1.271   0.383  1.00  0.00    -0.340 N 
ATOM     14  O   UNL     1       0.757  -0.133   0.478  1.00  0.00    -0.269 OA
ATOM     15  C   UNL     1       1.973   0.004   0.379  1.00  0.00     0.251 C 
ATOM     16  H   UNL     1       1.917   2.000   0.666  1.00  0.00     0.164 HD
BRANCH  15  17
ATOM     17  C   UNL     1       2.833  -1.199   0.223  1.00  0.00     0.040 A 
ATOM     18  C   UNL     1       3.902  -1.449   1.097  1.00  0.00     0.017 A 
ATOM     19  C   UNL     1       2.526  -2.124  -0.784  1.00  0.00     0.017 A 
ATOM     20  C   UNL     1       4.696  -2.586   0.922  1.00  0.00     0.040 A 
ATOM     21  C   UNL     1       3.316  -3.267  -0.948  1.00  0.00     0.040 A 
ATOM     22  C   UNL     1       4.397  -3.482  -0.099  1.00  0.00     0.123 A 
ATOM     23  F   UNL     1       5.157  -4.573  -0.261  1.00  0.00    -0.207 F 
ENDBRANCH  15  17
ENDBRANCH  12  13
BRANCH  12  24
ATOM     24  C   UNL     1       4.071   1.911  -1.492  1.00  0.00     0.070 C 
BRANCH  24  25
ATOM     25  C   UNL     1       3.486   3.148  -2.112  1.00  0.00    -0.045 A 
ATOM     26  C   UNL     1       4.346   4.136  -2.617  1.00  0.00     0.007 A 
ATOM     27  C   UNL     1       2.100   3.345  -2.200  1.00  0.00     0.007 A 
ATOM     28  C   UNL     1       3.842   5.356  -3.058  1.00  0.00     0.046 A 
ATOM     29  C   UNL     1       1.594   4.575  -2.625  1.00  0.00     0.046 A 
ATOM     30  C   UNL     1       2.475   5.578  -3.004  1.00  0.00     0.115 A 
BRANCH  30  31
ATOM     31  O   UNL     1       1.998   6.831  -3.237  1.00  0.00    -0.508 OA
ATOM     32  H   UNL     1       2.584   7.516  -3.494  1.00  0.00     0.293 HD
ENDBRANCH  30  31
ENDBRANCH  24  25
ENDBRANCH  12  24
ENDBRANCH   9  12
ENDBRANCH   7   8
BRANCH   7  33
ATOM     33  C   UNL     1       1.996   4.921   1.978  1.00  0.00     0.193 C 
BRANCH  33  34
ATOM     34  O   UNL     1       2.582   5.420   3.180  1.00  0.00    -0.394 OA
ATOM     35  H   UNL     1       3.242   4.788   3.505  1.00  0.00     0.210 HD
ENDBRANCH  33  34
ENDBRANCH   7  33
ENDBRANCH   5   7
ENDBRANCH   4   5
ENDBRANCH   3   4
ENDBRANCH   2   3
ENDBRANCH   1   2
BRANCH   1  36
ATOM     36  C   UNL     1       7.293   5.951  -1.002  1.00  0.00     0.188 C 
BRANCH  36  37
ATOM     37  C   UNL     1       7.390   4.852   0.064  1.00  0.00     0.188 C 
BRANCH  37  38
ATOM     38  O   UNL     1       8.395   4.933   1.068  1.00  0.00    -0.376 OA
BRANCH  38  39
ATOM     39  C   UNL     1       9.608   5.593   0.750  1.00  0.00     0.202 C 
BRANCH  39  40
ATOM     40  C   UNL     1      10.591   4.815  -0.128  1.00  0.00     0.261 C 
BRANCH  40  41
ATOM     41  O   UNL     1       9.990   4.223  -1.291  1.00  0.00    -0.460 OA
BRANCH  41  42
ATOM     42  C   UNL     1       9.865   2.875  -1.241  1.00  0.00     0.338 C 
ATOM     43  O   UNL     1      10.196   2.123  -0.343  1.00  0.00    -0.246 OA
BRANCH  42  44
ATOM     44  C   UNL     1       9.163   2.402  -2.446  1.00  0.00     0.060 A 
ATOM     45  C   UNL     1       7.940   1.743  -2.287  1.00  0.00     0.016 A 
ATOM     46  C   UNL     1       9.763   2.493  -3.703  1.00  0.00     0.016 A 
ATOM     47  C   UNL     1       7.312   1.160  -3.389  1.00  0.00     0.010 A 
ATOM     48  C   UNL     1       9.146   1.886  -4.800  1.00  0.00     0.010 A 
ATOM     49  C   UNL     1       7.929   1.198  -4.645  1.00  0.00    -0.014 A 
BRANCH  49  50
ATOM     50  C   UNL     1       7.424   0.348  -5.749  1.00  0.00     0.031 A 
ATOM     51  C   UNL     1       8.049  -1.003  -5.949  1.00  0.00     0.074 A 
ATOM     52  C   UNL     1       6.426   0.748  -6.556  1.00  0.00     0.049 A 
ATOM     53  N   UNL     1       7.942  -1.829  -6.957  1.00  0.00    -0.248 NA
ATOM     54  C   UNL     1       8.907  -1.488  -4.856  1.00  0.00     0.031 C 
ATOM     55  C   UNL     1       5.644   1.972  -6.399  1.00  0.00     0.029 A 
ATOM     56  N   UNL     1       5.911   0.157  -7.683  1.00  0.00    -0.354 N 
ATOM     57  C   UNL     1       8.741  -2.917  -6.634  1.00  0.00     0.074 A 
ATOM     58  C   UNL     1       9.318  -2.652  -5.334  1.00  0.00     0.031 C 
ATOM     59  C   UNL     1       4.758   2.052  -7.409  1.00  0.00     0.029 A 
ATOM     60  C   UNL     1       4.957   0.919  -8.313  1.00  0.00     0.049 A 
ATOM     61  H   UNL     1       6.197  -0.727  -8.008  1.00  0.00     0.167 HD
ATOM     62  C   UNL     1       8.984  -4.031  -7.363  1.00  0.00     0.037 A 
ATOM     63  C   UNL     1       4.356   0.744  -9.507  1.00  0.00     0.037 A 
ATOM     64  C   UNL     1       8.414  -4.291  -8.657  1.00  0.00     0.049 A 
ATOM     65  C   UNL     1       4.735  -0.439 -10.363  1.00  0.00     0.074 A 
ATOM     66  C   UNL     1       8.640  -5.362  -9.503  1.00  0.00     0.029 A 
ATOM     67  N   UNL     1       7.496  -3.466  -9.288  1.00  0.00    -0.354 N 
ATOM     68  N   UNL     1       5.557  -1.425 -10.097  1.00  0.00    -0.248 NA
ATOM     69  C   UNL     1       4.122  -0.517 -11.698  1.00  0.00     0.031 C 
ATOM     70  C   UNL     1       7.882  -5.168 -10.662  1.00  0.00     0.029 A 
ATOM     71  C   UNL     1       7.154  -3.998 -10.519  1.00  0.00     0.049 A 
ATOM     72  H   UNL     1       7.140  -2.627  -8.916  1.00  0.00     0.167 HD
ATOM     73  C   UNL     1       5.539  -2.251 -11.216  1.00  0.00     0.074 A 
ATOM     74  C   UNL     1       4.622  -1.653 -12.163  1.00  0.00     0.031 C 
ATOM     75  C   UNL     1       6.221  -3.400 -11.439  1.00  0.00     0.037 A 
BRANCH  62  76
ATOM     76  C   UNL     1       9.958  -5.016  -6.795  1.00  0.00     0.057 A 
ATOM     77  C   UNL     1       9.621  -5.864  -5.733  1.00  0.00     0.134 A 
ATOM     78  C   UNL     1      11.255  -5.110  -7.316  1.00  0.00     0.134 A 
ATOM     79  F   UNL     1       8.402  -5.804  -5.177  1.00  0.00    -0.206 F 
ATOM     80  C   UNL     1      10.549  -6.756  -5.194  1.00  0.00     0.040 A 
ATOM     81  C   UNL     1      12.184  -6.014  -6.800  1.00  0.00     0.040 A 
ATOM     82  F   UNL     1      11.639  -4.323  -8.333  1.00  0.00    -0.206 F 
ATOM     83  C   UNL     1      11.833  -6.835  -5.731  1.00  0.00     0.006 A 
ENDBRANCH  62  76
BRANCH  63  84
ATOM     84  C   UNL     1       3.375   1.740 -10.005  1.00  0.00     0.057 A 
ATOM     85  C   UNL     1       2.022   1.414 -10.149  1.00  0.00     0.134 A 
ATOM     86  C   UNL     1       3.772   3.027 -10.390  1.00  0.00     0.134 A 
ATOM     87  F   UNL     1       1.586   0.186  -9.829  1.00  0.00    -0.206 F 
ATOM     88  C   UNL     1       1.101   2.326 -10.669  1.00  0.00     0.040 A 
ATOM     89  C   UNL     1       2.858   3.957 -10.888  1.00  0.00     0.040 A 
ATOM     90  F   UNL     1       5.057   3.398 -10.287  1.00  0.00    -0.206 F 
ATOM     91  C   UNL     1       1.519   3.604 -11.035  1.00  0.00     0.006 A 
ENDBRANCH  63  84
BRANCH  75  92
ATOM     92  C   UNL     1       5.970  -4.119 -12.730  1.00  0.00     0.057 A 
ATOM     93  C   UNL     1       6.520  -3.679 -13.940  1.00  0.00     0.134 A 
ATOM     94  C   UNL     1       5.224  -5.305 -12.749  1.00  0.00     0.134 A 
ATOM     95  F   UNL     1       7.235  -2.545 -13.989  1.00  0.00    -0.206 F 
ATOM     96  C   UNL     1       6.331  -4.391 -15.126  1.00  0.00     0.040 A 
ATOM     97  C   UNL     1       5.045  -6.035 -13.924  1.00  0.00     0.040 A 
ATOM     98  F   UNL     1       4.678  -5.782 -11.620  1.00  0.00    -0.206 F 
ATOM     99  C   UNL     1       5.598  -5.577 -15.118  1.00  0.00     0.006 A 
ENDBRANCH  75  92
ENDBRANCH  49  50
ENDBRANCH  42  44
ENDBRANCH  41  42
ENDBRANCH  40  41
ENDBRANCH  39  40
ENDBRANCH  38  39
ENDBRANCH  37  38
ENDBRANCH  36  37
ENDBRANCH   1  36
TORSDOF 26
