REMARK SMILES COc1cc(C(=O)OCCOCCOCCOC(=O)c2ccc(-c3c4nc(c(-c5c(F)cccc5F)c5ccc([nH]5)c(-c5c(F)cccc5F)c5nc(c(-c6c(F)cccc6F)c6ccc3[nH]6)C=C5)C=C4)cc2)cc(OC)c1OCc1csc(C)n1
REMARK SMILES IDX 12 1 11 2 10 3 9 4 8 5 6 6 7 7 5 8 3 9 4 10 78 11 75 12
REMARK SMILES IDX 74 13 2 14 1 15 79 16 80 17 81 18 82 19 86 20 83 21 84 22
REMARK SMILES IDX 85 23 76 24 77 25 13 26 14 27 15 28 16 29 17 30 18 31 19 32
REMARK SMILES IDX 20 33 21 34 73 35 22 36 72 37 23 38 24 39 25 40 66 41 26 42
REMARK SMILES IDX 71 43 65 44 67 45 27 46 70 47 64 48 63 49 28 51 54 52 37 53
REMARK SMILES IDX 53 54 38 55 41 56 52 57 68 58 39 59 40 60 51 62 69 63 42 64
REMARK SMILES IDX 29 65 30 66 35 67 31 68 32 69 34 70 36 71 33 72 55 73 56 74
REMARK SMILES IDX 61 75 57 76 58 77 60 78 62 79 59 80 43 81 44 82 49 83 45 84
REMARK SMILES IDX 46 85 48 86 50 87 47 88
REMARK H PARENT 67 50 41 61
REMARK Flexibility Score: inf
ROOT
ATOM      1  C   UNL     1      -1.488  -5.236  -3.788  1.00  0.00     0.188 C 
ENDROOT
BRANCH   1   2
ATOM      2  O   UNL     1      -2.388  -5.704  -4.779  1.00  0.00    -0.376 OA
BRANCH   2   3
ATOM      3  C   UNL     1      -2.090  -5.478  -6.151  1.00  0.00     0.202 C 
BRANCH   3   4
ATOM      4  C   UNL     1      -1.539  -4.129  -6.659  1.00  0.00     0.261 C 
BRANCH   4   5
ATOM      5  O   UNL     1      -0.466  -3.557  -5.892  1.00  0.00    -0.460 OA
BRANCH   5   6
ATOM      6  C   UNL     1      -0.731  -2.359  -5.310  1.00  0.00     0.338 C 
ATOM      7  O   UNL     1      -1.742  -1.688  -5.424  1.00  0.00    -0.246 OA
BRANCH   6   8
ATOM      8  C   UNL     1       0.283  -2.083  -4.274  1.00  0.00     0.067 A 
ATOM      9  C   UNL     1       0.759  -1.967  -1.888  1.00  0.00     0.165 A 
ATOM     10  C   UNL     1      -0.134  -2.145  -2.947  1.00  0.00     0.066 A 
ATOM     11  C   UNL     1       2.059  -1.521  -2.168  1.00  0.00     0.203 A 
ATOM     12  C   UNL     1       2.514  -1.544  -3.511  1.00  0.00     0.165 A 
ATOM     13  C   UNL     1       1.618  -1.839  -4.559  1.00  0.00     0.066 A 
BRANCH   9  14
ATOM     14  O   UNL     1       0.145  -2.251  -0.702  1.00  0.00    -0.493 OA
ATOM     15  C   UNL     1       0.709  -1.924   0.554  1.00  0.00     0.278 C 
ENDBRANCH   9  14
BRANCH  11  16
ATOM     16  O   UNL     1       2.880  -1.183  -1.142  1.00  0.00    -0.480 OA
BRANCH  16  17
ATOM     17  C   UNL     1       2.886   0.182  -0.641  1.00  0.00     0.287 C 
BRANCH  17  18
ATOM     18  C   UNL     1       1.794   1.213  -0.864  1.00  0.00     0.089 A 
ATOM     19  C   UNL     1       0.454   1.090  -1.180  1.00  0.00     0.094 A 
ATOM     20  N   UNL     1       2.144   2.536  -0.559  1.00  0.00    -0.243 NA
ATOM     21  S   UNL     1      -0.363   2.592  -1.113  1.00  0.00    -0.127 S 
ATOM     22  C   UNL     1       1.101   3.336  -0.638  1.00  0.00     0.090 A 
ATOM     23  C   UNL     1       1.106   4.788  -0.322  1.00  0.00     0.079 C 
ENDBRANCH  17  18
ENDBRANCH  16  17
ENDBRANCH  11  16
BRANCH  12  24
ATOM     24  O   UNL     1       3.773  -1.299  -3.995  1.00  0.00    -0.493 OA
ATOM     25  C   UNL     1       4.888  -1.444  -3.132  1.00  0.00     0.278 C 
ENDBRANCH  12  24
ENDBRANCH   6   8
ENDBRANCH   5   6
ENDBRANCH   4   5
ENDBRANCH   3   4
ENDBRANCH   2   3
ENDBRANCH   1   2
BRANCH   1  26
ATOM     26  C   UNL     1       0.006  -5.619  -3.866  1.00  0.00     0.188 C 
BRANCH  26  27
ATOM     27  O   UNL     1       0.368  -6.343  -5.014  1.00  0.00    -0.376 OA
BRANCH  27  28
ATOM     28  C   UNL     1       0.319  -7.757  -4.996  1.00  0.00     0.202 C 
BRANCH  28  29
ATOM     29  C   UNL     1      -0.447  -8.622  -3.970  1.00  0.00     0.261 C 
BRANCH  29  30
ATOM     30  O   UNL     1      -1.072  -7.986  -2.851  1.00  0.00    -0.460 OA
BRANCH  30  31
ATOM     31  C   UNL     1      -0.386  -8.016  -1.681  1.00  0.00     0.338 C 
ATOM     32  O   UNL     1       0.717  -8.482  -1.485  1.00  0.00    -0.246 OA
BRANCH  31  33
ATOM     33  C   UNL     1      -1.127  -7.221  -0.679  1.00  0.00     0.060 A 
ATOM     34  C   UNL     1      -0.569  -6.018  -0.233  1.00  0.00     0.016 A 
ATOM     35  C   UNL     1      -2.334  -7.680  -0.146  1.00  0.00     0.016 A 
ATOM     36  C   UNL     1      -1.200  -5.290   0.775  1.00  0.00     0.010 A 
ATOM     37  C   UNL     1      -2.959  -6.950   0.874  1.00  0.00     0.010 A 
ATOM     38  C   UNL     1      -2.378  -5.767   1.362  1.00  0.00    -0.014 A 
BRANCH  38  39
ATOM     39  C   UNL     1      -2.892  -5.112   2.592  1.00  0.00     0.031 A 
ATOM     40  C   UNL     1      -2.588  -5.733   3.929  1.00  0.00     0.074 A 
ATOM     41  C   UNL     1      -3.566  -3.949   2.536  1.00  0.00     0.049 A 
ATOM     42  N   UNL     1      -2.917  -5.331   5.131  1.00  0.00    -0.248 NA
ATOM     43  C   UNL     1      -1.804  -6.976   3.903  1.00  0.00     0.031 C 
ATOM     44  C   UNL     1      -3.878  -3.211   1.315  1.00  0.00     0.029 A 
ATOM     45  N   UNL     1      -4.104  -3.184   3.542  1.00  0.00    -0.354 N 
ATOM     46  C   UNL     1      -2.380  -6.271   6.003  1.00  0.00     0.074 A 
ATOM     47  C   UNL     1      -1.746  -7.285   5.188  1.00  0.00     0.031 C 
ATOM     48  C   UNL     1      -4.552  -2.094   1.643  1.00  0.00     0.029 A 
ATOM     49  C   UNL     1      -4.743  -2.055   3.092  1.00  0.00     0.049 A 
ATOM     50  H   UNL     1      -4.038  -3.423   4.494  1.00  0.00     0.167 HD
ATOM     51  C   UNL     1      -2.400  -6.285   7.359  1.00  0.00     0.037 A 
ATOM     52  C   UNL     1      -5.414  -1.106   3.773  1.00  0.00     0.037 A 
ATOM     53  C   UNL     1      -3.052  -5.289   8.171  1.00  0.00     0.049 A 
ATOM     54  C   UNL     1      -5.518  -1.199   5.273  1.00  0.00     0.074 A 
ATOM     55  C   UNL     1      -3.132  -5.217   9.551  1.00  0.00     0.029 A 
ATOM     56  N   UNL     1      -3.750  -4.197   7.675  1.00  0.00    -0.354 N 
ATOM     57  N   UNL     1      -4.993  -2.080   6.090  1.00  0.00    -0.248 NA
ATOM     58  C   UNL     1      -6.305  -0.154   5.944  1.00  0.00     0.031 C 
ATOM     59  C   UNL     1      -3.930  -4.116   9.887  1.00  0.00     0.029 A 
ATOM     60  C   UNL     1      -4.289  -3.462   8.720  1.00  0.00     0.049 A 
ATOM     61  H   UNL     1      -3.849  -3.977   6.721  1.00  0.00     0.167 HD
ATOM     62  C   UNL     1      -5.354  -1.676   7.372  1.00  0.00     0.074 A 
ATOM     63  C   UNL     1      -6.131  -0.463   7.221  1.00  0.00     0.031 C 
ATOM     64  C   UNL     1      -5.064  -2.255   8.565  1.00  0.00     0.037 A 
BRANCH  51  65
ATOM     65  C   UNL     1      -1.726  -7.446   8.036  1.00  0.00     0.057 A 
ATOM     66  C   UNL     1      -0.336  -7.628   7.994  1.00  0.00     0.134 A 
ATOM     67  C   UNL     1      -2.478  -8.405   8.726  1.00  0.00     0.134 A 
ATOM     68  F   UNL     1       0.445  -6.755   7.339  1.00  0.00    -0.206 F 
ATOM     69  C   UNL     1       0.274  -8.744   8.570  1.00  0.00     0.040 A 
ATOM     70  C   UNL     1      -1.876  -9.507   9.336  1.00  0.00     0.040 A 
ATOM     71  F   UNL     1      -3.812  -8.292   8.815  1.00  0.00    -0.206 F 
ATOM     72  C   UNL     1      -0.497  -9.686   9.247  1.00  0.00     0.006 A 
ENDBRANCH  51  65
BRANCH  52  73
ATOM     73  C   UNL     1      -6.031   0.034   3.048  1.00  0.00     0.057 A 
ATOM     74  C   UNL     1      -5.537   1.336   3.196  1.00  0.00     0.134 A 
ATOM     75  C   UNL     1      -7.138  -0.143   2.209  1.00  0.00     0.134 A 
ATOM     76  F   UNL     1      -4.497   1.574   4.008  1.00  0.00    -0.206 F 
ATOM     77  C   UNL     1      -6.129   2.422   2.549  1.00  0.00     0.040 A 
ATOM     78  C   UNL     1      -7.722   0.930   1.533  1.00  0.00     0.040 A 
ATOM     79  F   UNL     1      -7.663  -1.364   2.028  1.00  0.00    -0.206 F 
ATOM     80  C   UNL     1      -7.221   2.218   1.708  1.00  0.00     0.006 A 
ENDBRANCH  52  73
BRANCH  64  81
ATOM     81  C   UNL     1      -5.548  -1.553   9.805  1.00  0.00     0.057 A 
ATOM     82  C   UNL     1      -6.908  -1.464  10.133  1.00  0.00     0.134 A 
ATOM     83  C   UNL     1      -4.637  -0.957  10.687  1.00  0.00     0.134 A 
ATOM     84  F   UNL     1      -7.838  -2.003   9.329  1.00  0.00    -0.206 F 
ATOM     85  C   UNL     1      -7.345  -0.773  11.265  1.00  0.00     0.040 A 
ATOM     86  C   UNL     1      -5.058  -0.293  11.841  1.00  0.00     0.040 A 
ATOM     87  F   UNL     1      -3.318  -1.012  10.446  1.00  0.00    -0.206 F 
ATOM     88  C   UNL     1      -6.418  -0.188  12.126  1.00  0.00     0.006 A 
ENDBRANCH  64  81
ENDBRANCH  38  39
ENDBRANCH  31  33
ENDBRANCH  30  31
ENDBRANCH  29  30
ENDBRANCH  28  29
ENDBRANCH  27  28
ENDBRANCH  26  27
ENDBRANCH   1  26
TORSDOF 22
