REMARK SMILES COCc1cccc(O[C@@H](C)c2ccc(C(=O)OCCOCCOCCOC(=O)c3ccc(-c4c5nc(c(-c6c(F)cccc6F)c6ccc([nH]6)c(-c6c(F)cccc6F)c6nc(c(-c7c(F)cccc7F)c7ccc4[nH]7)C=C6)C=C5)cc3)o2)c1
REMARK SMILES IDX 21 1 20 2 19 3 18 4 16 5 17 6 15 7 12 8 13 9 84 10 14 11
REMARK SMILES IDX 10 12 11 13 9 14 8 15 4 16 5 17 85 18 6 19 7 20 3 21 2 22
REMARK SMILES IDX 1 23 22 24 23 25 24 26 25 27 26 28 27 29 28 30 29 31 30 32
REMARK SMILES IDX 31 33 83 34 32 35 82 36 33 37 34 38 35 39 76 40 36 41 81 42
REMARK SMILES IDX 75 43 77 44 37 45 80 46 74 47 73 48 38 50 64 51 47 52 63 53
REMARK SMILES IDX 48 54 51 55 62 56 78 57 49 58 50 59 61 61 79 62 52 63 39 64
REMARK SMILES IDX 40 65 45 66 41 67 42 68 44 69 46 70 43 71 65 72 66 73 71 74
REMARK SMILES IDX 67 75 68 76 70 77 72 78 69 79 53 80 54 81 59 82 55 83 56 84
REMARK SMILES IDX 58 85 60 86 57 87
REMARK H PARENT 77 49 51 60
REMARK Flexibility Score: inf
ROOT
ATOM      1  O   UNL     1      -5.197   0.359   0.627  1.00  0.00    -0.376 OA
ENDROOT
BRANCH   1   2
ATOM      2  C   UNL     1      -6.089  -0.624   1.133  1.00  0.00     0.202 C 
BRANCH   2   3
ATOM      3  C   UNL     1      -6.827  -1.522   0.130  1.00  0.00     0.261 C 
BRANCH   3   4
ATOM      4  O   UNL     1      -5.955  -2.287  -0.719  1.00  0.00    -0.457 OA
BRANCH   4   5
ATOM      5  C   UNL     1      -6.008  -1.987  -2.056  1.00  0.00     0.374 C 
ATOM      6  O   UNL     1      -6.813  -1.226  -2.566  1.00  0.00    -0.242 OA
BRANCH   5   7
ATOM      7  C   UNL     1      -4.883  -2.599  -2.733  1.00  0.00     0.211 A 
ATOM      8  C   UNL     1      -3.222  -2.598  -4.200  1.00  0.00     0.145 A 
ATOM      9  C   UNL     1      -3.085  -3.748  -3.449  1.00  0.00     0.050 A 
ATOM     10  O   UNL     1      -4.338  -1.923  -3.793  1.00  0.00    -0.450 OA
ATOM     11  C   UNL     1      -4.136  -3.738  -2.495  1.00  0.00     0.058 A 
BRANCH   8  12
ATOM     12  C   UNL     1      -2.462  -1.983  -5.335  1.00  0.00     0.236 C 
ATOM     13  C   UNL     1      -1.354  -2.856  -5.922  1.00  0.00     0.062 C 
BRANCH  12  14
ATOM     14  O   UNL     1      -2.064  -0.639  -5.002  1.00  0.00    -0.483 OA
BRANCH  14  15
ATOM     15  C   UNL     1      -0.885  -0.385  -4.365  1.00  0.00     0.120 A 
ATOM     16  C   UNL     1       0.881  -0.793  -2.742  1.00  0.00    -0.019 A 
ATOM     17  C   UNL     1       1.528   0.376  -3.163  1.00  0.00     0.006 A 
ATOM     18  C   UNL     1      -0.343  -1.151  -3.336  1.00  0.00     0.052 A 
ATOM     19  C   UNL     1       0.970   1.167  -4.166  1.00  0.00     0.004 A 
ATOM     20  C   UNL     1      -0.234   0.786  -4.761  1.00  0.00     0.046 A 
BRANCH  16  21
ATOM     21  C   UNL     1       1.484  -1.663  -1.667  1.00  0.00     0.195 C 
BRANCH  21  22
ATOM     22  O   UNL     1       1.143  -1.217  -0.358  1.00  0.00    -0.380 OA
ATOM     23  C   UNL     1       2.048  -0.248   0.158  1.00  0.00     0.195 C 
ENDBRANCH  21  22
ENDBRANCH  16  21
ENDBRANCH  14  15
ENDBRANCH  12  14
ENDBRANCH   8  12
ENDBRANCH   5   7
ENDBRANCH   4   5
ENDBRANCH   3   4
ENDBRANCH   2   3
ENDBRANCH   1   2
BRANCH   1  24
ATOM     24  C   UNL     1      -4.123  -0.037  -0.217  1.00  0.00     0.188 C 
BRANCH  24  25
ATOM     25  C   UNL     1      -3.212  -1.220   0.181  1.00  0.00     0.188 C 
BRANCH  25  26
ATOM     26  O   UNL     1      -3.585  -1.887   1.378  1.00  0.00    -0.376 OA
BRANCH  26  27
ATOM     27  C   UNL     1      -2.680  -1.718   2.467  1.00  0.00     0.202 C 
BRANCH  27  28
ATOM     28  C   UNL     1      -2.544  -0.286   2.998  1.00  0.00     0.261 C 
BRANCH  28  29
ATOM     29  O   UNL     1      -2.201   0.655   1.965  1.00  0.00    -0.460 OA
BRANCH  29  30
ATOM     30  C   UNL     1      -0.928   1.092   1.892  1.00  0.00     0.338 C 
ATOM     31  O   UNL     1       0.000   0.807   2.624  1.00  0.00    -0.246 OA
BRANCH  30  32
ATOM     32  C   UNL     1      -0.862   2.095   0.808  1.00  0.00     0.060 A 
ATOM     33  C   UNL     1      -1.010   1.734  -0.535  1.00  0.00     0.016 A 
ATOM     34  C   UNL     1      -0.626   3.426   1.151  1.00  0.00     0.016 A 
ATOM     35  C   UNL     1      -0.941   2.705  -1.538  1.00  0.00     0.010 A 
ATOM     36  C   UNL     1      -0.539   4.391   0.145  1.00  0.00     0.010 A 
ATOM     37  C   UNL     1      -0.676   4.036  -1.209  1.00  0.00    -0.014 A 
BRANCH  37  38
ATOM     38  C   UNL     1      -0.393   5.052  -2.252  1.00  0.00     0.031 A 
ATOM     39  C   UNL     1       1.021   5.527  -2.422  1.00  0.00     0.074 A 
ATOM     40  C   UNL     1      -1.370   5.583  -3.008  1.00  0.00     0.049 A 
ATOM     41  N   UNL     1       1.477   6.586  -3.037  1.00  0.00    -0.248 NA
ATOM     42  C   UNL     1       2.063   4.690  -1.804  1.00  0.00     0.031 C 
ATOM     43  C   UNL     1      -2.763   5.145  -3.030  1.00  0.00     0.029 A 
ATOM     44  N   UNL     1      -1.334   6.642  -3.884  1.00  0.00    -0.354 N 
ATOM     45  C   UNL     1       2.852   6.572  -2.841  1.00  0.00     0.074 A 
ATOM     46  C   UNL     1       3.157   5.393  -2.057  1.00  0.00     0.031 C 
ATOM     47  C   UNL     1      -3.459   5.952  -3.848  1.00  0.00     0.029 A 
ATOM     48  C   UNL     1      -2.576   7.003  -4.350  1.00  0.00     0.049 A 
ATOM     49  H   UNL     1      -0.503   7.097  -4.150  1.00  0.00     0.167 HD
ATOM     50  C   UNL     1       3.771   7.470  -3.265  1.00  0.00     0.037 A 
ATOM     51  C   UNL     1      -2.963   8.090  -5.046  1.00  0.00     0.037 A 
ATOM     52  C   UNL     1       3.458   8.632  -4.055  1.00  0.00     0.049 A 
ATOM     53  C   UNL     1      -1.943   9.133  -5.423  1.00  0.00     0.074 A 
ATOM     54  C   UNL     1       4.316   9.609  -4.530  1.00  0.00     0.029 A 
ATOM     55  N   UNL     1       2.186   8.972  -4.487  1.00  0.00    -0.354 N 
ATOM     56  N   UNL     1      -0.652   9.150  -5.193  1.00  0.00    -0.248 NA
ATOM     57  C   UNL     1      -2.436  10.318  -6.142  1.00  0.00     0.031 C 
ATOM     58  C   UNL     1       3.556  10.564  -5.211  1.00  0.00     0.029 A 
ATOM     59  C   UNL     1       2.233  10.153  -5.209  1.00  0.00     0.049 A 
ATOM     60  H   UNL     1       1.369   8.452  -4.307  1.00  0.00     0.167 HD
ATOM     61  C   UNL     1      -0.175  10.322  -5.771  1.00  0.00     0.074 A 
ATOM     62  C   UNL     1      -1.315  10.993  -6.359  1.00  0.00     0.031 C 
ATOM     63  C   UNL     1       1.094  10.794  -5.814  1.00  0.00     0.037 A 
BRANCH  50  64
ATOM     64  C   UNL     1       5.194   7.261  -2.841  1.00  0.00     0.057 A 
ATOM     65  C   UNL     1       5.991   6.244  -3.380  1.00  0.00     0.134 A 
ATOM     66  C   UNL     1       5.784   8.117  -1.902  1.00  0.00     0.134 A 
ATOM     67  F   UNL     1       5.481   5.379  -4.269  1.00  0.00    -0.206 F 
ATOM     68  C   UNL     1       7.321   6.075  -2.987  1.00  0.00     0.040 A 
ATOM     69  C   UNL     1       7.119   7.975  -1.521  1.00  0.00     0.040 A 
ATOM     70  F   UNL     1       5.076   9.114  -1.349  1.00  0.00    -0.206 F 
ATOM     71  C   UNL     1       7.889   6.948  -2.061  1.00  0.00     0.006 A 
ENDBRANCH  50  64
BRANCH  51  72
ATOM     72  C   UNL     1      -4.396   8.282  -5.388  1.00  0.00     0.057 A 
ATOM     73  C   UNL     1      -4.839   8.221  -6.714  1.00  0.00     0.134 A 
ATOM     74  C   UNL     1      -5.353   8.551  -4.401  1.00  0.00     0.134 A 
ATOM     75  F   UNL     1      -3.966   7.998  -7.707  1.00  0.00    -0.206 F 
ATOM     76  C   UNL     1      -6.179   8.430  -7.048  1.00  0.00     0.040 A 
ATOM     77  C   UNL     1      -6.699   8.735  -4.717  1.00  0.00     0.040 A 
ATOM     78  F   UNL     1      -4.992   8.632  -3.112  1.00  0.00    -0.206 F 
ATOM     79  C   UNL     1      -7.114   8.681  -6.046  1.00  0.00     0.006 A 
ENDBRANCH  51  72
BRANCH  63  80
ATOM     80  C   UNL     1       1.342  12.060  -6.582  1.00  0.00     0.057 A 
ATOM     81  C   UNL     1       0.975  13.316  -6.087  1.00  0.00     0.134 A 
ATOM     82  C   UNL     1       2.028  12.020  -7.804  1.00  0.00     0.134 A 
ATOM     83  F   UNL     1       0.307  13.423  -4.929  1.00  0.00    -0.206 F 
ATOM     84  C   UNL     1       1.272  14.489  -6.786  1.00  0.00     0.040 A 
ATOM     85  C   UNL     1       2.352  13.185  -8.499  1.00  0.00     0.040 A 
ATOM     86  F   UNL     1       2.417  10.847  -8.328  1.00  0.00    -0.206 F 
ATOM     87  C   UNL     1       1.971  14.425  -7.991  1.00  0.00     0.006 A 
ENDBRANCH  63  80
ENDBRANCH  37  38
ENDBRANCH  30  32
ENDBRANCH  29  30
ENDBRANCH  28  29
ENDBRANCH  27  28
ENDBRANCH  26  27
ENDBRANCH  25  26
ENDBRANCH  24  25
ENDBRANCH   1  24
TORSDOF 22
