REMARK SMILES Cc1cccc(N2C(=O)/C(=C/c3ccc(C(=O)OCCOCCOCCOC(=O)c4ccc(-c5c6nc(c(-c7c(F)cccc7F)c7ccc([nH]7)c(-c7c(F)cccc7F)c7nc(c(-c8c(F)cccc8F)c8ccc5[nH]8)C=C7)C=C6)cc4)cc3)c3ccccc3C2=O)c1
REMARK SMILES IDX 22 1 21 2 20 3 19 4 18 5 16 6 17 7 15 8 12 9 13 10 85 11
REMARK SMILES IDX 14 12 84 13 11 14 7 15 8 16 92 17 9 18 10 19 91 20 93 21
REMARK SMILES IDX 86 22 90 23 87 24 89 25 88 26 6 27 1 28 2 29 3 30 94 31 4 32
REMARK SMILES IDX 5 33 23 34 24 35 25 36 26 37 27 38 28 39 29 40 30 41 31 42
REMARK SMILES IDX 83 43 32 44 82 45 33 46 34 47 35 48 76 49 36 50 81 51 75 52
REMARK SMILES IDX 77 53 37 54 80 55 74 56 73 57 38 59 64 60 47 61 63 62 48 63
REMARK SMILES IDX 51 64 62 65 78 66 49 67 50 68 61 70 79 71 52 72 39 73 40 74
REMARK SMILES IDX 45 75 41 76 42 77 44 78 46 79 43 80 65 81 66 82 71 83 67 84
REMARK SMILES IDX 68 85 70 86 72 87 69 88 53 89 54 90 59 91 55 92 56 93 58 94
REMARK SMILES IDX 60 95 57 96
REMARK H PARENT 77 58 51 69
REMARK Flexibility Score: inf
ROOT
ATOM      1  C   UNL     1      -4.216  15.091   0.732  1.00  0.00     0.188 C 
ENDROOT
BRANCH   1   2
ATOM      2  O   UNL     1      -5.205  14.054   0.618  1.00  0.00    -0.376 OA
BRANCH   2   3
ATOM      3  C   UNL     1      -5.898  13.436   1.689  1.00  0.00     0.202 C 
BRANCH   3   4
ATOM      4  C   UNL     1      -6.105  11.783   1.951  1.00  0.00     0.261 C 
BRANCH   4   5
ATOM      5  O   UNL     1      -5.325  10.332   1.475  1.00  0.00    -0.460 OA
BRANCH   5   6
ATOM      6  C   UNL     1      -4.944   9.612   0.332  1.00  0.00     0.338 C 
ATOM      7  O   UNL     1      -5.193   9.796  -0.854  1.00  0.00    -0.246 OA
BRANCH   6   8
ATOM      8  C   UNL     1      -4.036   8.478   0.252  1.00  0.00     0.060 A 
ATOM      9  C   UNL     1      -2.456   6.434  -0.790  1.00  0.00    -0.025 A 
ATOM     10  C   UNL     1      -1.913   7.705  -0.681  1.00  0.00     0.009 A 
ATOM     11  C   UNL     1      -3.838   6.237  -0.660  1.00  0.00     0.009 A 
ATOM     12  C   UNL     1      -2.714   8.723  -0.183  1.00  0.00     0.016 A 
ATOM     13  C   UNL     1      -4.623   7.257  -0.124  1.00  0.00     0.016 A 
BRANCH   9  14
ATOM     14  C   UNL     1      -1.534   5.316  -0.636  1.00  0.00     0.022 C 
ATOM     15  N   UNL     1      -1.472   2.271   0.752  1.00  0.00    -0.242 N 
ATOM     16  C   UNL     1      -0.691   3.429   0.553  1.00  0.00     0.265 C 
ATOM     17  C   UNL     1      -2.832   2.377   1.173  1.00  0.00     0.265 C 
ATOM     18  O   UNL     1       0.513   3.561   0.359  1.00  0.00    -0.268 OA
ATOM     19  C   UNL     1      -1.506   4.651   0.541  1.00  0.00     0.049 C 
ATOM     20  C   UNL     1      -3.256   3.657   1.817  1.00  0.00     0.048 A 
ATOM     21  O   UNL     1      -3.716   1.529   1.080  1.00  0.00    -0.268 OA
ATOM     22  C   UNL     1      -2.479   4.790   1.620  1.00  0.00    -0.000 A 
ATOM     23  C   UNL     1      -4.439   3.754   2.560  1.00  0.00     0.014 A 
ATOM     24  C   UNL     1      -2.783   5.982   2.290  1.00  0.00     0.010 A 
ATOM     25  C   UNL     1      -4.803   4.973   3.143  1.00  0.00     0.001 A 
ATOM     26  C   UNL     1      -3.962   6.079   3.031  1.00  0.00     0.001 A 
BRANCH  15  27
ATOM     27  C   UNL     1      -0.882   0.969   0.458  1.00  0.00     0.053 A 
ATOM     28  C   UNL     1       2.601  -0.533  -0.108  1.00  0.00     0.044 C 
ATOM     29  C   UNL     1       1.109  -0.432   0.013  1.00  0.00    -0.049 A 
ATOM     30  C   UNL     1       0.305  -1.555  -0.135  1.00  0.00     0.003 A 
ATOM     31  C   UNL     1       0.510   0.800   0.323  1.00  0.00     0.030 A 
ATOM     32  C   UNL     1      -1.072  -1.434   0.002  1.00  0.00     0.002 A 
ATOM     33  C   UNL     1      -1.653  -0.192   0.290  1.00  0.00     0.027 A 
ENDBRANCH  15  27
ENDBRANCH   9  14
ENDBRANCH   6   8
ENDBRANCH   5   6
ENDBRANCH   4   5
ENDBRANCH   3   4
ENDBRANCH   2   3
ENDBRANCH   1   2
BRANCH   1  34
ATOM     34  C   UNL     1      -3.523  15.366   2.061  1.00  0.00     0.188 C 
BRANCH  34  35
ATOM     35  O   UNL     1      -3.415  14.154   2.781  1.00  0.00    -0.376 OA
BRANCH  35  36
ATOM     36  C   UNL     1      -2.850  14.264   4.073  1.00  0.00     0.202 C 
BRANCH  36  37
ATOM     37  C   UNL     1      -1.316  14.220   4.020  1.00  0.00     0.261 C 
BRANCH  37  38
ATOM     38  O   UNL     1      -0.876  13.091   3.224  1.00  0.00    -0.460 OA
BRANCH  38  39
ATOM     39  C   UNL     1      -0.433  13.349   1.949  1.00  0.00     0.338 C 
ATOM     40  O   UNL     1       0.357  14.235   1.655  1.00  0.00    -0.246 OA
BRANCH  39  41
ATOM     41  C   UNL     1      -1.248  12.576   0.944  1.00  0.00     0.060 A 
ATOM     42  C   UNL     1      -1.378  12.891  -0.417  1.00  0.00     0.016 A 
ATOM     43  C   UNL     1      -2.230  11.795   1.448  1.00  0.00     0.016 A 
ATOM     44  C   UNL     1      -2.598  12.592  -1.174  1.00  0.00     0.010 A 
ATOM     45  C   UNL     1      -3.449  11.841   0.755  1.00  0.00     0.010 A 
ATOM     46  C   UNL     1      -3.791  12.142  -0.584  1.00  0.00    -0.014 A 
BRANCH  46  47
ATOM     47  C   UNL     1      -5.342  12.283  -1.262  1.00  0.00     0.031 A 
ATOM     48  C   UNL     1      -6.741  11.332  -1.294  1.00  0.00     0.074 A 
ATOM     49  C   UNL     1      -5.540  13.326  -2.102  1.00  0.00     0.049 A 
ATOM     50  N   UNL     1      -7.337  10.934  -2.414  1.00  0.00    -0.248 NA
ATOM     51  C   UNL     1      -7.479  10.668  -0.176  1.00  0.00     0.031 C 
ATOM     52  C   UNL     1      -6.790  13.722  -2.748  1.00  0.00     0.029 A 
ATOM     53  N   UNL     1      -4.588  14.183  -2.656  1.00  0.00    -0.354 N 
ATOM     54  C   UNL     1      -8.400  10.070  -2.099  1.00  0.00     0.074 A 
ATOM     55  C   UNL     1      -8.339   9.825  -0.720  1.00  0.00     0.031 C 
ATOM     56  C   UNL     1      -6.497  14.487  -3.809  1.00  0.00     0.029 A 
ATOM     57  C   UNL     1      -5.053  14.543  -3.925  1.00  0.00     0.049 A 
ATOM     58  H   UNL     1      -3.749  14.479  -2.235  1.00  0.00     0.167 HD
ATOM     59  C   UNL     1      -9.429   9.688  -2.901  1.00  0.00     0.037 A 
ATOM     60  C   UNL     1      -4.320  14.325  -5.049  1.00  0.00     0.037 A 
ATOM     61  C   UNL     1      -9.420  10.485  -4.081  1.00  0.00     0.049 A 
ATOM     62  C   UNL     1      -5.052  13.536  -6.102  1.00  0.00     0.074 A 
ATOM     63  C   UNL     1      -9.937  11.747  -4.304  1.00  0.00     0.029 A 
ATOM     64  N   UNL     1      -8.472  10.241  -5.046  1.00  0.00    -0.354 N 
ATOM     65  N   UNL     1      -6.124  12.830  -5.873  1.00  0.00    -0.248 NA
ATOM     66  C   UNL     1      -4.620  13.451  -7.494  1.00  0.00     0.031 C 
ATOM     67  C   UNL     1      -9.255  12.293  -5.409  1.00  0.00     0.029 A 
ATOM     68  C   UNL     1      -8.380  11.331  -5.880  1.00  0.00     0.049 A 
ATOM     69  H   UNL     1      -7.942   9.415  -5.128  1.00  0.00     0.167 HD
ATOM     70  C   UNL     1      -6.481  12.161  -7.016  1.00  0.00     0.074 A 
ATOM     71  C   UNL     1      -5.531  12.609  -8.010  1.00  0.00     0.031 C 
ATOM     72  C   UNL     1      -7.513  11.270  -7.032  1.00  0.00     0.037 A 
BRANCH  59  73
ATOM     73  C   UNL     1     -10.623   8.933  -2.336  1.00  0.00     0.057 A 
ATOM     74  C   UNL     1     -11.931   9.415  -2.496  1.00  0.00     0.134 A 
ATOM     75  C   UNL     1     -10.509   7.795  -1.508  1.00  0.00     0.134 A 
ATOM     76  F   UNL     1     -12.204  10.427  -3.329  1.00  0.00    -0.206 F 
ATOM     77  C   UNL     1     -13.019   8.906  -1.771  1.00  0.00     0.040 A 
ATOM     78  C   UNL     1     -11.582   7.304  -0.742  1.00  0.00     0.040 A 
ATOM     79  F   UNL     1      -9.330   7.171  -1.354  1.00  0.00    -0.206 F 
ATOM     80  C   UNL     1     -12.840   7.880  -0.854  1.00  0.00     0.006 A 
ENDBRANCH  59  73
BRANCH  60  81
ATOM     81  C   UNL     1      -2.846  14.336  -4.839  1.00  0.00     0.057 A 
ATOM     82  C   UNL     1      -2.246  15.510  -4.343  1.00  0.00     0.134 A 
ATOM     83  C   UNL     1      -2.073  13.171  -4.803  1.00  0.00     0.134 A 
ATOM     84  F   UNL     1      -2.931  16.666  -4.337  1.00  0.00    -0.206 F 
ATOM     85  C   UNL     1      -0.978  15.511  -3.755  1.00  0.00     0.040 A 
ATOM     86  C   UNL     1      -0.794  13.161  -4.223  1.00  0.00     0.040 A 
ATOM     87  F   UNL     1      -2.580  12.002  -5.215  1.00  0.00    -0.206 F 
ATOM     88  C   UNL     1      -0.256  14.326  -3.674  1.00  0.00     0.006 A 
ENDBRANCH  60  81
BRANCH  72  89
ATOM     89  C   UNL     1      -7.858  10.267  -8.104  1.00  0.00     0.057 A 
ATOM     90  C   UNL     1      -6.926   9.705  -8.981  1.00  0.00     0.134 A 
ATOM     91  C   UNL     1      -9.149   9.680  -8.141  1.00  0.00     0.134 A 
ATOM     92  F   UNL     1      -5.646  10.099  -8.993  1.00  0.00    -0.206 F 
ATOM     93  C   UNL     1      -7.256   8.657  -9.851  1.00  0.00     0.040 A 
ATOM     94  C   UNL     1      -9.471   8.594  -8.958  1.00  0.00     0.040 A 
ATOM     95  F   UNL     1     -10.149  10.112  -7.358  1.00  0.00    -0.206 F 
ATOM     96  C   UNL     1      -8.523   8.085  -9.828  1.00  0.00     0.006 A 
ENDBRANCH  72  89
ENDBRANCH  46  47
ENDBRANCH  39  41
ENDBRANCH  38  39
ENDBRANCH  37  38
ENDBRANCH  36  37
ENDBRANCH  35  36
ENDBRANCH  34  35
ENDBRANCH   1  34
TORSDOF 19
