REMARK SMILES O=C(OCCOCCOCCOC(=O)[C@@H]1[C@H](C(=O)NCc2ccccc2Cl)[C@@H]2C=C[C@H]1C2)c1ccc(-c2c3nc(c(-c4c(F)cccc4F)c4ccc([nH]4)c(-c4c(F)cccc4F)c4nc(c(-c5c(F)cccc5F)c5ccc2[nH]5)C=C4)C=C3)cc1
REMARK SMILES IDX 8 1 7 2 6 3 5 4 4 5 3 6 2 7 1 8 33 9 34 10 86 11 35 12 85 13
REMARK SMILES IDX 36 14 37 15 38 16 79 17 39 18 84 19 78 20 80 21 40 22 83 23
REMARK SMILES IDX 77 24 76 25 41 27 67 28 50 29 66 30 51 31 54 32 65 33 81 34
REMARK SMILES IDX 52 35 53 36 64 38 82 39 55 40 42 41 43 42 48 43 44 44 45 45
REMARK SMILES IDX 47 46 49 47 46 48 68 49 69 50 74 51 70 52 71 53 73 54 75 55
REMARK SMILES IDX 72 56 56 57 57 58 62 59 58 60 59 61 61 62 63 63 60 64 9 65
REMARK SMILES IDX 10 66 11 67 12 68 13 69 14 70 15 71 16 72 31 73 28 74 30 75
REMARK SMILES IDX 32 76 29 77 17 78 18 79 19 80 20 82 21 83 22 84 26 85 23 86
REMARK SMILES IDX 25 87 27 88 24 89
REMARK H PARENT 80 26 54 37 19 81
REMARK Flexibility Score: inf
ROOT
ATOM      1  C   UNL     1       2.050  -0.293   2.793  1.00  0.00     0.188 C 
ENDROOT
BRANCH   1   2
ATOM      2  C   UNL     1       2.199   0.762   1.669  1.00  0.00     0.188 C 
BRANCH   2   3
ATOM      3  O   UNL     1       3.322   0.445   0.847  1.00  0.00    -0.376 OA
BRANCH   3   4
ATOM      4  C   UNL     1       4.233   1.498   0.552  1.00  0.00     0.202 C 
BRANCH   4   5
ATOM      5  C   UNL     1       3.819   2.268  -0.700  1.00  0.00     0.261 C 
BRANCH   5   6
ATOM      6  O   UNL     1       3.808   1.370  -1.821  1.00  0.00    -0.460 OA
BRANCH   6   7
ATOM      7  C   UNL     1       2.727   0.558  -1.937  1.00  0.00     0.338 C 
ATOM      8  O   UNL     1       1.565   0.823  -1.667  1.00  0.00    -0.246 OA
BRANCH   7   9
ATOM      9  C   UNL     1       3.229  -0.745  -2.425  1.00  0.00     0.060 A 
ATOM     10  C   UNL     1       4.436  -1.227  -1.904  1.00  0.00     0.016 A 
ATOM     11  C   UNL     1       2.533  -1.492  -3.378  1.00  0.00     0.016 A 
ATOM     12  C   UNL     1       4.974  -2.420  -2.354  1.00  0.00     0.010 A 
ATOM     13  C   UNL     1       3.096  -2.680  -3.865  1.00  0.00     0.010 A 
ATOM     14  C   UNL     1       4.324  -3.136  -3.365  1.00  0.00    -0.014 A 
BRANCH  14  15
ATOM     15  C   UNL     1       5.052  -4.294  -3.925  1.00  0.00     0.031 A 
ATOM     16  C   UNL     1       6.163  -4.034  -4.880  1.00  0.00     0.074 A 
ATOM     17  C   UNL     1       4.792  -5.544  -3.507  1.00  0.00     0.049 A 
ATOM     18  N   UNL     1       6.938  -4.904  -5.461  1.00  0.00    -0.248 NA
ATOM     19  C   UNL     1       6.380  -2.639  -5.298  1.00  0.00     0.031 C 
ATOM     20  C   UNL     1       3.652  -5.898  -2.687  1.00  0.00     0.029 A 
ATOM     21  N   UNL     1       5.481  -6.725  -3.637  1.00  0.00    -0.354 N 
ATOM     22  C   UNL     1       7.631  -4.187  -6.418  1.00  0.00     0.074 A 
ATOM     23  C   UNL     1       7.284  -2.792  -6.254  1.00  0.00     0.031 C 
ATOM     24  C   UNL     1       3.814  -7.147  -2.230  1.00  0.00     0.029 A 
ATOM     25  C   UNL     1       5.010  -7.725  -2.808  1.00  0.00     0.049 A 
ATOM     26  H   UNL     1       6.235  -6.847  -4.259  1.00  0.00     0.167 HD
ATOM     27  C   UNL     1       8.389  -4.695  -7.413  1.00  0.00     0.037 A 
ATOM     28  C   UNL     1       5.483  -8.965  -2.561  1.00  0.00     0.037 A 
ATOM     29  C   UNL     1       8.666  -6.101  -7.556  1.00  0.00     0.049 A 
ATOM     30  C   UNL     1       6.503  -9.463  -3.544  1.00  0.00     0.074 A 
ATOM     31  C   UNL     1       9.393  -6.739  -8.542  1.00  0.00     0.029 A 
ATOM     32  N   UNL     1       8.213  -7.088  -6.688  1.00  0.00    -0.354 N 
ATOM     33  N   UNL     1       7.126  -8.792  -4.483  1.00  0.00    -0.248 NA
ATOM     34  C   UNL     1       6.770 -10.906  -3.549  1.00  0.00     0.031 C 
ATOM     35  C   UNL     1       9.346  -8.114  -8.294  1.00  0.00     0.029 A 
ATOM     36  C   UNL     1       8.643  -8.331  -7.119  1.00  0.00     0.049 A 
ATOM     37  H   UNL     1       7.667  -6.926  -5.885  1.00  0.00     0.167 HD
ATOM     38  C   UNL     1       7.765  -9.742  -5.259  1.00  0.00     0.074 A 
ATOM     39  C   UNL     1       7.560 -11.021  -4.606  1.00  0.00     0.031 C 
ATOM     40  C   UNL     1       8.395  -9.583  -6.448  1.00  0.00     0.037 A 
BRANCH  27  41
ATOM     41  C   UNL     1       8.814  -3.744  -8.485  1.00  0.00     0.057 A 
ATOM     42  C   UNL     1       9.799  -2.772  -8.289  1.00  0.00     0.134 A 
ATOM     43  C   UNL     1       8.183  -3.787  -9.737  1.00  0.00     0.134 A 
ATOM     44  F   UNL     1      10.405  -2.649  -7.098  1.00  0.00    -0.206 F 
ATOM     45  C   UNL     1      10.136  -1.867  -9.297  1.00  0.00     0.040 A 
ATOM     46  C   UNL     1       8.529  -2.906 -10.760  1.00  0.00     0.040 A 
ATOM     47  F   UNL     1       7.211  -4.680  -9.980  1.00  0.00    -0.206 F 
ATOM     48  C   UNL     1       9.507  -1.939 -10.540  1.00  0.00     0.006 A 
ENDBRANCH  27  41
BRANCH  28  49
ATOM     49  C   UNL     1       4.944  -9.859  -1.487  1.00  0.00     0.057 A 
ATOM     50  C   UNL     1       5.799 -10.442  -0.535  1.00  0.00     0.134 A 
ATOM     51  C   UNL     1       3.588 -10.199  -1.386  1.00  0.00     0.134 A 
ATOM     52  F   UNL     1       7.121 -10.217  -0.585  1.00  0.00    -0.206 F 
ATOM     53  C   UNL     1       5.328 -11.308   0.460  1.00  0.00     0.040 A 
ATOM     54  C   UNL     1       3.095 -11.008  -0.359  1.00  0.00     0.040 A 
ATOM     55  F   UNL     1       2.705  -9.757  -2.293  1.00  0.00    -0.206 F 
ATOM     56  C   UNL     1       3.967 -11.576   0.563  1.00  0.00     0.006 A 
ENDBRANCH  28  49
BRANCH  40  57
ATOM     57  C   UNL     1       8.875 -10.837  -7.104  1.00  0.00     0.057 A 
ATOM     58  C   UNL     1       7.985 -11.736  -7.709  1.00  0.00     0.134 A 
ATOM     59  C   UNL     1      10.238 -11.143  -7.136  1.00  0.00     0.134 A 
ATOM     60  F   UNL     1       6.663 -11.504  -7.690  1.00  0.00    -0.206 F 
ATOM     61  C   UNL     1       8.438 -12.912  -8.304  1.00  0.00     0.040 A 
ATOM     62  C   UNL     1      10.704 -12.303  -7.751  1.00  0.00     0.040 A 
ATOM     63  F   UNL     1      11.134 -10.318  -6.574  1.00  0.00    -0.206 F 
ATOM     64  C   UNL     1       9.803 -13.194  -8.330  1.00  0.00     0.006 A 
ENDBRANCH  40  57
ENDBRANCH  14  15
ENDBRANCH   7   9
ENDBRANCH   6   7
ENDBRANCH   5   6
ENDBRANCH   4   5
ENDBRANCH   3   4
ENDBRANCH   2   3
ENDBRANCH   1   2
BRANCH   1  65
ATOM     65  O   UNL     1       3.181  -0.171   3.656  1.00  0.00    -0.376 OA
BRANCH  65  66
ATOM     66  C   UNL     1       3.186  -0.857   4.896  1.00  0.00     0.202 C 
BRANCH  66  67
ATOM     67  C   UNL     1       3.427  -2.378   5.000  1.00  0.00     0.261 C 
BRANCH  67  68
ATOM     68  O   UNL     1       3.423  -3.183   3.824  1.00  0.00    -0.463 OA
BRANCH  68  69
ATOM     69  C   UNL     1       2.222  -3.648   3.444  1.00  0.00     0.310 C 
ATOM     70  O   UNL     1       1.151  -3.198   3.844  1.00  0.00    -0.252 OA
BRANCH  69  71
ATOM     71  C   UNL     1       2.292  -4.849   2.544  1.00  0.00     0.119 C 
ATOM     72  C   UNL     1       3.511  -5.819   2.450  1.00  0.00     0.100 C 
ATOM     73  C   UNL     1       1.859  -4.657   1.069  1.00  0.00     0.027 C 
ATOM     74  C   UNL     1       3.482  -6.223   0.969  1.00  0.00     0.025 C 
ATOM     75  C   UNL     1       2.963  -4.145   0.191  1.00  0.00    -0.027 C 
ATOM     76  C   UNL     1       1.967  -6.118   0.618  1.00  0.00     0.017 C 
ATOM     77  C   UNL     1       3.942  -5.060   0.165  1.00  0.00    -0.027 C 
BRANCH  72  78
ATOM     78  C   UNL     1       4.834  -5.612   3.218  1.00  0.00     0.224 C 
ATOM     79  O   UNL     1       4.910  -6.222   4.305  1.00  0.00    -0.275 OA
ATOM     80  N   UNL     1       5.952  -4.900   2.969  1.00  0.00    -0.352 N 
ATOM     81  H   UNL     1       6.537  -4.940   3.759  1.00  0.00     0.163 HD
BRANCH  80  82
ATOM     82  C   UNL     1       6.606  -4.087   1.935  1.00  0.00     0.153 C 
BRANCH  82  83
ATOM     83  C   UNL     1       6.927  -2.672   2.400  1.00  0.00    -0.010 A 
ATOM     84  C   UNL     1       8.189  -2.274   2.864  1.00  0.00     0.007 A 
ATOM     85  C   UNL     1       5.957  -1.677   2.342  1.00  0.00     0.046 A 
ATOM     86  C   UNL     1       8.417  -0.956   3.311  1.00  0.00     0.000 A 
ATOM     87  C   UNL     1       6.149  -0.394   2.857  1.00  0.00     0.021 A 
ATOM     88  Cl  UNL     1       4.550  -1.966   1.452  1.00  0.00    -0.084 Cl
ATOM     89  C   UNL     1       7.384  -0.026   3.350  1.00  0.00     0.002 A 
ENDBRANCH  82  83
ENDBRANCH  80  82
ENDBRANCH  72  78
ENDBRANCH  69  71
ENDBRANCH  68  69
ENDBRANCH  67  68
ENDBRANCH  66  67
ENDBRANCH  65  66
ENDBRANCH   1  65
TORSDOF 20
