REMARK SMILES COc1ccc(C[N@@H+](CC(=O)OCCOCCOCCOC(=O)c2ccc(-c3c4nc(c(-c5c(F)cccc5F)c5ccc([nH]5)c(-c5c(F)cccc5F)c5nc(c(-c6c(F)cccc6F)c6ccc3[nH]6)C=C5)C=C4)cc2)C(C)(C)C)cc1C#N
REMARK SMILES IDX 16 1 15 2 14 3 13 4 12 5 10 6 11 7 9 8 8 9 7 11 6 12 3 13
REMARK SMILES IDX 4 14 83 15 5 16 82 17 2 18 1 19 84 20 85 21 78 22 79 23
REMARK SMILES IDX 80 24 81 25 17 26 18 27 19 28 20 29 21 30 22 31 23 32 24 33
REMARK SMILES IDX 25 34 77 35 26 36 76 37 27 38 28 39 29 40 70 41 30 42 75 43
REMARK SMILES IDX 69 44 71 45 31 46 74 47 68 48 67 49 32 51 58 52 41 53 57 54
REMARK SMILES IDX 42 55 45 56 56 57 72 58 43 59 44 60 55 62 73 63 46 64 33 65
REMARK SMILES IDX 34 66 39 67 35 68 36 69 38 70 40 71 37 72 59 73 60 74 65 75
REMARK SMILES IDX 61 76 62 77 64 78 66 79 63 80 47 81 48 82 53 83 49 84 50 85
REMARK SMILES IDX 52 86 54 87 51 88
REMARK H PARENT 8 10 71 50 45 61
REMARK Flexibility Score: inf
ROOT
ATOM      1  C   UNL     1       6.266  -8.982  -0.406  1.00  0.00     0.188 C 
ENDROOT
BRANCH   1   2
ATOM      2  O   UNL     1       7.005  -9.130  -1.608  1.00  0.00    -0.376 OA
BRANCH   2   3
ATOM      3  C   UNL     1       6.743  -8.155  -2.613  1.00  0.00     0.202 C 
BRANCH   3   4
ATOM      4  C   UNL     1       5.327  -8.141  -3.233  1.00  0.00     0.261 C 
BRANCH   4   5
ATOM      5  O   UNL     1       4.175  -7.777  -2.406  1.00  0.00    -0.459 OA
BRANCH   5   6
ATOM      6  C   UNL     1       3.252  -8.762  -2.211  1.00  0.00     0.361 C 
ATOM      7  O   UNL     1       3.495  -9.943  -2.474  1.00  0.00    -0.245 OA
BRANCH   6   8
ATOM      8  C   UNL     1       1.816  -8.391  -1.772  1.00  0.00     0.387 C 
BRANCH   8   9
ATOM      9  N   UNL     1       1.412  -7.081  -1.158  1.00  0.00    -0.318 N 
ATOM     10  H   UNL     1       0.408  -7.068  -0.980  1.00  0.00     0.349 HD
BRANCH   9  11
ATOM     11  C   UNL     1       1.594  -5.994  -2.145  1.00  0.00     0.299 C 
BRANCH  11  12
ATOM     12  C   UNL     1       1.211  -4.595  -1.714  1.00  0.00     0.008 A 
ATOM     13  C   UNL     1       0.690  -2.157  -0.406  1.00  0.00     0.136 A 
ATOM     14  C   UNL     1      -0.342  -3.075  -0.649  1.00  0.00     0.048 A 
ATOM     15  C   UNL     1       1.977  -2.421  -0.889  1.00  0.00     0.094 A 
ATOM     16  C   UNL     1      -0.094  -4.274  -1.326  1.00  0.00     0.013 A 
ATOM     17  C   UNL     1       2.219  -3.626  -1.565  1.00  0.00     0.033 A 
BRANCH  13  18
ATOM     18  O   UNL     1       0.353  -1.140   0.448  1.00  0.00    -0.495 OA
ATOM     19  C   UNL     1       0.672   0.168  -0.013  1.00  0.00     0.278 C 
ENDBRANCH  13  18
BRANCH  15  20
ATOM     20  C   UNL     1       3.110  -1.578  -0.638  1.00  0.00     0.103 C 
ATOM     21  N   UNL     1       4.052  -0.924  -0.477  1.00  0.00    -0.192 NA
ENDBRANCH  15  20
ENDBRANCH  11  12
ENDBRANCH   9  11
BRANCH   9  22
ATOM     22  C   UNL     1       1.755  -6.890   0.281  1.00  0.00     0.090 C 
ATOM     23  C   UNL     1       3.223  -6.529   0.366  1.00  0.00     0.078 C 
ATOM     24  C   UNL     1       0.989  -5.792   1.073  1.00  0.00     0.078 C 
ATOM     25  C   UNL     1       1.444  -8.165   1.116  1.00  0.00     0.078 C 
ENDBRANCH   9  22
ENDBRANCH   8   9
ENDBRANCH   6   8
ENDBRANCH   5   6
ENDBRANCH   4   5
ENDBRANCH   3   4
ENDBRANCH   2   3
ENDBRANCH   1   2
BRANCH   1  26
ATOM     26  C   UNL     1       6.482  -7.656   0.328  1.00  0.00     0.188 C 
BRANCH  26  27
ATOM     27  O   UNL     1       6.163  -6.516  -0.458  1.00  0.00    -0.376 OA
BRANCH  27  28
ATOM     28  C   UNL     1       6.301  -5.216   0.113  1.00  0.00     0.202 C 
BRANCH  28  29
ATOM     29  C   UNL     1       7.183  -5.012   1.353  1.00  0.00     0.261 C 
BRANCH  29  30
ATOM     30  O   UNL     1       6.956  -5.953   2.424  1.00  0.00    -0.460 OA
BRANCH  30  31
ATOM     31  C   UNL     1       5.753  -5.896   3.040  1.00  0.00     0.338 C 
ATOM     32  O   UNL     1       4.918  -5.019   2.917  1.00  0.00    -0.246 OA
BRANCH  31  33
ATOM     33  C   UNL     1       5.500  -7.191   3.728  1.00  0.00     0.060 A 
ATOM     34  C   UNL     1       4.315  -7.873   3.435  1.00  0.00     0.016 A 
ATOM     35  C   UNL     1       6.381  -7.739   4.656  1.00  0.00     0.016 A 
ATOM     36  C   UNL     1       3.950  -9.034   4.103  1.00  0.00     0.010 A 
ATOM     37  C   UNL     1       6.015  -8.909   5.346  1.00  0.00     0.010 A 
ATOM     38  C   UNL     1       4.769  -9.530   5.114  1.00  0.00    -0.014 A 
BRANCH  38  39
ATOM     39  C   UNL     1       4.186 -10.516   6.063  1.00  0.00     0.031 A 
ATOM     40  C   UNL     1       3.845 -10.048   7.455  1.00  0.00     0.074 A 
ATOM     41  C   UNL     1       3.832 -11.757   5.679  1.00  0.00     0.049 A 
ATOM     42  N   UNL     1       3.396 -10.727   8.479  1.00  0.00    -0.248 NA
ATOM     43  C   UNL     1       4.037  -8.614   7.726  1.00  0.00     0.031 C 
ATOM     44  C   UNL     1       3.987 -12.309   4.334  1.00  0.00     0.029 A 
ATOM     45  N   UNL     1       3.255 -12.779   6.394  1.00  0.00    -0.354 N 
ATOM     46  C   UNL     1       3.293  -9.813   9.521  1.00  0.00     0.074 A 
ATOM     47  C   UNL     1       3.754  -8.540   9.016  1.00  0.00     0.031 C 
ATOM     48  C   UNL     1       3.522 -13.570   4.322  1.00  0.00     0.029 A 
ATOM     49  C   UNL     1       3.091 -13.934   5.670  1.00  0.00     0.049 A 
ATOM     50  H   UNL     1       2.985 -12.691   7.337  1.00  0.00     0.167 HD
ATOM     51  C   UNL     1       2.845 -10.011  10.784  1.00  0.00     0.037 A 
ATOM     52  C   UNL     1       2.677 -15.157   6.057  1.00  0.00     0.037 A 
ATOM     53  C   UNL     1       2.362 -11.273  11.281  1.00  0.00     0.049 A 
ATOM     54  C   UNL     1       2.276 -15.381   7.493  1.00  0.00     0.074 A 
ATOM     55  C   UNL     1       1.905 -11.581  12.550  1.00  0.00     0.029 A 
ATOM     56  N   UNL     1       2.270 -12.435  10.530  1.00  0.00    -0.354 N 
ATOM     57  N   UNL     1       2.234 -14.527   8.487  1.00  0.00    -0.248 NA
ATOM     58  C   UNL     1       1.861 -16.743   7.858  1.00  0.00     0.031 C 
ATOM     59  C   UNL     1       1.599 -12.945  12.585  1.00  0.00     0.029 A 
ATOM     60  C   UNL     1       1.783 -13.468  11.316  1.00  0.00     0.049 A 
ATOM     61  H   UNL     1       2.515 -12.515   9.580  1.00  0.00     0.167 HD
ATOM     62  C   UNL     1       1.749 -15.237   9.581  1.00  0.00     0.074 A 
ATOM     63  C   UNL     1       1.499 -16.587   9.122  1.00  0.00     0.031 C 
ATOM     64  C   UNL     1       1.526 -14.808  10.849  1.00  0.00     0.037 A 
BRANCH  51  65
ATOM     65  C   UNL     1       2.911  -8.844  11.729  1.00  0.00     0.057 A 
ATOM     66  C   UNL     1       2.099  -7.711  11.584  1.00  0.00     0.134 A 
ATOM     67  C   UNL     1       3.808  -8.859  12.806  1.00  0.00     0.134 A 
ATOM     68  F   UNL     1       1.233  -7.620  10.564  1.00  0.00    -0.206 F 
ATOM     69  C   UNL     1       2.202  -6.623  12.454  1.00  0.00     0.040 A 
ATOM     70  C   UNL     1       3.893  -7.794  13.703  1.00  0.00     0.040 A 
ATOM     71  F   UNL     1       4.614  -9.912  13.007  1.00  0.00    -0.206 F 
ATOM     72  C   UNL     1       3.096  -6.666  13.522  1.00  0.00     0.006 A 
ENDBRANCH  51  65
BRANCH  52  73
ATOM     73  C   UNL     1       2.660 -16.286   5.087  1.00  0.00     0.057 A 
ATOM     74  C   UNL     1       1.465 -16.910   4.707  1.00  0.00     0.134 A 
ATOM     75  C   UNL     1       3.848 -16.797   4.550  1.00  0.00     0.134 A 
ATOM     76  F   UNL     1       0.294 -16.489   5.207  1.00  0.00    -0.206 F 
ATOM     77  C   UNL     1       1.455 -18.014   3.852  1.00  0.00     0.040 A 
ATOM     78  C   UNL     1       3.850 -17.878   3.666  1.00  0.00     0.040 A 
ATOM     79  F   UNL     1       5.029 -16.250   4.874  1.00  0.00    -0.206 F 
ATOM     80  C   UNL     1       2.650 -18.497   3.324  1.00  0.00     0.006 A 
ENDBRANCH  52  73
BRANCH  64  81
ATOM     81  C   UNL     1       0.911 -15.788  11.812  1.00  0.00     0.057 A 
ATOM     82  C   UNL     1       1.588 -16.929  12.264  1.00  0.00     0.134 A 
ATOM     83  C   UNL     1      -0.388 -15.579  12.298  1.00  0.00     0.134 A 
ATOM     84  F   UNL     1       2.832 -17.196  11.837  1.00  0.00    -0.206 F 
ATOM     85  C   UNL     1       0.979 -17.850  13.120  1.00  0.00     0.040 A 
ATOM     86  C   UNL     1      -0.992 -16.471  13.185  1.00  0.00     0.040 A 
ATOM     87  F   UNL     1      -1.091 -14.500  11.924  1.00  0.00    -0.206 F 
ATOM     88  C   UNL     1      -0.314 -17.619  13.586  1.00  0.00     0.006 A 
ENDBRANCH  64  81
ENDBRANCH  38  39
ENDBRANCH  31  33
ENDBRANCH  30  31
ENDBRANCH  29  30
ENDBRANCH  28  29
ENDBRANCH  27  28
ENDBRANCH  26  27
ENDBRANCH   1  26
TORSDOF 23
