REMARK SMILES O=C(COc1ccc(/C=C2\SC(=O)N(Cc3cc4c(cc3Cl)OCO4)C2=O)cc1)OCCOCCOCCOC(=O)c1ccc(-c2c3nc(c(-c4c(F)cccc4F)c4ccc([nH]4)c(-c4c(F)cccc4F)c4nc(c(-c5c(F)cccc5F)c5ccc2[nH]5)C=C4)C=C3)cc1
REMARK SMILES IDX 33 1 32 2 31 3 30 4 2 5 1 6 3 7 4 8 5 9 6 10 29 11 7 12
REMARK SMILES IDX 28 13 8 14 9 15 10 16 11 17 26 18 12 19 14 20 27 21 13 22
REMARK SMILES IDX 15 23 16 24 17 25 21 26 18 27 20 28 22 29 19 30 25 31 23 32
REMARK SMILES IDX 24 33 34 34 35 35 36 36 37 37 38 38 39 39 40 40 41 41 42 42
REMARK SMILES IDX 43 43 95 44 44 45 94 46 45 47 46 48 47 49 88 50 48 51 93 52
REMARK SMILES IDX 87 53 89 54 49 55 92 56 86 57 85 58 50 60 76 61 59 62 75 63
REMARK SMILES IDX 60 64 63 65 74 66 90 67 61 68 62 69 73 71 91 72 64 73 51 74
REMARK SMILES IDX 52 75 57 76 53 77 54 78 56 79 58 80 55 81 77 82 78 83 83 84
REMARK SMILES IDX 79 85 80 86 82 87 84 88 81 89 65 90 66 91 71 92 67 93 68 94
REMARK SMILES IDX 70 95 72 96 69 97
REMARK H PARENT 89 59 63 70
REMARK Flexibility Score: inf
ROOT
ATOM      1  O   UNL     1       4.814   1.342   1.365  1.00  0.00    -0.376 OA
ENDROOT
BRANCH   1   2
ATOM      2  C   UNL     1       5.169   0.374   0.400  1.00  0.00     0.202 C 
BRANCH   2   3
ATOM      3  C   UNL     1       4.366   0.469  -0.890  1.00  0.00     0.261 C 
BRANCH   3   4
ATOM      4  O   UNL     1       2.933   0.288  -0.766  1.00  0.00    -0.461 OA
BRANCH   4   5
ATOM      5  C   UNL     1       2.263  -0.751  -0.218  1.00  0.00     0.344 C 
ATOM      6  O   UNL     1       1.040  -0.685  -0.092  1.00  0.00    -0.248 OA
BRANCH   5   7
ATOM      7  C   UNL     1       3.045  -1.953   0.314  1.00  0.00     0.351 C 
BRANCH   7   8
ATOM      8  O   UNL     1       4.163  -2.417  -0.446  1.00  0.00    -0.482 OA
BRANCH   8   9
ATOM      9  C   UNL     1       3.665  -3.120  -1.508  1.00  0.00     0.120 A 
ATOM     10  C   UNL     1       3.631  -4.509  -1.431  1.00  0.00     0.047 A 
ATOM     11  C   UNL     1       3.046  -2.429  -2.541  1.00  0.00     0.047 A 
ATOM     12  C   UNL     1       2.832  -5.210  -2.330  1.00  0.00     0.012 A 
ATOM     13  C   UNL     1       2.205  -3.114  -3.381  1.00  0.00     0.012 A 
ATOM     14  C   UNL     1       2.089  -4.502  -3.280  1.00  0.00    -0.024 A 
BRANCH  14  15
ATOM     15  C   UNL     1       1.063  -5.124  -4.099  1.00  0.00     0.029 C 
ATOM     16  C   UNL     1       0.949  -4.921  -5.415  1.00  0.00     0.083 C 
ATOM     17  S   UNL     1       2.056  -4.231  -6.537  1.00  0.00    -0.022 SA
ATOM     18  C   UNL     1      -0.248  -5.375  -6.132  1.00  0.00     0.268 C 
ATOM     19  C   UNL     1       1.174  -4.909  -7.897  1.00  0.00     0.293 C 
ATOM     20  N   UNL     1       0.087  -5.595  -7.437  1.00  0.00    -0.264 N 
ATOM     21  O   UNL     1      -1.355  -5.458  -5.623  1.00  0.00    -0.268 OA
ATOM     22  O   UNL     1       1.523  -4.755  -9.057  1.00  0.00    -0.261 OA
BRANCH  20  23
ATOM     23  C   UNL     1      -0.691  -6.487  -8.260  1.00  0.00     0.167 C 
BRANCH  23  24
ATOM     24  C   UNL     1      -0.110  -7.893  -8.170  1.00  0.00    -0.005 A 
ATOM     25  C   UNL     1       0.643  -8.375  -9.260  1.00  0.00     0.057 A 
ATOM     26  C   UNL     1      -0.241  -8.722  -7.020  1.00  0.00     0.050 A 
ATOM     27  C   UNL     1       1.192  -9.637  -9.168  1.00  0.00     0.166 A 
ATOM     28  C   UNL     1       0.426  -9.945  -6.916  1.00  0.00     0.071 A 
ATOM     29  Cl  UNL     1      -1.304  -8.371  -5.709  1.00  0.00    -0.084 Cl
ATOM     30  C   UNL     1       1.107 -10.386  -8.019  1.00  0.00     0.167 A 
ATOM     31  O   UNL     1       1.829 -10.312 -10.163  1.00  0.00    -0.454 OA
ATOM     32  O   UNL     1       1.699 -11.603  -8.143  1.00  0.00    -0.454 OA
ATOM     33  C   UNL     1       1.912 -11.626  -9.568  1.00  0.00     0.468 C 
ENDBRANCH  23  24
ENDBRANCH  20  23
ENDBRANCH  14  15
ENDBRANCH   8   9
ENDBRANCH   7   8
ENDBRANCH   5   7
ENDBRANCH   4   5
ENDBRANCH   3   4
ENDBRANCH   2   3
ENDBRANCH   1   2
BRANCH   1  34
ATOM     34  C   UNL     1       3.515   1.277   1.922  1.00  0.00     0.188 C 
BRANCH  34  35
ATOM     35  C   UNL     1       2.605   2.458   1.542  1.00  0.00     0.188 C 
BRANCH  35  36
ATOM     36  O   UNL     1       3.153   3.745   1.281  1.00  0.00    -0.376 OA
BRANCH  36  37
ATOM     37  C   UNL     1       4.441   4.086   1.765  1.00  0.00     0.202 C 
BRANCH  37  38
ATOM     38  C   UNL     1       4.602   4.247   3.284  1.00  0.00     0.261 C 
BRANCH  38  39
ATOM     39  O   UNL     1       4.244   3.094   4.073  1.00  0.00    -0.460 OA
BRANCH  39  40
ATOM     40  C   UNL     1       3.054   3.169   4.720  1.00  0.00     0.338 C 
ATOM     41  O   UNL     1       2.301   4.128   4.753  1.00  0.00    -0.246 OA
BRANCH  40  42
ATOM     42  C   UNL     1       2.665   1.854   5.295  1.00  0.00     0.060 A 
ATOM     43  C   UNL     1       1.379   1.374   5.005  1.00  0.00     0.016 A 
ATOM     44  C   UNL     1       3.486   1.147   6.177  1.00  0.00     0.016 A 
ATOM     45  C   UNL     1       0.875   0.250   5.664  1.00  0.00     0.010 A 
ATOM     46  C   UNL     1       2.972   0.027   6.853  1.00  0.00     0.010 A 
ATOM     47  C   UNL     1       1.641  -0.386   6.649  1.00  0.00    -0.014 A 
BRANCH  47  48
ATOM     48  C   UNL     1       0.948  -1.258   7.640  1.00  0.00     0.031 A 
ATOM     49  C   UNL     1       0.507  -0.634   8.944  1.00  0.00     0.074 A 
ATOM     50  C   UNL     1       0.637  -2.543   7.388  1.00  0.00     0.049 A 
ATOM     51  N   UNL     1      -0.138  -1.167   9.951  1.00  0.00    -0.248 NA
ATOM     52  C   UNL     1       0.841   0.787   9.131  1.00  0.00     0.031 C 
ATOM     53  C   UNL     1       0.948  -3.268   6.159  1.00  0.00     0.029 A 
ATOM     54  N   UNL     1      -0.023  -3.466   8.165  1.00  0.00    -0.354 N 
ATOM     55  C   UNL     1      -0.279  -0.150  10.889  1.00  0.00     0.074 A 
ATOM     56  C   UNL     1       0.378   1.018  10.349  1.00  0.00     0.031 C 
ATOM     57  C   UNL     1       0.482  -4.526   6.266  1.00  0.00     0.029 A 
ATOM     58  C   UNL     1      -0.144  -4.702   7.577  1.00  0.00     0.049 A 
ATOM     59  H   UNL     1      -0.376  -3.261   9.061  1.00  0.00     0.167 HD
ATOM     60  C   UNL     1      -0.910  -0.175  12.088  1.00  0.00     0.037 A 
ATOM     61  C   UNL     1      -0.692  -5.842   8.044  1.00  0.00     0.037 A 
ATOM     62  C   UNL     1      -1.576  -1.326  12.635  1.00  0.00     0.049 A 
ATOM     63  C   UNL     1      -1.333  -5.865   9.410  1.00  0.00     0.074 A 
ATOM     64  C   UNL     1      -2.256  -1.438  13.836  1.00  0.00     0.029 A 
ATOM     65  N   UNL     1      -1.642  -2.565  12.020  1.00  0.00    -0.354 N 
ATOM     66  N   UNL     1      -1.483  -4.890  10.274  1.00  0.00    -0.248 NA
ATOM     67  C   UNL     1      -1.891  -7.150   9.860  1.00  0.00     0.031 C 
ATOM     68  C   UNL     1      -2.691  -2.761  13.970  1.00  0.00     0.029 A 
ATOM     69  C   UNL     1      -2.332  -3.456  12.827  1.00  0.00     0.049 A 
ATOM     70  H   UNL     1      -1.256  -2.781  11.141  1.00  0.00     0.167 HD
ATOM     71  C   UNL     1      -2.189  -5.431  11.344  1.00  0.00     0.074 A 
ATOM     72  C   UNL     1      -2.442  -6.819  11.020  1.00  0.00     0.031 C 
ATOM     73  C   UNL     1      -2.598  -4.831  12.489  1.00  0.00     0.037 A 
BRANCH  60  74
ATOM     74  C   UNL     1      -0.881   1.085  12.905  1.00  0.00     0.057 A 
ATOM     75  C   UNL     1      -1.616   2.222  12.545  1.00  0.00     0.134 A 
ATOM     76  C   UNL     1      -0.118   1.153  14.078  1.00  0.00     0.134 A 
ATOM     77  F   UNL     1      -2.353   2.228  11.424  1.00  0.00    -0.206 F 
ATOM     78  C   UNL     1      -1.572   3.391  13.307  1.00  0.00     0.040 A 
ATOM     79  C   UNL     1      -0.089   2.306  14.864  1.00  0.00     0.040 A 
ATOM     80  F   UNL     1       0.606   0.099  14.482  1.00  0.00    -0.206 F 
ATOM     81  C   UNL     1      -0.811   3.432  14.474  1.00  0.00     0.006 A 
ENDBRANCH  60  74
BRANCH  61  82
ATOM     82  C   UNL     1      -0.672  -7.078   7.217  1.00  0.00     0.057 A 
ATOM     83  C   UNL     1      -1.853  -7.625   6.698  1.00  0.00     0.134 A 
ATOM     84  C   UNL     1       0.519  -7.771   6.971  1.00  0.00     0.134 A 
ATOM     85  F   UNL     1      -3.031  -7.027   6.926  1.00  0.00    -0.206 F 
ATOM     86  C   UNL     1      -1.853  -8.826   5.985  1.00  0.00     0.040 A 
ATOM     87  C   UNL     1       0.538  -8.958   6.237  1.00  0.00     0.040 A 
ATOM     88  F   UNL     1       1.684  -7.304   7.444  1.00  0.00    -0.206 F 
ATOM     89  C   UNL     1      -0.653  -9.494   5.749  1.00  0.00     0.006 A 
ENDBRANCH  61  82
BRANCH  73  90
ATOM     90  C   UNL     1      -3.415  -5.647  13.451  1.00  0.00     0.057 A 
ATOM     91  C   UNL     1      -2.862  -6.690  14.206  1.00  0.00     0.134 A 
ATOM     92  C   UNL     1      -4.772  -5.360  13.649  1.00  0.00     0.134 A 
ATOM     93  F   UNL     1      -1.571  -7.024  14.061  1.00  0.00    -0.206 F 
ATOM     94  C   UNL     1      -3.636  -7.437  15.096  1.00  0.00     0.040 A 
ATOM     95  C   UNL     1      -5.549  -6.080  14.557  1.00  0.00     0.040 A 
ATOM     96  F   UNL     1      -5.364  -4.365  12.970  1.00  0.00    -0.206 F 
ATOM     97  C   UNL     1      -4.983  -7.129  15.278  1.00  0.00     0.006 A 
ENDBRANCH  73  90
ENDBRANCH  47  48
ENDBRANCH  40  42
ENDBRANCH  39  40
ENDBRANCH  38  39
ENDBRANCH  37  38
ENDBRANCH  36  37
ENDBRANCH  35  36
ENDBRANCH  34  35
ENDBRANCH   1  34
TORSDOF 22
