REMARK SMILES NC(=O)CC[C@H](NC(=O)N[C@H]1CCOC1)C(=O)OCCOCCOCCOC(=O)c1ccc(-c2c3nc(c(-c4c(F)cccc4F)c4ccc([nH]4)c(-c4c(F)cccc4F)c4nc(c(-c5c(F)cccc5F)c5ccc2[nH]5)C=C4)C=C3)cc1
REMARK SMILES IDX 22 1 21 2 20 3 19 4 18 5 16 6 17 7 6 8 5 9 4 10 2 11 1 12
REMARK SMILES IDX 3 15 7 16 8 17 9 19 10 20 11 22 12 23 15 24 13 25 14 26
REMARK SMILES IDX 23 27 24 28 25 29 26 30 27 31 28 32 29 33 30 34 31 35 83 36
REMARK SMILES IDX 32 37 82 38 33 39 34 40 35 41 76 42 36 43 81 44 75 45 77 46
REMARK SMILES IDX 37 47 80 48 74 49 73 50 38 52 64 53 47 54 63 55 48 56 51 57
REMARK SMILES IDX 62 58 78 59 49 60 50 61 61 63 79 64 52 65 39 66 40 67 45 68
REMARK SMILES IDX 41 69 42 70 44 71 46 72 43 73 65 74 66 75 71 76 67 77 68 78
REMARK SMILES IDX 70 79 72 80 69 81 53 82 54 83 59 84 55 85 56 86 58 87 60 88
REMARK SMILES IDX 57 89
REMARK H PARENT 1 13 1 14 7 18 10 21 77 51 51 62
REMARK Flexibility Score: inf
ROOT
ATOM      1  C   UNL     1       4.011   2.988   7.175  1.00  0.00     0.188 C 
ENDROOT
BRANCH   1   2
ATOM      2  O   UNL     1       3.408   4.212   7.597  1.00  0.00    -0.376 OA
BRANCH   2   3
ATOM      3  C   UNL     1       3.297   5.262   6.638  1.00  0.00     0.202 C 
BRANCH   3   4
ATOM      4  C   UNL     1       4.609   5.672   5.963  1.00  0.00     0.261 C 
BRANCH   4   5
ATOM      5  O   UNL     1       5.169   4.571   5.221  1.00  0.00    -0.462 OA
BRANCH   5   6
ATOM      6  C   UNL     1       6.495   4.580   4.940  1.00  0.00     0.328 C 
ATOM      7  O   UNL     1       7.266   5.444   5.340  1.00  0.00    -0.250 OA
BRANCH   6   8
ATOM      8  C   UNL     1       6.939   3.359   4.059  1.00  0.00     0.194 C 
BRANCH   8   9
ATOM      9  C   UNL     1       7.946   3.770   2.975  1.00  0.00     0.047 C 
BRANCH   9  10
ATOM     10  C   UNL     1       8.736   2.594   2.385  1.00  0.00     0.102 C 
BRANCH  10  11
ATOM     11  C   UNL     1       8.018   1.909   1.244  1.00  0.00     0.217 C 
ATOM     12  N   UNL     1       7.627   0.625   1.472  1.00  0.00    -0.370 N 
ATOM     13  H   UNL     1       7.154   0.122   0.770  1.00  0.00     0.159 HD
ATOM     14  H   UNL     1       7.817   0.200   2.339  1.00  0.00     0.159 HD
ATOM     15  O   UNL     1       7.788   2.453   0.170  1.00  0.00    -0.275 OA
ENDBRANCH  10  11
ENDBRANCH   9  10
ENDBRANCH   8   9
BRANCH   8  16
ATOM     16  N   UNL     1       6.003   2.304   3.601  1.00  0.00    -0.325 N 
ATOM     17  C   UNL     1       5.119   1.975   2.670  1.00  0.00     0.315 C 
ATOM     18  H   UNL     1       6.061   1.556   4.237  1.00  0.00     0.166 HD
ATOM     19  O   UNL     1       4.812   0.773   2.678  1.00  0.00    -0.249 OA
ATOM     20  N   UNL     1       4.518   2.712   1.752  1.00  0.00    -0.333 N 
ATOM     21  H   UNL     1       4.074   2.120   1.101  1.00  0.00     0.165 HD
BRANCH  20  22
ATOM     22  C   UNL     1       4.287   4.103   1.371  1.00  0.00     0.112 C 
ATOM     23  C   UNL     1       4.414   5.106   2.463  1.00  0.00     0.056 C 
ATOM     24  C   UNL     1       5.167   4.668   0.271  1.00  0.00     0.185 C 
ATOM     25  C   UNL     1       4.846   6.390   1.812  1.00  0.00     0.162 C 
ATOM     26  O   UNL     1       5.231   6.090   0.471  1.00  0.00    -0.379 OA
ENDBRANCH  20  22
ENDBRANCH   8  16
ENDBRANCH   6   8
ENDBRANCH   5   6
ENDBRANCH   4   5
ENDBRANCH   3   4
ENDBRANCH   2   3
ENDBRANCH   1   2
BRANCH   1  27
ATOM     27  C   UNL     1       3.530   2.375   5.848  1.00  0.00     0.188 C 
BRANCH  27  28
ATOM     28  O   UNL     1       2.314   2.932   5.390  1.00  0.00    -0.376 OA
BRANCH  28  29
ATOM     29  C   UNL     1       1.316   2.004   5.016  1.00  0.00     0.202 C 
BRANCH  29  30
ATOM     30  C   UNL     1       0.669   1.276   6.204  1.00  0.00     0.261 C 
BRANCH  30  31
ATOM     31  O   UNL     1       1.582   0.820   7.223  1.00  0.00    -0.460 OA
BRANCH  31  32
ATOM     32  C   UNL     1       2.233  -0.350   7.003  1.00  0.00     0.338 C 
ATOM     33  O   UNL     1       2.090  -1.097   6.062  1.00  0.00    -0.246 OA
BRANCH  32  34
ATOM     34  C   UNL     1       3.345  -0.441   7.991  1.00  0.00     0.060 A 
ATOM     35  C   UNL     1       4.659  -0.606   7.521  1.00  0.00     0.016 A 
ATOM     36  C   UNL     1       3.109  -0.305   9.361  1.00  0.00     0.016 A 
ATOM     37  C   UNL     1       5.732  -0.658   8.420  1.00  0.00     0.010 A 
ATOM     38  C   UNL     1       4.180  -0.383  10.260  1.00  0.00     0.010 A 
ATOM     39  C   UNL     1       5.494  -0.590   9.799  1.00  0.00    -0.014 A 
BRANCH  39  40
ATOM     40  C   UNL     1       6.555  -0.972  10.771  1.00  0.00     0.031 A 
ATOM     41  C   UNL     1       6.548  -2.384  11.296  1.00  0.00     0.074 A 
ATOM     42  C   UNL     1       7.494  -0.109  11.203  1.00  0.00     0.049 A 
ATOM     43  N   UNL     1       7.282  -2.934  12.228  1.00  0.00    -0.248 NA
ATOM     44  C   UNL     1       5.566  -3.295  10.684  1.00  0.00     0.031 C 
ATOM     45  C   UNL     1       7.657   1.269  10.750  1.00  0.00     0.029 A 
ATOM     46  N   UNL     1       8.483  -0.275  12.145  1.00  0.00    -0.354 N 
ATOM     47  C   UNL     1       6.842  -4.249  12.325  1.00  0.00     0.074 A 
ATOM     48  C   UNL     1       5.758  -4.404  11.379  1.00  0.00     0.031 C 
ATOM     49  C   UNL     1       8.675   1.831  11.428  1.00  0.00     0.029 A 
ATOM     50  C   UNL     1       9.209   0.866  12.390  1.00  0.00     0.049 A 
ATOM     51  H   UNL     1       8.655  -1.130  12.600  1.00  0.00     0.167 HD
ATOM     52  C   UNL     1       7.299  -5.242  13.123  1.00  0.00     0.037 A 
ATOM     53  C   UNL     1      10.170   1.110  13.306  1.00  0.00     0.037 A 
ATOM     54  C   UNL     1       8.368  -5.094  14.074  1.00  0.00     0.049 A 
ATOM     55  C   UNL     1      10.600   0.015  14.254  1.00  0.00     0.074 A 
ATOM     56  C   UNL     1       8.906  -6.047  14.920  1.00  0.00     0.029 A 
ATOM     57  N   UNL     1       9.054  -3.913  14.313  1.00  0.00    -0.354 N 
ATOM     58  N   UNL     1      10.192  -1.229  14.325  1.00  0.00    -0.248 NA
ATOM     59  C   UNL     1      11.626   0.362  15.251  1.00  0.00     0.031 C 
ATOM     60  C   UNL     1       9.878  -5.429  15.713  1.00  0.00     0.029 A 
ATOM     61  C   UNL     1       9.992  -4.107  15.314  1.00  0.00     0.049 A 
ATOM     62  H   UNL     1       8.898  -3.063  13.842  1.00  0.00     0.167 HD
ATOM     63  C   UNL     1      10.935  -1.819  15.344  1.00  0.00     0.074 A 
ATOM     64  C   UNL     1      11.825  -0.800  15.856  1.00  0.00     0.031 C 
ATOM     65  C   UNL     1      10.886  -3.092  15.810  1.00  0.00     0.037 A 
BRANCH  52  66
ATOM     66  C   UNL     1       6.613  -6.574  13.022  1.00  0.00     0.057 A 
ATOM     67  C   UNL     1       6.739  -7.391  11.890  1.00  0.00     0.134 A 
ATOM     68  C   UNL     1       5.826  -7.051  14.078  1.00  0.00     0.134 A 
ATOM     69  F   UNL     1       7.464  -6.985  10.836  1.00  0.00    -0.206 F 
ATOM     70  C   UNL     1       6.084  -8.620  11.801  1.00  0.00     0.040 A 
ATOM     71  C   UNL     1       5.192  -8.293  14.013  1.00  0.00     0.040 A 
ATOM     72  F   UNL     1       5.665  -6.322  15.192  1.00  0.00    -0.206 F 
ATOM     73  C   UNL     1       5.314  -9.077  12.868  1.00  0.00     0.006 A 
ENDBRANCH  52  66
BRANCH  53  74
ATOM     74  C   UNL     1      10.795   2.457  13.399  1.00  0.00     0.057 A 
ATOM     75  C   UNL     1      12.145   2.654  13.081  1.00  0.00     0.134 A 
ATOM     76  C   UNL     1      10.074   3.569  13.853  1.00  0.00     0.134 A 
ATOM     77  F   UNL     1      12.899   1.623  12.672  1.00  0.00    -0.206 F 
ATOM     78  C   UNL     1      12.759   3.900  13.227  1.00  0.00     0.040 A 
ATOM     79  C   UNL     1      10.668   4.827  13.976  1.00  0.00     0.040 A 
ATOM     80  F   UNL     1       8.780   3.449  14.183  1.00  0.00    -0.206 F 
ATOM     81  C   UNL     1      12.017   4.993  13.671  1.00  0.00     0.006 A 
ENDBRANCH  53  74
BRANCH  65  82
ATOM     82  C   UNL     1      11.855  -3.480  16.893  1.00  0.00     0.057 A 
ATOM     83  C   UNL     1      11.739  -3.005  18.206  1.00  0.00     0.134 A 
ATOM     84  C   UNL     1      12.893  -4.385  16.626  1.00  0.00     0.134 A 
ATOM     85  F   UNL     1      10.775  -2.130  18.530  1.00  0.00    -0.206 F 
ATOM     86  C   UNL     1      12.633  -3.396  19.206  1.00  0.00     0.040 A 
ATOM     87  C   UNL     1      13.773  -4.806  17.624  1.00  0.00     0.040 A 
ATOM     88  F   UNL     1      13.056  -4.890  15.394  1.00  0.00    -0.206 F 
ATOM     89  C   UNL     1      13.649  -4.305  18.918  1.00  0.00     0.006 A 
ENDBRANCH  65  82
ENDBRANCH  39  40
ENDBRANCH  32  34
ENDBRANCH  31  32
ENDBRANCH  30  31
ENDBRANCH  29  30
ENDBRANCH  28  29
ENDBRANCH  27  28
ENDBRANCH   1  27
TORSDOF 22
