REMARK SMILES O=C(Cc1ccc(F)c(F)c1)NC1(C(=O)OCCOCCOCCOC(=O)c2ccc(-c3c4nc(c(-c5c(F)cccc5F)c5ccc([nH]5)c(-c5c(F)cccc5F)c5nc(c(-c6c(F)cccc6F)c6ccc3[nH]6)C=C5)C=C4)cc2)CCCC1
REMARK SMILES IDX 20 1 19 2 18 3 17 4 16 5 14 6 15 7 13 8 82 9 85 10 83 11
REMARK SMILES IDX 84 12 12 13 1 14 2 15 3 17 4 18 5 19 11 20 6 21 9 22 7 23
REMARK SMILES IDX 10 24 8 25 21 26 22 27 23 28 24 29 25 30 26 31 27 32 28 33
REMARK SMILES IDX 29 34 81 35 30 36 80 37 31 38 32 39 33 40 74 41 34 42 79 43
REMARK SMILES IDX 73 44 75 45 35 46 78 47 72 48 71 49 36 51 62 52 45 53 61 54
REMARK SMILES IDX 46 55 49 56 60 57 76 58 47 59 48 60 59 62 77 63 50 64 37 65
REMARK SMILES IDX 38 66 43 67 39 68 40 69 42 70 44 71 41 72 63 73 64 74 69 75
REMARK SMILES IDX 65 76 66 77 68 78 70 79 67 80 51 81 52 82 57 83 53 84 54 85
REMARK SMILES IDX 56 86 58 87 55 88
REMARK H PARENT 12 16 75 50 49 61
REMARK Flexibility Score: inf
ROOT
ATOM      1  C   UNL     1      -0.972  -0.645  -1.486  1.00  0.00     0.188 C 
ENDROOT
BRANCH   1   2
ATOM      2  O   UNL     1      -2.142   0.043  -1.900  1.00  0.00    -0.376 OA
BRANCH   2   3
ATOM      3  C   UNL     1      -2.279   1.346  -1.361  1.00  0.00     0.202 C 
BRANCH   3   4
ATOM      4  C   UNL     1      -1.378   2.429  -1.974  1.00  0.00     0.261 C 
BRANCH   4   5
ATOM      5  O   UNL     1       0.003   2.080  -2.187  1.00  0.00    -0.461 OA
BRANCH   5   6
ATOM      6  C   UNL     1       0.922   2.517  -1.287  1.00  0.00     0.331 C 
ATOM      7  O   UNL     1       0.632   3.038  -0.213  1.00  0.00    -0.249 OA
BRANCH   6   8
ATOM      8  C   UNL     1       2.396   2.368  -1.802  1.00  0.00     0.138 C 
ATOM      9  C   UNL     1       2.939   3.795  -2.048  1.00  0.00     0.040 C 
ATOM     10  C   UNL     1       2.613   1.753  -3.197  1.00  0.00     0.040 C 
ATOM     11  C   UNL     1       2.445   4.178  -3.433  1.00  0.00     0.003 C 
ATOM     12  C   UNL     1       2.409   2.876  -4.217  1.00  0.00     0.003 C 
BRANCH   8  13
ATOM     13  N   UNL     1       3.251   1.741  -0.772  1.00  0.00    -0.340 N 
ATOM     14  O   UNL     1       1.990  -0.136  -0.372  1.00  0.00    -0.275 OA
ATOM     15  C   UNL     1       3.003   0.524  -0.178  1.00  0.00     0.225 C 
ATOM     16  H   UNL     1       4.058   2.230  -0.490  1.00  0.00     0.164 HD
BRANCH  15  17
ATOM     17  C   UNL     1       4.108   0.051   0.755  1.00  0.00     0.135 C 
BRANCH  17  18
ATOM     18  C   UNL     1       5.021  -0.961   0.105  1.00  0.00    -0.036 A 
ATOM     19  C   UNL     1       5.117  -2.261   0.622  1.00  0.00     0.007 A 
ATOM     20  C   UNL     1       5.797  -0.626  -1.012  1.00  0.00     0.046 A 
ATOM     21  C   UNL     1       5.937  -3.220   0.023  1.00  0.00     0.043 A 
ATOM     22  C   UNL     1       6.615  -1.585  -1.606  1.00  0.00     0.159 A 
ATOM     23  C   UNL     1       6.678  -2.876  -1.099  1.00  0.00     0.158 A 
ATOM     24  F   UNL     1       7.342  -1.245  -2.679  1.00  0.00    -0.204 F 
ATOM     25  F   UNL     1       7.450  -3.797  -1.689  1.00  0.00    -0.204 F 
ENDBRANCH  17  18
ENDBRANCH  15  17
ENDBRANCH   8  13
ENDBRANCH   6   8
ENDBRANCH   5   6
ENDBRANCH   4   5
ENDBRANCH   3   4
ENDBRANCH   2   3
ENDBRANCH   1   2
BRANCH   1  26
ATOM     26  C   UNL     1       0.021  -0.901  -2.624  1.00  0.00     0.188 C 
BRANCH  26  27
ATOM     27  O   UNL     1      -0.336  -0.693  -3.985  1.00  0.00    -0.376 OA
BRANCH  27  28
ATOM     28  C   UNL     1      -1.616  -1.115  -4.428  1.00  0.00     0.202 C 
BRANCH  28  29
ATOM     29  C   UNL     1      -1.978  -2.604  -4.327  1.00  0.00     0.261 C 
BRANCH  29  30
ATOM     30  O   UNL     1      -1.412  -3.288  -3.198  1.00  0.00    -0.460 OA
BRANCH  30  31
ATOM     31  C   UNL     1      -0.403  -4.143  -3.503  1.00  0.00     0.338 C 
ATOM     32  O   UNL     1      -0.029  -4.481  -4.612  1.00  0.00    -0.246 OA
BRANCH  31  33
ATOM     33  C   UNL     1       0.349  -4.490  -2.278  1.00  0.00     0.060 A 
ATOM     34  C   UNL     1       1.707  -4.156  -2.257  1.00  0.00     0.016 A 
ATOM     35  C   UNL     1      -0.231  -5.153  -1.194  1.00  0.00     0.016 A 
ATOM     36  C   UNL     1       2.491  -4.498  -1.161  1.00  0.00     0.010 A 
ATOM     37  C   UNL     1       0.573  -5.534  -0.105  1.00  0.00     0.010 A 
ATOM     38  C   UNL     1       1.944  -5.227  -0.094  1.00  0.00    -0.014 A 
BRANCH  38  39
ATOM     39  C   UNL     1       2.885  -5.800   0.903  1.00  0.00     0.031 A 
ATOM     40  C   UNL     1       3.676  -7.021   0.516  1.00  0.00     0.074 A 
ATOM     41  C   UNL     1       3.146  -5.183   2.070  1.00  0.00     0.049 A 
ATOM     42  N   UNL     1       4.667  -7.603   1.143  1.00  0.00    -0.248 NA
ATOM     43  C   UNL     1       3.306  -7.661  -0.756  1.00  0.00     0.031 C 
ATOM     44  C   UNL     1       2.497  -3.966   2.550  1.00  0.00     0.029 A 
ATOM     45  N   UNL     1       4.092  -5.463   3.030  1.00  0.00    -0.354 N 
ATOM     46  C   UNL     1       5.030  -8.683   0.349  1.00  0.00     0.074 A 
ATOM     47  C   UNL     1       4.169  -8.664  -0.815  1.00  0.00     0.031 C 
ATOM     48  C   UNL     1       3.117  -3.558   3.673  1.00  0.00     0.029 A 
ATOM     49  C   UNL     1       4.188  -4.499   4.006  1.00  0.00     0.049 A 
ATOM     50  H   UNL     1       4.646  -6.276   3.019  1.00  0.00     0.167 HD
ATOM     51  C   UNL     1       5.975  -9.626   0.574  1.00  0.00     0.037 A 
ATOM     52  C   UNL     1       5.059  -4.378   5.029  1.00  0.00     0.037 A 
ATOM     53  C   UNL     1       6.808  -9.690   1.744  1.00  0.00     0.049 A 
ATOM     54  C   UNL     1       6.095  -5.451   5.266  1.00  0.00     0.074 A 
ATOM     55  C   UNL     1       7.721 -10.668   2.100  1.00  0.00     0.029 A 
ATOM     56  N   UNL     1       6.828  -8.739   2.749  1.00  0.00    -0.354 N 
ATOM     57  N   UNL     1       6.402  -6.489   4.528  1.00  0.00    -0.248 NA
ATOM     58  C   UNL     1       6.887  -5.343   6.503  1.00  0.00     0.031 C 
ATOM     59  C   UNL     1       8.269 -10.324   3.341  1.00  0.00     0.029 A 
ATOM     60  C   UNL     1       7.728  -9.111   3.733  1.00  0.00     0.049 A 
ATOM     61  H   UNL     1       6.283  -7.919   2.762  1.00  0.00     0.167 HD
ATOM     62  C   UNL     1       7.406  -7.163   5.217  1.00  0.00     0.074 A 
ATOM     63  C   UNL     1       7.700  -6.384   6.400  1.00  0.00     0.031 C 
ATOM     64  C   UNL     1       8.009  -8.338   4.914  1.00  0.00     0.037 A 
BRANCH  51  65
ATOM     65  C   UNL     1       6.102 -10.716  -0.444  1.00  0.00     0.057 A 
ATOM     66  C   UNL     1       6.752 -10.512  -1.667  1.00  0.00     0.134 A 
ATOM     67  C   UNL     1       5.580 -11.990  -0.187  1.00  0.00     0.134 A 
ATOM     68  F   UNL     1       7.252  -9.307  -1.978  1.00  0.00    -0.206 F 
ATOM     69  C   UNL     1       6.868 -11.538  -2.606  1.00  0.00     0.040 A 
ATOM     70  C   UNL     1       5.707 -13.028  -1.109  1.00  0.00     0.040 A 
ATOM     71  F   UNL     1       4.944 -12.244   0.966  1.00  0.00    -0.206 F 
ATOM     72  C   UNL     1       6.350 -12.802  -2.325  1.00  0.00     0.006 A 
ENDBRANCH  51  65
BRANCH  52  73
ATOM     73  C   UNL     1       5.019  -3.196   5.930  1.00  0.00     0.057 A 
ATOM     74  C   UNL     1       6.095  -2.299   5.983  1.00  0.00     0.134 A 
ATOM     75  C   UNL     1       3.954  -2.972   6.809  1.00  0.00     0.134 A 
ATOM     76  F   UNL     1       7.160  -2.474   5.186  1.00  0.00    -0.206 F 
ATOM     77  C   UNL     1       6.125  -1.241   6.894  1.00  0.00     0.040 A 
ATOM     78  C   UNL     1       3.957  -1.901   7.704  1.00  0.00     0.040 A 
ATOM     79  F   UNL     1       2.897  -3.798   6.816  1.00  0.00    -0.206 F 
ATOM     80  C   UNL     1       5.051  -1.039   7.756  1.00  0.00     0.006 A 
ENDBRANCH  52  73
BRANCH  64  81
ATOM     81  C   UNL     1       9.022  -8.873   5.886  1.00  0.00     0.057 A 
ATOM     82  C   UNL     1       8.638  -9.386   7.133  1.00  0.00     0.134 A 
ATOM     83  C   UNL     1      10.383  -8.921   5.561  1.00  0.00     0.134 A 
ATOM     84  F   UNL     1       7.350  -9.365   7.509  1.00  0.00    -0.206 F 
ATOM     85  C   UNL     1       9.573  -9.905   8.030  1.00  0.00     0.040 A 
ATOM     86  C   UNL     1      11.325  -9.459   6.441  1.00  0.00     0.040 A 
ATOM     87  F   UNL     1      10.819  -8.457   4.380  1.00  0.00    -0.206 F 
ATOM     88  C   UNL     1      10.921  -9.947   7.682  1.00  0.00     0.006 A 
ENDBRANCH  64  81
ENDBRANCH  38  39
ENDBRANCH  31  33
ENDBRANCH  30  31
ENDBRANCH  29  30
ENDBRANCH  28  29
ENDBRANCH  27  28
ENDBRANCH  26  27
ENDBRANCH   1  26
TORSDOF 20
