REMARK SMILES [NH3+][C@]1(C(=O)OCCOCCOCCOC(=O)c2ccc(-c3c4nc(c(-c5c(F)cccc5F)c5ccc([nH]5)c(-c5c(F)cccc5F)c5nc(c(-c6c(F)cccc6F)c6ccc3[nH]6)C=C5)C=C4)cc2)CC[C@@H]([NH+]2CCC(C(F)(F)F)CC2)C1
REMARK SMILES IDX 9 1 8 2 7 3 6 4 5 5 3 6 4 7 2 8 71 9 84 10 72 11 73 12 1 13
REMARK SMILES IDX 74 17 75 18 83 19 76 21 82 22 77 23 78 24 79 25 80 26 81 27
REMARK SMILES IDX 10 28 11 29 12 30 13 31 14 32 15 33 16 34 17 35 18 36 70 37
REMARK SMILES IDX 19 38 69 39 20 40 21 41 22 42 63 43 23 44 68 45 62 46 64 47
REMARK SMILES IDX 24 48 67 49 61 50 60 51 25 53 51 54 34 55 50 56 35 57 38 58
REMARK SMILES IDX 49 59 65 60 36 61 37 62 48 64 66 65 39 66 26 67 27 68 32 69
REMARK SMILES IDX 28 70 29 71 31 72 33 73 30 74 52 75 53 76 58 77 54 78 55 79
REMARK SMILES IDX 57 80 59 81 56 82 40 83 41 84 46 85 42 86 43 87 45 88 47 89
REMARK SMILES IDX 44 90
REMARK H PARENT 1 14 1 15 1 16 74 20 64 52 38 63
REMARK Flexibility Score: inf
ROOT
ATOM      1  C   UNL     1      -0.164  -0.987   1.859  1.00  0.00     0.188 C 
ENDROOT
BRANCH   1   2
ATOM      2  O   UNL     1       0.851  -1.947   2.120  1.00  0.00    -0.376 OA
BRANCH   2   3
ATOM      3  C   UNL     1       2.197  -1.530   2.272  1.00  0.00     0.202 C 
BRANCH   3   4
ATOM      4  C   UNL     1       2.917  -1.029   1.016  1.00  0.00     0.261 C 
BRANCH   4   5
ATOM      5  O   UNL     1       2.270   0.053   0.319  1.00  0.00    -0.459 OA
BRANCH   5   6
ATOM      6  C   UNL     1       1.658  -0.249  -0.857  1.00  0.00     0.368 C 
ATOM      7  O   UNL     1       1.585  -1.380  -1.329  1.00  0.00    -0.245 OA
BRANCH   6   8
ATOM      8  C   UNL     1       1.062   0.989  -1.591  1.00  0.00     0.198 C 
ATOM      9  C   UNL     1      -0.472   0.999  -1.511  1.00  0.00     0.087 C 
ATOM     10  C   UNL     1       1.422   2.382  -1.041  1.00  0.00     0.145 C 
ATOM     11  C   UNL     1      -0.863   2.403  -1.962  1.00  0.00     0.072 C 
ATOM     12  C   UNL     1       0.242   3.327  -1.406  1.00  0.00     0.191 C 
BRANCH   8  13
ATOM     13  N   UNL     1       1.451   0.896  -3.025  1.00  0.00    -0.343 N 
ATOM     14  H   UNL     1       1.074   1.696  -3.533  1.00  0.00     0.345 HD
ATOM     15  H   UNL     1       1.078   0.034  -3.423  1.00  0.00     0.345 HD
ATOM     16  H   UNL     1       2.468   0.894  -3.102  1.00  0.00     0.345 HD
ENDBRANCH   8  13
BRANCH  12  17
ATOM     17  N   UNL     1      -0.220   4.264  -0.350  1.00  0.00    -0.332 N 
ATOM     18  C   UNL     1      -0.876   3.631   0.795  1.00  0.00     0.263 C 
ATOM     19  C   UNL     1       0.850   5.179   0.081  1.00  0.00     0.263 C 
ATOM     20  H   UNL     1      -0.951   4.813  -0.802  1.00  0.00     0.348 HD
ATOM     21  C   UNL     1      -1.451   4.655   1.770  1.00  0.00     0.074 C 
ATOM     22  C   UNL     1       0.354   6.224   1.089  1.00  0.00     0.074 C 
ATOM     23  C   UNL     1      -0.338   5.565   2.286  1.00  0.00     0.106 C 
BRANCH  23  24
ATOM     24  C   UNL     1      -0.873   6.587   3.269  1.00  0.00     0.392 C 
ATOM     25  F   UNL     1      -1.442   5.979   4.334  1.00  0.00    -0.171 F 
ATOM     26  F   UNL     1       0.127   7.364   3.742  1.00  0.00    -0.171 F 
ATOM     27  F   UNL     1      -1.796   7.396   2.711  1.00  0.00    -0.171 F 
ENDBRANCH  23  24
ENDBRANCH  12  17
ENDBRANCH   6   8
ENDBRANCH   5   6
ENDBRANCH   4   5
ENDBRANCH   3   4
ENDBRANCH   2   3
ENDBRANCH   1   2
BRANCH   1  28
ATOM     28  C   UNL     1       0.045   0.489   2.225  1.00  0.00     0.188 C 
BRANCH  28  29
ATOM     29  O   UNL     1       0.834   0.697   3.382  1.00  0.00    -0.376 OA
BRANCH  29  30
ATOM     30  C   UNL     1       0.223   1.437   4.426  1.00  0.00     0.202 C 
BRANCH  30  31
ATOM     31  C   UNL     1      -0.753   0.587   5.245  1.00  0.00     0.261 C 
BRANCH  31  32
ATOM     32  O   UNL     1      -1.822  -0.013   4.485  1.00  0.00    -0.460 OA
BRANCH  32  33
ATOM     33  C   UNL     1      -2.735   0.828   3.958  1.00  0.00     0.338 C 
ATOM     34  O   UNL     1      -2.750   2.049   4.066  1.00  0.00    -0.246 OA
BRANCH  33  35
ATOM     35  C   UNL     1      -3.617   0.076   3.041  1.00  0.00     0.060 A 
ATOM     36  C   UNL     1      -3.783   0.548   1.733  1.00  0.00     0.016 A 
ATOM     37  C   UNL     1      -4.305  -1.062   3.468  1.00  0.00     0.016 A 
ATOM     38  C   UNL     1      -4.676  -0.083   0.866  1.00  0.00     0.010 A 
ATOM     39  C   UNL     1      -5.210  -1.688   2.601  1.00  0.00     0.010 A 
ATOM     40  C   UNL     1      -5.431  -1.179   1.309  1.00  0.00    -0.014 A 
BRANCH  40  41
ATOM     41  C   UNL     1      -6.562  -1.671   0.478  1.00  0.00     0.031 A 
ATOM     42  C   UNL     1      -7.964  -1.245   0.829  1.00  0.00     0.074 A 
ATOM     43  C   UNL     1      -6.353  -2.443  -0.603  1.00  0.00     0.049 A 
ATOM     44  N   UNL     1      -9.096  -1.537   0.240  1.00  0.00    -0.248 NA
ATOM     45  C   UNL     1      -8.107  -0.370   2.003  1.00  0.00     0.031 C 
ATOM     46  C   UNL     1      -5.050  -2.903  -1.077  1.00  0.00     0.029 A 
ATOM     47  N   UNL     1      -7.245  -2.975  -1.503  1.00  0.00    -0.354 N 
ATOM     48  C   UNL     1     -10.083  -0.884   0.970  1.00  0.00     0.074 A 
ATOM     49  C   UNL     1      -9.420  -0.213   2.067  1.00  0.00     0.031 C 
ATOM     50  C   UNL     1      -5.226  -3.649  -2.181  1.00  0.00     0.029 A 
ATOM     51  C   UNL     1      -6.655  -3.742  -2.478  1.00  0.00     0.049 A 
ATOM     52  H   UNL     1      -8.216  -2.821  -1.453  1.00  0.00     0.167 HD
ATOM     53  C   UNL     1     -11.418  -0.834   0.742  1.00  0.00     0.037 A 
ATOM     54  C   UNL     1      -7.206  -4.447  -3.486  1.00  0.00     0.037 A 
ATOM     55  C   UNL     1     -12.085  -1.503  -0.345  1.00  0.00     0.049 A 
ATOM     56  C   UNL     1      -8.700  -4.430  -3.679  1.00  0.00     0.074 A 
ATOM     57  C   UNL     1     -13.432  -1.501  -0.662  1.00  0.00     0.029 A 
ATOM     58  N   UNL     1     -11.455  -2.299  -1.290  1.00  0.00    -0.354 N 
ATOM     59  N   UNL     1      -9.619  -3.787  -2.999  1.00  0.00    -0.248 NA
ATOM     60  C   UNL     1      -9.233  -5.232  -4.791  1.00  0.00     0.031 C 
ATOM     61  C   UNL     1     -13.625  -2.338  -1.766  1.00  0.00     0.029 A 
ATOM     62  C   UNL     1     -12.390  -2.812  -2.175  1.00  0.00     0.049 A 
ATOM     63  H   UNL     1     -10.487  -2.474  -1.326  1.00  0.00     0.167 HD
ATOM     64  C   UNL     1     -10.829  -4.081  -3.619  1.00  0.00     0.074 A 
ATOM     65  C   UNL     1     -10.525  -4.944  -4.740  1.00  0.00     0.031 C 
ATOM     66  C   UNL     1     -12.080  -3.670  -3.291  1.00  0.00     0.037 A 
BRANCH  53  67
ATOM     67  C   UNL     1     -12.253  -0.045   1.710  1.00  0.00     0.057 A 
ATOM     68  C   UNL     1     -12.203   1.355   1.763  1.00  0.00     0.134 A 
ATOM     69  C   UNL     1     -13.139  -0.692   2.581  1.00  0.00     0.134 A 
ATOM     70  F   UNL     1     -11.365   2.036   0.967  1.00  0.00    -0.206 F 
ATOM     71  C   UNL     1     -12.985   2.079   2.665  1.00  0.00     0.040 A 
ATOM     72  C   UNL     1     -13.947   0.023   3.466  1.00  0.00     0.040 A 
ATOM     73  F   UNL     1     -13.241  -2.030   2.579  1.00  0.00    -0.206 F 
ATOM     74  C   UNL     1     -13.866   1.413   3.515  1.00  0.00     0.006 A 
ENDBRANCH  53  67
BRANCH  54  75
ATOM     75  C   UNL     1      -6.343  -5.240  -4.400  1.00  0.00     0.057 A 
ATOM     76  C   UNL     1      -6.198  -4.892  -5.749  1.00  0.00     0.134 A 
ATOM     77  C   UNL     1      -5.675  -6.387  -3.956  1.00  0.00     0.134 A 
ATOM     78  F   UNL     1      -6.836  -3.821  -6.242  1.00  0.00    -0.206 F 
ATOM     79  C   UNL     1      -5.438  -5.668  -6.627  1.00  0.00     0.040 A 
ATOM     80  C   UNL     1      -4.889  -7.156  -4.816  1.00  0.00     0.040 A 
ATOM     81  F   UNL     1      -5.776  -6.777  -2.677  1.00  0.00    -0.206 F 
ATOM     82  C   UNL     1      -4.776  -6.801  -6.159  1.00  0.00     0.006 A 
ENDBRANCH  54  75
BRANCH  66  83
ATOM     83  C   UNL     1     -13.207  -4.113  -4.182  1.00  0.00     0.057 A 
ATOM     84  C   UNL     1     -13.637  -5.445  -4.235  1.00  0.00     0.134 A 
ATOM     85  C   UNL     1     -13.881  -3.188  -4.992  1.00  0.00     0.134 A 
ATOM     86  F   UNL     1     -13.031  -6.386  -3.494  1.00  0.00    -0.206 F 
ATOM     87  C   UNL     1     -14.667  -5.848  -5.088  1.00  0.00     0.040 A 
ATOM     88  C   UNL     1     -14.933  -3.572  -5.824  1.00  0.00     0.040 A 
ATOM     89  F   UNL     1     -13.532  -1.892  -4.982  1.00  0.00    -0.206 F 
ATOM     90  C   UNL     1     -15.322  -4.909  -5.883  1.00  0.00     0.006 A 
ENDBRANCH  66  83
ENDBRANCH  40  41
ENDBRANCH  33  35
ENDBRANCH  32  33
ENDBRANCH  31  32
ENDBRANCH  30  31
ENDBRANCH  29  30
ENDBRANCH  28  29
ENDBRANCH   1  28
TORSDOF 20
