REMARK SMILES CC[N@@H+](C)CCn1c(SCC(=O)OCCOCCOCCOC(=O)c2ccc(-c3c4nc(c(-c5c(F)cccc5F)c5ccc([nH]5)c(-c5c(F)cccc5F)c5nc(c(-c6c(F)cccc6F)c6ccc3[nH]6)C=C5)C=C4)cc2)nc2cnccc21
REMARK SMILES IDX 15 1 14 2 13 3 11 4 12 5 10 6 9 7 8 8 7 9 85 10 79 11 80 12
REMARK SMILES IDX 84 13 81 14 83 15 82 16 6 17 5 18 3 19 4 20 2 22 1 23 16 24
REMARK SMILES IDX 17 25 18 26 19 27 20 28 21 29 22 30 23 31 24 32 25 33 26 34
REMARK SMILES IDX 78 35 27 36 77 37 28 38 29 39 30 40 71 41 31 42 76 43 70 44
REMARK SMILES IDX 72 45 32 46 75 47 69 48 68 49 33 51 59 52 42 53 58 54 43 55
REMARK SMILES IDX 46 56 57 57 73 58 44 59 45 60 56 62 74 63 47 64 34 65 35 66
REMARK SMILES IDX 40 67 36 68 37 69 39 70 41 71 38 72 60 73 61 74 66 75 62 76
REMARK SMILES IDX 63 77 65 78 67 79 64 80 48 81 49 82 54 83 50 84 51 85 53 86
REMARK SMILES IDX 55 87 52 88
REMARK H PARENT 3 21 72 50 46 61
REMARK Flexibility Score: inf
ROOT
ATOM      1  C   UNL     1       6.611  -5.766  -1.725  1.00  0.00     0.202 C 
ENDROOT
BRANCH   1   2
ATOM      2  C   UNL     1       5.521  -6.683  -2.299  1.00  0.00     0.261 C 
BRANCH   2   3
ATOM      3  O   UNL     1       4.508  -5.951  -3.049  1.00  0.00    -0.463 OA
BRANCH   3   4
ATOM      4  C   UNL     1       3.220  -6.333  -2.853  1.00  0.00     0.316 C 
ATOM      5  O   UNL     1       2.914  -7.302  -2.159  1.00  0.00    -0.251 OA
BRANCH   4   6
ATOM      6  C   UNL     1       2.126  -5.426  -3.414  1.00  0.00     0.200 C 
BRANCH   6   7
ATOM      7  S   UNL     1       2.557  -4.128  -4.572  1.00  0.00    -0.076 SA
BRANCH   7   8
ATOM      8  C   UNL     1       1.875  -2.568  -4.122  1.00  0.00     0.169 A 
ATOM      9  N   UNL     1       1.911  -1.942  -2.897  1.00  0.00    -0.313 N 
ATOM     10  C   UNL     1       2.043  -0.582  -3.113  1.00  0.00     0.072 A 
ATOM     11  N   UNL     1       1.594  -1.671  -5.053  1.00  0.00    -0.221 NA
ATOM     12  C   UNL     1       1.719  -0.432  -4.452  1.00  0.00     0.108 A 
ATOM     13  C   UNL     1       2.369   0.502  -2.289  1.00  0.00     0.049 A 
ATOM     14  C   UNL     1       1.623   0.867  -4.961  1.00  0.00     0.141 A 
ATOM     15  C   UNL     1       2.277   1.745  -2.890  1.00  0.00     0.113 A 
ATOM     16  N   UNL     1       1.896   1.946  -4.170  1.00  0.00    -0.262 NA
BRANCH   9  17
ATOM     17  C   UNL     1       1.850  -2.478  -1.574  1.00  0.00     0.186 C 
BRANCH  17  18
ATOM     18  C   UNL     1       0.516  -3.041  -1.106  1.00  0.00     0.284 C 
BRANCH  18  19
ATOM     19  N   UNL     1      -0.791  -2.430  -0.923  1.00  0.00    -0.336 N 
ATOM     20  C   UNL     1      -1.834  -3.379  -1.321  1.00  0.00     0.332 C 
ATOM     21  H   UNL     1      -0.801  -2.241   0.079  1.00  0.00     0.347 HD
BRANCH  19  22
ATOM     22  C   UNL     1      -1.050  -1.077  -1.369  1.00  0.00     0.258 C 
ATOM     23  C   UNL     1      -0.520  -0.044  -0.383  1.00  0.00     0.071 C 
ENDBRANCH  19  22
ENDBRANCH  18  19
ENDBRANCH  17  18
ENDBRANCH   9  17
ENDBRANCH   7   8
ENDBRANCH   6   7
ENDBRANCH   4   6
ENDBRANCH   3   4
ENDBRANCH   2   3
ENDBRANCH   1   2
BRANCH   1  24
ATOM     24  O   UNL     1       6.182  -4.915  -0.669  1.00  0.00    -0.376 OA
BRANCH  24  25
ATOM     25  C   UNL     1       5.054  -4.114  -0.953  1.00  0.00     0.188 C 
BRANCH  25  26
ATOM     26  C   UNL     1       5.097  -3.174  -2.160  1.00  0.00     0.188 C 
BRANCH  26  27
ATOM     27  O   UNL     1       6.364  -2.943  -2.711  1.00  0.00    -0.376 OA
BRANCH  27  28
ATOM     28  C   UNL     1       7.094  -1.809  -2.284  1.00  0.00     0.202 C 
BRANCH  28  29
ATOM     29  C   UNL     1       6.522  -0.837  -1.232  1.00  0.00     0.261 C 
BRANCH  29  30
ATOM     30  O   UNL     1       6.033  -1.474  -0.027  1.00  0.00    -0.460 OA
BRANCH  30  31
ATOM     31  C   UNL     1       5.187  -0.680   0.712  1.00  0.00     0.338 C 
ATOM     32  O   UNL     1       5.030   0.498   0.540  1.00  0.00    -0.246 OA
BRANCH  31  33
ATOM     33  C   UNL     1       4.214  -1.514   1.515  1.00  0.00     0.060 A 
ATOM     34  C   UNL     1       4.446  -2.800   2.021  1.00  0.00     0.016 A 
ATOM     35  C   UNL     1       2.913  -1.028   1.560  1.00  0.00     0.016 A 
ATOM     36  C   UNL     1       3.363  -3.688   2.282  1.00  0.00     0.010 A 
ATOM     37  C   UNL     1       1.857  -1.895   1.858  1.00  0.00     0.010 A 
ATOM     38  C   UNL     1       2.043  -3.275   2.095  1.00  0.00    -0.014 A 
BRANCH  38  39
ATOM     39  C   UNL     1       0.817  -4.150   2.184  1.00  0.00     0.031 A 
ATOM     40  C   UNL     1      -0.245  -3.550   3.032  1.00  0.00     0.074 A 
ATOM     41  C   UNL     1       0.410  -5.245   1.469  1.00  0.00     0.049 A 
ATOM     42  N   UNL     1      -0.233  -3.545   4.323  1.00  0.00    -0.248 NA
ATOM     43  C   UNL     1      -1.311  -2.714   2.455  1.00  0.00     0.031 C 
ATOM     44  C   UNL     1       1.056  -5.894   0.322  1.00  0.00     0.029 A 
ATOM     45  N   UNL     1      -0.777  -5.960   1.556  1.00  0.00    -0.354 N 
ATOM     46  C   UNL     1      -1.464  -3.023   4.675  1.00  0.00     0.074 A 
ATOM     47  C   UNL     1      -1.879  -2.219   3.560  1.00  0.00     0.031 C 
ATOM     48  C   UNL     1       0.195  -6.760  -0.283  1.00  0.00     0.029 A 
ATOM     49  C   UNL     1      -1.005  -6.894   0.529  1.00  0.00     0.049 A 
ATOM     50  H   UNL     1      -1.419  -5.823   2.290  1.00  0.00     0.167 HD
ATOM     51  C   UNL     1      -2.229  -3.632   5.622  1.00  0.00     0.037 A 
ATOM     52  C   UNL     1      -2.031  -7.791   0.407  1.00  0.00     0.037 A 
ATOM     53  C   UNL     1      -1.527  -4.767   6.198  1.00  0.00     0.049 A 
ATOM     54  C   UNL     1      -2.464  -8.086   1.787  1.00  0.00     0.074 A 
ATOM     55  C   UNL     1      -0.279  -4.980   6.752  1.00  0.00     0.029 A 
ATOM     56  N   UNL     1      -2.002  -6.008   5.848  1.00  0.00    -0.354 N 
ATOM     57  N   UNL     1      -1.747  -8.775   2.626  1.00  0.00    -0.248 NA
ATOM     58  C   UNL     1      -3.617  -7.409   2.357  1.00  0.00     0.031 C 
ATOM     59  C   UNL     1       0.108  -6.290   6.341  1.00  0.00     0.029 A 
ATOM     60  C   UNL     1      -0.949  -6.862   5.637  1.00  0.00     0.049 A 
ATOM     61  H   UNL     1      -2.953  -6.248   5.761  1.00  0.00     0.167 HD
ATOM     62  C   UNL     1      -2.018  -8.183   3.837  1.00  0.00     0.074 A 
ATOM     63  C   UNL     1      -3.309  -7.532   3.650  1.00  0.00     0.031 C 
ATOM     64  C   UNL     1      -1.003  -7.984   4.725  1.00  0.00     0.037 A 
BRANCH  51  65
ATOM     65  C   UNL     1      -3.728  -3.507   5.747  1.00  0.00     0.057 A 
ATOM     66  C   UNL     1      -4.629  -3.257   4.693  1.00  0.00     0.134 A 
ATOM     67  C   UNL     1      -4.320  -3.888   6.963  1.00  0.00     0.134 A 
ATOM     68  F   UNL     1      -4.227  -3.010   3.441  1.00  0.00    -0.206 F 
ATOM     69  C   UNL     1      -6.016  -3.351   4.846  1.00  0.00     0.040 A 
ATOM     70  C   UNL     1      -5.702  -4.047   7.109  1.00  0.00     0.040 A 
ATOM     71  F   UNL     1      -3.562  -4.187   8.029  1.00  0.00    -0.206 F 
ATOM     72  C   UNL     1      -6.556  -3.773   6.049  1.00  0.00     0.006 A 
ENDBRANCH  51  65
BRANCH  52  73
ATOM     73  C   UNL     1      -2.678  -8.569  -0.692  1.00  0.00     0.057 A 
ATOM     74  C   UNL     1      -2.965  -7.970  -1.926  1.00  0.00     0.134 A 
ATOM     75  C   UNL     1      -3.348  -9.790  -0.445  1.00  0.00     0.134 A 
ATOM     76  F   UNL     1      -2.424  -6.785  -2.244  1.00  0.00    -0.206 F 
ATOM     77  C   UNL     1      -3.898  -8.517  -2.828  1.00  0.00     0.040 A 
ATOM     78  C   UNL     1      -4.282 -10.344  -1.335  1.00  0.00     0.040 A 
ATOM     79  F   UNL     1      -3.175 -10.448   0.710  1.00  0.00    -0.206 F 
ATOM     80  C   UNL     1      -4.576  -9.695  -2.525  1.00  0.00     0.006 A 
ENDBRANCH  52  73
BRANCH  64  81
ATOM     81  C   UNL     1       0.228  -8.851   4.584  1.00  0.00     0.057 A 
ATOM     82  C   UNL     1       0.629  -9.614   5.687  1.00  0.00     0.134 A 
ATOM     83  C   UNL     1       1.060  -8.916   3.454  1.00  0.00     0.134 A 
ATOM     84  F   UNL     1      -0.089  -9.590   6.821  1.00  0.00    -0.206 F 
ATOM     85  C   UNL     1       1.786 -10.399   5.667  1.00  0.00     0.040 A 
ATOM     86  C   UNL     1       2.199  -9.727   3.406  1.00  0.00     0.040 A 
ATOM     87  F   UNL     1       0.826  -8.174   2.369  1.00  0.00    -0.206 F 
ATOM     88  C   UNL     1       2.570 -10.467   4.520  1.00  0.00     0.006 A 
ENDBRANCH  64  81
ENDBRANCH  38  39
ENDBRANCH  31  33
ENDBRANCH  30  31
ENDBRANCH  29  30
ENDBRANCH  28  29
ENDBRANCH  27  28
ENDBRANCH  26  27
ENDBRANCH  25  26
ENDBRANCH  24  25
ENDBRANCH   1  24
TORSDOF 23
