REMARK SMILES NC(=O)[C@@H]1CCCCN1c1cncc(C(=O)OCCOCCOCCOC(=O)c2ccc(-c3c4nc(c(-c5c(F)cccc5F)c5ccc([nH]5)c(-c5c(F)cccc5F)c5nc(c(-c6c(F)cccc6F)c6ccc3[nH]6)C=C5)C=C4)cc2)n1
REMARK SMILES IDX 21 1 20 2 19 3 18 4 17 5 15 6 16 7 14 8 10 9 11 10 83 11
REMARK SMILES IDX 12 12 13 13 9 14 4 15 5 16 6 17 8 18 7 19 2 20 1 21 3 24
REMARK SMILES IDX 22 25 23 26 24 27 25 28 26 29 27 30 28 31 29 32 30 33 82 34
REMARK SMILES IDX 31 35 81 36 32 37 33 38 34 39 75 40 35 41 80 42 74 43 76 44
REMARK SMILES IDX 36 45 79 46 73 47 72 48 37 50 63 51 46 52 62 53 47 54 50 55
REMARK SMILES IDX 61 56 77 57 48 58 49 59 60 61 78 62 51 63 38 64 39 65 44 66
REMARK SMILES IDX 40 67 41 68 43 69 45 70 42 71 64 72 65 73 70 74 66 75 67 76
REMARK SMILES IDX 69 77 71 78 68 79 52 80 53 81 58 82 54 83 55 84 57 85 59 86
REMARK SMILES IDX 56 87
REMARK H PARENT 1 22 1 23 76 49 50 60
REMARK Flexibility Score: inf
ROOT
ATOM      1  C   UNL     1       0.849   4.742   4.681  1.00  0.00     0.188 C 
ENDROOT
BRANCH   1   2
ATOM      2  O   UNL     1       1.121   3.950   5.833  1.00  0.00    -0.376 OA
BRANCH   2   3
ATOM      3  C   UNL     1       1.820   2.719   5.703  1.00  0.00     0.202 C 
BRANCH   3   4
ATOM      4  C   UNL     1       1.241   1.628   4.792  1.00  0.00     0.261 C 
BRANCH   4   5
ATOM      5  O   UNL     1       0.966   2.061   3.450  1.00  0.00    -0.458 OA
BRANCH   5   6
ATOM      6  C   UNL     1      -0.344   2.046   3.082  1.00  0.00     0.358 C 
ATOM      7  O   UNL     1      -1.282   1.641   3.751  1.00  0.00    -0.244 OA
BRANCH   6   8
ATOM      8  C   UNL     1      -0.529   2.808   1.829  1.00  0.00     0.169 A 
ATOM      9  C   UNL     1       0.101   3.352  -0.323  1.00  0.00     0.148 A 
ATOM     10  C   UNL     1      -0.879   4.357  -0.289  1.00  0.00     0.157 A 
ATOM     11  N   UNL     1       0.314   2.599   0.781  1.00  0.00    -0.220 NA
ATOM     12  N   UNL     1      -1.694   4.608   0.770  1.00  0.00    -0.258 NA
ATOM     13  C   UNL     1      -1.518   3.778   1.818  1.00  0.00     0.147 A 
BRANCH   9  14
ATOM     14  N   UNL     1       0.829   3.084  -1.458  1.00  0.00    -0.343 N 
ATOM     15  C   UNL     1       1.139   1.705  -1.891  1.00  0.00     0.172 C 
ATOM     16  C   UNL     1       2.661   1.540  -1.930  1.00  0.00     0.035 C 
ATOM     17  C   UNL     1       3.277   2.588  -2.861  1.00  0.00     0.004 C 
ATOM     18  C   UNL     1       1.340   4.147  -2.317  1.00  0.00     0.119 C 
ATOM     19  C   UNL     1       2.860   4.004  -2.454  1.00  0.00     0.022 C 
BRANCH  15  20
ATOM     20  C   UNL     1       0.379   0.571  -1.165  1.00  0.00     0.240 C 
ATOM     21  N   UNL     1       1.020  -0.082  -0.152  1.00  0.00    -0.368 N 
ATOM     22  H   UNL     1       0.564  -0.809   0.331  1.00  0.00     0.159 HD
ATOM     23  H   UNL     1       1.938   0.174   0.097  1.00  0.00     0.159 HD
ATOM     24  O   UNL     1      -0.772   0.250  -1.460  1.00  0.00    -0.273 OA
ENDBRANCH  15  20
ENDBRANCH   9  14
ENDBRANCH   6   8
ENDBRANCH   5   6
ENDBRANCH   4   5
ENDBRANCH   3   4
ENDBRANCH   2   3
ENDBRANCH   1   2
BRANCH   1  25
ATOM     25  C   UNL     1       1.933   4.944   3.600  1.00  0.00     0.188 C 
BRANCH  25  26
ATOM     26  O   UNL     1       3.179   4.387   3.940  1.00  0.00    -0.376 OA
BRANCH  26  27
ATOM     27  C   UNL     1       4.219   5.208   4.432  1.00  0.00     0.202 C 
BRANCH  27  28
ATOM     28  C   UNL     1       3.993   6.400   5.382  1.00  0.00     0.261 C 
BRANCH  28  29
ATOM     29  O   UNL     1       2.701   7.007   5.405  1.00  0.00    -0.460 OA
BRANCH  29  30
ATOM     30  C   UNL     1       2.499   8.058   4.584  1.00  0.00     0.338 C 
ATOM     31  O   UNL     1       3.280   8.509   3.750  1.00  0.00    -0.246 OA
BRANCH  30  32
ATOM     32  C   UNL     1       1.107   8.510   4.746  1.00  0.00     0.060 A 
ATOM     33  C   UNL     1       0.224   8.390   3.668  1.00  0.00     0.016 A 
ATOM     34  C   UNL     1       0.680   9.065   5.954  1.00  0.00     0.016 A 
ATOM     35  C   UNL     1      -1.088   8.853   3.786  1.00  0.00     0.010 A 
ATOM     36  C   UNL     1      -0.628   9.543   6.069  1.00  0.00     0.010 A 
ATOM     37  C   UNL     1      -1.510   9.465   4.975  1.00  0.00    -0.014 A 
BRANCH  37  38
ATOM     38  C   UNL     1      -2.817  10.163   5.030  1.00  0.00     0.031 A 
ATOM     39  C   UNL     1      -2.851  11.652   4.823  1.00  0.00     0.074 A 
ATOM     40  C   UNL     1      -3.958   9.490   5.265  1.00  0.00     0.049 A 
ATOM     41  N   UNL     1      -3.864  12.478   4.885  1.00  0.00    -0.248 NA
ATOM     42  C   UNL     1      -1.566  12.296   4.507  1.00  0.00     0.031 C 
ATOM     43  C   UNL     1      -4.063   8.045   5.454  1.00  0.00     0.029 A 
ATOM     44  N   UNL     1      -5.247   9.944   5.397  1.00  0.00    -0.354 N 
ATOM     45  C   UNL     1      -3.339  13.737   4.624  1.00  0.00     0.074 A 
ATOM     46  C   UNL     1      -1.915  13.571   4.428  1.00  0.00     0.031 C 
ATOM     47  C   UNL     1      -5.349   7.731   5.697  1.00  0.00     0.029 A 
ATOM     48  C   UNL     1      -6.148   8.956   5.708  1.00  0.00     0.049 A 
ATOM     49  H   UNL     1      -5.500  10.888   5.280  1.00  0.00     0.167 HD
ATOM     50  C   UNL     1      -3.986  14.924   4.547  1.00  0.00     0.037 A 
ATOM     51  C   UNL     1      -7.462   9.036   5.994  1.00  0.00     0.037 A 
ATOM     52  C   UNL     1      -5.401  15.091   4.743  1.00  0.00     0.049 A 
ATOM     53  C   UNL     1      -8.148  10.378   5.966  1.00  0.00     0.074 A 
ATOM     54  C   UNL     1      -6.152  16.250   4.658  1.00  0.00     0.029 A 
ATOM     55  N   UNL     1      -6.277  14.069   5.074  1.00  0.00    -0.354 N 
ATOM     56  N   UNL     1      -7.651  11.557   5.681  1.00  0.00    -0.248 NA
ATOM     57  C   UNL     1      -9.581  10.398   6.299  1.00  0.00     0.031 C 
ATOM     58  C   UNL     1      -7.476  15.938   4.987  1.00  0.00     0.029 A 
ATOM     59  C   UNL     1      -7.557  14.575   5.225  1.00  0.00     0.049 A 
ATOM     60  H   UNL     1      -6.027  13.123   5.186  1.00  0.00     0.167 HD
ATOM     61  C   UNL     1      -8.711  12.451   5.769  1.00  0.00     0.074 A 
ATOM     62  C   UNL     1      -9.882  11.678   6.126  1.00  0.00     0.031 C 
ATOM     63  C   UNL     1      -8.716  13.792   5.571  1.00  0.00     0.037 A 
BRANCH  50  64
ATOM     64  C   UNL     1      -3.159  16.143   4.264  1.00  0.00     0.057 A 
ATOM     65  C   UNL     1      -2.609  16.388   2.999  1.00  0.00     0.134 A 
ATOM     66  C   UNL     1      -2.938  17.101   5.262  1.00  0.00     0.134 A 
ATOM     67  F   UNL     1      -2.771  15.502   2.004  1.00  0.00    -0.206 F 
ATOM     68  C   UNL     1      -1.852  17.532   2.742  1.00  0.00     0.040 A 
ATOM     69  C   UNL     1      -2.204  18.260   5.010  1.00  0.00     0.040 A 
ATOM     70  F   UNL     1      -3.440  16.929   6.494  1.00  0.00    -0.206 F 
ATOM     71  C   UNL     1      -1.653  18.476   3.748  1.00  0.00     0.006 A 
ENDBRANCH  50  64
BRANCH  51  72
ATOM     72  C   UNL     1      -8.223   7.812   6.351  1.00  0.00     0.057 A 
ATOM     73  C   UNL     1      -9.206   7.293   5.501  1.00  0.00     0.134 A 
ATOM     74  C   UNL     1      -8.007   7.152   7.567  1.00  0.00     0.134 A 
ATOM     75  F   UNL     1      -9.478   7.898   4.336  1.00  0.00    -0.206 F 
ATOM     76  C   UNL     1      -9.959   6.171   5.854  1.00  0.00     0.040 A 
ATOM     77  C   UNL     1      -8.735   6.015   7.921  1.00  0.00     0.040 A 
ATOM     78  F   UNL     1      -7.082   7.602   8.428  1.00  0.00    -0.206 F 
ATOM     79  C   UNL     1      -9.720   5.526   7.066  1.00  0.00     0.006 A 
ENDBRANCH  51  72
BRANCH  63  80
ATOM     80  C   UNL     1     -10.031  14.506   5.696  1.00  0.00     0.057 A 
ATOM     81  C   UNL     1     -10.643  14.722   6.936  1.00  0.00     0.134 A 
ATOM     82  C   UNL     1     -10.669  15.025   4.561  1.00  0.00     0.134 A 
ATOM     83  F   UNL     1     -10.090  14.241   8.060  1.00  0.00    -0.206 F 
ATOM     84  C   UNL     1     -11.854  15.410   7.042  1.00  0.00     0.040 A 
ATOM     85  C   UNL     1     -11.865  15.738   4.657  1.00  0.00     0.040 A 
ATOM     86  F   UNL     1     -10.130  14.864   3.343  1.00  0.00    -0.206 F 
ATOM     87  C   UNL     1     -12.464  15.927   5.901  1.00  0.00     0.006 A 
ENDBRANCH  63  80
ENDBRANCH  37  38
ENDBRANCH  30  32
ENDBRANCH  29  30
ENDBRANCH  28  29
ENDBRANCH  27  28
ENDBRANCH  26  27
ENDBRANCH  25  26
ENDBRANCH   1  25
TORSDOF 19
