REMARK SMILES O=C(OCCOCCOCCOC(=O)c1cccc(S(=O)(=O)Nc2cccc(I)c2)c1)c1ccc(-c2c3nc(c(-c4c(F)cccc4F)c4ccc([nH]4)c(-c4c(F)cccc4F)c4nc(c(-c5c(F)cccc5F)c5ccc2[nH]5)C=C4)C=C3)cc1
REMARK SMILES IDX 8 1 7 2 6 3 5 4 4 5 3 6 2 7 1 8 32 9 33 10 85 11 34 12 84 13
REMARK SMILES IDX 35 14 36 15 37 16 78 17 38 18 83 19 77 20 79 21 39 22 82 23
REMARK SMILES IDX 76 24 75 25 40 27 66 28 49 29 65 30 50 31 53 32 64 33 80 34
REMARK SMILES IDX 51 35 52 36 63 38 81 39 54 40 41 41 42 42 47 43 43 44 44 45
REMARK SMILES IDX 46 46 48 47 45 48 67 49 68 50 73 51 69 52 70 53 72 54 74 55
REMARK SMILES IDX 71 56 55 57 56 58 61 59 57 60 58 61 60 62 62 63 59 64 9 65
REMARK SMILES IDX 10 66 11 67 12 68 13 69 14 70 15 71 16 72 31 73 17 74 19 75
REMARK SMILES IDX 18 76 20 77 21 78 22 79 23 80 24 82 25 83 30 84 26 85 28 86
REMARK SMILES IDX 27 87 29 88
REMARK H PARENT 79 26 53 37 23 81
REMARK Flexibility Score: inf
ROOT
ATOM      1  C   UNL     1       1.932  -0.486   3.048  1.00  0.00     0.188 C 
ENDROOT
BRANCH   1   2
ATOM      2  C   UNL     1       2.535   0.323   1.905  1.00  0.00     0.188 C 
BRANCH   2   3
ATOM      3  O   UNL     1       3.765  -0.240   1.439  1.00  0.00    -0.376 OA
BRANCH   3   4
ATOM      4  C   UNL     1       4.751   0.740   1.104  1.00  0.00     0.202 C 
BRANCH   4   5
ATOM      5  C   UNL     1       4.510   1.459  -0.230  1.00  0.00     0.261 C 
BRANCH   5   6
ATOM      6  O   UNL     1       3.146   1.396  -0.678  1.00  0.00    -0.460 OA
BRANCH   6   7
ATOM      7  C   UNL     1       2.560   0.461  -1.466  1.00  0.00     0.338 C 
ATOM      8  O   UNL     1       1.375   0.596  -1.764  1.00  0.00    -0.246 OA
BRANCH   7   9
ATOM      9  C   UNL     1       3.284  -0.716  -2.031  1.00  0.00     0.060 A 
ATOM     10  C   UNL     1       4.311  -1.407  -1.390  1.00  0.00     0.016 A 
ATOM     11  C   UNL     1       2.817  -1.221  -3.256  1.00  0.00     0.016 A 
ATOM     12  C   UNL     1       4.923  -2.511  -1.976  1.00  0.00     0.010 A 
ATOM     13  C   UNL     1       3.389  -2.363  -3.828  1.00  0.00     0.010 A 
ATOM     14  C   UNL     1       4.465  -3.000  -3.197  1.00  0.00    -0.014 A 
BRANCH  14  15
ATOM     15  C   UNL     1       5.174  -4.133  -3.828  1.00  0.00     0.031 A 
ATOM     16  C   UNL     1       6.022  -3.875  -5.034  1.00  0.00     0.074 A 
ATOM     17  C   UNL     1       5.116  -5.363  -3.284  1.00  0.00     0.049 A 
ATOM     18  N   UNL     1       6.673  -4.726  -5.779  1.00  0.00    -0.248 NA
ATOM     19  C   UNL     1       6.176  -2.469  -5.444  1.00  0.00     0.031 C 
ATOM     20  C   UNL     1       4.407  -5.709  -2.053  1.00  0.00     0.029 A 
ATOM     21  N   UNL     1       5.658  -6.554  -3.697  1.00  0.00    -0.354 N 
ATOM     22  C   UNL     1       7.294  -3.966  -6.758  1.00  0.00     0.074 A 
ATOM     23  C   UNL     1       6.946  -2.584  -6.516  1.00  0.00     0.031 C 
ATOM     24  C   UNL     1       4.530  -7.027  -1.834  1.00  0.00     0.029 A 
ATOM     25  C   UNL     1       5.277  -7.623  -2.923  1.00  0.00     0.049 A 
ATOM     26  H   UNL     1       6.261  -6.634  -4.472  1.00  0.00     0.167 HD
ATOM     27  C   UNL     1       8.081  -4.395  -7.771  1.00  0.00     0.037 A 
ATOM     28  C   UNL     1       5.466  -8.943  -3.096  1.00  0.00     0.037 A 
ATOM     29  C   UNL     1       8.422  -5.773  -7.994  1.00  0.00     0.049 A 
ATOM     30  C   UNL     1       6.266  -9.392  -4.276  1.00  0.00     0.074 A 
ATOM     31  C   UNL     1       9.215  -6.316  -8.989  1.00  0.00     0.029 A 
ATOM     32  N   UNL     1       7.977  -6.830  -7.213  1.00  0.00    -0.354 N 
ATOM     33  N   UNL     1       6.851  -8.666  -5.195  1.00  0.00    -0.248 NA
ATOM     34  C   UNL     1       6.439 -10.841  -4.440  1.00  0.00     0.031 C 
ATOM     35  C   UNL     1       9.203  -7.708  -8.843  1.00  0.00     0.029 A 
ATOM     36  C   UNL     1       8.440  -8.027  -7.731  1.00  0.00     0.049 A 
ATOM     37  H   UNL     1       7.416  -6.741  -6.410  1.00  0.00     0.167 HD
ATOM     38  C   UNL     1       7.458  -9.568  -6.051  1.00  0.00     0.074 A 
ATOM     39  C   UNL     1       7.209 -10.891  -5.515  1.00  0.00     0.031 C 
ATOM     40  C   UNL     1       8.150  -9.326  -7.189  1.00  0.00     0.037 A 
BRANCH  27  41
ATOM     41  C   UNL     1       8.558  -3.366  -8.747  1.00  0.00     0.057 A 
ATOM     42  C   UNL     1       9.585  -2.465  -8.446  1.00  0.00     0.134 A 
ATOM     43  C   UNL     1       7.975  -3.288 -10.018  1.00  0.00     0.134 A 
ATOM     44  F   UNL     1      10.162  -2.471  -7.235  1.00  0.00    -0.206 F 
ATOM     45  C   UNL     1      10.010  -1.512  -9.374  1.00  0.00     0.040 A 
ATOM     46  C   UNL     1       8.404  -2.353 -10.960  1.00  0.00     0.040 A 
ATOM     47  F   UNL     1       6.978  -4.117 -10.361  1.00  0.00    -0.206 F 
ATOM     48  C   UNL     1       9.424  -1.460 -10.638  1.00  0.00     0.006 A 
ENDBRANCH  27  41
BRANCH  28  49
ATOM     49  C   UNL     1       4.828  -9.950  -2.210  1.00  0.00     0.057 A 
ATOM     50  C   UNL     1       5.580 -10.720  -1.316  1.00  0.00     0.134 A 
ATOM     51  C   UNL     1       3.462 -10.238  -2.325  1.00  0.00     0.134 A 
ATOM     52  F   UNL     1       6.894 -10.496  -1.173  1.00  0.00    -0.206 F 
ATOM     53  C   UNL     1       5.005 -11.769  -0.593  1.00  0.00     0.040 A 
ATOM     54  C   UNL     1       2.871 -11.275  -1.601  1.00  0.00     0.040 A 
ATOM     55  F   UNL     1       2.685  -9.516  -3.147  1.00  0.00    -0.206 F 
ATOM     56  C   UNL     1       3.647 -12.051  -0.739  1.00  0.00     0.006 A 
ENDBRANCH  28  49
BRANCH  40  57
ATOM     57  C   UNL     1       8.653 -10.531  -7.916  1.00  0.00     0.057 A 
ATOM     58  C   UNL     1       7.781 -11.374  -8.616  1.00  0.00     0.134 A 
ATOM     59  C   UNL     1      10.012 -10.863  -7.896  1.00  0.00     0.134 A 
ATOM     60  F   UNL     1       6.464 -11.119  -8.643  1.00  0.00    -0.206 F 
ATOM     61  C   UNL     1       8.242 -12.525  -9.251  1.00  0.00     0.040 A 
ATOM     62  C   UNL     1      10.488 -11.997  -8.551  1.00  0.00     0.040 A 
ATOM     63  F   UNL     1      10.892 -10.094  -7.237  1.00  0.00    -0.206 F 
ATOM     64  C   UNL     1       9.601 -12.836  -9.224  1.00  0.00     0.006 A 
ENDBRANCH  40  57
ENDBRANCH  14  15
ENDBRANCH   7   9
ENDBRANCH   6   7
ENDBRANCH   5   6
ENDBRANCH   4   5
ENDBRANCH   3   4
ENDBRANCH   2   3
ENDBRANCH   1   2
BRANCH   1  65
ATOM     65  O   UNL     1       2.689  -0.551   4.253  1.00  0.00    -0.376 OA
BRANCH  65  66
ATOM     66  C   UNL     1       4.033  -1.011   4.183  1.00  0.00     0.202 C 
BRANCH  66  67
ATOM     67  C   UNL     1       4.278  -2.487   3.855  1.00  0.00     0.261 C 
BRANCH  67  68
ATOM     68  O   UNL     1       3.862  -2.945   2.557  1.00  0.00    -0.460 OA
BRANCH  68  69
ATOM     69  C   UNL     1       2.679  -3.600   2.574  1.00  0.00     0.338 C 
ATOM     70  O   UNL     1       1.875  -3.660   3.492  1.00  0.00    -0.246 OA
BRANCH  69  71
ATOM     71  C   UNL     1       2.543  -4.513   1.437  1.00  0.00     0.061 A 
ATOM     72  C   UNL     1       1.513  -4.385   0.507  1.00  0.00     0.016 A 
ATOM     73  C   UNL     1       3.151  -5.740   1.667  1.00  0.00     0.038 A 
ATOM     74  C   UNL     1       1.073  -5.525  -0.172  1.00  0.00     0.002 A 
ATOM     75  C   UNL     1       2.588  -6.889   1.143  1.00  0.00     0.088 A 
ATOM     76  C   UNL     1       1.576  -6.785   0.179  1.00  0.00     0.022 A 
BRANCH  75  77
ATOM     77  S   UNL     1       2.973  -8.489   1.820  1.00  0.00     0.261 S 
ATOM     78  O   UNL     1       1.965  -8.788   2.808  1.00  0.00    -0.201 OA
ATOM     79  O   UNL     1       3.174  -9.353   0.679  1.00  0.00    -0.201 OA
BRANCH  77  80
ATOM     80  N   UNL     1       4.481  -8.422   2.551  1.00  0.00    -0.280 N 
ATOM     81  H   UNL     1       5.174  -9.038   2.219  1.00  0.00     0.180 HD
BRANCH  80  82
ATOM     82  C   UNL     1       4.838  -7.547   3.612  1.00  0.00     0.050 A 
ATOM     83  C   UNL     1       6.121  -6.986   3.560  1.00  0.00     0.027 A 
ATOM     84  C   UNL     1       3.947  -7.146   4.611  1.00  0.00     0.041 A 
ATOM     85  C   UNL     1       6.481  -5.967   4.442  1.00  0.00     0.003 A 
ATOM     86  C   UNL     1       4.316  -6.127   5.493  1.00  0.00     0.015 A 
ATOM     87  C   UNL     1       5.572  -5.526   5.402  1.00  0.00     0.015 A 
ATOM     88  I   UNL     1       2.955  -5.453   6.916  1.00  0.00    -0.044 I 
ENDBRANCH  80  82
ENDBRANCH  77  80
ENDBRANCH  75  77
ENDBRANCH  69  71
ENDBRANCH  68  69
ENDBRANCH  67  68
ENDBRANCH  66  67
ENDBRANCH  65  66
ENDBRANCH   1  65
TORSDOF 20
