REMARK SMILES Cc1cc(C)n(C)c(=O)c1C(=O)[NH+]1CCC2(CC1)C[NH2+][C@@H](C(=O)OCCOCCOCCOC(=O)c1ccc(-c3c4nc(c(-c5c(F)cccc5F)c5ccc([nH]5)c(-c5c(F)cccc5F)c5nc(c(-c6c(F)cccc6F)c6ccc3[nH]6)C=C5)C=C4)cc1)C2
REMARK SMILES IDX 28 1 27 2 26 3 25 4 24 5 22 6 23 7 21 8 13 9 14 10 18 11
REMARK SMILES IDX 15 13 17 14 16 15 19 16 90 17 20 18 11 21 12 22 10 23 1 24
REMARK SMILES IDX 2 25 3 26 4 27 8 28 5 29 6 30 9 31 7 32 29 33 30 34 31 35
REMARK SMILES IDX 32 36 33 37 34 38 35 39 36 40 37 41 89 42 38 43 88 44 39 45
REMARK SMILES IDX 40 46 41 47 82 48 42 49 87 50 81 51 83 52 43 53 86 54 80 55
REMARK SMILES IDX 79 56 44 58 70 59 53 60 69 61 54 62 57 63 68 64 84 65 55 66
REMARK SMILES IDX 56 67 67 69 85 70 58 71 45 72 46 73 51 74 47 75 48 76 50 77
REMARK SMILES IDX 52 78 49 79 71 80 72 81 77 82 73 83 74 84 76 85 78 86 75 87
REMARK SMILES IDX 59 88 60 89 65 90 61 91 62 92 64 93 66 94 63 95
REMARK H PARENT 13 12 20 19 20 20 83 57 57 68
REMARK Flexibility Score: inf
ROOT
ATOM      1  C   UNL     1       1.478   6.440   5.162  1.00  0.00     0.188 C 
ENDROOT
BRANCH   1   2
ATOM      2  O   UNL     1       2.217   6.749   6.338  1.00  0.00    -0.376 OA
BRANCH   2   3
ATOM      3  C   UNL     1       3.460   6.093   6.563  1.00  0.00     0.202 C 
BRANCH   3   4
ATOM      4  C   UNL     1       3.468   4.559   6.606  1.00  0.00     0.261 C 
BRANCH   4   5
ATOM      5  O   UNL     1       2.695   3.926   5.568  1.00  0.00    -0.459 OA
BRANCH   5   6
ATOM      6  C   UNL     1       1.714   3.076   5.975  1.00  0.00     0.364 C 
ATOM      7  O   UNL     1       1.492   2.777   7.146  1.00  0.00    -0.245 OA
BRANCH   6   8
ATOM      8  C   UNL     1       0.863   2.509   4.825  1.00  0.00     0.294 C 
ATOM      9  N   UNL     1       0.322   2.143  -0.441  1.00  0.00    -0.267 N 
ATOM     10  C   UNL     1      -0.524   2.957   0.414  1.00  0.00     0.271 C 
ATOM     11  C   UNL     1       1.706   2.079  -0.004  1.00  0.00     0.271 C 
ATOM     12  H   UNL     1       0.058   1.410   0.162  1.00  0.00     0.357 HD
ATOM     13  C   UNL     1      -0.684   2.225   1.737  1.00  0.00     0.075 C 
ATOM     14  C   UNL     1       1.862   1.640   1.466  1.00  0.00     0.075 C 
ATOM     15  C   UNL     1       0.662   1.911   2.442  1.00  0.00     0.036 C 
ATOM     16  C   UNL     1       0.442   0.722   3.415  1.00  0.00     0.268 C 
ATOM     17  C   UNL     1       1.047   3.050   3.414  1.00  0.00     0.090 C 
ATOM     18  N   UNL     1       1.156   1.077   4.635  1.00  0.00    -0.334 N 
ATOM     19  H   UNL     1       2.159   0.926   4.523  1.00  0.00     0.347 HD
ATOM     20  H   UNL     1       0.868   0.512   5.433  1.00  0.00     0.347 HD
BRANCH   9  21
ATOM     21  C   UNL     1      -0.202   1.707  -1.653  1.00  0.00     0.350 C 
ATOM     22  O   UNL     1      -1.095   2.369  -2.191  1.00  0.00    -0.225 OA
BRANCH  21  23
ATOM     23  C   UNL     1       0.158   0.356  -2.241  1.00  0.00     0.147 A 
ATOM     24  C   UNL     1       0.591  -0.907  -0.045  1.00  0.00     0.045 C 
ATOM     25  C   UNL     1       0.465  -0.752  -1.524  1.00  0.00    -0.027 A 
ATOM     26  C   UNL     1       0.598  -2.045  -2.160  1.00  0.00     0.026 A 
ATOM     27  C   UNL     1       0.194  -2.265  -3.414  1.00  0.00     0.018 A 
ATOM     28  C   UNL     1      -0.120   0.142  -3.727  1.00  0.00     0.267 A 
ATOM     29  C   UNL     1       0.209  -3.678  -3.928  1.00  0.00     0.064 C 
ATOM     30  N   UNL     1      -0.212  -1.188  -4.188  1.00  0.00    -0.315 N 
ATOM     31  O   UNL     1      -0.263   1.099  -4.487  1.00  0.00    -0.268 OA
ATOM     32  C   UNL     1      -0.699  -1.405  -5.545  1.00  0.00     0.153 C 
ENDBRANCH  21  23
ENDBRANCH   9  21
ENDBRANCH   6   8
ENDBRANCH   5   6
ENDBRANCH   4   5
ENDBRANCH   3   4
ENDBRANCH   2   3
ENDBRANCH   1   2
BRANCH   1  33
ATOM     33  C   UNL     1       2.223   6.222   3.834  1.00  0.00     0.188 C 
BRANCH  33  34
ATOM     34  O   UNL     1       3.601   6.504   3.889  1.00  0.00    -0.376 OA
BRANCH  34  35
ATOM     35  C   UNL     1       4.123   7.303   2.849  1.00  0.00     0.202 C 
BRANCH  35  36
ATOM     36  C   UNL     1       3.653   8.767   2.858  1.00  0.00     0.261 C 
BRANCH  36  37
ATOM     37  O   UNL     1       2.247   8.989   3.100  1.00  0.00    -0.460 OA
BRANCH  37  38
ATOM     38  C   UNL     1       1.397   8.803   2.064  1.00  0.00     0.338 C 
ATOM     39  O   UNL     1       1.698   8.471   0.926  1.00  0.00    -0.246 OA
BRANCH  38  40
ATOM     40  C   UNL     1       0.008   8.819   2.589  1.00  0.00     0.060 A 
ATOM     41  C   UNL     1      -0.789   7.670   2.456  1.00  0.00     0.016 A 
ATOM     42  C   UNL     1      -0.507   9.955   3.216  1.00  0.00     0.016 A 
ATOM     43  C   UNL     1      -2.104   7.661   2.936  1.00  0.00     0.010 A 
ATOM     44  C   UNL     1      -1.833   9.955   3.668  1.00  0.00     0.010 A 
ATOM     45  C   UNL     1      -2.648   8.818   3.508  1.00  0.00    -0.014 A 
BRANCH  45  46
ATOM     46  C   UNL     1      -4.112   8.920   3.748  1.00  0.00     0.031 A 
ATOM     47  C   UNL     1      -4.962   9.577   2.693  1.00  0.00     0.074 A 
ATOM     48  C   UNL     1      -4.692   8.444   4.864  1.00  0.00     0.049 A 
ATOM     49  N   UNL     1      -6.240   9.855   2.706  1.00  0.00    -0.248 NA
ATOM     50  C   UNL     1      -4.270   9.976   1.457  1.00  0.00     0.031 C 
ATOM     51  C   UNL     1      -4.004   7.737   5.941  1.00  0.00     0.029 A 
ATOM     52  N   UNL     1      -6.003   8.495   5.278  1.00  0.00    -0.354 N 
ATOM     53  C   UNL     1      -6.504  10.462   1.484  1.00  0.00     0.074 A 
ATOM     54  C   UNL     1      -5.248  10.545   0.771  1.00  0.00     0.031 C 
ATOM     55  C   UNL     1      -4.898   7.427   6.897  1.00  0.00     0.029 A 
ATOM     56  C   UNL     1      -6.213   7.945   6.519  1.00  0.00     0.049 A 
ATOM     57  H   UNL     1      -6.723   8.889   4.734  1.00  0.00     0.167 HD
ATOM     58  C   UNL     1      -7.687  10.902   0.993  1.00  0.00     0.037 A 
ATOM     59  C   UNL     1      -7.331   7.886   7.271  1.00  0.00     0.037 A 
ATOM     60  C   UNL     1      -8.937  10.829   1.701  1.00  0.00     0.049 A 
ATOM     61  C   UNL     1      -8.618   8.476   6.751  1.00  0.00     0.074 A 
ATOM     62  C   UNL     1     -10.188  11.247   1.280  1.00  0.00     0.029 A 
ATOM     63  N   UNL     1      -9.096  10.315   2.978  1.00  0.00    -0.354 N 
ATOM     64  N   UNL     1      -8.861   9.040   5.592  1.00  0.00    -0.248 NA
ATOM     65  C   UNL     1      -9.787   8.425   7.644  1.00  0.00     0.031 C 
ATOM     66  C   UNL     1     -11.092  11.038   2.324  1.00  0.00     0.029 A 
ATOM     67  C   UNL     1     -10.418  10.433   3.373  1.00  0.00     0.049 A 
ATOM     68  H   UNL     1      -8.376   9.923   3.523  1.00  0.00     0.167 HD
ATOM     69  C   UNL     1     -10.209   9.385   5.607  1.00  0.00     0.074 A 
ATOM     70  C   UNL     1     -10.736   8.957   6.885  1.00  0.00     0.031 C 
ATOM     71  C   UNL     1     -10.940  10.001   4.645  1.00  0.00     0.037 A 
BRANCH  58  72
ATOM     72  C   UNL     1      -7.681  11.520  -0.375  1.00  0.00     0.057 A 
ATOM     73  C   UNL     1      -7.475  10.755  -1.530  1.00  0.00     0.134 A 
ATOM     74  C   UNL     1      -7.924  12.889  -0.541  1.00  0.00     0.134 A 
ATOM     75  F   UNL     1      -7.221   9.441  -1.439  1.00  0.00    -0.206 F 
ATOM     76  C   UNL     1      -7.491  11.334  -2.801  1.00  0.00     0.040 A 
ATOM     77  C   UNL     1      -7.973  13.473  -1.808  1.00  0.00     0.040 A 
ATOM     78  F   UNL     1      -8.134  13.679   0.523  1.00  0.00    -0.206 F 
ATOM     79  C   UNL     1      -7.750  12.695  -2.942  1.00  0.00     0.006 A 
ENDBRANCH  58  72
BRANCH  59  80
ATOM     80  C   UNL     1      -7.288   7.236   8.607  1.00  0.00     0.057 A 
ATOM     81  C   UNL     1      -7.948   6.024   8.842  1.00  0.00     0.134 A 
ATOM     82  C   UNL     1      -6.584   7.802   9.678  1.00  0.00     0.134 A 
ATOM     83  F   UNL     1      -8.665   5.446   7.867  1.00  0.00    -0.206 F 
ATOM     84  C   UNL     1      -7.908   5.397  10.089  1.00  0.00     0.040 A 
ATOM     85  C   UNL     1      -6.514   7.174  10.923  1.00  0.00     0.040 A 
ATOM     86  F   UNL     1      -5.938   8.967   9.522  1.00  0.00    -0.206 F 
ATOM     87  C   UNL     1      -7.180   5.968  11.132  1.00  0.00     0.006 A 
ENDBRANCH  59  80
BRANCH  71  88
ATOM     88  C   UNL     1     -12.401  10.238   4.911  1.00  0.00     0.057 A 
ATOM     89  C   UNL     1     -12.839  11.207   5.821  1.00  0.00     0.134 A 
ATOM     90  C   UNL     1     -13.381   9.552   4.180  1.00  0.00     0.134 A 
ATOM     91  F   UNL     1     -11.956  11.896   6.560  1.00  0.00    -0.206 F 
ATOM     92  C   UNL     1     -14.197  11.479   6.002  1.00  0.00     0.040 A 
ATOM     93  C   UNL     1     -14.740   9.835   4.330  1.00  0.00     0.040 A 
ATOM     94  F   UNL     1     -13.032   8.619   3.281  1.00  0.00    -0.206 F 
ATOM     95  C   UNL     1     -15.151  10.800   5.247  1.00  0.00     0.006 A 
ENDBRANCH  71  88
ENDBRANCH  45  46
ENDBRANCH  38  40
ENDBRANCH  37  38
ENDBRANCH  36  37
ENDBRANCH  35  36
ENDBRANCH  34  35
ENDBRANCH  33  34
ENDBRANCH   1  33
TORSDOF 19
