REMARK SMILES CCOc1ccc2[nH]c(C)c/c(=N\c3cccc(C(=O)OCCOCCOCCOC(=O)c4ccc(-c5c6nc(c(-c7c(F)cccc7F)c7ccc([nH]7)c(-c7c(F)cccc7F)c7nc(c(-c8c(F)cccc8F)c8ccc5[nH]8)C=C7)C=C6)cc4)c3)c2c1
REMARK SMILES IDX 25 1 24 2 23 3 22 4 21 5 19 6 20 7 18 8 14 9 15 10 87 11
REMARK SMILES IDX 16 12 17 13 13 14 4 15 5 16 89 17 6 18 88 19 7 20 12 21 8 22
REMARK SMILES IDX 11 23 9 24 10 26 3 27 2 28 1 29 26 30 27 31 28 32 29 33
REMARK SMILES IDX 30 34 31 35 32 36 33 37 34 38 86 39 35 40 85 41 36 42 37 43
REMARK SMILES IDX 38 44 79 45 39 46 84 47 78 48 80 49 40 50 83 51 77 52 76 53
REMARK SMILES IDX 41 55 67 56 50 57 66 58 51 59 54 60 65 61 81 62 52 63 53 64
REMARK SMILES IDX 64 66 82 67 55 68 42 69 43 70 48 71 44 72 45 73 47 74 49 75
REMARK SMILES IDX 46 76 68 77 69 78 74 79 70 80 71 81 73 82 75 83 72 84 56 85
REMARK SMILES IDX 57 86 62 87 58 88 59 89 61 90 63 91 60 92
REMARK H PARENT 8 25 80 54 54 65
REMARK Flexibility Score: inf
ROOT
ATOM      1  C   UNL     1       7.122   3.855  10.200  1.00  0.00     0.188 C 
ENDROOT
BRANCH   1   2
ATOM      2  O   UNL     1       6.932   3.192  11.430  1.00  0.00    -0.376 OA
BRANCH   2   3
ATOM      3  C   UNL     1       5.665   2.660  11.781  1.00  0.00     0.202 C 
BRANCH   3   4
ATOM      4  C   UNL     1       4.321   3.123  11.192  1.00  0.00     0.261 C 
BRANCH   4   5
ATOM      5  O   UNL     1       4.331   3.561   9.829  1.00  0.00    -0.460 OA
BRANCH   5   6
ATOM      6  C   UNL     1       4.019   4.869   9.644  1.00  0.00     0.338 C 
ATOM      7  O   UNL     1       3.709   5.674  10.508  1.00  0.00    -0.246 OA
BRANCH   6   8
ATOM      8  C   UNL     1       4.335   5.280   8.257  1.00  0.00     0.062 A 
ATOM      9  C   UNL     1       4.322   4.948   5.855  1.00  0.00     0.065 A 
ATOM     10  C   UNL     1       4.978   6.181   5.711  1.00  0.00     0.028 A 
ATOM     11  C   UNL     1       3.987   4.508   7.141  1.00  0.00     0.044 A 
ATOM     12  C   UNL     1       5.369   6.928   6.823  1.00  0.00     0.003 A 
ATOM     13  C   UNL     1       5.042   6.480   8.097  1.00  0.00     0.016 A 
BRANCH   9  14
ATOM     14  N   UNL     1       3.899   4.202   4.742  1.00  0.00    -0.248 NA
ATOM     15  C   UNL     1       2.264   2.168   1.385  1.00  0.00     0.120 A 
ATOM     16  C   UNL     1       3.099   1.888   0.306  1.00  0.00     0.048 A 
ATOM     17  C   UNL     1       2.766   2.792   2.527  1.00  0.00     0.059 A 
ATOM     18  C   UNL     1       4.458   2.186   0.381  1.00  0.00     0.030 A 
ATOM     19  C   UNL     1       4.133   3.100   2.603  1.00  0.00     0.027 A 
ATOM     20  C   UNL     1       4.985   2.796   1.524  1.00  0.00     0.048 A 
ATOM     21  C   UNL     1       4.710   3.804   3.803  1.00  0.00     0.075 A 
ATOM     22  N   UNL     1       6.344   3.119   1.576  1.00  0.00    -0.359 N 
ATOM     23  C   UNL     1       6.201   3.998   3.781  1.00  0.00     0.050 A 
ATOM     24  C   UNL     1       6.915   3.684   2.688  1.00  0.00     0.014 A 
ATOM     25  H   UNL     1       6.908   2.935   0.790  1.00  0.00     0.166 HD
ATOM     26  C   UNL     1       8.395   3.947   2.621  1.00  0.00     0.064 C 
BRANCH  15  27
ATOM     27  O   UNL     1       0.916   1.962   1.273  1.00  0.00    -0.494 OA
BRANCH  27  28
ATOM     28  C   UNL     1       0.540   0.589   1.445  1.00  0.00     0.226 C 
ATOM     29  C   UNL     1       0.577  -0.187   0.136  1.00  0.00     0.049 C 
ENDBRANCH  27  28
ENDBRANCH  15  27
ENDBRANCH   9  14
ENDBRANCH   6   8
ENDBRANCH   5   6
ENDBRANCH   4   5
ENDBRANCH   3   4
ENDBRANCH   2   3
ENDBRANCH   1   2
BRANCH   1  30
ATOM     30  C   UNL     1       7.092   3.050   8.885  1.00  0.00     0.188 C 
BRANCH  30  31
ATOM     31  O   UNL     1       6.689   1.698   8.873  1.00  0.00    -0.376 OA
BRANCH  31  32
ATOM     32  C   UNL     1       7.428   0.723   9.588  1.00  0.00     0.202 C 
BRANCH  32  33
ATOM     33  C   UNL     1       8.957   0.753   9.738  1.00  0.00     0.261 C 
BRANCH  33  34
ATOM     34  O   UNL     1       9.555   2.037   9.946  1.00  0.00    -0.460 OA
BRANCH  34  35
ATOM     35  C   UNL     1      10.304   2.504   8.917  1.00  0.00     0.338 C 
ATOM     36  O   UNL     1      10.505   1.972   7.837  1.00  0.00    -0.246 OA
BRANCH  35  37
ATOM     37  C   UNL     1      10.711   3.886   9.226  1.00  0.00     0.060 A 
ATOM     38  C   UNL     1      11.537   4.147  10.318  1.00  0.00     0.016 A 
ATOM     39  C   UNL     1      10.254   4.929   8.409  1.00  0.00     0.016 A 
ATOM     40  C   UNL     1      11.914   5.463  10.588  1.00  0.00     0.010 A 
ATOM     41  C   UNL     1      10.620   6.246   8.690  1.00  0.00     0.010 A 
ATOM     42  C   UNL     1      11.466   6.520   9.773  1.00  0.00    -0.014 A 
BRANCH  42  43
ATOM     43  C   UNL     1      11.994   7.888   9.992  1.00  0.00     0.031 A 
ATOM     44  C   UNL     1      11.181   8.951  10.665  1.00  0.00     0.074 A 
ATOM     45  C   UNL     1      13.245   8.159   9.576  1.00  0.00     0.049 A 
ATOM     46  N   UNL     1      11.545  10.155  11.030  1.00  0.00    -0.248 NA
ATOM     47  C   UNL     1       9.780   8.627  10.960  1.00  0.00     0.031 C 
ATOM     48  C   UNL     1      14.119   7.217   8.875  1.00  0.00     0.029 A 
ATOM     49  N   UNL     1      14.002   9.296   9.694  1.00  0.00    -0.354 N 
ATOM     50  C   UNL     1      10.428  10.726  11.626  1.00  0.00     0.074 A 
ATOM     51  C   UNL     1       9.357   9.755  11.517  1.00  0.00     0.031 C 
ATOM     52  C   UNL     1      15.306   7.803   8.656  1.00  0.00     0.029 A 
ATOM     53  C   UNL     1      15.268   9.165   9.179  1.00  0.00     0.049 A 
ATOM     54  H   UNL     1      13.670  10.125  10.108  1.00  0.00     0.167 HD
ATOM     55  C   UNL     1      10.316  11.938  12.226  1.00  0.00     0.037 A 
ATOM     56  C   UNL     1      16.287  10.043   9.140  1.00  0.00     0.037 A 
ATOM     57  C   UNL     1      11.376  12.914  12.300  1.00  0.00     0.049 A 
ATOM     58  C   UNL     1      16.112  11.402   9.757  1.00  0.00     0.074 A 
ATOM     59  C   UNL     1      11.365  14.157  12.912  1.00  0.00     0.029 A 
ATOM     60  N   UNL     1      12.631  12.769  11.726  1.00  0.00    -0.354 N 
ATOM     61  N   UNL     1      15.081  11.897  10.397  1.00  0.00    -0.248 NA
ATOM     62  C   UNL     1      17.254  12.322   9.653  1.00  0.00     0.031 C 
ATOM     63  C   UNL     1      12.590  14.786  12.657  1.00  0.00     0.029 A 
ATOM     64  C   UNL     1      13.389  13.911  11.940  1.00  0.00     0.049 A 
ATOM     65  H   UNL     1      12.938  11.971  11.237  1.00  0.00     0.167 HD
ATOM     66  C   UNL     1      15.460  13.172  10.800  1.00  0.00     0.074 A 
ATOM     67  C   UNL     1      16.823  13.364  10.348  1.00  0.00     0.031 C 
ATOM     68  C   UNL     1      14.744  14.099  11.483  1.00  0.00     0.037 A 
BRANCH  55  69
ATOM     69  C   UNL     1       8.989  12.277  12.847  1.00  0.00     0.057 A 
ATOM     70  C   UNL     1       8.184  13.293  12.318  1.00  0.00     0.134 A 
ATOM     71  C   UNL     1       8.523  11.617  13.992  1.00  0.00     0.134 A 
ATOM     72  F   UNL     1       8.574  13.977  11.232  1.00  0.00    -0.206 F 
ATOM     73  C   UNL     1       6.962  13.636  12.900  1.00  0.00     0.040 A 
ATOM     74  C   UNL     1       7.289  11.930  14.567  1.00  0.00     0.040 A 
ATOM     75  F   UNL     1       9.243  10.632  14.550  1.00  0.00    -0.206 F 
ATOM     76  C   UNL     1       6.506  12.946  14.022  1.00  0.00     0.006 A 
ENDBRANCH  55  69
BRANCH  56  77
ATOM     77  C   UNL     1      17.577   9.659   8.516  1.00  0.00     0.057 A 
ATOM     78  C   UNL     1      17.690   9.465   7.135  1.00  0.00     0.134 A 
ATOM     79  C   UNL     1      18.736   9.509   9.287  1.00  0.00     0.134 A 
ATOM     80  F   UNL     1      16.614   9.585   6.343  1.00  0.00    -0.206 F 
ATOM     81  C   UNL     1      18.909   9.139   6.540  1.00  0.00     0.040 A 
ATOM     82  C   UNL     1      19.968   9.213   8.702  1.00  0.00     0.040 A 
ATOM     83  F   UNL     1      18.694   9.698  10.614  1.00  0.00    -0.206 F 
ATOM     84  C   UNL     1      20.056   9.024   7.324  1.00  0.00     0.006 A 
ENDBRANCH  56  77
BRANCH  68  85
ATOM     85  C   UNL     1      15.439  15.391  11.810  1.00  0.00     0.057 A 
ATOM     86  C   UNL     1      15.780  15.703  13.133  1.00  0.00     0.134 A 
ATOM     87  C   UNL     1      15.777  16.327  10.823  1.00  0.00     0.134 A 
ATOM     88  F   UNL     1      15.482  14.857  14.131  1.00  0.00    -0.206 F 
ATOM     89  C   UNL     1      16.434  16.892  13.460  1.00  0.00     0.040 A 
ATOM     90  C   UNL     1      16.460  17.505  11.133  1.00  0.00     0.040 A 
ATOM     91  F   UNL     1      15.496  16.086   9.533  1.00  0.00    -0.206 F 
ATOM     92  C   UNL     1      16.787  17.792  12.457  1.00  0.00     0.006 A 
ENDBRANCH  68  85
ENDBRANCH  42  43
ENDBRANCH  35  37
ENDBRANCH  34  35
ENDBRANCH  33  34
ENDBRANCH  32  33
ENDBRANCH  31  32
ENDBRANCH  30  31
ENDBRANCH   1  30
TORSDOF 20
