REMARK SMILES Cc1csc2nc(C(=O)OCCOCCOCCOC(=O)c3ccc(-c4c5nc(c(-c6c(F)cccc6F)c6ccc([nH]6)c(-c6c(F)cccc6F)c6nc(c(-c7c(F)cccc7F)c7ccc4[nH]7)C=C6)C=C5)cc3)cn12
REMARK SMILES IDX 15 1 14 2 13 3 12 4 11 5 10 6 8 7 9 8 7 9 1 10 2 11 3 12
REMARK SMILES IDX 77 13 4 14 5 15 76 16 6 17 16 18 17 19 18 20 19 21 20 22
REMARK SMILES IDX 21 23 22 24 23 25 75 26 24 27 74 28 25 29 26 30 27 31 68 32
REMARK SMILES IDX 28 33 73 34 67 35 69 36 29 37 72 38 66 39 65 40 30 42 56 43
REMARK SMILES IDX 39 44 55 45 40 46 43 47 54 48 70 49 41 50 42 51 53 53 71 54
REMARK SMILES IDX 44 55 31 56 32 57 37 58 33 59 34 60 36 61 38 62 35 63 57 64
REMARK SMILES IDX 58 65 63 66 59 67 60 68 62 69 64 70 61 71 45 72 46 73 51 74
REMARK SMILES IDX 47 75 48 76 50 77 52 78 49 79
REMARK H PARENT 69 41 43 52
REMARK Flexibility Score: inf
ROOT
ATOM      1  C   UNL     1       0.118  -0.523  -6.903  1.00  0.00     0.188 C 
ENDROOT
BRANCH   1   2
ATOM      2  C   UNL     1      -0.645  -1.836  -6.598  1.00  0.00     0.188 C 
BRANCH   2   3
ATOM      3  O   UNL     1      -1.570  -2.376  -7.532  1.00  0.00    -0.376 OA
BRANCH   3   4
ATOM      4  C   UNL     1      -2.492  -1.522  -8.197  1.00  0.00     0.202 C 
BRANCH   4   5
ATOM      5  C   UNL     1      -3.338  -0.486  -7.426  1.00  0.00     0.261 C 
BRANCH   5   6
ATOM      6  O   UNL     1      -2.663   0.295  -6.430  1.00  0.00    -0.458 OA
BRANCH   6   7
ATOM      7  C   UNL     1      -2.862  -0.074  -5.131  1.00  0.00     0.358 C 
ATOM      8  O   UNL     1      -3.609  -0.974  -4.772  1.00  0.00    -0.244 OA
BRANCH   7   9
ATOM      9  C   UNL     1      -1.944   0.602  -4.206  1.00  0.00     0.168 A 
ATOM     10  C   UNL     1       0.556  -0.035  -0.502  1.00  0.00     0.066 C 
ATOM     11  C   UNL     1       0.288   1.072  -1.458  1.00  0.00     0.032 A 
ATOM     12  C   UNL     1       0.831   2.306  -1.408  1.00  0.00     0.090 A 
ATOM     13  N   UNL     1      -0.564   0.954  -2.542  1.00  0.00    -0.294 N 
ATOM     14  S   UNL     1       0.308   3.358  -2.733  1.00  0.00    -0.105 S 
ATOM     15  C   UNL     1      -0.668   2.057  -3.337  1.00  0.00     0.194 A 
ATOM     16  C   UNL     1      -1.378   0.004  -3.079  1.00  0.00     0.130 A 
ATOM     17  N   UNL     1      -1.456   1.899  -4.365  1.00  0.00    -0.212 NA
ENDBRANCH   7   9
ENDBRANCH   6   7
ENDBRANCH   5   6
ENDBRANCH   4   5
ENDBRANCH   3   4
ENDBRANCH   2   3
ENDBRANCH   1   2
BRANCH   1  18
ATOM     18  O   UNL     1      -0.386   0.201  -8.005  1.00  0.00    -0.376 OA
BRANCH  18  19
ATOM     19  C   UNL     1       0.287   0.260  -9.252  1.00  0.00     0.202 C 
BRANCH  19  20
ATOM     20  C   UNL     1       0.970  -0.947  -9.894  1.00  0.00     0.261 C 
BRANCH  20  21
ATOM     21  O   UNL     1       1.135  -2.054  -9.038  1.00  0.00    -0.460 OA
BRANCH  21  22
ATOM     22  C   UNL     1       2.277  -2.027  -8.323  1.00  0.00     0.338 C 
ATOM     23  O   UNL     1       3.099  -1.132  -8.277  1.00  0.00    -0.246 OA
BRANCH  22  24
ATOM     24  C   UNL     1       2.417  -3.318  -7.633  1.00  0.00     0.060 A 
ATOM     25  C   UNL     1       3.554  -3.414  -6.833  1.00  0.00     0.016 A 
ATOM     26  C   UNL     1       1.820  -4.426  -8.251  1.00  0.00     0.016 A 
ATOM     27  C   UNL     1       4.337  -4.521  -7.016  1.00  0.00     0.010 A 
ATOM     28  C   UNL     1       2.616  -5.514  -8.462  1.00  0.00     0.010 A 
ATOM     29  C   UNL     1       3.907  -5.473  -7.944  1.00  0.00    -0.014 A 
BRANCH  29  30
ATOM     30  C   UNL     1       4.871  -6.439  -8.392  1.00  0.00     0.031 A 
ATOM     31  C   UNL     1       5.042  -7.547  -7.443  1.00  0.00     0.074 A 
ATOM     32  C   UNL     1       5.468  -6.334  -9.591  1.00  0.00     0.049 A 
ATOM     33  N   UNL     1       6.074  -7.800  -6.715  1.00  0.00    -0.248 NA
ATOM     34  C   UNL     1       3.849  -8.341  -7.118  1.00  0.00     0.031 C 
ATOM     35  C   UNL     1       5.170  -5.421 -10.697  1.00  0.00     0.029 A 
ATOM     36  N   UNL     1       6.432  -7.137 -10.104  1.00  0.00    -0.354 N 
ATOM     37  C   UNL     1       5.724  -8.917  -5.969  1.00  0.00     0.074 A 
ATOM     38  C   UNL     1       4.299  -9.068  -6.098  1.00  0.00     0.031 C 
ATOM     39  C   UNL     1       5.776  -5.878 -11.818  1.00  0.00     0.029 A 
ATOM     40  C   UNL     1       6.583  -7.037 -11.477  1.00  0.00     0.049 A 
ATOM     41  H   UNL     1       6.978  -7.739  -9.548  1.00  0.00     0.167 HD
ATOM     42  C   UNL     1       6.666  -9.777  -5.507  1.00  0.00     0.037 A 
ATOM     43  C   UNL     1       7.231  -7.948 -12.245  1.00  0.00     0.037 A 
ATOM     44  C   UNL     1       7.978  -9.182  -5.528  1.00  0.00     0.049 A 
ATOM     45  C   UNL     1       8.125  -8.728 -11.338  1.00  0.00     0.074 A 
ATOM     46  C   UNL     1       8.541  -8.077  -4.917  1.00  0.00     0.029 A 
ATOM     47  N   UNL     1       8.817  -9.504  -6.568  1.00  0.00    -0.354 N 
ATOM     48  N   UNL     1       9.175  -8.220 -10.749  1.00  0.00    -0.248 NA
ATOM     49  C   UNL     1       7.577  -9.920 -10.700  1.00  0.00     0.031 C 
ATOM     50  C   UNL     1       9.412  -7.515  -5.895  1.00  0.00     0.029 A 
ATOM     51  C   UNL     1       9.370  -8.333  -7.024  1.00  0.00     0.049 A 
ATOM     52  H   UNL     1       8.989 -10.407  -6.921  1.00  0.00     0.167 HD
ATOM     53  C   UNL     1       9.168  -8.759  -9.468  1.00  0.00     0.074 A 
ATOM     54  C   UNL     1       8.205  -9.857  -9.521  1.00  0.00     0.031 C 
ATOM     55  C   UNL     1       9.709  -8.087  -8.408  1.00  0.00     0.037 A 
BRANCH  42  56
ATOM     56  C   UNL     1       6.438 -11.257  -5.377  1.00  0.00     0.057 A 
ATOM     57  C   UNL     1       7.397 -12.039  -4.716  1.00  0.00     0.134 A 
ATOM     58  C   UNL     1       5.460 -11.980  -6.092  1.00  0.00     0.134 A 
ATOM     59  F   UNL     1       8.391 -11.466  -4.020  1.00  0.00    -0.206 F 
ATOM     60  C   UNL     1       7.416 -13.434  -4.811  1.00  0.00     0.040 A 
ATOM     61  C   UNL     1       5.434 -13.374  -6.143  1.00  0.00     0.040 A 
ATOM     62  F   UNL     1       4.539 -11.388  -6.862  1.00  0.00    -0.206 F 
ATOM     63  C   UNL     1       6.434 -14.106  -5.528  1.00  0.00     0.006 A 
ENDBRANCH  42  56
BRANCH  43  64
ATOM     64  C   UNL     1       6.858  -8.401 -13.606  1.00  0.00     0.057 A 
ATOM     65  C   UNL     1       7.735  -9.175 -14.378  1.00  0.00     0.134 A 
ATOM     66  C   UNL     1       5.542  -8.297 -14.095  1.00  0.00     0.134 A 
ATOM     67  F   UNL     1       8.998  -9.378 -13.975  1.00  0.00    -0.206 F 
ATOM     68  C   UNL     1       7.325  -9.815 -15.557  1.00  0.00     0.040 A 
ATOM     69  C   UNL     1       5.123  -8.919 -15.275  1.00  0.00     0.040 A 
ATOM     70  F   UNL     1       4.587  -7.659 -13.404  1.00  0.00    -0.206 F 
ATOM     71  C   UNL     1       6.013  -9.693 -16.005  1.00  0.00     0.006 A 
ENDBRANCH  43  64
BRANCH  55  72
ATOM     72  C   UNL     1      10.494  -6.835  -8.694  1.00  0.00     0.057 A 
ATOM     73  C   UNL     1       9.934  -5.681  -9.265  1.00  0.00     0.134 A 
ATOM     74  C   UNL     1      11.805  -6.728  -8.219  1.00  0.00     0.134 A 
ATOM     75  F   UNL     1       8.652  -5.651  -9.645  1.00  0.00    -0.206 F 
ATOM     76  C   UNL     1      10.659  -4.494  -9.401  1.00  0.00     0.040 A 
ATOM     77  C   UNL     1      12.530  -5.537  -8.315  1.00  0.00     0.040 A 
ATOM     78  F   UNL     1      12.386  -7.767  -7.599  1.00  0.00    -0.206 F 
ATOM     79  C   UNL     1      11.961  -4.417  -8.917  1.00  0.00     0.006 A 
ENDBRANCH  55  72
ENDBRANCH  29  30
ENDBRANCH  22  24
ENDBRANCH  21  22
ENDBRANCH  20  21
ENDBRANCH  19  20
ENDBRANCH  18  19
ENDBRANCH   1  18
TORSDOF 17
