REMARK SMILES N#CCCN(C(=O)N[C@H]1CCCCC[C@@H]1C(=O)OCCOCCOCCOC(=O)c1ccc(-c2c3nc(c(-c4c(F)cccc4F)c4ccc([nH]4)c(-c4c(F)cccc4F)c4nc(c(-c5c(F)cccc5F)c5ccc2[nH]5)C=C4)C=C3)cc1)C1CC1
REMARK SMILES IDX 20 1 19 2 18 3 16 4 17 5 15 6 9 7 8 8 6 9 7 10 5 12 4 13
REMARK SMILES IDX 3 14 2 15 1 16 84 17 85 18 86 19 10 20 11 21 14 23 13 24
REMARK SMILES IDX 12 25 21 27 22 28 23 29 24 30 25 31 26 32 27 33 28 34 29 35
REMARK SMILES IDX 30 36 31 37 83 38 32 39 82 40 33 41 34 42 35 43 76 44 36 45
REMARK SMILES IDX 81 46 75 47 77 48 37 49 80 50 74 51 73 52 38 54 64 55 47 56
REMARK SMILES IDX 63 57 48 58 51 59 62 60 78 61 49 62 50 63 61 65 79 66 52 67
REMARK SMILES IDX 39 68 40 69 45 70 41 71 42 72 44 73 46 74 43 75 65 76 66 77
REMARK SMILES IDX 71 78 67 79 68 80 70 81 72 82 69 83 53 84 54 85 59 86 55 87
REMARK SMILES IDX 56 88 58 89 60 90 57 91
REMARK H PARENT 8 11 77 53 51 64
REMARK Flexibility Score: 90.00
ROOT
ATOM      1  C   UNL     1       5.611   3.671   3.056  1.00  0.00     0.202 C 
ENDROOT
BRANCH   1   2
ATOM      2  C   UNL     1       6.880   2.776   3.074  1.00  0.00     0.261 C 
BRANCH   2   3
ATOM      3  O   UNL     1       7.092   2.029   1.855  1.00  0.00    -0.463 OA
BRANCH   3   4
ATOM      4  C   UNL     1       7.176   0.688   1.938  1.00  0.00     0.311 C 
ATOM      5  O   UNL     1       7.268   0.083   3.001  1.00  0.00    -0.252 OA
BRANCH   4   6
ATOM      6  C   UNL     1       6.994  -0.045   0.604  1.00  0.00     0.121 C 
BRANCH   6   7
ATOM      7  C   UNL     1       6.968   0.736  -0.733  1.00  0.00     0.098 C 
BRANCH   7   8
ATOM      8  N   UNL     1       8.260   1.321  -1.063  1.00  0.00    -0.334 N 
ATOM      9  C   UNL     1       8.738   2.516  -1.450  1.00  0.00     0.317 C 
ATOM     10  O   UNL     1       9.959   2.513  -1.648  1.00  0.00    -0.249 OA
ATOM     11  H   UNL     1       8.983   0.658  -0.980  1.00  0.00     0.165 HD
BRANCH   9  12
ATOM     12  N   UNL     1       7.976   3.652  -1.576  1.00  0.00    -0.321 N 
BRANCH  12  13
ATOM     13  C   UNL     1       6.484   3.804  -1.429  1.00  0.00     0.137 C 
BRANCH  13  14
ATOM     14  C   UNL     1       6.070   4.159   0.033  1.00  0.00     0.141 C 
BRANCH  14  15
ATOM     15  C   UNL     1       6.454   5.628   0.098  1.00  0.00     0.064 C 
ATOM     16  N   UNL     1       6.773   6.847   0.152  1.00  0.00    -0.198 NA
ENDBRANCH  14  15
ENDBRANCH  13  14
ENDBRANCH  12  13
BRANCH  12  17
ATOM     17  C   UNL     1       8.722   4.920  -1.668  1.00  0.00     0.087 C 
ATOM     18  C   UNL     1       9.844   5.206  -2.634  1.00  0.00     0.027 C 
ATOM     19  C   UNL     1       8.527   5.889  -2.809  1.00  0.00     0.027 C 
ENDBRANCH  12  17
ENDBRANCH   9  12
ENDBRANCH   7   8
BRANCH   7  20
ATOM     20  C   UNL     1       6.522  -0.120  -1.954  1.00  0.00     0.026 C 
BRANCH  20  21
ATOM     21  C   UNL     1       6.976  -1.587  -1.922  1.00  0.00     0.002 CG0
ATOM     22  G   UNL     1       6.013  -2.513  -1.172  1.00  0.00     0.000 G0
ENDBRANCH  20  21
ENDBRANCH   7  20
ENDBRANCH   6   7
BRANCH   6  23
ATOM     23  C   UNL     1       5.678  -0.845   0.739  1.00  0.00     0.017 C 
BRANCH  23  24
ATOM     24  C   UNL     1       5.886  -2.294   0.333  1.00  0.00     0.001 C 
BRANCH  24  25
ATOM     25  C   UNL     1       6.013  -2.513  -1.172  1.00  0.00     0.000 CG0
ATOM     26  G   UNL     1       6.976  -1.587  -1.922  1.00  0.00     0.000 G0
ENDBRANCH  24  25
ENDBRANCH  23  24
ENDBRANCH   6  23
ENDBRANCH   4   6
ENDBRANCH   3   4
ENDBRANCH   2   3
ENDBRANCH   1   2
BRANCH   1  27
ATOM     27  O   UNL     1       4.328   3.198   2.632  1.00  0.00    -0.376 OA
BRANCH  27  28
ATOM     28  C   UNL     1       4.210   2.272   1.564  1.00  0.00     0.188 C 
BRANCH  28  29
ATOM     29  C   UNL     1       3.082   2.608   0.569  1.00  0.00     0.188 C 
BRANCH  29  30
ATOM     30  O   UNL     1       3.385   3.394  -0.602  1.00  0.00    -0.376 OA
BRANCH  30  31
ATOM     31  C   UNL     1       2.882   4.744  -0.599  1.00  0.00     0.202 C 
BRANCH  31  32
ATOM     32  C   UNL     1       1.423   4.913  -1.043  1.00  0.00     0.261 C 
BRANCH  32  33
ATOM     33  O   UNL     1       0.572   3.967  -0.391  1.00  0.00    -0.460 OA
BRANCH  33  34
ATOM     34  C   UNL     1       0.444   2.790  -1.064  1.00  0.00     0.338 C 
ATOM     35  O   UNL     1       0.723   2.574  -2.222  1.00  0.00    -0.246 OA
BRANCH  34  36
ATOM     36  C   UNL     1       0.166   1.718  -0.073  1.00  0.00     0.060 A 
ATOM     37  C   UNL     1       0.777   0.472  -0.293  1.00  0.00     0.016 A 
ATOM     38  C   UNL     1      -0.545   1.956   1.107  1.00  0.00     0.016 A 
ATOM     39  C   UNL     1       0.662  -0.543   0.651  1.00  0.00     0.010 A 
ATOM     40  C   UNL     1      -0.701   0.925   2.033  1.00  0.00     0.010 A 
ATOM     41  C   UNL     1      -0.137  -0.338   1.781  1.00  0.00    -0.014 A 
BRANCH  41  42
ATOM     42  C   UNL     1      -0.656  -1.526   2.490  1.00  0.00     0.031 A 
ATOM     43  C   UNL     1      -1.982  -2.062   2.020  1.00  0.00     0.074 A 
ATOM     44  C   UNL     1       0.030  -2.135   3.470  1.00  0.00     0.049 A 
ATOM     45  N   UNL     1      -2.686  -3.063   2.477  1.00  0.00    -0.248 NA
ATOM     46  C   UNL     1      -2.601  -1.367   0.875  1.00  0.00     0.031 C 
ATOM     47  C   UNL     1       1.342  -1.732   3.973  1.00  0.00     0.029 A 
ATOM     48  N   UNL     1      -0.301  -3.231   4.226  1.00  0.00    -0.354 N 
ATOM     49  C   UNL     1      -3.828  -3.105   1.687  1.00  0.00     0.074 A 
ATOM     50  C   UNL     1      -3.743  -2.020   0.740  1.00  0.00     0.031 C 
ATOM     51  C   UNL     1       1.696  -2.561   4.973  1.00  0.00     0.029 A 
ATOM     52  C   UNL     1       0.624  -3.530   5.196  1.00  0.00     0.049 A 
ATOM     53  H   UNL     1      -1.123  -3.754   4.086  1.00  0.00     0.167 HD
ATOM     54  C   UNL     1      -4.857  -3.978   1.744  1.00  0.00     0.037 A 
ATOM     55  C   UNL     1       0.584  -4.467   6.164  1.00  0.00     0.037 A 
ATOM     56  C   UNL     1      -4.934  -5.062   2.683  1.00  0.00     0.049 A 
ATOM     57  C   UNL     1      -0.605  -5.394   6.238  1.00  0.00     0.074 A 
ATOM     58  C   UNL     1      -5.923  -6.019   2.813  1.00  0.00     0.029 A 
ATOM     59  N   UNL     1      -3.984  -5.325   3.657  1.00  0.00    -0.354 N 
ATOM     60  N   UNL     1      -1.667  -5.448   5.469  1.00  0.00    -0.248 NA
ATOM     61  C   UNL     1      -0.595  -6.399   7.311  1.00  0.00     0.031 C 
ATOM     62  C   UNL     1      -5.600  -6.829   3.904  1.00  0.00     0.029 A 
ATOM     63  C   UNL     1      -4.376  -6.418   4.409  1.00  0.00     0.049 A 
ATOM     64  H   UNL     1      -3.155  -4.812   3.794  1.00  0.00     0.167 HD
ATOM     65  C   UNL     1      -2.426  -6.515   5.939  1.00  0.00     0.074 A 
ATOM     66  C   UNL     1      -1.694  -7.088   7.048  1.00  0.00     0.031 C 
ATOM     67  C   UNL     1      -3.620  -6.983   5.496  1.00  0.00     0.037 A 
BRANCH  54  68
ATOM     68  C   UNL     1      -5.994  -3.781   0.788  1.00  0.00     0.057 A 
ATOM     69  C   UNL     1      -5.874  -4.054  -0.580  1.00  0.00     0.134 A 
ATOM     70  C   UNL     1      -7.244  -3.357   1.257  1.00  0.00     0.134 A 
ATOM     71  F   UNL     1      -4.696  -4.436  -1.097  1.00  0.00    -0.206 F 
ATOM     72  C   UNL     1      -6.957  -3.911  -1.449  1.00  0.00     0.040 A 
ATOM     73  C   UNL     1      -8.341  -3.237   0.404  1.00  0.00     0.040 A 
ATOM     74  F   UNL     1      -7.423  -3.070   2.555  1.00  0.00    -0.206 F 
ATOM     75  C   UNL     1      -8.198  -3.514  -0.954  1.00  0.00     0.006 A 
ENDBRANCH  54  68
BRANCH  55  76
ATOM     76  C   UNL     1       1.679  -4.570   7.165  1.00  0.00     0.057 A 
ATOM     77  C   UNL     1       2.493  -5.706   7.246  1.00  0.00     0.134 A 
ATOM     78  C   UNL     1       1.888  -3.563   8.116  1.00  0.00     0.134 A 
ATOM     79  F   UNL     1       2.328  -6.718   6.381  1.00  0.00    -0.206 F 
ATOM     80  C   UNL     1       3.446  -5.856   8.256  1.00  0.00     0.040 A 
ATOM     81  C   UNL     1       2.859  -3.684   9.111  1.00  0.00     0.040 A 
ATOM     82  F   UNL     1       1.144  -2.447   8.097  1.00  0.00    -0.206 F 
ATOM     83  C   UNL     1       3.632  -4.840   9.192  1.00  0.00     0.006 A 
ENDBRANCH  55  76
BRANCH  67  84
ATOM     84  C   UNL     1      -4.173  -8.208   6.167  1.00  0.00     0.057 A 
ATOM     85  C   UNL     1      -4.650  -8.188   7.484  1.00  0.00     0.134 A 
ATOM     86  C   UNL     1      -4.251  -9.421   5.470  1.00  0.00     0.134 A 
ATOM     87  F   UNL     1      -4.599  -7.061   8.209  1.00  0.00    -0.206 F 
ATOM     88  C   UNL     1      -5.146  -9.341   8.096  1.00  0.00     0.040 A 
ATOM     89  C   UNL     1      -4.778 -10.570   6.059  1.00  0.00     0.040 A 
ATOM     90  F   UNL     1      -3.829  -9.506   4.199  1.00  0.00    -0.206 F 
ATOM     91  C   UNL     1      -5.216 -10.535   7.380  1.00  0.00     0.006 A 
ENDBRANCH  67  84
ENDBRANCH  41  42
ENDBRANCH  34  36
ENDBRANCH  33  34
ENDBRANCH  32  33
ENDBRANCH  31  32
ENDBRANCH  30  31
ENDBRANCH  29  30
ENDBRANCH  28  29
ENDBRANCH  27  28
ENDBRANCH   1  27
TORSDOF 23
