REMARK SMILES Cc1cc(C)cc(C(=O)N2CC[C@H](C(=O)OCCOCCOCCOC(=O)c3ccc(-c4c5nc(c(-c6c(F)cccc6F)c6ccc([nH]6)c(-c6c(F)cccc6F)c6nc(c(-c7c(F)cccc7F)c7ccc4[nH]7)C=C6)C=C5)cc3)[C@@H]2C)c1
REMARK SMILES IDX 20 1 19 2 18 3 17 4 16 5 14 6 15 7 13 8 10 9 11 10 82 11
REMARK SMILES IDX 12 12 83 13 8 14 9 15 7 16 1 17 2 18 3 19 84 20 4 21 5 22
REMARK SMILES IDX 6 23 21 24 22 25 23 26 24 27 25 28 26 29 27 30 28 31 29 32
REMARK SMILES IDX 81 33 30 34 80 35 31 36 32 37 33 38 74 39 34 40 79 41 73 42
REMARK SMILES IDX 75 43 35 44 78 45 72 46 71 47 36 49 62 50 45 51 61 52 46 53
REMARK SMILES IDX 49 54 60 55 76 56 47 57 48 58 59 60 77 61 50 62 37 63 38 64
REMARK SMILES IDX 43 65 39 66 40 67 42 68 44 69 41 70 63 71 64 72 69 73 65 74
REMARK SMILES IDX 66 75 68 76 70 77 67 78 51 79 52 80 57 81 53 82 54 83 56 84
REMARK SMILES IDX 58 85 55 86
REMARK H PARENT 75 48 49 59
REMARK Flexibility Score: inf
ROOT
ATOM      1  C   UNL     1       2.337  -7.101   3.070  1.00  0.00     0.188 C 
ENDROOT
BRANCH   1   2
ATOM      2  O   UNL     1       3.200  -8.204   2.808  1.00  0.00    -0.376 OA
BRANCH   2   3
ATOM      3  C   UNL     1       4.601  -8.000   2.875  1.00  0.00     0.202 C 
BRANCH   3   4
ATOM      4  C   UNL     1       5.258  -7.358   1.651  1.00  0.00     0.261 C 
BRANCH   4   5
ATOM      5  O   UNL     1       4.805  -6.033   1.311  1.00  0.00    -0.463 OA
BRANCH   5   6
ATOM      6  C   UNL     1       3.911  -5.991   0.282  1.00  0.00     0.311 C 
ATOM      7  O   UNL     1       3.271  -6.958  -0.110  1.00  0.00    -0.252 OA
BRANCH   6   8
ATOM      8  C   UNL     1       3.942  -4.641  -0.424  1.00  0.00     0.123 C 
ATOM      9  N   UNL     1       1.790  -3.683  -0.860  1.00  0.00    -0.335 N 
ATOM     10  C   UNL     1       2.005  -4.768  -1.802  1.00  0.00     0.121 C 
ATOM     11  C   UNL     1       2.960  -3.535   0.024  1.00  0.00     0.096 C 
ATOM     12  C   UNL     1       3.521  -4.861  -1.885  1.00  0.00     0.039 C 
ATOM     13  C   UNL     1       2.609  -3.523   1.498  1.00  0.00     0.032 C 
BRANCH   9  14
ATOM     14  C   UNL     1       0.604  -2.967  -0.973  1.00  0.00     0.254 C 
ATOM     15  O   UNL     1      -0.372  -3.465  -1.539  1.00  0.00    -0.269 OA
BRANCH  14  16
ATOM     16  C   UNL     1       0.461  -1.567  -0.483  1.00  0.00     0.040 A 
ATOM     17  C   UNL     1       2.487   1.628  -0.045  1.00  0.00     0.044 C 
ATOM     18  C   UNL     1       1.330   0.674  -0.078  1.00  0.00    -0.050 A 
ATOM     19  C   UNL     1       0.033   1.127   0.184  1.00  0.00     0.006 A 
ATOM     20  C   UNL     1       1.524  -0.661  -0.460  1.00  0.00     0.017 A 
ATOM     21  C   UNL     1      -1.059   0.256   0.100  1.00  0.00    -0.050 A 
ATOM     22  C   UNL     1      -2.455   0.789   0.249  1.00  0.00     0.044 C 
ATOM     23  C   UNL     1      -0.835  -1.091  -0.218  1.00  0.00     0.017 A 
ENDBRANCH  14  16
ENDBRANCH   9  14
ENDBRANCH   6   8
ENDBRANCH   5   6
ENDBRANCH   4   5
ENDBRANCH   3   4
ENDBRANCH   2   3
ENDBRANCH   1   2
BRANCH   1  24
ATOM     24  C   UNL     1       2.863  -5.942   3.934  1.00  0.00     0.188 C 
BRANCH  24  25
ATOM     25  O   UNL     1       3.346  -6.272   5.231  1.00  0.00    -0.376 OA
BRANCH  25  26
ATOM     26  C   UNL     1       2.481  -7.026   6.075  1.00  0.00     0.202 C 
BRANCH  26  27
ATOM     27  C   UNL     1       1.162  -6.335   6.437  1.00  0.00     0.261 C 
BRANCH  27  28
ATOM     28  O   UNL     1       0.177  -6.499   5.392  1.00  0.00    -0.460 OA
BRANCH  28  29
ATOM     29  C   UNL     1      -0.335  -5.354   4.880  1.00  0.00     0.338 C 
ATOM     30  O   UNL     1      -0.058  -4.215   5.215  1.00  0.00    -0.246 OA
BRANCH  29  31
ATOM     31  C   UNL     1      -1.218  -5.638   3.730  1.00  0.00     0.060 A 
ATOM     32  C   UNL     1      -1.041  -4.869   2.574  1.00  0.00     0.016 A 
ATOM     33  C   UNL     1      -2.286  -6.535   3.820  1.00  0.00     0.016 A 
ATOM     34  C   UNL     1      -1.965  -4.943   1.533  1.00  0.00     0.010 A 
ATOM     35  C   UNL     1      -3.220  -6.600   2.777  1.00  0.00     0.010 A 
ATOM     36  C   UNL     1      -3.090  -5.769   1.649  1.00  0.00    -0.014 A 
BRANCH  36  37
ATOM     37  C   UNL     1      -4.201  -5.619   0.672  1.00  0.00     0.031 A 
ATOM     38  C   UNL     1      -5.417  -4.820   1.061  1.00  0.00     0.074 A 
ATOM     39  C   UNL     1      -4.099  -6.101  -0.579  1.00  0.00     0.049 A 
ATOM     40  N   UNL     1      -6.504  -4.567   0.376  1.00  0.00    -0.248 NA
ATOM     41  C   UNL     1      -5.401  -4.217   2.403  1.00  0.00     0.031 C 
ATOM     42  C   UNL     1      -2.941  -6.806  -1.120  1.00  0.00     0.029 A 
ATOM     43  N   UNL     1      -4.982  -6.043  -1.630  1.00  0.00    -0.354 N 
ATOM     44  C   UNL     1      -7.303  -3.790   1.204  1.00  0.00     0.074 A 
ATOM     45  C   UNL     1      -6.586  -3.630   2.452  1.00  0.00     0.031 C 
ATOM     46  C   UNL     1      -3.173  -7.096  -2.412  1.00  0.00     0.029 A 
ATOM     47  C   UNL     1      -4.510  -6.631  -2.777  1.00  0.00     0.049 A 
ATOM     48  H   UNL     1      -5.869  -5.620  -1.566  1.00  0.00     0.167 HD
ATOM     49  C   UNL     1      -8.520  -3.251   0.951  1.00  0.00     0.037 A 
ATOM     50  C   UNL     1      -5.093  -6.785  -3.981  1.00  0.00     0.037 A 
ATOM     51  C   UNL     1      -9.235  -3.393  -0.289  1.00  0.00     0.049 A 
ATOM     52  C   UNL     1      -6.484  -6.256  -4.210  1.00  0.00     0.074 A 
ATOM     53  C   UNL     1     -10.484  -2.902  -0.629  1.00  0.00     0.029 A 
ATOM     54  N   UNL     1      -8.759  -4.075  -1.399  1.00  0.00    -0.354 N 
ATOM     55  N   UNL     1      -7.250  -5.563  -3.405  1.00  0.00    -0.248 NA
ATOM     56  C   UNL     1      -7.095  -6.547  -5.517  1.00  0.00     0.031 C 
ATOM     57  C   UNL     1     -10.779  -3.318  -1.932  1.00  0.00     0.029 A 
ATOM     58  C   UNL     1      -9.698  -4.036  -2.417  1.00  0.00     0.049 A 
ATOM     59  H   UNL     1      -7.883  -4.521  -1.455  1.00  0.00     0.167 HD
ATOM     60  C   UNL     1      -8.422  -5.317  -4.110  1.00  0.00     0.074 A 
ATOM     61  C   UNL     1      -8.262  -5.926  -5.414  1.00  0.00     0.031 C 
ATOM     62  C   UNL     1      -9.530  -4.646  -3.711  1.00  0.00     0.037 A 
BRANCH  49  63
ATOM     63  C   UNL     1      -9.170  -2.489   2.068  1.00  0.00     0.057 A 
ATOM     64  C   UNL     1      -8.736  -1.213   2.448  1.00  0.00     0.134 A 
ATOM     65  C   UNL     1     -10.242  -3.046   2.776  1.00  0.00     0.134 A 
ATOM     66  F   UNL     1      -7.702  -0.632   1.820  1.00  0.00    -0.206 F 
ATOM     67  C   UNL     1      -9.326  -0.530   3.513  1.00  0.00     0.040 A 
ATOM     68  C   UNL     1     -10.855  -2.364   3.828  1.00  0.00     0.040 A 
ATOM     69  F   UNL     1     -10.709  -4.264   2.460  1.00  0.00    -0.206 F 
ATOM     70  C   UNL     1     -10.391  -1.105   4.204  1.00  0.00     0.006 A 
ENDBRANCH  49  63
BRANCH  50  71
ATOM     71  C   UNL     1      -4.365  -7.482  -5.070  1.00  0.00     0.057 A 
ATOM     72  C   UNL     1      -3.906  -6.786  -6.194  1.00  0.00     0.134 A 
ATOM     73  C   UNL     1      -4.121  -8.859  -5.018  1.00  0.00     0.134 A 
ATOM     74  F   UNL     1      -4.139  -5.471  -6.317  1.00  0.00    -0.206 F 
ATOM     75  C   UNL     1      -3.232  -7.436  -7.229  1.00  0.00     0.040 A 
ATOM     76  C   UNL     1      -3.429  -9.518  -6.036  1.00  0.00     0.040 A 
ATOM     77  F   UNL     1      -4.546  -9.584  -3.973  1.00  0.00    -0.206 F 
ATOM     78  C   UNL     1      -2.985  -8.806  -7.148  1.00  0.00     0.006 A 
ENDBRANCH  50  71
BRANCH  62  79
ATOM     79  C   UNL     1     -10.650  -4.516  -4.700  1.00  0.00     0.057 A 
ATOM     80  C   UNL     1     -11.489  -5.594  -5.006  1.00  0.00     0.134 A 
ATOM     81  C   UNL     1     -10.916  -3.290  -5.323  1.00  0.00     0.134 A 
ATOM     82  F   UNL     1     -11.280  -6.798  -4.452  1.00  0.00    -0.206 F 
ATOM     83  C   UNL     1     -12.545  -5.462  -5.911  1.00  0.00     0.040 A 
ATOM     84  C   UNL     1     -11.981  -3.141  -6.213  1.00  0.00     0.040 A 
ATOM     85  F   UNL     1     -10.155  -2.216  -5.067  1.00  0.00    -0.206 F 
ATOM     86  C   UNL     1     -12.797  -4.230  -6.512  1.00  0.00     0.006 A 
ENDBRANCH  62  79
ENDBRANCH  36  37
ENDBRANCH  29  31
ENDBRANCH  28  29
ENDBRANCH  27  28
ENDBRANCH  26  27
ENDBRANCH  25  26
ENDBRANCH  24  25
ENDBRANCH   1  24
TORSDOF 19
