REMARK SMILES O=C(C[NH+]1CCN(c2ncc(C(F)(F)F)cc2Cl)CC1)OCCOCCOCCOC(=O)c1ccc(-c2c3nc(c(-c4c(F)cccc4F)c4ccc([nH]4)c(-c4c(F)cccc4F)c4nc(c(-c5c(F)cccc5F)c5ccc2[nH]5)C=C4)C=C3)cc1
REMARK SMILES IDX 25 1 24 2 23 3 22 4 21 5 2 6 1 7 3 8 4 9 5 10 20 11 6 13
REMARK SMILES IDX 19 14 7 15 8 16 9 17 17 18 10 19 16 20 18 21 11 22 12 23
REMARK SMILES IDX 13 24 14 25 15 26 26 27 27 28 28 29 29 30 30 31 31 32 32 33
REMARK SMILES IDX 33 34 34 35 86 36 35 37 85 38 36 39 37 40 38 41 79 42 39 43
REMARK SMILES IDX 84 44 78 45 80 46 40 47 83 48 77 49 76 50 41 52 67 53 50 54
REMARK SMILES IDX 66 55 51 56 54 57 65 58 81 59 52 60 53 61 64 63 82 64 55 65
REMARK SMILES IDX 42 66 43 67 48 68 44 69 45 70 47 71 49 72 46 73 68 74 69 75
REMARK SMILES IDX 74 76 70 77 71 78 73 79 75 80 72 81 56 82 57 83 62 84 58 85
REMARK SMILES IDX 59 86 61 87 63 88 60 89
REMARK H PARENT 4 12 80 51 54 62
REMARK Flexibility Score: inf
ROOT
ATOM      1  C   UNL     1       3.013   1.787   0.446  1.00  0.00     0.188 C 
ENDROOT
BRANCH   1   2
ATOM      2  O   UNL     1       4.298   1.364  -0.001  1.00  0.00    -0.376 OA
BRANCH   2   3
ATOM      3  C   UNL     1       4.413   0.980  -1.369  1.00  0.00     0.202 C 
BRANCH   3   4
ATOM      4  C   UNL     1       4.063  -0.486  -1.625  1.00  0.00     0.261 C 
BRANCH   4   5
ATOM      5  O   UNL     1       2.699  -0.743  -1.270  1.00  0.00    -0.459 OA
BRANCH   5   6
ATOM      6  C   UNL     1       2.442  -1.872  -0.557  1.00  0.00     0.361 C 
ATOM      7  O   UNL     1       1.740  -2.763  -1.028  1.00  0.00    -0.245 OA
BRANCH   6   8
ATOM      8  C   UNL     1       2.856  -1.841   0.919  1.00  0.00     0.386 C 
BRANCH   8   9
ATOM      9  N   UNL     1       4.190  -2.424   1.160  1.00  0.00    -0.323 N 
ATOM     10  C   UNL     1       5.205  -1.402   1.534  1.00  0.00     0.284 C 
ATOM     11  C   UNL     1       4.140  -3.428   2.258  1.00  0.00     0.284 C 
ATOM     12  H   UNL     1       4.463  -2.860   0.279  1.00  0.00     0.348 HD
ATOM     13  C   UNL     1       4.997  -0.718   2.902  1.00  0.00     0.179 C 
ATOM     14  C   UNL     1       4.023  -2.864   3.704  1.00  0.00     0.179 C 
ATOM     15  N   UNL     1       4.944  -1.754   3.921  1.00  0.00    -0.344 N 
BRANCH  15  16
ATOM     16  C   UNL     1       5.883  -1.686   4.918  1.00  0.00     0.147 A 
ATOM     17  N   UNL     1       5.846  -0.559   5.675  1.00  0.00    -0.237 NA
ATOM     18  C   UNL     1       6.907  -2.628   5.101  1.00  0.00     0.084 A 
ATOM     19  C   UNL     1       6.795  -0.371   6.622  1.00  0.00     0.126 A 
ATOM     20  C   UNL     1       7.890  -2.397   6.067  1.00  0.00     0.039 A 
ATOM     21  Cl  UNL     1       7.109  -4.027   4.110  1.00  0.00    -0.080 Cl
ATOM     22  C   UNL     1       7.842  -1.245   6.850  1.00  0.00     0.075 A 
BRANCH  22  23
ATOM     23  C   UNL     1       8.873  -0.928   7.885  1.00  0.00     0.417 C 
ATOM     24  F   UNL     1       9.463   0.281   7.678  1.00  0.00    -0.166 F 
ATOM     25  F   UNL     1       8.355  -0.885   9.141  1.00  0.00    -0.166 F 
ATOM     26  F   UNL     1       9.888  -1.835   7.929  1.00  0.00    -0.166 F 
ENDBRANCH  22  23
ENDBRANCH  15  16
ENDBRANCH   8   9
ENDBRANCH   6   8
ENDBRANCH   5   6
ENDBRANCH   4   5
ENDBRANCH   3   4
ENDBRANCH   2   3
ENDBRANCH   1   2
BRANCH   1  27
ATOM     27  C   UNL     1       2.323   2.937  -0.296  1.00  0.00     0.188 C 
BRANCH  27  28
ATOM     28  O   UNL     1       2.969   4.178  -0.543  1.00  0.00    -0.376 OA
BRANCH  28  29
ATOM     29  C   UNL     1       4.317   4.384  -0.164  1.00  0.00     0.202 C 
BRANCH  29  30
ATOM     30  C   UNL     1       4.483   5.027   1.214  1.00  0.00     0.261 C 
BRANCH  30  31
ATOM     31  O   UNL     1       4.051   4.186   2.297  1.00  0.00    -0.460 OA
BRANCH  31  32
ATOM     32  C   UNL     1       2.805   4.449   2.758  1.00  0.00     0.338 C 
ATOM     33  O   UNL     1       2.014   5.269   2.326  1.00  0.00    -0.246 OA
BRANCH  32  34
ATOM     34  C   UNL     1       2.461   3.542   3.873  1.00  0.00     0.060 A 
ATOM     35  C   UNL     1       1.181   2.975   3.880  1.00  0.00     0.016 A 
ATOM     36  C   UNL     1       3.319   3.364   4.962  1.00  0.00     0.016 A 
ATOM     37  C   UNL     1       0.726   2.295   5.009  1.00  0.00     0.010 A 
ATOM     38  C   UNL     1       2.859   2.686   6.097  1.00  0.00     0.010 A 
ATOM     39  C   UNL     1       1.543   2.196   6.144  1.00  0.00    -0.014 A 
BRANCH  39  40
ATOM     40  C   UNL     1       0.945   1.757   7.430  1.00  0.00     0.031 A 
ATOM     41  C   UNL     1       0.457   2.802   8.399  1.00  0.00     0.074 A 
ATOM     42  C   UNL     1       0.787   0.454   7.716  1.00  0.00     0.049 A 
ATOM     43  N   UNL     1      -0.125   2.652   9.563  1.00  0.00    -0.248 NA
ATOM     44  C   UNL     1       0.652   4.206   8.003  1.00  0.00     0.031 C 
ATOM     45  C   UNL     1       1.191  -0.656   6.857  1.00  0.00     0.029 A 
ATOM     46  N   UNL     1       0.235  -0.151   8.817  1.00  0.00    -0.354 N 
ATOM     47  C   UNL     1      -0.363   3.936  10.036  1.00  0.00     0.074 A 
ATOM     48  C   UNL     1       0.164   4.855   9.049  1.00  0.00     0.031 C 
ATOM     49  C   UNL     1       0.863  -1.812   7.461  1.00  0.00     0.029 A 
ATOM     50  C   UNL     1       0.252  -1.522   8.757  1.00  0.00     0.049 A 
ATOM     51  H   UNL     1      -0.138   0.350   9.578  1.00  0.00     0.167 HD
ATOM     52  C   UNL     1      -0.974   4.320  11.182  1.00  0.00     0.037 A 
ATOM     53  C   UNL     1      -0.170  -2.436   9.653  1.00  0.00     0.037 A 
ATOM     54  C   UNL     1      -1.503   3.415  12.167  1.00  0.00     0.049 A 
ATOM     55  C   UNL     1      -0.789  -1.984  10.949  1.00  0.00     0.074 A 
ATOM     56  C   UNL     1      -2.160   3.713  13.348  1.00  0.00     0.029 A 
ATOM     57  N   UNL     1      -1.429   2.034  12.088  1.00  0.00    -0.354 N 
ATOM     58  N   UNL     1      -1.040  -0.768  11.369  1.00  0.00    -0.248 NA
ATOM     59  C   UNL     1      -1.185  -3.038  11.896  1.00  0.00     0.031 C 
ATOM     60  C   UNL     1      -2.447   2.511  14.004  1.00  0.00     0.029 A 
ATOM     61  C   UNL     1      -2.006   1.465  13.211  1.00  0.00     0.049 A 
ATOM     62  H   UNL     1      -1.025   1.532  11.344  1.00  0.00     0.167 HD
ATOM     63  C   UNL     1      -1.648  -0.911  12.611  1.00  0.00     0.074 A 
ATOM     64  C   UNL     1      -1.735  -2.332  12.874  1.00  0.00     0.031 C 
ATOM     65  C   UNL     1      -2.096   0.049  13.457  1.00  0.00     0.037 A 
BRANCH  52  66
ATOM     66  C   UNL     1      -1.083   5.794  11.441  1.00  0.00     0.057 A 
ATOM     67  C   UNL     1      -1.985   6.602  10.737  1.00  0.00     0.134 A 
ATOM     68  C   UNL     1      -0.291   6.406  12.419  1.00  0.00     0.134 A 
ATOM     69  F   UNL     1      -2.761   6.077   9.777  1.00  0.00    -0.206 F 
ATOM     70  C   UNL     1      -2.080   7.973  10.983  1.00  0.00     0.040 A 
ATOM     71  C   UNL     1      -0.392   7.771  12.690  1.00  0.00     0.040 A 
ATOM     72  F   UNL     1       0.591   5.687  13.131  1.00  0.00    -0.206 F 
ATOM     73  C   UNL     1      -1.285   8.560  11.966  1.00  0.00     0.006 A 
ENDBRANCH  52  66
BRANCH  53  74
ATOM     74  C   UNL     1      -0.026  -3.883   9.360  1.00  0.00     0.057 A 
ATOM     75  C   UNL     1      -1.145  -4.681   9.097  1.00  0.00     0.134 A 
ATOM     76  C   UNL     1       1.227  -4.507   9.367  1.00  0.00     0.134 A 
ATOM     77  F   UNL     1      -2.373  -4.144   9.102  1.00  0.00    -0.206 F 
ATOM     78  C   UNL     1      -1.026  -6.052   8.866  1.00  0.00     0.040 A 
ATOM     79  C   UNL     1       1.363  -5.873   9.117  1.00  0.00     0.040 A 
ATOM     80  F   UNL     1       2.337  -3.796   9.617  1.00  0.00    -0.206 F 
ATOM     81  C   UNL     1       0.233  -6.651   8.872  1.00  0.00     0.006 A 
ENDBRANCH  53  74
BRANCH  65  82
ATOM     82  C   UNL     1      -2.755  -0.404  14.727  1.00  0.00     0.057 A 
ATOM     83  C   UNL     1      -2.019  -0.930  15.795  1.00  0.00     0.134 A 
ATOM     84  C   UNL     1      -4.140  -0.279  14.895  1.00  0.00     0.134 A 
ATOM     85  F   UNL     1      -0.690  -1.087  15.693  1.00  0.00    -0.206 F 
ATOM     86  C   UNL     1      -2.639  -1.336  16.978  1.00  0.00     0.040 A 
ATOM     87  C   UNL     1      -4.769  -0.660  16.081  1.00  0.00     0.040 A 
ATOM     88  F   UNL     1      -4.902   0.226  13.913  1.00  0.00    -0.206 F 
ATOM     89  C   UNL     1      -4.018  -1.196  17.125  1.00  0.00     0.006 A 
ENDBRANCH  65  82
ENDBRANCH  39  40
ENDBRANCH  32  34
ENDBRANCH  31  32
ENDBRANCH  30  31
ENDBRANCH  29  30
ENDBRANCH  28  29
ENDBRANCH  27  28
ENDBRANCH   1  27
TORSDOF 20
