REMARK SMILES Cc1cc(=O)cc(C)n1C[C@H]1CCCC[C@@H]1C(=O)OCCOCCOCCOC(=O)c1ccc(-c2c3nc(c(-c4c(F)cccc4F)c4ccc([nH]4)c(-c4c(F)cccc4F)c4nc(c(-c5c(F)cccc5F)c5ccc2[nH]5)C=C4)C=C3)cc1
REMARK SMILES IDX 23 1 22 2 21 3 20 4 19 5 17 6 18 7 16 8 11 9 12 10 13 11
REMARK SMILES IDX 15 12 14 13 10 14 9 15 1 16 2 17 3 18 4 19 7 20 5 21 6 22
REMARK SMILES IDX 8 23 24 24 25 25 26 26 27 27 28 28 29 29 30 30 31 31 32 32
REMARK SMILES IDX 84 33 33 34 83 35 34 36 35 37 36 38 77 39 37 40 82 41 76 42
REMARK SMILES IDX 78 43 38 44 81 45 75 46 74 47 39 49 65 50 48 51 64 52 49 53
REMARK SMILES IDX 52 54 63 55 79 56 50 57 51 58 62 60 80 61 53 62 40 63 41 64
REMARK SMILES IDX 46 65 42 66 43 67 45 68 47 69 44 70 66 71 67 72 72 73 68 74
REMARK SMILES IDX 69 75 71 76 73 77 70 78 54 79 55 80 60 81 56 82 57 83 59 84
REMARK SMILES IDX 61 85 58 86
REMARK H PARENT 78 48 52 59
REMARK Flexibility Score: inf
ROOT
ATOM      1  C   UNL     1      -0.015   2.524  -0.259  1.00  0.00     0.188 C 
ENDROOT
BRANCH   1   2
ATOM      2  O   UNL     1      -1.413   2.313  -0.279  1.00  0.00    -0.376 OA
BRANCH   2   3
ATOM      3  C   UNL     1      -2.044   2.357  -1.548  1.00  0.00     0.202 C 
BRANCH   3   4
ATOM      4  C   UNL     1      -1.524   1.397  -2.634  1.00  0.00     0.261 C 
BRANCH   4   5
ATOM      5  O   UNL     1      -0.098   1.409  -2.882  1.00  0.00    -0.463 OA
BRANCH   5   6
ATOM      6  C   UNL     1       0.418   2.530  -3.446  1.00  0.00     0.309 C 
ATOM      7  O   UNL     1      -0.277   3.485  -3.766  1.00  0.00    -0.252 OA
BRANCH   6   8
ATOM      8  C   UNL     1       1.964   2.448  -3.603  1.00  0.00     0.104 C 
ATOM      9  C   UNL     1       2.806   3.289  -2.561  1.00  0.00     0.023 C 
ATOM     10  C   UNL     1       2.358   4.744  -2.720  1.00  0.00     0.006 C 
ATOM     11  C   UNL     1       2.591   5.278  -4.138  1.00  0.00     0.000 C 
ATOM     12  C   UNL     1       2.286   2.889  -5.038  1.00  0.00     0.016 C 
ATOM     13  C   UNL     1       2.061   4.388  -5.262  1.00  0.00     0.001 C 
BRANCH   9  14
ATOM     14  C   UNL     1       4.365   3.089  -2.737  1.00  0.00     0.126 C 
BRANCH  14  15
ATOM     15  N   UNL     1       5.279   3.539  -1.608  1.00  0.00    -0.349 N 
ATOM     16  C   UNL     1       6.001   1.108  -1.134  1.00  0.00     0.064 C 
ATOM     17  C   UNL     1       5.981   2.582  -0.802  1.00  0.00     0.018 A 
ATOM     18  C   UNL     1       6.761   2.934   0.241  1.00  0.00     0.073 A 
ATOM     19  C   UNL     1       6.945   4.348   0.585  1.00  0.00     0.182 A 
ATOM     20  C   UNL     1       5.682   4.905  -1.428  1.00  0.00     0.018 A 
ATOM     21  O   UNL     1       7.539   4.691   1.598  1.00  0.00    -0.290 OA
ATOM     22  C   UNL     1       6.441   5.317  -0.390  1.00  0.00     0.073 A 
ATOM     23  C   UNL     1       5.409   5.982  -2.442  1.00  0.00     0.064 C 
ENDBRANCH  14  15
ENDBRANCH   9  14
ENDBRANCH   6   8
ENDBRANCH   5   6
ENDBRANCH   4   5
ENDBRANCH   3   4
ENDBRANCH   2   3
ENDBRANCH   1   2
BRANCH   1  24
ATOM     24  C   UNL     1       0.813   1.223  -0.144  1.00  0.00     0.188 C 
BRANCH  24  25
ATOM     25  O   UNL     1       0.156   0.003   0.168  1.00  0.00    -0.376 OA
BRANCH  25  26
ATOM     26  C   UNL     1      -0.839   0.009   1.182  1.00  0.00     0.202 C 
BRANCH  26  27
ATOM     27  C   UNL     1      -0.486   0.574   2.569  1.00  0.00     0.261 C 
BRANCH  27  28
ATOM     28  O   UNL     1       0.069   1.906   2.587  1.00  0.00    -0.460 OA
BRANCH  28  29
ATOM     29  C   UNL     1       1.360   2.016   2.982  1.00  0.00     0.338 C 
ATOM     30  O   UNL     1       2.101   1.106   3.341  1.00  0.00    -0.246 OA
BRANCH  29  31
ATOM     31  C   UNL     1       1.858   3.391   2.760  1.00  0.00     0.060 A 
ATOM     32  C   UNL     1       2.799   3.610   1.748  1.00  0.00     0.016 A 
ATOM     33  C   UNL     1       1.474   4.447   3.589  1.00  0.00     0.016 A 
ATOM     34  C   UNL     1       3.353   4.876   1.567  1.00  0.00     0.010 A 
ATOM     35  C   UNL     1       2.076   5.708   3.432  1.00  0.00     0.010 A 
ATOM     36  C   UNL     1       3.042   5.926   2.435  1.00  0.00    -0.014 A 
BRANCH  36  37
ATOM     37  C   UNL     1       3.873   7.163   2.409  1.00  0.00     0.031 A 
ATOM     38  C   UNL     1       4.993   7.304   3.410  1.00  0.00     0.074 A 
ATOM     39  C   UNL     1       3.710   8.118   1.473  1.00  0.00     0.049 A 
ATOM     40  N   UNL     1       5.773   8.329   3.647  1.00  0.00    -0.248 NA
ATOM     41  C   UNL     1       5.270   6.129   4.250  1.00  0.00     0.031 C 
ATOM     42  C   UNL     1       2.752   8.072   0.371  1.00  0.00     0.029 A 
ATOM     43  N   UNL     1       4.357   9.321   1.303  1.00  0.00    -0.354 N 
ATOM     44  C   UNL     1       6.632   7.920   4.662  1.00  0.00     0.074 A 
ATOM     45  C   UNL     1       6.258   6.569   5.015  1.00  0.00     0.031 C 
ATOM     46  C   UNL     1       2.866   9.200  -0.353  1.00  0.00     0.029 A 
ATOM     47  C   UNL     1       3.871  10.071   0.259  1.00  0.00     0.049 A 
ATOM     48  H   UNL     1       5.100   9.617   1.878  1.00  0.00     0.167 HD
ATOM     49  C   UNL     1       7.648   8.603   5.242  1.00  0.00     0.037 A 
ATOM     50  C   UNL     1       4.176  11.325  -0.138  1.00  0.00     0.037 A 
ATOM     51  C   UNL     1       8.044   9.939   4.886  1.00  0.00     0.049 A 
ATOM     52  C   UNL     1       5.218  12.118   0.615  1.00  0.00     0.074 A 
ATOM     53  C   UNL     1       9.043  10.717   5.446  1.00  0.00     0.029 A 
ATOM     54  N   UNL     1       7.473  10.689   3.872  1.00  0.00    -0.354 N 
ATOM     55  N   UNL     1       5.989  11.743   1.606  1.00  0.00    -0.248 NA
ATOM     56  C   UNL     1       5.425  13.515   0.198  1.00  0.00     0.031 C 
ATOM     57  C   UNL     1       9.044  11.957   4.802  1.00  0.00     0.029 A 
ATOM     58  C   UNL     1       8.084  11.930   3.805  1.00  0.00     0.049 A 
ATOM     59  H   UNL     1       6.742  10.385   3.286  1.00  0.00     0.167 HD
ATOM     60  C   UNL     1       6.790  12.841   1.907  1.00  0.00     0.074 A 
ATOM     61  C   UNL     1       6.424  13.893   0.984  1.00  0.00     0.031 C 
ATOM     62  C   UNL     1       7.739  12.966   2.866  1.00  0.00     0.037 A 
BRANCH  49  63
ATOM     63  C   UNL     1       8.408   7.928   6.345  1.00  0.00     0.057 A 
ATOM     64  C   UNL     1       9.336   6.913   6.087  1.00  0.00     0.134 A 
ATOM     65  C   UNL     1       8.280   8.368   7.670  1.00  0.00     0.134 A 
ATOM     66  F   UNL     1       9.504   6.445   4.842  1.00  0.00    -0.206 F 
ATOM     67  C   UNL     1      10.106   6.354   7.109  1.00  0.00     0.040 A 
ATOM     68  C   UNL     1       9.064   7.836   8.694  1.00  0.00     0.040 A 
ATOM     69  F   UNL     1       7.417   9.346   7.982  1.00  0.00    -0.206 F 
ATOM     70  C   UNL     1       9.980   6.825   8.415  1.00  0.00     0.006 A 
ENDBRANCH  49  63
BRANCH  50  71
ATOM     71  C   UNL     1       3.471  11.946  -1.292  1.00  0.00     0.057 A 
ATOM     72  C   UNL     1       4.160  12.293  -2.461  1.00  0.00     0.134 A 
ATOM     73  C   UNL     1       2.109  12.265  -1.234  1.00  0.00     0.134 A 
ATOM     74  F   UNL     1       5.474  12.045  -2.569  1.00  0.00    -0.206 F 
ATOM     75  C   UNL     1       3.528  12.952  -3.518  1.00  0.00     0.040 A 
ATOM     76  C   UNL     1       1.456  12.896  -2.295  1.00  0.00     0.040 A 
ATOM     77  F   UNL     1       1.390  11.972  -0.140  1.00  0.00    -0.206 F 
ATOM     78  C   UNL     1       2.170  13.250  -3.438  1.00  0.00     0.006 A 
ENDBRANCH  50  71
BRANCH  62  79
ATOM     79  C   UNL     1       8.491  14.263   2.958  1.00  0.00     0.057 A 
ATOM     80  C   UNL     1       7.895  15.431   3.449  1.00  0.00     0.134 A 
ATOM     81  C   UNL     1       9.855  14.322   2.639  1.00  0.00     0.134 A 
ATOM     82  F   UNL     1       6.592  15.447   3.767  1.00  0.00    -0.206 F 
ATOM     83  C   UNL     1       8.624  16.611   3.610  1.00  0.00     0.040 A 
ATOM     84  C   UNL     1      10.601  15.487   2.822  1.00  0.00     0.040 A 
ATOM     85  F   UNL     1      10.494  13.236   2.175  1.00  0.00    -0.206 F 
ATOM     86  C   UNL     1       9.984  16.638   3.307  1.00  0.00     0.006 A 
ENDBRANCH  62  79
ENDBRANCH  36  37
ENDBRANCH  29  31
ENDBRANCH  28  29
ENDBRANCH  27  28
ENDBRANCH  26  27
ENDBRANCH  25  26
ENDBRANCH  24  25
ENDBRANCH   1  24
TORSDOF 19
