REMARK SMILES CN(C)S(=O)(=O)c1ccc(-n2c(CCC(=O)OCCOCCOCCOC(=O)c3ccc(-c4c5nc(c(-c6c(F)cccc6F)c6ccc([nH]6)c(-c6c(F)cccc6F)c6nc(c(-c7c(F)cccc7F)c7ccc4[nH]7)C=C6)C=C5)cc3)ccc2-c2ccc(F)cc2)cc1
REMARK SMILES IDX 20 1 19 2 18 3 17 4 15 5 16 6 14 7 13 8 12 9 11 10 85 11
REMARK SMILES IDX 83 12 84 13 10 14 7 15 8 16 94 17 9 18 93 19 4 20 5 21 6 22
REMARK SMILES IDX 2 23 1 24 3 25 86 26 87 27 92 28 88 29 91 30 89 31 90 32
REMARK SMILES IDX 21 33 22 34 23 35 24 36 25 37 26 38 27 39 28 40 29 41 30 42
REMARK SMILES IDX 82 43 31 44 81 45 32 46 33 47 34 48 75 49 35 50 80 51 74 52
REMARK SMILES IDX 76 53 36 54 79 55 73 56 72 57 37 59 63 60 46 61 62 62 47 63
REMARK SMILES IDX 50 64 61 65 77 66 48 67 49 68 60 70 78 71 51 72 38 73 39 74
REMARK SMILES IDX 44 75 40 76 41 77 43 78 45 79 42 80 64 81 65 82 70 83 66 84
REMARK SMILES IDX 67 85 69 86 71 87 68 88 52 89 53 90 58 91 54 92 55 93 57 94
REMARK SMILES IDX 59 95 56 96
REMARK H PARENT 76 58 50 69
REMARK Flexibility Score: inf
ROOT
ATOM      1  O   UNL     1       0.603  -0.468   5.241  1.00  0.00    -0.376 OA
ENDROOT
BRANCH   1   2
ATOM      2  C   UNL     1      -1.184  -1.336   5.096  1.00  0.00     0.202 C 
BRANCH   2   3
ATOM      3  C   UNL     1      -2.025  -2.452   6.107  1.00  0.00     0.261 C 
BRANCH   3   4
ATOM      4  O   UNL     1      -1.873  -2.413   7.552  1.00  0.00    -0.463 OA
BRANCH   4   5
ATOM      5  C   UNL     1      -1.330  -3.511   8.147  1.00  0.00     0.306 C 
ATOM      6  O   UNL     1      -1.418  -4.644   7.686  1.00  0.00    -0.252 OA
BRANCH   5   7
ATOM      7  C   UNL     1      -0.509  -3.216   9.404  1.00  0.00     0.129 C 
BRANCH   7   8
ATOM      8  C   UNL     1       0.365  -1.957   9.490  1.00  0.00     0.066 C 
BRANCH   8   9
ATOM      9  C   UNL     1      -0.395  -0.681   9.407  1.00  0.00     0.024 A 
ATOM     10  N   UNL     1      -0.775  -0.034   8.230  1.00  0.00    -0.314 N 
ATOM     11  C   UNL     1      -1.663   1.000   8.605  1.00  0.00     0.053 A 
ATOM     12  C   UNL     1      -0.796   0.097  10.478  1.00  0.00     0.024 A 
ATOM     13  C   UNL     1      -1.584   1.141   9.979  1.00  0.00     0.029 A 
BRANCH  10  14
ATOM     14  C   UNL     1      -0.406  -0.386   6.881  1.00  0.00     0.046 A 
ATOM     15  C   UNL     1       0.366  -1.040   3.407  1.00  0.00     0.082 A 
ATOM     16  C   UNL     1      -0.373   0.508   3.887  1.00  0.00     0.024 A 
ATOM     17  C   UNL     1       0.705  -2.323   4.625  1.00  0.00     0.024 A 
ATOM     18  C   UNL     1      -0.741   0.847   5.608  1.00  0.00     0.028 A 
ATOM     19  C   UNL     1       0.359  -1.990   6.384  1.00  0.00     0.028 A 
BRANCH  15  20
ATOM     20  S   UNL     1       1.058  -1.210   1.800  1.00  0.00     0.242 S 
ATOM     21  O   UNL     1       0.540  -2.441   1.243  1.00  0.00    -0.207 OA
ATOM     22  O   UNL     1       2.482  -0.981   1.934  1.00  0.00    -0.207 OA
BRANCH  20  23
ATOM     23  N   UNL     1       0.405   0.084   0.870  1.00  0.00    -0.204 NA
ATOM     24  C   UNL     1       1.087   0.219  -0.446  1.00  0.00     0.124 C 
ATOM     25  C   UNL     1      -1.066   0.064   0.683  1.00  0.00     0.124 C 
ENDBRANCH  20  23
ENDBRANCH  15  20
ENDBRANCH  10  14
BRANCH  11  26
ATOM     26  C   UNL     1      -2.564   1.763   7.728  1.00  0.00    -0.001 A 
ATOM     27  C   UNL     1      -2.440   3.160   7.631  1.00  0.00     0.013 A 
ATOM     28  C   UNL     1      -3.526   1.109   6.940  1.00  0.00     0.013 A 
ATOM     29  C   UNL     1      -3.203   3.874   6.703  1.00  0.00     0.040 A 
ATOM     30  C   UNL     1      -4.277   1.823   6.003  1.00  0.00     0.040 A 
ATOM     31  C   UNL     1      -4.101   3.196   5.886  1.00  0.00     0.123 A 
ATOM     32  F   UNL     1      -4.796   3.874   4.963  1.00  0.00    -0.207 F 
ENDBRANCH  11  26
ENDBRANCH   8   9
ENDBRANCH   7   8
ENDBRANCH   5   7
ENDBRANCH   4   5
ENDBRANCH   3   4
ENDBRANCH   2   3
ENDBRANCH   1   2
BRANCH   1  33
ATOM     33  C   UNL     1       2.057  -0.489   5.716  1.00  0.00     0.188 C 
BRANCH  33  34
ATOM     34  C   UNL     1       2.349   0.423   6.930  1.00  0.00     0.188 C 
BRANCH  34  35
ATOM     35  O   UNL     1       1.944   1.798   6.896  1.00  0.00    -0.376 OA
BRANCH  35  36
ATOM     36  C   UNL     1       1.827   2.466   5.642  1.00  0.00     0.202 C 
BRANCH  36  37
ATOM     37  C   UNL     1       3.079   3.119   5.109  1.00  0.00     0.261 C 
BRANCH  37  38
ATOM     38  O   UNL     1       4.024   2.091   4.916  1.00  0.00    -0.460 OA
BRANCH  38  39
ATOM     39  C   UNL     1       4.769   1.855   6.024  1.00  0.00     0.338 C 
ATOM     40  O   UNL     1       4.751   2.450   7.076  1.00  0.00    -0.246 OA
BRANCH  39  41
ATOM     41  C   UNL     1       5.707   0.748   5.665  1.00  0.00     0.060 A 
ATOM     42  C   UNL     1       6.551   0.525   6.754  1.00  0.00     0.016 A 
ATOM     43  C   UNL     1       6.230   1.066   4.410  1.00  0.00     0.016 A 
ATOM     44  C   UNL     1       7.745   1.202   6.744  1.00  0.00     0.010 A 
ATOM     45  C   UNL     1       7.313   1.905   4.419  1.00  0.00     0.010 A 
ATOM     46  C   UNL     1       8.074   1.942   5.595  1.00  0.00    -0.014 A 
BRANCH  46  47
ATOM     47  C   UNL     1       9.461   2.365   5.480  1.00  0.00     0.031 A 
ATOM     48  C   UNL     1      10.241   1.076   5.022  1.00  0.00     0.074 A 
ATOM     49  C   UNL     1       9.701   3.664   5.854  1.00  0.00     0.049 A 
ATOM     50  N   UNL     1      11.391   0.601   5.393  1.00  0.00    -0.248 NA
ATOM     51  C   UNL     1       9.546   0.072   4.133  1.00  0.00     0.031 C 
ATOM     52  C   UNL     1       8.690   4.685   6.246  1.00  0.00     0.029 A 
ATOM     53  N   UNL     1      10.845   4.405   5.991  1.00  0.00    -0.354 N 
ATOM     54  C   UNL     1      11.617  -0.565   4.617  1.00  0.00     0.074 A 
ATOM     55  C   UNL     1      10.375  -0.963   4.063  1.00  0.00     0.031 C 
ATOM     56  C   UNL     1       9.280   5.832   6.672  1.00  0.00     0.029 A 
ATOM     57  C   UNL     1      10.721   5.691   6.600  1.00  0.00     0.049 A 
ATOM     58  H   UNL     1      11.716   4.066   5.683  1.00  0.00     0.167 HD
ATOM     59  C   UNL     1      12.856  -0.967   4.224  1.00  0.00     0.037 A 
ATOM     60  C   UNL     1      11.730   6.501   7.081  1.00  0.00     0.037 A 
ATOM     61  C   UNL     1      13.819  -0.099   4.793  1.00  0.00     0.049 A 
ATOM     62  C   UNL     1      12.941   5.717   6.795  1.00  0.00     0.074 A 
ATOM     63  C   UNL     1      14.478  -0.034   5.987  1.00  0.00     0.029 A 
ATOM     64  N   UNL     1      14.007   1.072   4.105  1.00  0.00    -0.354 N 
ATOM     65  N   UNL     1      13.424   5.489   5.614  1.00  0.00    -0.248 NA
ATOM     66  C   UNL     1      13.388   4.855   7.882  1.00  0.00     0.031 C 
ATOM     67  C   UNL     1      14.952   1.295   6.067  1.00  0.00     0.029 A 
ATOM     68  C   UNL     1      14.415   2.019   5.000  1.00  0.00     0.049 A 
ATOM     69  H   UNL     1      13.872   1.206   3.139  1.00  0.00     0.167 HD
ATOM     70  C   UNL     1      14.010   4.249   5.743  1.00  0.00     0.074 A 
ATOM     71  C   UNL     1      14.011   3.931   7.165  1.00  0.00     0.031 C 
ATOM     72  C   UNL     1      14.108   3.390   4.697  1.00  0.00     0.037 A 
BRANCH  59  73
ATOM     73  C   UNL     1      13.319  -1.820   3.067  1.00  0.00     0.057 A 
ATOM     74  C   UNL     1      14.680  -2.206   3.063  1.00  0.00     0.134 A 
ATOM     75  C   UNL     1      12.661  -1.922   1.834  1.00  0.00     0.134 A 
ATOM     76  F   UNL     1      15.399  -2.209   4.197  1.00  0.00    -0.206 F 
ATOM     77  C   UNL     1      15.377  -2.502   1.890  1.00  0.00     0.040 A 
ATOM     78  C   UNL     1      13.338  -2.281   0.659  1.00  0.00     0.040 A 
ATOM     79  F   UNL     1      11.373  -1.588   1.686  1.00  0.00    -0.206 F 
ATOM     80  C   UNL     1      14.709  -2.519   0.676  1.00  0.00     0.006 A 
ENDBRANCH  59  73
BRANCH  60  81
ATOM     81  C   UNL     1      11.931   7.713   7.972  1.00  0.00     0.057 A 
ATOM     82  C   UNL     1      10.963   8.656   8.318  1.00  0.00     0.134 A 
ATOM     83  C   UNL     1      13.194   7.936   8.606  1.00  0.00     0.134 A 
ATOM     84  F   UNL     1       9.766   8.661   7.719  1.00  0.00    -0.206 F 
ATOM     85  C   UNL     1      11.197   9.657   9.292  1.00  0.00     0.040 A 
ATOM     86  C   UNL     1      13.423   8.884   9.610  1.00  0.00     0.040 A 
ATOM     87  F   UNL     1      14.285   7.227   8.280  1.00  0.00    -0.206 F 
ATOM     88  C   UNL     1      12.411   9.745   9.973  1.00  0.00     0.006 A 
ENDBRANCH  60  81
BRANCH  72  89
ATOM     89  C   UNL     1      13.518   3.914   3.385  1.00  0.00     0.057 A 
ATOM     90  C   UNL     1      14.166   4.903   2.646  1.00  0.00     0.134 A 
ATOM     91  C   UNL     1      12.242   3.554   2.901  1.00  0.00     0.134 A 
ATOM     92  F   UNL     1      15.388   5.315   3.008  1.00  0.00    -0.206 F 
ATOM     93  C   UNL     1      13.581   5.499   1.514  1.00  0.00     0.040 A 
ATOM     94  C   UNL     1      11.634   4.144   1.782  1.00  0.00     0.040 A 
ATOM     95  F   UNL     1      11.544   2.588   3.491  1.00  0.00    -0.206 F 
ATOM     96  C   UNL     1      12.308   5.130   1.082  1.00  0.00     0.006 A 
ENDBRANCH  72  89
ENDBRANCH  46  47
ENDBRANCH  39  41
ENDBRANCH  38  39
ENDBRANCH  37  38
ENDBRANCH  36  37
ENDBRANCH  35  36
ENDBRANCH  34  35
ENDBRANCH  33  34
ENDBRANCH   1  33
TORSDOF 23
