REMARK SMILES NC(=O)C[C@H](NC(=O)C1(c2ccccc2)CCN(C(=O)[C@@H]2CCC[NH2+]2)CC1)C(=O)OCCOCCOCCOC(=O)c1ccc(-c2c3nc(c(-c4c(F)cccc4F)c4ccc([nH]4)c(-c4c(F)cccc4F)c4nc(c(-c5c(F)cccc5F)c5ccc2[nH]5)C=C4)C=C3)cc1
REMARK SMILES IDX 34 1 33 2 32 3 31 4 30 5 28 6 29 7 5 8 4 9 2 10 1 11 3 14
REMARK SMILES IDX 6 15 7 16 8 18 9 19 16 20 27 21 17 22 26 23 18 24 19 25
REMARK SMILES IDX 20 26 10 27 11 28 15 29 12 30 14 31 13 32 21 33 22 34 25 35
REMARK SMILES IDX 23 36 24 37 35 40 36 41 37 42 38 43 39 44 40 45 41 46 42 47
REMARK SMILES IDX 43 48 95 49 44 50 94 51 45 52 46 53 47 54 88 55 48 56 93 57
REMARK SMILES IDX 87 58 89 59 49 60 92 61 86 62 85 63 50 65 76 66 59 67 75 68
REMARK SMILES IDX 60 69 63 70 74 71 90 72 61 73 62 74 73 76 91 77 64 78 51 79
REMARK SMILES IDX 52 80 57 81 53 82 54 83 56 84 58 85 55 86 77 87 78 88 83 89
REMARK SMILES IDX 79 90 80 91 82 92 84 93 81 94 65 95 66 96 71 97 67 98 68 99
REMARK SMILES IDX 70 100 72 101 69 102
REMARK H PARENT 1 12 1 13 6 17 25 38 25 39 89 64 63 75
REMARK Flexibility Score: inf
ROOT
ATOM      1  C   UNL     1       2.189  -2.218   7.022  1.00  0.00     0.188 C 
ENDROOT
BRANCH   1   2
ATOM      2  O   UNL     1       3.562  -1.855   6.912  1.00  0.00    -0.376 OA
BRANCH   2   3
ATOM      3  C   UNL     1       3.977  -0.631   6.317  1.00  0.00     0.202 C 
BRANCH   3   4
ATOM      4  C   UNL     1       5.027  -0.738   5.018  1.00  0.00     0.261 C 
BRANCH   4   5
ATOM      5  O   UNL     1       4.689  -1.389   3.148  1.00  0.00    -0.462 OA
BRANCH   5   6
ATOM      6  C   UNL     1       4.230  -1.742   1.875  1.00  0.00     0.329 C 
ATOM      7  O   UNL     1       4.934  -2.468   1.160  1.00  0.00    -0.250 OA
BRANCH   6   8
ATOM      8  C   UNL     1       2.817  -1.288   1.304  1.00  0.00     0.201 C 
BRANCH   8   9
ATOM      9  C   UNL     1       3.067  -0.893  -0.160  1.00  0.00     0.136 C 
BRANCH   9  10
ATOM     10  C   UNL     1       1.813  -0.529  -0.903  1.00  0.00     0.220 C 
ATOM     11  N   UNL     1       0.942  -1.551  -1.134  1.00  0.00    -0.370 N 
ATOM     12  H   UNL     1       0.100  -1.381  -1.616  1.00  0.00     0.159 HD
ATOM     13  H   UNL     1       1.154  -2.459  -0.819  1.00  0.00     0.159 HD
ATOM     14  O   UNL     1       1.571   0.614  -1.274  1.00  0.00    -0.275 OA
ENDBRANCH   9  10
ENDBRANCH   8   9
BRANCH   8  15
ATOM     15  N   UNL     1       1.704  -0.486   1.898  1.00  0.00    -0.342 N 
ATOM     16  C   UNL     1       1.635   0.728   2.527  1.00  0.00     0.231 C 
ATOM     17  H   UNL     1       0.828  -0.928   1.821  1.00  0.00     0.164 HD
ATOM     18  O   UNL     1       0.514   1.191   2.735  1.00  0.00    -0.274 OA
BRANCH  16  19
ATOM     19  C   UNL     1       2.924   1.421   2.993  1.00  0.00     0.077 C 
ATOM     20  C   UNL     1       2.690   2.365   4.197  1.00  0.00     0.043 C 
ATOM     21  C   UNL     1       3.461   2.250   1.811  1.00  0.00     0.043 C 
ATOM     22  C   UNL     1       1.940   3.660   3.862  1.00  0.00     0.121 C 
ATOM     23  C   UNL     1       2.556   3.443   1.506  1.00  0.00     0.121 C 
ATOM     24  N   UNL     1       2.482   4.314   2.670  1.00  0.00    -0.337 N 
ATOM     25  C   UNL     1       2.749   5.680   2.719  1.00  0.00     0.280 C 
ATOM     26  O   UNL     1       2.557   6.324   3.759  1.00  0.00    -0.268 OA
BRANCH  19  27
ATOM     27  C   UNL     1       3.856   0.309   3.461  1.00  0.00    -0.032 A 
ATOM     28  C   UNL     1       5.616   0.311   3.068  1.00  0.00     0.005 A 
ATOM     29  C   UNL     1       3.095  -1.215   4.127  1.00  0.00     0.005 A 
ATOM     30  C   UNL     1       6.600  -1.154   3.393  1.00  0.00     0.000 A 
ATOM     31  C   UNL     1       4.102  -2.692   4.422  1.00  0.00     0.000 A 
ATOM     32  C   UNL     1       5.852  -2.654   4.046  1.00  0.00     0.000 A 
ENDBRANCH  19  27
BRANCH  25  33
ATOM     33  C   UNL     1       3.294   6.438   1.488  1.00  0.00     0.272 C 
ATOM     34  C   UNL     1       2.352   6.551   0.302  1.00  0.00     0.081 C 
ATOM     35  N   UNL     1       4.583   5.902   0.987  1.00  0.00    -0.336 N 
ATOM     36  C   UNL     1       3.296   6.681  -0.877  1.00  0.00     0.068 C 
ATOM     37  C   UNL     1       4.517   5.873  -0.476  1.00  0.00     0.261 C 
ATOM     38  H   UNL     1       4.730   4.959   1.346  1.00  0.00     0.346 HD
ATOM     39  H   UNL     1       5.358   6.489   1.296  1.00  0.00     0.346 HD
ENDBRANCH  25  33
ENDBRANCH  16  19
ENDBRANCH   8  15
ENDBRANCH   6   8
ENDBRANCH   5   6
ENDBRANCH   4   5
ENDBRANCH   3   4
ENDBRANCH   2   3
ENDBRANCH   1   2
BRANCH   1  40
ATOM     40  C   UNL     1       1.000  -1.371   6.545  1.00  0.00     0.188 C 
BRANCH  40  41
ATOM     41  O   UNL     1       0.973   0.011   6.859  1.00  0.00    -0.376 OA
BRANCH  41  42
ATOM     42  C   UNL     1       0.958   0.316   8.248  1.00  0.00     0.202 C 
BRANCH  42  43
ATOM     43  C   UNL     1      -0.426   0.223   8.909  1.00  0.00     0.261 C 
BRANCH  43  44
ATOM     44  O   UNL     1      -1.093  -1.022   8.629  1.00  0.00    -0.460 OA
BRANCH  44  45
ATOM     45  C   UNL     1      -2.069  -0.953   7.684  1.00  0.00     0.338 C 
ATOM     46  O   UNL     1      -2.564   0.056   7.211  1.00  0.00    -0.246 OA
BRANCH  45  47
ATOM     47  C   UNL     1      -2.342  -2.308   7.139  1.00  0.00     0.060 A 
ATOM     48  C   UNL     1      -2.533  -2.434   5.754  1.00  0.00     0.016 A 
ATOM     49  C   UNL     1      -2.400  -3.439   7.959  1.00  0.00     0.016 A 
ATOM     50  C   UNL     1      -2.858  -3.672   5.195  1.00  0.00     0.010 A 
ATOM     51  C   UNL     1      -2.741  -4.676   7.402  1.00  0.00     0.010 A 
ATOM     52  C   UNL     1      -3.024  -4.785   6.028  1.00  0.00    -0.014 A 
BRANCH  52  53
ATOM     53  C   UNL     1      -3.788  -5.963   5.547  1.00  0.00     0.031 A 
ATOM     54  C   UNL     1      -5.280  -5.945   5.760  1.00  0.00     0.074 A 
ATOM     55  C   UNL     1      -3.199  -7.022   4.965  1.00  0.00     0.049 A 
ATOM     56  N   UNL     1      -6.166  -6.884   5.553  1.00  0.00    -0.248 NA
ATOM     57  C   UNL     1      -5.844  -4.691   6.289  1.00  0.00     0.031 C 
ATOM     58  C   UNL     1      -1.777  -7.141   4.656  1.00  0.00     0.029 A 
ATOM     59  N   UNL     1      -3.738  -8.214   4.546  1.00  0.00    -0.354 N 
ATOM     60  C   UNL     1      -7.385  -6.337   5.936  1.00  0.00     0.074 A 
ATOM     61  C   UNL     1      -7.125  -4.996   6.407  1.00  0.00     0.031 C 
ATOM     62  C   UNL     1      -1.550  -8.353   4.115  1.00  0.00     0.029 A 
ATOM     63  C   UNL     1      -2.805  -9.104   4.073  1.00  0.00     0.049 A 
ATOM     64  H   UNL     1      -4.702  -8.412   4.582  1.00  0.00     0.167 HD
ATOM     65  C   UNL     1      -8.615  -6.900   5.901  1.00  0.00     0.037 A 
ATOM     66  C   UNL     1      -2.950 -10.386   3.681  1.00  0.00     0.037 A 
ATOM     67  C   UNL     1      -8.872  -8.239   5.453  1.00  0.00     0.049 A 
ATOM     68  C   UNL     1      -4.317 -11.023   3.728  1.00  0.00     0.074 A 
ATOM     69  C   UNL     1     -10.078  -8.913   5.389  1.00  0.00     0.029 A 
ATOM     70  N   UNL     1      -7.896  -9.113   5.000  1.00  0.00    -0.354 N 
ATOM     71  N   UNL     1      -5.465 -10.498   4.088  1.00  0.00    -0.248 NA
ATOM     72  C   UNL     1      -4.408 -12.433   3.319  1.00  0.00     0.031 C 
ATOM     73  C   UNL     1      -9.826 -10.210   4.931  1.00  0.00     0.029 A 
ATOM     74  C   UNL     1      -8.469 -10.327   4.668  1.00  0.00     0.049 A 
ATOM     75  H   UNL     1      -6.938  -8.901   4.925  1.00  0.00     0.167 HD
ATOM     76  C   UNL     1      -6.414 -11.501   3.921  1.00  0.00     0.074 A 
ATOM     77  C   UNL     1      -5.710 -12.663   3.421  1.00  0.00     0.031 C 
ATOM     78  C   UNL     1      -7.748 -11.464   4.157  1.00  0.00     0.037 A 
BRANCH  65  79
ATOM     79  C   UNL     1      -9.758  -6.067   6.398  1.00  0.00     0.057 A 
ATOM     80  C   UNL     1     -10.248  -4.976   5.669  1.00  0.00     0.134 A 
ATOM     81  C   UNL     1     -10.364  -6.349   7.628  1.00  0.00     0.134 A 
ATOM     82  F   UNL     1      -9.693  -4.638   4.495  1.00  0.00    -0.206 F 
ATOM     83  C   UNL     1     -11.284  -4.178   6.158  1.00  0.00     0.040 A 
ATOM     84  C   UNL     1     -11.417  -5.574   8.116  1.00  0.00     0.040 A 
ATOM     85  F   UNL     1      -9.938  -7.377   8.378  1.00  0.00    -0.206 F 
ATOM     86  C   UNL     1     -11.875  -4.480   7.384  1.00  0.00     0.006 A 
ENDBRANCH  65  79
BRANCH  66  87
ATOM     87  C   UNL     1      -1.773 -11.171   3.228  1.00  0.00     0.057 A 
ATOM     88  C   UNL     1      -1.633 -11.559   1.890  1.00  0.00     0.134 A 
ATOM     89  C   UNL     1      -0.778 -11.580   4.123  1.00  0.00     0.134 A 
ATOM     90  F   UNL     1      -2.567 -11.222   0.989  1.00  0.00    -0.206 F 
ATOM     91  C   UNL     1      -0.554 -12.335   1.461  1.00  0.00     0.040 A 
ATOM     92  C   UNL     1       0.318 -12.338   3.704  1.00  0.00     0.040 A 
ATOM     93  F   UNL     1      -0.855 -11.247   5.420  1.00  0.00    -0.206 F 
ATOM     94  C   UNL     1       0.428 -12.723   2.370  1.00  0.00     0.006 A 
ENDBRANCH  66  87
BRANCH  78  95
ATOM     95  C   UNL     1      -8.541 -12.696   3.836  1.00  0.00     0.057 A 
ATOM     96  C   UNL     1      -8.499 -13.836   4.647  1.00  0.00     0.134 A 
ATOM     97  C   UNL     1      -9.405 -12.716   2.733  1.00  0.00     0.134 A 
ATOM     98  F   UNL     1      -7.685 -13.883   5.712  1.00  0.00    -0.206 F 
ATOM     99  C   UNL     1      -9.275 -14.961   4.362  1.00  0.00     0.040 A 
ATOM    100  C   UNL     1     -10.203 -13.824   2.451  1.00  0.00     0.040 A 
ATOM    101  F   UNL     1      -9.499 -11.650   1.923  1.00  0.00    -0.206 F 
ATOM    102  C   UNL     1     -10.136 -14.953   3.265  1.00  0.00     0.006 A 
ENDBRANCH  78  95
ENDBRANCH  52  53
ENDBRANCH  45  47
ENDBRANCH  44  45
ENDBRANCH  43  44
ENDBRANCH  42  43
ENDBRANCH  41  42
ENDBRANCH  40  41
ENDBRANCH   1  40
TORSDOF 23
