REMARK SMILES O=C(OCCOCCOCCOC(=O)c1ccc(-c2c3nc(c(-c4c(F)cccc4F)c4ccc([nH]4)c(-c4c(F)cccc4F)c4nc(c(-c5c(F)cccc5F)c5ccc2[nH]5)C=C4)C=C3)cc1)C1=Cc2cc(C(F)(F)F)ccc2O[C@@H]1C(F)(F)F
REMARK SMILES IDX 8 1 7 2 6 3 5 4 4 5 3 6 2 7 1 8 69 9 70 10 82 11 71 12 81 13
REMARK SMILES IDX 72 14 80 15 73 16 79 17 78 18 83 19 84 20 85 21 86 22 74 23
REMARK SMILES IDX 75 24 76 25 77 26 9 27 10 28 11 29 12 30 13 31 14 32 15 33
REMARK SMILES IDX 16 34 68 35 17 36 67 37 18 38 19 39 20 40 61 41 21 42 66 43
REMARK SMILES IDX 60 44 62 45 22 46 65 47 59 48 58 49 23 51 49 52 32 53 48 54
REMARK SMILES IDX 33 55 36 56 47 57 63 58 34 59 35 60 46 62 64 63 37 64 24 65
REMARK SMILES IDX 25 66 30 67 26 68 27 69 29 70 31 71 28 72 50 73 51 74 56 75
REMARK SMILES IDX 52 76 53 77 55 78 57 79 54 80 38 81 39 82 44 83 40 84 41 85
REMARK SMILES IDX 43 86 45 87 42 88
REMARK H PARENT 62 50 36 61
REMARK Flexibility Score: inf
ROOT
ATOM      1  C   UNL     1       2.056  -2.405  -2.621  1.00  0.00     0.188 C 
ENDROOT
BRANCH   1   2
ATOM      2  C   UNL     1       2.339  -0.990  -2.093  1.00  0.00     0.188 C 
BRANCH   2   3
ATOM      3  O   UNL     1       3.727  -0.408  -2.010  1.00  0.00    -0.376 OA
BRANCH   3   4
ATOM      4  C   UNL     1       4.463   0.397  -0.641  1.00  0.00     0.202 C 
BRANCH   4   5
ATOM      5  C   UNL     1       3.747   0.151   1.398  1.00  0.00     0.261 C 
BRANCH   5   6
ATOM      6  O   UNL     1       2.681   0.979   2.083  1.00  0.00    -0.460 OA
BRANCH   6   7
ATOM      7  C   UNL     1       2.771   2.270   1.737  1.00  0.00     0.338 C 
ATOM      8  O   UNL     1       1.978   3.153   1.962  1.00  0.00    -0.246 OA
BRANCH   7   9
ATOM      9  C   UNL     1       3.720   2.115   0.641  1.00  0.00     0.087 C 
ATOM     10  C   UNL     1       5.109   1.911   1.003  1.00  0.00     0.027 C 
ATOM     11  C   UNL     1       2.623   0.800  -0.205  1.00  0.00     0.316 C 
ATOM     12  C   UNL     1       5.939   0.334   0.996  1.00  0.00     0.018 A 
ATOM     13  O   UNL     1       3.419  -0.987  -0.038  1.00  0.00    -0.475 OA
ATOM     14  C   UNL     1       7.249   0.286   1.367  1.00  0.00     0.025 A 
ATOM     15  C   UNL     1       5.143  -1.136   0.572  1.00  0.00     0.128 A 
ATOM     16  C   UNL     1       7.856  -0.989   1.314  1.00  0.00     0.056 A 
ATOM     17  C   UNL     1       5.783  -2.342   0.525  1.00  0.00     0.048 A 
ATOM     18  C   UNL     1       7.153  -2.224   0.904  1.00  0.00     0.017 A 
BRANCH  11  19
ATOM     19  C   UNL     1       2.394   1.823  -1.558  1.00  0.00     0.430 C 
ATOM     20  F   UNL     1       2.571   1.390  -2.809  1.00  0.00    -0.167 F 
ATOM     21  F   UNL     1       1.141   2.343  -1.501  1.00  0.00    -0.167 F 
ATOM     22  F   UNL     1       3.220   2.920  -1.504  1.00  0.00    -0.167 F 
ENDBRANCH  11  19
BRANCH  16  23
ATOM     23  C   UNL     1       9.335  -1.005   1.684  1.00  0.00     0.416 C 
ATOM     24  F   UNL     1      10.089  -0.310   0.786  1.00  0.00    -0.166 F 
ATOM     25  F   UNL     1       9.566  -0.409   2.889  1.00  0.00    -0.166 F 
ATOM     26  F   UNL     1       9.880  -2.245   1.764  1.00  0.00    -0.166 F 
ENDBRANCH  16  23
ENDBRANCH   7   9
ENDBRANCH   6   7
ENDBRANCH   5   6
ENDBRANCH   4   5
ENDBRANCH   3   4
ENDBRANCH   2   3
ENDBRANCH   1   2
BRANCH   1  27
ATOM     27  O   UNL     1       2.990  -3.416  -2.340  1.00  0.00    -0.376 OA
BRANCH  27  28
ATOM     28  C   UNL     1       4.305  -3.151  -2.806  1.00  0.00     0.202 C 
BRANCH  28  29
ATOM     29  C   UNL     1       4.473  -2.739  -4.284  1.00  0.00     0.261 C 
BRANCH  29  30
ATOM     30  O   UNL     1       3.963  -1.421  -4.616  1.00  0.00    -0.460 OA
BRANCH  30  31
ATOM     31  C   UNL     1       2.943  -1.336  -5.512  1.00  0.00     0.338 C 
ATOM     32  O   UNL     1       2.384  -2.258  -6.080  1.00  0.00    -0.246 OA
BRANCH  31  33
ATOM     33  C   UNL     1       2.480   0.069  -5.620  1.00  0.00     0.060 A 
ATOM     34  C   UNL     1       1.208   0.436  -5.153  1.00  0.00     0.016 A 
ATOM     35  C   UNL     1       3.296   1.020  -6.229  1.00  0.00     0.016 A 
ATOM     36  C   UNL     1       0.785   1.772  -5.223  1.00  0.00     0.010 A 
ATOM     37  C   UNL     1       2.848   2.341  -6.353  1.00  0.00     0.010 A 
ATOM     38  C   UNL     1       1.596   2.731  -5.845  1.00  0.00    -0.014 A 
BRANCH  38  39
ATOM     39  C   UNL     1       1.079   4.098  -6.125  1.00  0.00     0.031 A 
ATOM     40  C   UNL     1       0.408   4.346  -7.446  1.00  0.00     0.074 A 
ATOM     41  C   UNL     1       1.229   5.110  -5.250  1.00  0.00     0.049 A 
ATOM     42  N   UNL     1      -0.025   5.467  -7.961  1.00  0.00    -0.248 NA
ATOM     43  C   UNL     1       0.209   3.168  -8.307  1.00  0.00     0.031 C 
ATOM     44  C   UNL     1       1.837   4.996  -3.928  1.00  0.00     0.029 A 
ATOM     45  N   UNL     1       0.895   6.442  -5.349  1.00  0.00    -0.354 N 
ATOM     46  C   UNL     1      -0.532   5.135  -9.210  1.00  0.00     0.074 A 
ATOM     47  C   UNL     1      -0.342   3.711  -9.383  1.00  0.00     0.031 C 
ATOM     48  C   UNL     1       1.841   6.206  -3.340  1.00  0.00     0.029 A 
ATOM     49  C   UNL     1       1.284   7.194  -4.263  1.00  0.00     0.049 A 
ATOM     50  H   UNL     1       0.423   6.821  -6.125  1.00  0.00     0.167 HD
ATOM     51  C   UNL     1      -1.098   5.947 -10.133  1.00  0.00     0.037 A 
ATOM     52  C   UNL     1       1.232   8.527  -4.058  1.00  0.00     0.037 A 
ATOM     53  C   UNL     1      -1.272   7.365  -9.965  1.00  0.00     0.049 A 
ATOM     54  C   UNL     1       0.665   9.417  -5.140  1.00  0.00     0.074 A 
ATOM     55  C   UNL     1      -1.859   8.266 -10.836  1.00  0.00     0.029 A 
ATOM     56  N   UNL     1      -0.842   8.092  -8.866  1.00  0.00    -0.354 N 
ATOM     57  N   UNL     1       0.145   9.087  -6.298  1.00  0.00    -0.248 NA
ATOM     58  C   UNL     1       0.687  10.868  -4.892  1.00  0.00     0.031 C 
ATOM     59  C   UNL     1      -1.714   9.548 -10.301  1.00  0.00     0.029 A 
ATOM     60  C   UNL     1      -1.112   9.437  -9.059  1.00  0.00     0.049 A 
ATOM     61  H   UNL     1      -0.410   7.710  -8.068  1.00  0.00     0.167 HD
ATOM     62  C   UNL     1      -0.241  10.280  -6.900  1.00  0.00     0.074 A 
ATOM     63  C   UNL     1       0.074  11.340  -5.967  1.00  0.00     0.031 C 
ATOM     64  C   UNL     1      -0.798  10.483  -8.119  1.00  0.00     0.037 A 
BRANCH  51  65
ATOM     65  C   UNL     1      -1.536   5.335 -11.431  1.00  0.00     0.057 A 
ATOM     66  C   UNL     1      -2.644   4.482 -11.515  1.00  0.00     0.134 A 
ATOM     67  C   UNL     1      -0.880   5.663 -12.624  1.00  0.00     0.134 A 
ATOM     68  F   UNL     1      -3.308   4.116 -10.409  1.00  0.00    -0.206 F 
ATOM     69  C   UNL     1      -3.076   3.970 -12.740  1.00  0.00     0.040 A 
ATOM     70  C   UNL     1      -1.322   5.183 -13.857  1.00  0.00     0.040 A 
ATOM     71  F   UNL     1       0.186   6.478 -12.614  1.00  0.00    -0.206 F 
ATOM     72  C   UNL     1      -2.422   4.331 -13.917  1.00  0.00     0.006 A 
ENDBRANCH  51  65
BRANCH  52  73
ATOM     73  C   UNL     1       1.780   9.134  -2.809  1.00  0.00     0.057 A 
ATOM     74  C   UNL     1       0.967   9.863  -1.930  1.00  0.00     0.134 A 
ATOM     75  C   UNL     1       3.147   9.073  -2.507  1.00  0.00     0.134 A 
ATOM     76  F   UNL     1      -0.346   9.992  -2.173  1.00  0.00    -0.206 F 
ATOM     77  C   UNL     1       1.496  10.537  -0.826  1.00  0.00     0.040 A 
ATOM     78  C   UNL     1       3.683   9.708  -1.385  1.00  0.00     0.040 A 
ATOM     79  F   UNL     1       3.989   8.401  -3.306  1.00  0.00    -0.206 F 
ATOM     80  C   UNL     1       2.859  10.457  -0.549  1.00  0.00     0.006 A 
ENDBRANCH  52  73
BRANCH  64  81
ATOM     81  C   UNL     1      -1.137  11.897  -8.504  1.00  0.00     0.057 A 
ATOM     82  C   UNL     1      -0.147  12.854  -8.766  1.00  0.00     0.134 A 
ATOM     83  C   UNL     1      -2.472  12.294  -8.659  1.00  0.00     0.134 A 
ATOM     84  F   UNL     1       1.152  12.545  -8.630  1.00  0.00    -0.206 F 
ATOM     85  C   UNL     1      -0.474  14.161  -9.135  1.00  0.00     0.040 A 
ATOM     86  C   UNL     1      -2.810  13.586  -9.065  1.00  0.00     0.040 A 
ATOM     87  F   UNL     1      -3.471  11.426  -8.441  1.00  0.00    -0.206 F 
ATOM     88  C   UNL     1      -1.809  14.527  -9.294  1.00  0.00     0.006 A 
ENDBRANCH  64  81
ENDBRANCH  38  39
ENDBRANCH  31  33
ENDBRANCH  30  31
ENDBRANCH  29  30
ENDBRANCH  28  29
ENDBRANCH  27  28
ENDBRANCH   1  27
TORSDOF 19
