REMARK SMILES COc1cc([N+](=O)[O-])cc([C@H]2[NH2+][C@H](C(=O)OCCOCCOCCOC(=O)c3ccc(-c4c5nc(c(-c6c(F)cccc6F)c6ccc([nH]6)c(-c6c(F)cccc6F)c6nc(c(-c7c(F)cccc7F)c7ccc4[nH]7)C=C6)C=C5)cc3)CS2)c1O
REMARK SMILES IDX 20 1 19 2 18 3 17 4 16 5 14 6 15 7 13 8 11 9 12 10 83 11
REMARK SMILES IDX 82 14 10 15 3 16 4 17 84 18 5 19 9 20 2 21 1 22 85 23 6 25
REMARK SMILES IDX 7 26 8 27 21 28 22 29 23 30 24 31 25 32 26 33 27 34 28 35
REMARK SMILES IDX 29 36 81 37 30 38 80 39 31 40 32 41 33 42 74 43 34 44 79 45
REMARK SMILES IDX 73 46 75 47 35 48 78 49 72 50 71 51 36 53 62 54 45 55 61 56
REMARK SMILES IDX 46 57 49 58 60 59 76 60 47 61 48 62 59 64 77 65 50 66 37 67
REMARK SMILES IDX 38 68 43 69 39 70 40 71 42 72 44 73 41 74 63 75 64 76 69 77
REMARK SMILES IDX 65 78 66 79 68 80 70 81 67 82 51 83 52 84 57 85 53 86 54 87
REMARK SMILES IDX 56 88 58 89 55 90
REMARK H PARENT 12 12 12 13 85 24 75 52 49 63
REMARK Flexibility Score: inf
ROOT
ATOM      1  C   UNL     1      -3.017  -2.499   1.086  1.00  0.00     0.188 C 
ENDROOT
BRANCH   1   2
ATOM      2  O   UNL     1      -2.936  -1.149   1.529  1.00  0.00    -0.376 OA
BRANCH   2   3
ATOM      3  C   UNL     1      -2.201  -0.209   0.757  1.00  0.00     0.202 C 
BRANCH   3   4
ATOM      4  C   UNL     1      -0.722  -0.507   0.471  1.00  0.00     0.261 C 
BRANCH   4   5
ATOM      5  O   UNL     1      -0.436  -1.845   0.009  1.00  0.00    -0.459 OA
BRANCH   5   6
ATOM      6  C   UNL     1       0.396  -2.574   0.797  1.00  0.00     0.365 C 
ATOM      7  O   UNL     1       0.930  -2.138   1.816  1.00  0.00    -0.245 OA
BRANCH   6   8
ATOM      8  C   UNL     1       0.645  -4.025   0.363  1.00  0.00     0.304 C 
ATOM      9  C   UNL     1       0.420  -4.274  -2.019  1.00  0.00     0.278 C 
ATOM     10  N   UNL     1      -0.190  -4.609  -0.723  1.00  0.00    -0.319 N 
ATOM     11  S   UNL     1       2.201  -4.101  -1.783  1.00  0.00    -0.087 SA
ATOM     12  H   UNL     1      -0.234  -5.622  -0.616  1.00  0.00     0.348 HD
ATOM     13  H   UNL     1      -1.136  -4.230  -0.676  1.00  0.00     0.348 HD
ATOM     14  C   UNL     1       2.114  -4.215   0.020  1.00  0.00     0.153 C 
BRANCH   9  15
ATOM     15  C   UNL     1      -0.077  -5.219  -3.119  1.00  0.00     0.073 A 
ATOM     16  C   UNL     1       0.020  -7.183  -4.610  1.00  0.00     0.167 A 
ATOM     17  C   UNL     1      -1.229  -6.856  -5.143  1.00  0.00     0.136 A 
ATOM     18  C   UNL     1       0.557  -6.400  -3.565  1.00  0.00     0.168 A 
ATOM     19  C   UNL     1      -1.925  -5.753  -4.647  1.00  0.00     0.273 A 
ATOM     20  C   UNL     1      -1.353  -4.934  -3.661  1.00  0.00     0.100 A 
BRANCH  16  21
ATOM     21  O   UNL     1       0.543  -8.338  -5.130  1.00  0.00    -0.493 OA
ATOM     22  C   UNL     1       1.959  -8.461  -5.231  1.00  0.00     0.278 C 
ENDBRANCH  16  21
BRANCH  18  23
ATOM     23  O   UNL     1       1.650  -6.846  -2.877  1.00  0.00    -0.504 OA
ATOM     24  H   UNL     1       2.090  -7.627  -3.152  1.00  0.00     0.293 HD
ENDBRANCH  18  23
BRANCH  19  25
ATOM     25  N   UNL     1      -3.280  -5.469  -5.138  1.00  0.00     0.062 N 
ATOM     26  O   UNL     1      -3.735  -6.197  -6.032  1.00  0.00    -0.258 OA
ATOM     27  O   UNL     1      -3.890  -4.522  -4.623  1.00  0.00    -0.258 OA
ENDBRANCH  19  25
ENDBRANCH   9  15
ENDBRANCH   6   8
ENDBRANCH   5   6
ENDBRANCH   4   5
ENDBRANCH   3   4
ENDBRANCH   2   3
ENDBRANCH   1   2
BRANCH   1  28
ATOM     28  C   UNL     1      -3.137  -2.821  -0.418  1.00  0.00     0.188 C 
BRANCH  28  29
ATOM     29  O   UNL     1      -3.342  -1.693  -1.247  1.00  0.00    -0.376 OA
BRANCH  29  30
ATOM     30  C   UNL     1      -4.556  -1.667  -1.979  1.00  0.00     0.202 C 
BRANCH  30  31
ATOM     31  C   UNL     1      -5.825  -1.472  -1.135  1.00  0.00     0.261 C 
BRANCH  31  32
ATOM     32  O   UNL     1      -5.977  -2.381  -0.029  1.00  0.00    -0.460 OA
BRANCH  32  33
ATOM     33  C   UNL     1      -6.333  -3.646  -0.330  1.00  0.00     0.338 C 
ATOM     34  O   UNL     1      -6.562  -4.102  -1.444  1.00  0.00    -0.246 OA
BRANCH  33  35
ATOM     35  C   UNL     1      -6.226  -4.473   0.889  1.00  0.00     0.060 A 
ATOM     36  C   UNL     1      -5.351  -5.568   0.882  1.00  0.00     0.016 A 
ATOM     37  C   UNL     1      -7.009  -4.203   2.014  1.00  0.00     0.016 A 
ATOM     38  C   UNL     1      -5.298  -6.428   1.979  1.00  0.00     0.010 A 
ATOM     39  C   UNL     1      -6.969  -5.078   3.107  1.00  0.00     0.010 A 
ATOM     40  C   UNL     1      -6.149  -6.220   3.074  1.00  0.00    -0.014 A 
BRANCH  40  41
ATOM     41  C   UNL     1      -6.346  -7.322   4.051  1.00  0.00     0.031 A 
ATOM     42  C   UNL     1      -7.508  -8.259   3.839  1.00  0.00     0.074 A 
ATOM     43  C   UNL     1      -5.493  -7.535   5.068  1.00  0.00     0.049 A 
ATOM     44  N   UNL     1      -7.872  -9.308   4.532  1.00  0.00    -0.248 NA
ATOM     45  C   UNL     1      -8.376  -7.971   2.685  1.00  0.00     0.031 C 
ATOM     46  C   UNL     1      -4.314  -6.726   5.369  1.00  0.00     0.029 A 
ATOM     47  N   UNL     1      -5.494  -8.507   6.038  1.00  0.00    -0.354 N 
ATOM     48  C   UNL     1      -9.006  -9.803   3.899  1.00  0.00     0.074 A 
ATOM     49  C   UNL     1      -9.292  -8.920   2.789  1.00  0.00     0.031 C 
ATOM     50  C   UNL     1      -3.707  -7.233   6.458  1.00  0.00     0.029 A 
ATOM     51  C   UNL     1      -4.463  -8.389   6.939  1.00  0.00     0.049 A 
ATOM     52  H   UNL     1      -6.170  -9.221   6.084  1.00  0.00     0.167 HD
ATOM     53  C   UNL     1      -9.738 -10.900   4.202  1.00  0.00     0.037 A 
ATOM     54  C   UNL     1      -4.174  -9.125   8.030  1.00  0.00     0.037 A 
ATOM     55  C   UNL     1      -9.463 -11.781   5.306  1.00  0.00     0.049 A 
ATOM     56  C   UNL     1      -5.038 -10.310   8.381  1.00  0.00     0.074 A 
ATOM     57  C   UNL     1     -10.144 -12.924   5.688  1.00  0.00     0.029 A 
ATOM     58  N   UNL     1      -8.426 -11.611   6.209  1.00  0.00    -0.354 N 
ATOM     59  N   UNL     1      -6.087 -10.788   7.756  1.00  0.00    -0.248 NA
ATOM     60  C   UNL     1      -4.667 -11.065   9.588  1.00  0.00     0.031 C 
ATOM     61  C   UNL     1      -9.544 -13.421   6.850  1.00  0.00     0.029 A 
ATOM     62  C   UNL     1      -8.459 -12.618   7.160  1.00  0.00     0.049 A 
ATOM     63  H   UNL     1      -7.765 -10.882   6.180  1.00  0.00     0.167 HD
ATOM     64  C   UNL     1      -6.479 -11.913   8.472  1.00  0.00     0.074 A 
ATOM     65  C   UNL     1      -5.546 -12.056   9.569  1.00  0.00     0.031 C 
ATOM     66  C   UNL     1      -7.518 -12.755   8.242  1.00  0.00     0.037 A 
BRANCH  53  67
ATOM     67  C   UNL     1     -10.926 -11.194   3.333  1.00  0.00     0.057 A 
ATOM     68  C   UNL     1     -10.784 -11.662   2.020  1.00  0.00     0.134 A 
ATOM     69  C   UNL     1     -12.227 -11.023   3.822  1.00  0.00     0.134 A 
ATOM     70  F   UNL     1      -9.564 -11.830   1.486  1.00  0.00    -0.206 F 
ATOM     71  C   UNL     1     -11.894 -11.928   1.217  1.00  0.00     0.040 A 
ATOM     72  C   UNL     1     -13.344 -11.310   3.037  1.00  0.00     0.040 A 
ATOM     73  F   UNL     1     -12.432 -10.578   5.071  1.00  0.00    -0.206 F 
ATOM     74  C   UNL     1     -13.179 -11.758   1.728  1.00  0.00     0.006 A 
ENDBRANCH  53  67
BRANCH  54  75
ATOM     75  C   UNL     1      -3.011  -8.772   8.885  1.00  0.00     0.057 A 
ATOM     76  C   UNL     1      -1.886  -9.601   8.964  1.00  0.00     0.134 A 
ATOM     77  C   UNL     1      -3.020  -7.621   9.683  1.00  0.00     0.134 A 
ATOM     78  F   UNL     1      -1.830 -10.732   8.246  1.00  0.00    -0.206 F 
ATOM     79  C   UNL     1      -0.823  -9.313   9.822  1.00  0.00     0.040 A 
ATOM     80  C   UNL     1      -1.952  -7.306  10.525  1.00  0.00     0.040 A 
ATOM     81  F   UNL     1      -4.069  -6.787   9.656  1.00  0.00    -0.206 F 
ATOM     82  C   UNL     1      -0.853  -8.160  10.603  1.00  0.00     0.006 A 
ENDBRANCH  54  75
BRANCH  66  83
ATOM     83  C   UNL     1      -7.672 -13.929   9.167  1.00  0.00     0.057 A 
ATOM     84  C   UNL     1      -8.086 -13.779  10.497  1.00  0.00     0.134 A 
ATOM     85  C   UNL     1      -7.420 -15.230   8.713  1.00  0.00     0.134 A 
ATOM     86  F   UNL     1      -8.334 -12.560  10.999  1.00  0.00    -0.206 F 
ATOM     87  C   UNL     1      -8.210 -14.877  11.351  1.00  0.00     0.040 A 
ATOM     88  C   UNL     1      -7.570 -16.338   9.548  1.00  0.00     0.040 A 
ATOM     89  F   UNL     1      -7.033 -15.447   7.447  1.00  0.00    -0.206 F 
ATOM     90  C   UNL     1      -7.956 -16.162  10.875  1.00  0.00     0.006 A 
ENDBRANCH  66  83
ENDBRANCH  40  41
ENDBRANCH  33  35
ENDBRANCH  32  33
ENDBRANCH  31  32
ENDBRANCH  30  31
ENDBRANCH  29  30
ENDBRANCH  28  29
ENDBRANCH   1  28
TORSDOF 21
