REMARK SMILES C[C@@H](Oc1ccc(N)cc1)C(=O)OCCOCCOCCOC(=O)c1ccc(-c2c3nc(c(-c4c(F)cccc4F)c4ccc([nH]4)c(-c4c(F)cccc4F)c4nc(c(-c5c(F)cccc5F)c5ccc2[nH]5)C=C4)C=C3)cc1
REMARK SMILES IDX 17 1 16 2 15 3 14 4 13 5 11 6 12 7 2 8 1 9 3 10 4 11 5 12
REMARK SMILES IDX 10 13 6 14 9 15 7 16 8 17 18 20 19 21 20 22 21 23 22 24
REMARK SMILES IDX 23 25 24 26 25 27 26 28 78 29 27 30 77 31 28 32 29 33 30 34
REMARK SMILES IDX 71 35 31 36 76 37 70 38 72 39 32 40 75 41 69 42 68 43 33 45
REMARK SMILES IDX 59 46 42 47 58 48 43 49 46 50 57 51 73 52 44 53 45 54 56 56
REMARK SMILES IDX 74 57 47 58 34 59 35 60 40 61 36 62 37 63 39 64 41 65 38 66
REMARK SMILES IDX 60 67 61 68 66 69 62 70 63 71 65 72 67 73 64 74 48 75 49 76
REMARK SMILES IDX 54 77 50 78 51 79 53 80 55 81 52 82
REMARK H PARENT 8 18 8 19 72 44 46 55
REMARK Flexibility Score: inf
ROOT
ATOM      1  C   UNL     1      -2.306   1.686  -1.208  1.00  0.00     0.188 C 
ENDROOT
BRANCH   1   2
ATOM      2  O   UNL     1      -3.473   1.159  -1.826  1.00  0.00    -0.376 OA
BRANCH   2   3
ATOM      3  C   UNL     1      -3.901  -0.127  -1.381  1.00  0.00     0.202 C 
BRANCH   3   4
ATOM      4  C   UNL     1      -2.990  -1.313  -1.734  1.00  0.00     0.261 C 
BRANCH   4   5
ATOM      5  O   UNL     1      -1.624  -1.176  -1.293  1.00  0.00    -0.461 OA
BRANCH   5   6
ATOM      6  C   UNL     1      -0.680  -1.042  -2.270  1.00  0.00     0.347 C 
ATOM      7  O   UNL     1      -0.922  -1.053  -3.474  1.00  0.00    -0.248 OA
BRANCH   6   8
ATOM      8  C   UNL     1       0.738  -0.846  -1.721  1.00  0.00     0.279 C 
ATOM      9  C   UNL     1       0.802  -0.450  -0.248  1.00  0.00     0.066 C 
BRANCH   8  10
ATOM     10  O   UNL     1       1.420  -2.090  -1.934  1.00  0.00    -0.479 OA
BRANCH  10  11
ATOM     11  C   UNL     1       2.748  -1.915  -2.205  1.00  0.00     0.120 A 
ATOM     12  C   UNL     1       3.664  -1.915  -1.159  1.00  0.00     0.048 A 
ATOM     13  C   UNL     1       3.185  -1.853  -3.524  1.00  0.00     0.048 A 
ATOM     14  C   UNL     1       5.030  -1.831  -1.432  1.00  0.00     0.029 A 
ATOM     15  C   UNL     1       4.557  -1.788  -3.791  1.00  0.00     0.029 A 
ATOM     16  C   UNL     1       5.491  -1.814  -2.750  1.00  0.00     0.032 A 
BRANCH  16  17
ATOM     17  N   UNL     1       6.848  -1.710  -3.012  1.00  0.00    -0.399 N 
ATOM     18  H   UNL     1       7.496  -1.729  -2.271  1.00  0.00     0.156 HD
ATOM     19  H   UNL     1       7.165  -1.615  -3.939  1.00  0.00     0.156 HD
ENDBRANCH  16  17
ENDBRANCH  10  11
ENDBRANCH   8  10
ENDBRANCH   6   8
ENDBRANCH   5   6
ENDBRANCH   4   5
ENDBRANCH   3   4
ENDBRANCH   2   3
ENDBRANCH   1   2
BRANCH   1  20
ATOM     20  C   UNL     1      -2.329   1.762   0.319  1.00  0.00     0.188 C 
BRANCH  20  21
ATOM     21  O   UNL     1      -2.558   0.532   0.991  1.00  0.00    -0.376 OA
BRANCH  21  22
ATOM     22  C   UNL     1      -2.543   0.565   2.422  1.00  0.00     0.202 C 
BRANCH  22  23
ATOM     23  C   UNL     1      -3.240   1.741   3.138  1.00  0.00     0.261 C 
BRANCH  23  24
ATOM     24  O   UNL     1      -2.802   3.066   2.769  1.00  0.00    -0.460 OA
BRANCH  24  25
ATOM     25  C   UNL     1      -1.480   3.351   2.819  1.00  0.00     0.338 C 
ATOM     26  O   UNL     1      -0.612   2.678   3.347  1.00  0.00    -0.246 OA
BRANCH  25  27
ATOM     27  C   UNL     1      -1.217   4.477   1.876  1.00  0.00     0.060 A 
ATOM     28  C   UNL     1      -0.054   4.435   1.089  1.00  0.00     0.016 A 
ATOM     29  C   UNL     1      -2.137   5.514   1.692  1.00  0.00     0.016 A 
ATOM     30  C   UNL     1       0.211   5.444   0.155  1.00  0.00     0.010 A 
ATOM     31  C   UNL     1      -1.864   6.532   0.772  1.00  0.00     0.010 A 
ATOM     32  C   UNL     1      -0.671   6.523   0.025  1.00  0.00    -0.014 A 
BRANCH  32  33
ATOM     33  C   UNL     1      -0.252   7.765  -0.675  1.00  0.00     0.031 A 
ATOM     34  C   UNL     1       0.284   8.891   0.168  1.00  0.00     0.074 A 
ATOM     35  C   UNL     1      -0.357   7.926  -2.006  1.00  0.00     0.049 A 
ATOM     36  N   UNL     1       0.569  10.124  -0.162  1.00  0.00    -0.248 NA
ATOM     37  C   UNL     1       0.517   8.576   1.587  1.00  0.00     0.031 C 
ATOM     38  C   UNL     1      -0.798   6.908  -2.954  1.00  0.00     0.029 A 
ATOM     39  N   UNL     1      -0.116   9.033  -2.785  1.00  0.00    -0.354 N 
ATOM     40  C   UNL     1       0.989  10.737   1.012  1.00  0.00     0.074 A 
ATOM     41  C   UNL     1       0.900   9.748   2.064  1.00  0.00     0.031 C 
ATOM     42  C   UNL     1      -0.823   7.446  -4.188  1.00  0.00     0.029 A 
ATOM     43  C   UNL     1      -0.444   8.858  -4.108  1.00  0.00     0.049 A 
ATOM     44  H   UNL     1       0.256   9.872  -2.429  1.00  0.00     0.167 HD
ATOM     45  C   UNL     1       1.409  12.010   1.201  1.00  0.00     0.037 A 
ATOM     46  C   UNL     1      -0.474   9.743  -5.125  1.00  0.00     0.037 A 
ATOM     47  C   UNL     1       1.494  12.996   0.159  1.00  0.00     0.049 A 
ATOM     48  C   UNL     1      -0.083  11.180  -4.883  1.00  0.00     0.074 A 
ATOM     49  C   UNL     1       1.920  14.310   0.249  1.00  0.00     0.029 A 
ATOM     50  N   UNL     1       1.134  12.781  -1.163  1.00  0.00    -0.354 N 
ATOM     51  N   UNL     1       0.316  11.755  -3.773  1.00  0.00    -0.248 NA
ATOM     52  C   UNL     1      -0.149  12.094  -6.034  1.00  0.00     0.031 C 
ATOM     53  C   UNL     1       1.760  14.907  -1.005  1.00  0.00     0.029 A 
ATOM     54  C   UNL     1       1.302  13.946  -1.892  1.00  0.00     0.049 A 
ATOM     55  H   UNL     1       0.808  11.927  -1.528  1.00  0.00     0.167 HD
ATOM     56  C   UNL     1       0.583  13.081  -4.100  1.00  0.00     0.074 A 
ATOM     57  C   UNL     1       0.298  13.228  -5.511  1.00  0.00     0.031 C 
ATOM     58  C   UNL     1       1.033  14.081  -3.303  1.00  0.00     0.037 A 
BRANCH  45  59
ATOM     59  C   UNL     1       1.757  12.413   2.605  1.00  0.00     0.057 A 
ATOM     60  C   UNL     1       2.881  11.908   3.272  1.00  0.00     0.134 A 
ATOM     61  C   UNL     1       0.944  13.315   3.303  1.00  0.00     0.134 A 
ATOM     62  F   UNL     1       3.691  11.025   2.667  1.00  0.00    -0.206 F 
ATOM     63  C   UNL     1       3.163  12.255   4.594  1.00  0.00     0.040 A 
ATOM     64  C   UNL     1       1.234  13.696   4.614  1.00  0.00     0.040 A 
ATOM     65  F   UNL     1      -0.147  13.840   2.724  1.00  0.00    -0.206 F 
ATOM     66  C   UNL     1       2.340  13.156   5.267  1.00  0.00     0.006 A 
ENDBRANCH  45  59
BRANCH  46  67
ATOM     67  C   UNL     1      -0.918   9.303  -6.474  1.00  0.00     0.057 A 
ATOM     68  C   UNL     1      -0.021   9.226  -7.546  1.00  0.00     0.134 A 
ATOM     69  C   UNL     1      -2.252   8.957  -6.725  1.00  0.00     0.134 A 
ATOM     70  F   UNL     1       1.262   9.576  -7.379  1.00  0.00    -0.206 F 
ATOM     71  C   UNL     1      -0.435   8.827  -8.819  1.00  0.00     0.040 A 
ATOM     72  C   UNL     1      -2.674   8.531  -7.985  1.00  0.00     0.040 A 
ATOM     73  F   UNL     1      -3.163   9.017  -5.742  1.00  0.00    -0.206 F 
ATOM     74  C   UNL     1      -1.764   8.469  -9.039  1.00  0.00     0.006 A 
ENDBRANCH  46  67
BRANCH  58  75
ATOM     75  C   UNL     1       1.313  15.416  -3.934  1.00  0.00     0.057 A 
ATOM     76  C   UNL     1       0.291  16.277  -4.350  1.00  0.00     0.134 A 
ATOM     77  C   UNL     1       2.632  15.877  -4.053  1.00  0.00     0.134 A 
ATOM     78  F   UNL     1      -0.993  15.897  -4.272  1.00  0.00    -0.206 F 
ATOM     79  C   UNL     1       0.570  17.543  -4.872  1.00  0.00     0.040 A 
ATOM     80  C   UNL     1       2.922  17.149  -4.547  1.00  0.00     0.040 A 
ATOM     81  F   UNL     1       3.660  15.107  -3.663  1.00  0.00    -0.206 F 
ATOM     82  C   UNL     1       1.889  17.986  -4.961  1.00  0.00     0.006 A 
ENDBRANCH  58  75
ENDBRANCH  32  33
ENDBRANCH  25  27
ENDBRANCH  24  25
ENDBRANCH  23  24
ENDBRANCH  22  23
ENDBRANCH  21  22
ENDBRANCH  20  21
ENDBRANCH   1  20
TORSDOF 20
