REMARK SMILES COc1cccc([C@H]2CC(c3ccc(S(C)(=O)=O)cc3)=NN2c2ccc(C(=O)OCCOCCOCCOC(=O)c3ccc(-c4c5nc(c(-c6c(F)cccc6F)c6ccc([nH]6)c(-c6c(F)cccc6F)c6nc(c(-c7c(F)cccc7F)c7ccc4[nH]7)C=C6)C=C5)cc3)cc2)c1
REMARK SMILES IDX 33 1 32 2 31 3 30 4 29 5 27 6 28 7 26 8 23 9 24 10 96 11
REMARK SMILES IDX 25 12 95 13 22 14 8 15 9 16 10 17 21 18 7 19 3 20 4 21 97 22
REMARK SMILES IDX 5 23 6 24 2 25 1 26 11 27 12 28 20 29 13 30 19 31 14 32
REMARK SMILES IDX 15 33 16 34 17 35 18 36 34 37 35 38 36 39 37 40 38 41 39 42
REMARK SMILES IDX 40 43 41 44 42 45 94 46 43 47 93 48 44 49 45 50 46 51 87 52
REMARK SMILES IDX 47 53 92 54 86 55 88 56 48 57 91 58 85 59 84 60 49 62 75 63
REMARK SMILES IDX 58 64 74 65 59 66 62 67 73 68 89 69 60 70 61 71 72 73 90 74
REMARK SMILES IDX 63 75 50 76 51 77 56 78 52 79 53 80 55 81 57 82 54 83 76 84
REMARK SMILES IDX 77 85 82 86 78 87 79 88 81 89 83 90 80 91 64 92 65 93 70 94
REMARK SMILES IDX 66 95 67 96 69 97 71 98 68 99
REMARK H PARENT 88 61 62 72
REMARK Flexibility Score: inf
ROOT
ATOM      1  C   UNL     1       6.331   6.183   6.025  1.00  0.00     0.188 C 
ENDROOT
BRANCH   1   2
ATOM      2  O   UNL     1       5.850   7.281   6.780  1.00  0.00    -0.376 OA
BRANCH   2   3
ATOM      3  C   UNL     1       5.133   7.052   7.982  1.00  0.00     0.202 C 
BRANCH   3   4
ATOM      4  C   UNL     1       3.922   6.115   7.995  1.00  0.00     0.261 C 
BRANCH   4   5
ATOM      5  O   UNL     1       4.193   4.805   7.478  1.00  0.00    -0.460 OA
BRANCH   5   6
ATOM      6  C   UNL     1       3.495   4.473   6.364  1.00  0.00     0.338 C 
ATOM      7  O   UNL     1       2.647   5.148   5.802  1.00  0.00    -0.246 OA
BRANCH   6   8
ATOM      8  C   UNL     1       4.016   3.214   5.792  1.00  0.00     0.060 A 
ATOM      9  C   UNL     1       4.822   0.813   4.573  1.00  0.00     0.060 A 
ATOM     10  C   UNL     1       4.664   1.977   3.813  1.00  0.00     0.029 A 
ATOM     11  C   UNL     1       4.652   0.897   5.966  1.00  0.00     0.029 A 
ATOM     12  C   UNL     1       4.232   3.163   4.410  1.00  0.00     0.018 A 
ATOM     13  C   UNL     1       4.269   2.093   6.582  1.00  0.00     0.018 A 
BRANCH   9  14
ATOM     14  N   UNL     1       5.030  -0.415   3.953  1.00  0.00    -0.257 N 
ATOM     15  C   UNL     1       4.109  -1.542   4.128  1.00  0.00     0.144 C 
ATOM     16  C   UNL     1       4.630  -2.566   3.120  1.00  0.00     0.091 C 
ATOM     17  C   UNL     1       5.788  -1.803   2.538  1.00  0.00     0.071 C 
ATOM     18  N   UNL     1       5.970  -0.599   2.986  1.00  0.00    -0.176 NA
BRANCH  15  19
ATOM     19  C   UNL     1       2.656  -1.149   3.890  1.00  0.00    -0.019 A 
ATOM     20  C   UNL     1       0.884  -0.251   2.471  1.00  0.00     0.119 A 
ATOM     21  C   UNL     1      -0.002  -0.320   3.547  1.00  0.00     0.046 A 
ATOM     22  C   UNL     1       2.212  -0.649   2.648  1.00  0.00     0.052 A 
ATOM     23  C   UNL     1       0.420  -0.808   4.782  1.00  0.00     0.004 A 
ATOM     24  C   UNL     1       1.740  -1.223   4.952  1.00  0.00     0.006 A 
BRANCH  20  25
ATOM     25  O   UNL     1       0.350   0.262   1.321  1.00  0.00    -0.497 OA
ATOM     26  C   UNL     1       1.018  -0.079   0.112  1.00  0.00     0.278 C 
ENDBRANCH  20  25
ENDBRANCH  15  19
BRANCH  17  27
ATOM     27  C   UNL     1       6.678  -2.466   1.577  1.00  0.00    -0.002 A 
ATOM     28  C   UNL     1       8.022  -2.644   1.923  1.00  0.00     0.011 A 
ATOM     29  C   UNL     1       6.167  -3.000   0.391  1.00  0.00     0.011 A 
ATOM     30  C   UNL     1       8.858  -3.389   1.089  1.00  0.00     0.021 A 
ATOM     31  C   UNL     1       7.008  -3.723  -0.458  1.00  0.00     0.021 A 
ATOM     32  C   UNL     1       8.347  -3.920  -0.101  1.00  0.00     0.067 A 
BRANCH  32  33
ATOM     33  S   UNL     1       9.404  -4.913  -1.132  1.00  0.00     0.175 S 
ATOM     34  C   UNL     1      10.699  -3.810  -1.631  1.00  0.00     0.163 C 
ATOM     35  O   UNL     1       9.974  -5.936  -0.277  1.00  0.00    -0.224 OA
ATOM     36  O   UNL     1       8.648  -5.268  -2.319  1.00  0.00    -0.224 OA
ENDBRANCH  32  33
ENDBRANCH  17  27
ENDBRANCH   9  14
ENDBRANCH   6   8
ENDBRANCH   5   6
ENDBRANCH   4   5
ENDBRANCH   3   4
ENDBRANCH   2   3
ENDBRANCH   1   2
BRANCH   1  37
ATOM     37  C   UNL     1       7.137   5.048   6.692  1.00  0.00     0.188 C 
BRANCH  37  38
ATOM     38  O   UNL     1       7.452   5.114   8.063  1.00  0.00    -0.376 OA
BRANCH  38  39
ATOM     39  C   UNL     1       8.388   6.044   8.576  1.00  0.00     0.202 C 
BRANCH  39  40
ATOM     40  C   UNL     1       9.467   6.774   7.760  1.00  0.00     0.261 C 
BRANCH  40  41
ATOM     41  O   UNL     1       9.227   6.952   6.366  1.00  0.00    -0.460 OA
BRANCH  41  42
ATOM     42  C   UNL     1      10.024   6.219   5.551  1.00  0.00     0.338 C 
ATOM     43  O   UNL     1      10.880   5.413   5.870  1.00  0.00    -0.246 OA
BRANCH  42  44
ATOM     44  C   UNL     1       9.602   6.436   4.159  1.00  0.00     0.060 A 
ATOM     45  C   UNL     1       9.074   5.356   3.443  1.00  0.00     0.016 A 
ATOM     46  C   UNL     1       9.774   7.683   3.555  1.00  0.00     0.016 A 
ATOM     47  C   UNL     1       8.737   5.514   2.101  1.00  0.00     0.010 A 
ATOM     48  C   UNL     1       9.453   7.834   2.205  1.00  0.00     0.010 A 
ATOM     49  C   UNL     1       8.959   6.744   1.466  1.00  0.00    -0.014 A 
BRANCH  49  50
ATOM     50  C   UNL     1       8.833   6.848  -0.006  1.00  0.00     0.031 A 
ATOM     51  C   UNL     1      10.071   6.710  -0.847  1.00  0.00     0.074 A 
ATOM     52  C   UNL     1       7.640   7.060  -0.586  1.00  0.00     0.049 A 
ATOM     53  N   UNL     1      10.212   6.821  -2.142  1.00  0.00    -0.248 NA
ATOM     54  C   UNL     1      11.319   6.409  -0.127  1.00  0.00     0.031 C 
ATOM     55  C   UNL     1       6.365   7.176   0.118  1.00  0.00     0.029 A 
ATOM     56  N   UNL     1       7.314   7.228  -1.908  1.00  0.00    -0.354 N 
ATOM     57  C   UNL     1      11.561   6.607  -2.393  1.00  0.00     0.074 A 
ATOM     58  C   UNL     1      12.201   6.388  -1.114  1.00  0.00     0.031 C 
ATOM     59  C   UNL     1       5.393   7.414  -0.780  1.00  0.00     0.029 A 
ATOM     60  C   UNL     1       5.984   7.496  -2.115  1.00  0.00     0.049 A 
ATOM     61  H   UNL     1       7.971   7.162  -2.638  1.00  0.00     0.167 HD
ATOM     62  C   UNL     1      12.206   6.589  -3.583  1.00  0.00     0.037 A 
ATOM     63  C   UNL     1       5.327   7.797  -3.252  1.00  0.00     0.037 A 
ATOM     64  C   UNL     1      11.571   6.817  -4.853  1.00  0.00     0.049 A 
ATOM     65  C   UNL     1       6.082   7.848  -4.554  1.00  0.00     0.074 A 
ATOM     66  C   UNL     1      12.138   6.803  -6.115  1.00  0.00     0.029 A 
ATOM     67  N   UNL     1      10.227   7.114  -5.020  1.00  0.00    -0.354 N 
ATOM     68  N   UNL     1       7.350   7.613  -4.787  1.00  0.00    -0.248 NA
ATOM     69  C   UNL     1       5.310   8.207  -5.754  1.00  0.00     0.031 C 
ATOM     70  C   UNL     1      11.145   7.137  -7.043  1.00  0.00     0.029 A 
ATOM     71  C   UNL     1       9.950   7.309  -6.363  1.00  0.00     0.049 A 
ATOM     72  H   UNL     1       9.567   7.176  -4.292  1.00  0.00     0.167 HD
ATOM     73  C   UNL     1       7.523   7.766  -6.158  1.00  0.00     0.074 A 
ATOM     74  C   UNL     1       6.226   8.105  -6.707  1.00  0.00     0.031 C 
ATOM     75  C   UNL     1       8.653   7.637  -6.896  1.00  0.00     0.037 A 
BRANCH  62  76
ATOM     76  C   UNL     1      13.684   6.339  -3.558  1.00  0.00     0.057 A 
ATOM     77  C   UNL     1      14.216   5.075  -3.273  1.00  0.00     0.134 A 
ATOM     78  C   UNL     1      14.587   7.371  -3.846  1.00  0.00     0.134 A 
ATOM     79  F   UNL     1      13.405   4.048  -2.974  1.00  0.00    -0.206 F 
ATOM     80  C   UNL     1      15.593   4.850  -3.255  1.00  0.00     0.040 A 
ATOM     81  C   UNL     1      15.965   7.153  -3.856  1.00  0.00     0.040 A 
ATOM     82  F   UNL     1      14.143   8.605  -4.130  1.00  0.00    -0.206 F 
ATOM     83  C   UNL     1      16.472   5.890  -3.554  1.00  0.00     0.006 A 
ENDBRANCH  62  76
BRANCH  63  84
ATOM     84  C   UNL     1       3.872   8.092  -3.215  1.00  0.00     0.057 A 
ATOM     85  C   UNL     1       2.940   7.219  -3.786  1.00  0.00     0.134 A 
ATOM     86  C   UNL     1       3.383   9.269  -2.634  1.00  0.00     0.134 A 
ATOM     87  F   UNL     1       3.350   6.089  -4.381  1.00  0.00    -0.206 F 
ATOM     88  C   UNL     1       1.575   7.511  -3.796  1.00  0.00     0.040 A 
ATOM     89  C   UNL     1       2.019   9.563  -2.615  1.00  0.00     0.040 A 
ATOM     90  F   UNL     1       4.226  10.149  -2.074  1.00  0.00    -0.206 F 
ATOM     91  C   UNL     1       1.111   8.685  -3.205  1.00  0.00     0.006 A 
ENDBRANCH  63  84
BRANCH  75  92
ATOM     92  C   UNL     1       8.533   7.822  -8.381  1.00  0.00     0.057 A 
ATOM     93  C   UNL     1       8.345   9.084  -8.958  1.00  0.00     0.134 A 
ATOM     94  C   UNL     1       8.654   6.726  -9.246  1.00  0.00     0.134 A 
ATOM     95  F   UNL     1       8.210  10.172  -8.184  1.00  0.00    -0.206 F 
ATOM     96  C   UNL     1       8.261   9.247 -10.342  1.00  0.00     0.040 A 
ATOM     97  C   UNL     1       8.598   6.881 -10.632  1.00  0.00     0.040 A 
ATOM     98  F   UNL     1       8.846   5.491  -8.759  1.00  0.00    -0.206 F 
ATOM     99  C   UNL     1       8.395   8.144 -11.183  1.00  0.00     0.006 A 
ENDBRANCH  75  92
ENDBRANCH  49  50
ENDBRANCH  42  44
ENDBRANCH  41  42
ENDBRANCH  40  41
ENDBRANCH  39  40
ENDBRANCH  38  39
ENDBRANCH  37  38
ENDBRANCH   1  37
TORSDOF 22
