REMARK SMILES Cc1ccc(-c2cc(C(=O)OCCOCCOCCOC(=O)c3ccc(-c4c5nc(c(-c6c(F)cccc6F)c6ccc([nH]6)c(-c6c(F)cccc6F)c6nc(c(-c7c(F)cccc7F)c7ccc4[nH]7)C=C6)C=C5)cc3)c3c(-c4cccc([N+](=O)[O-])c4)[nH]nc3n2)cc1
REMARK SMILES IDX 15 1 14 2 13 3 12 4 11 5 9 6 10 7 8 8 6 9 7 10 91 11 90 12
REMARK SMILES IDX 77 13 89 14 78 15 88 16 5 18 1 19 2 20 3 21 93 22 4 23 92 24
REMARK SMILES IDX 79 25 80 26 87 27 81 28 83 29 82 30 84 31 85 32 86 33 16 34
REMARK SMILES IDX 17 35 18 36 19 37 20 38 21 39 22 40 23 41 24 42 76 43 25 44
REMARK SMILES IDX 75 45 26 46 27 47 28 48 69 49 29 50 74 51 68 52 70 53 30 54
REMARK SMILES IDX 73 55 67 56 66 57 31 59 57 60 40 61 56 62 41 63 44 64 55 65
REMARK SMILES IDX 71 66 42 67 43 68 54 70 72 71 45 72 32 73 33 74 38 75 34 76
REMARK SMILES IDX 35 77 37 78 39 79 36 80 58 81 59 82 64 83 60 84 61 85 63 86
REMARK SMILES IDX 65 87 62 88 46 89 47 90 52 91 48 92 49 93 51 94 53 95 50 96
REMARK H PARENT 88 17 70 58 44 69
REMARK Flexibility Score: inf
ROOT
ATOM      1  C   UNL     1      -6.813   1.375  -6.729  1.00  0.00     0.188 C 
ENDROOT
BRANCH   1   2
ATOM      2  O   UNL     1      -5.374   1.596  -6.702  1.00  0.00    -0.376 OA
BRANCH   2   3
ATOM      3  C   UNL     1      -4.782   2.488  -5.719  1.00  0.00     0.202 C 
BRANCH   3   4
ATOM      4  C   UNL     1      -3.654   1.871  -4.577  1.00  0.00     0.261 C 
BRANCH   4   5
ATOM      5  O   UNL     1      -3.899   0.982  -3.067  1.00  0.00    -0.460 OA
BRANCH   5   6
ATOM      6  C   UNL     1      -4.649   0.910  -1.808  1.00  0.00     0.339 C 
ATOM      7  O   UNL     1      -5.380   1.740  -1.273  1.00  0.00    -0.246 OA
BRANCH   6   8
ATOM      8  C   UNL     1      -4.409  -0.157  -0.844  1.00  0.00     0.075 A 
ATOM      9  C   UNL     1      -2.518  -0.595   0.629  1.00  0.00     0.074 A 
ATOM     10  C   UNL     1      -3.042  -0.208  -0.606  1.00  0.00     0.045 A 
ATOM     11  N   UNL     1      -3.191  -1.060   1.694  1.00  0.00    -0.226 NA
ATOM     12  C   UNL     1      -4.528  -1.050   1.526  1.00  0.00     0.182 A 
ATOM     13  C   UNL     1      -5.205  -0.599   0.303  1.00  0.00     0.061 A 
ATOM     14  N   UNL     1      -5.355  -1.427   2.489  1.00  0.00    -0.154 NA
ATOM     15  C   UNL     1      -6.569  -0.727   0.662  1.00  0.00     0.076 A 
ATOM     16  N   UNL     1      -6.542  -1.190   1.971  1.00  0.00    -0.275 N 
ATOM     17  H   UNL     1      -7.369  -1.333   2.486  1.00  0.00     0.190 HD
BRANCH   9  18
ATOM     18  C   UNL     1      -1.084  -0.470   0.766  1.00  0.00     0.000 A 
ATOM     19  C   UNL     1       3.093  -0.117  -0.044  1.00  0.00     0.044 C 
ATOM     20  C   UNL     1       1.646  -0.225   0.316  1.00  0.00    -0.051 A 
ATOM     21  C   UNL     1       1.050  -1.492   0.361  1.00  0.00     0.004 A 
ATOM     22  C   UNL     1       0.884   0.918   0.579  1.00  0.00     0.004 A 
ATOM     23  C   UNL     1      -0.308  -1.616   0.594  1.00  0.00     0.010 A 
ATOM     24  C   UNL     1      -0.481   0.798   0.808  1.00  0.00     0.010 A 
ENDBRANCH   9  18
BRANCH  15  25
ATOM     25  C   UNL     1      -7.970  -0.677   0.185  1.00  0.00     0.007 A 
ATOM     26  C   UNL     1      -8.878   0.229   0.784  1.00  0.00     0.011 A 
ATOM     27  C   UNL     1      -8.530  -1.794  -0.458  1.00  0.00     0.096 A 
ATOM     28  C   UNL     1     -10.275   0.045   0.721  1.00  0.00     0.008 A 
ATOM     29  C   UNL     1      -9.933  -1.947  -0.568  1.00  0.00     0.270 A 
ATOM     30  C   UNL     1     -10.810  -1.039   0.034  1.00  0.00     0.085 A 
BRANCH  29  31
ATOM     31  N   UNL     1     -10.489  -3.023  -1.401  1.00  0.00     0.062 N 
ATOM     32  O   UNL     1     -11.670  -2.916  -1.765  1.00  0.00    -0.258 OA
ATOM     33  O   UNL     1      -9.730  -3.943  -1.727  1.00  0.00    -0.258 OA
ENDBRANCH  29  31
ENDBRANCH  15  25
ENDBRANCH   6   8
ENDBRANCH   5   6
ENDBRANCH   4   5
ENDBRANCH   3   4
ENDBRANCH   2   3
ENDBRANCH   1   2
BRANCH   1  34
ATOM     34  C   UNL     1      -7.128  -0.091  -7.158  1.00  0.00     0.188 C 
BRANCH  34  35
ATOM     35  O   UNL     1      -5.950  -0.848  -6.931  1.00  0.00    -0.376 OA
BRANCH  35  36
ATOM     36  C   UNL     1      -5.674  -1.976  -7.727  1.00  0.00     0.202 C 
BRANCH  36  37
ATOM     37  C   UNL     1      -6.213  -3.279  -7.116  1.00  0.00     0.261 C 
BRANCH  37  38
ATOM     38  O   UNL     1      -5.873  -3.381  -5.713  1.00  0.00    -0.460 OA
BRANCH  38  39
ATOM     39  C   UNL     1      -6.913  -3.195  -4.839  1.00  0.00     0.338 C 
ATOM     40  O   UNL     1      -7.945  -3.849  -4.839  1.00  0.00    -0.246 OA
BRANCH  39  41
ATOM     41  C   UNL     1      -6.721  -1.936  -4.054  1.00  0.00     0.060 A 
ATOM     42  C   UNL     1      -7.729  -1.194  -3.429  1.00  0.00     0.016 A 
ATOM     43  C   UNL     1      -5.566  -1.274  -4.244  1.00  0.00     0.016 A 
ATOM     44  C   UNL     1      -7.576   0.222  -3.083  1.00  0.00     0.010 A 
ATOM     45  C   UNL     1      -5.678   0.120  -4.249  1.00  0.00     0.010 A 
ATOM     46  C   UNL     1      -6.538   1.011  -3.556  1.00  0.00    -0.014 A 
BRANCH  46  47
ATOM     47  C   UNL     1      -6.347   2.687  -3.332  1.00  0.00     0.031 A 
ATOM     48  C   UNL     1      -5.069   3.684  -2.646  1.00  0.00     0.074 A 
ATOM     49  C   UNL     1      -7.377   3.492  -3.707  1.00  0.00     0.049 A 
ATOM     50  N   UNL     1      -5.255   4.910  -2.176  1.00  0.00    -0.248 NA
ATOM     51  C   UNL     1      -3.611   3.424  -2.418  1.00  0.00     0.031 C 
ATOM     52  C   UNL     1      -7.346   4.951  -3.834  1.00  0.00     0.029 A 
ATOM     53  N   UNL     1      -8.720   3.180  -3.928  1.00  0.00    -0.354 N 
ATOM     54  C   UNL     1      -4.028   5.536  -1.899  1.00  0.00     0.074 A 
ATOM     55  C   UNL     1      -3.031   4.569  -2.107  1.00  0.00     0.031 C 
ATOM     56  C   UNL     1      -8.588   5.430  -3.717  1.00  0.00     0.029 A 
ATOM     57  C   UNL     1      -9.471   4.309  -3.509  1.00  0.00     0.049 A 
ATOM     58  H   UNL     1      -9.076   2.342  -4.302  1.00  0.00     0.167 HD
ATOM     59  C   UNL     1      -3.867   6.843  -1.550  1.00  0.00     0.037 A 
ATOM     60  C   UNL     1     -10.457   4.233  -2.575  1.00  0.00     0.037 A 
ATOM     61  C   UNL     1      -5.139   7.462  -1.327  1.00  0.00     0.049 A 
ATOM     62  C   UNL     1     -10.205   5.039  -1.316  1.00  0.00     0.074 A 
ATOM     63  C   UNL     1      -5.970   8.233  -2.114  1.00  0.00     0.029 A 
ATOM     64  N   UNL     1      -5.886   7.026  -0.249  1.00  0.00    -0.354 N 
ATOM     65  N   UNL     1      -9.229   5.889  -1.154  1.00  0.00    -0.248 NA
ATOM     66  C   UNL     1     -11.008   4.902  -0.099  1.00  0.00     0.031 C 
ATOM     67  C   UNL     1      -7.253   8.222  -1.520  1.00  0.00     0.029 A 
ATOM     68  C   UNL     1      -7.188   7.458  -0.369  1.00  0.00     0.049 A 
ATOM     69  H   UNL     1      -5.537   6.486   0.496  1.00  0.00     0.167 HD
ATOM     70  C   UNL     1      -9.185   6.307   0.160  1.00  0.00     0.074 A 
ATOM     71  C   UNL     1     -10.365   5.718   0.755  1.00  0.00     0.031 C 
ATOM     72  C   UNL     1      -8.152   7.066   0.642  1.00  0.00     0.037 A 
BRANCH  59  73
ATOM     73  C   UNL     1      -2.538   7.575  -1.710  1.00  0.00     0.057 A 
ATOM     74  C   UNL     1      -2.503   8.846  -2.312  1.00  0.00     0.134 A 
ATOM     75  C   UNL     1      -1.265   7.038  -1.434  1.00  0.00     0.134 A 
ATOM     76  F   UNL     1      -3.617   9.563  -2.498  1.00  0.00    -0.206 F 
ATOM     77  C   UNL     1      -1.320   9.439  -2.777  1.00  0.00     0.040 A 
ATOM     78  C   UNL     1      -0.077   7.587  -1.950  1.00  0.00     0.040 A 
ATOM     79  F   UNL     1      -1.118   5.966  -0.641  1.00  0.00    -0.206 F 
ATOM     80  C   UNL     1      -0.107   8.780  -2.656  1.00  0.00     0.006 A 
ENDBRANCH  59  73
BRANCH  60  81
ATOM     81  C   UNL     1     -11.217   2.966  -2.682  1.00  0.00     0.057 A 
ATOM     82  C   UNL     1     -12.191   2.824  -3.679  1.00  0.00     0.134 A 
ATOM     83  C   UNL     1     -10.639   1.801  -2.205  1.00  0.00     0.134 A 
ATOM     84  F   UNL     1     -12.789   3.911  -4.186  1.00  0.00    -0.206 F 
ATOM     85  C   UNL     1     -12.484   1.584  -4.262  1.00  0.00     0.040 A 
ATOM     86  C   UNL     1     -10.892   0.569  -2.817  1.00  0.00     0.040 A 
ATOM     87  F   UNL     1      -9.663   1.892  -1.292  1.00  0.00    -0.206 F 
ATOM     88  C   UNL     1     -11.792   0.452  -3.863  1.00  0.00     0.006 A 
ENDBRANCH  60  81
BRANCH  72  89
ATOM     89  C   UNL     1      -7.896   7.538   2.066  1.00  0.00     0.057 A 
ATOM     90  C   UNL     1      -8.353   6.909   3.229  1.00  0.00     0.134 A 
ATOM     91  C   UNL     1      -7.024   8.637   2.296  1.00  0.00     0.134 A 
ATOM     92  F   UNL     1      -9.095   5.796   3.182  1.00  0.00    -0.206 F 
ATOM     93  C   UNL     1      -8.016   7.366   4.516  1.00  0.00     0.040 A 
ATOM     94  C   UNL     1      -6.633   9.060   3.570  1.00  0.00     0.040 A 
ATOM     95  F   UNL     1      -6.493   9.341   1.285  1.00  0.00    -0.206 F 
ATOM     96  C   UNL     1      -7.145   8.434   4.691  1.00  0.00     0.006 A 
ENDBRANCH  72  89
ENDBRANCH  46  47
ENDBRANCH  39  41
ENDBRANCH  38  39
ENDBRANCH  37  38
ENDBRANCH  36  37
ENDBRANCH  35  36
ENDBRANCH  34  35
ENDBRANCH   1  34
TORSDOF 20
