REMARK SMILES Cc1cc(N(C)[C@H]2CC[C@@H](C)CC2)cc(C(=O)OCCOCCOCCOC(=O)c2ccc(-c3c4nc(c(-c5c(F)cccc5F)c5ccc([nH]5)c(-c5c(F)cccc5F)c5nc(c(-c6c(F)cccc6F)c6ccc3[nH]6)C=C5)C=C4)cc2)c1N
REMARK SMILES IDX 22 1 21 2 20 3 19 4 18 5 16 6 17 7 15 8 1 9 2 10 3 11 84 12
REMARK SMILES IDX 4 13 14 14 85 15 5 18 6 19 7 20 8 21 13 22 9 23 12 24 10 25
REMARK SMILES IDX 11 26 23 27 24 28 25 29 26 30 27 31 28 32 29 33 30 34 31 35
REMARK SMILES IDX 83 36 32 37 82 38 33 39 34 40 35 41 76 42 36 43 81 44 75 45
REMARK SMILES IDX 77 46 37 47 80 48 74 49 73 50 38 52 64 53 47 54 63 55 48 56
REMARK SMILES IDX 51 57 62 58 78 59 49 60 50 61 61 63 79 64 52 65 39 66 40 67
REMARK SMILES IDX 45 68 41 69 42 70 44 71 46 72 43 73 65 74 66 75 71 76 67 77
REMARK SMILES IDX 68 78 70 79 72 80 69 81 53 82 54 83 59 84 55 85 56 86 58 87
REMARK SMILES IDX 60 88 57 89
REMARK H PARENT 85 16 85 17 77 51 51 62
REMARK Flexibility Score: inf
ROOT
ATOM      1  C   UNL     1       0.112  -4.129  -1.569  1.00  0.00     0.188 C 
ENDROOT
BRANCH   1   2
ATOM      2  O   UNL     1      -0.363  -5.462  -1.515  1.00  0.00    -0.376 OA
BRANCH   2   3
ATOM      3  C   UNL     1      -0.710  -5.960  -0.232  1.00  0.00     0.202 C 
BRANCH   3   4
ATOM      4  C   UNL     1      -1.814  -5.240   0.569  1.00  0.00     0.261 C 
BRANCH   4   5
ATOM      5  O   UNL     1      -1.769  -3.803   0.588  1.00  0.00    -0.460 OA
BRANCH   5   6
ATOM      6  C   UNL     1      -0.830  -3.247   1.386  1.00  0.00     0.340 C 
ATOM      7  O   UNL     1      -0.043  -3.871   2.084  1.00  0.00    -0.246 OA
BRANCH   6   8
ATOM      8  C   UNL     1      -0.759  -1.772   1.186  1.00  0.00     0.085 A 
ATOM      9  C   UNL     1       1.820   1.010   1.145  1.00  0.00     0.047 C 
ATOM     10  C   UNL     1       0.550   0.214   1.275  1.00  0.00    -0.025 A 
ATOM     11  C   UNL     1      -0.656   0.917   1.380  1.00  0.00     0.031 A 
ATOM     12  C   UNL     1       0.512  -1.171   1.185  1.00  0.00     0.049 A 
ATOM     13  C   UNL     1      -1.857   0.419   0.895  1.00  0.00     0.038 A 
ATOM     14  C   UNL     1      -1.918  -0.985   0.946  1.00  0.00     0.043 A 
BRANCH  12  15
ATOM     15  N   UNL     1       1.680  -1.890   0.926  1.00  0.00    -0.398 N 
ATOM     16  H   UNL     1       2.552  -1.433   0.935  1.00  0.00     0.156 HD
ATOM     17  H   UNL     1       1.631  -2.855   0.736  1.00  0.00     0.156 HD
ENDBRANCH  12  15
BRANCH  13  18
ATOM     18  N   UNL     1      -2.832   1.256   0.323  1.00  0.00    -0.372 N 
ATOM     19  C   UNL     1      -4.202   0.720   0.287  1.00  0.00     0.144 C 
BRANCH  18  20
ATOM     20  C   UNL     1      -2.700   2.752   0.036  1.00  0.00     0.082 C 
ATOM     21  C   UNL     1      -3.364   3.234  -1.292  1.00  0.00     0.025 C 
ATOM     22  C   UNL     1      -1.299   3.377  -0.054  1.00  0.00     0.025 C 
ATOM     23  C   UNL     1      -2.535   3.137  -2.600  1.00  0.00     0.005 C 
ATOM     24  C   UNL     1      -0.492   2.706  -1.156  1.00  0.00     0.005 C 
ATOM     25  C   UNL     1      -0.997   3.202  -2.498  1.00  0.00    -0.014 C 
ATOM     26  C   UNL     1      -0.316   2.422  -3.627  1.00  0.00     0.007 C 
ENDBRANCH  18  20
ENDBRANCH  13  18
ENDBRANCH   6   8
ENDBRANCH   5   6
ENDBRANCH   4   5
ENDBRANCH   3   4
ENDBRANCH   2   3
ENDBRANCH   1   2
BRANCH   1  27
ATOM     27  C   UNL     1      -0.892  -3.134  -2.189  1.00  0.00     0.188 C 
BRANCH  27  28
ATOM     28  O   UNL     1      -2.156  -3.588  -2.653  1.00  0.00    -0.376 OA
BRANCH  28  29
ATOM     29  C   UNL     1      -2.233  -4.807  -3.378  1.00  0.00     0.202 C 
BRANCH  29  30
ATOM     30  C   UNL     1      -1.288  -5.081  -4.566  1.00  0.00     0.261 C 
BRANCH  30  31
ATOM     31  O   UNL     1       0.084  -4.678  -4.412  1.00  0.00    -0.460 OA
BRANCH  31  32
ATOM     32  C   UNL     1       0.464  -3.585  -5.122  1.00  0.00     0.338 C 
ATOM     33  O   UNL     1      -0.214  -2.929  -5.888  1.00  0.00    -0.246 OA
BRANCH  32  34
ATOM     34  C   UNL     1       1.832  -3.184  -4.723  1.00  0.00     0.060 A 
ATOM     35  C   UNL     1       2.015  -1.948  -4.087  1.00  0.00     0.016 A 
ATOM     36  C   UNL     1       2.933  -3.981  -5.039  1.00  0.00     0.016 A 
ATOM     37  C   UNL     1       3.299  -1.494  -3.784  1.00  0.00     0.010 A 
ATOM     38  C   UNL     1       4.223  -3.513  -4.757  1.00  0.00     0.010 A 
ATOM     39  C   UNL     1       4.415  -2.254  -4.155  1.00  0.00    -0.014 A 
BRANCH  39  40
ATOM     40  C   UNL     1       5.776  -1.666  -4.068  1.00  0.00     0.031 A 
ATOM     41  C   UNL     1       6.407  -1.111  -5.317  1.00  0.00     0.074 A 
ATOM     42  C   UNL     1       6.441  -1.610  -2.900  1.00  0.00     0.049 A 
ATOM     43  N   UNL     1       7.608  -0.623  -5.497  1.00  0.00    -0.248 NA
ATOM     44  C   UNL     1       5.569  -1.111  -6.527  1.00  0.00     0.031 C 
ATOM     45  C   UNL     1       5.929  -2.071  -1.611  1.00  0.00     0.029 A 
ATOM     46  N   UNL     1       7.705  -1.153  -2.616  1.00  0.00    -0.354 N 
ATOM     47  C   UNL     1       7.673  -0.264  -6.838  1.00  0.00     0.074 A 
ATOM     48  C   UNL     1       6.402  -0.620  -7.433  1.00  0.00     0.031 C 
ATOM     49  C   UNL     1       6.880  -1.893  -0.677  1.00  0.00     0.029 A 
ATOM     50  C   UNL     1       8.078  -1.339  -1.307  1.00  0.00     0.049 A 
ATOM     51  H   UNL     1       8.289  -0.731  -3.288  1.00  0.00     0.167 HD
ATOM     52  C   UNL     1       8.694   0.318  -7.511  1.00  0.00     0.037 A 
ATOM     53  C   UNL     1       9.259  -1.117  -0.697  1.00  0.00     0.037 A 
ATOM     54  C   UNL     1       9.960   0.668  -6.923  1.00  0.00     0.049 A 
ATOM     55  C   UNL     1      10.410  -0.548  -1.490  1.00  0.00     0.074 A 
ATOM     56  C   UNL     1      11.052   1.270  -7.523  1.00  0.00     0.029 A 
ATOM     57  N   UNL     1      10.305   0.442  -5.599  1.00  0.00    -0.354 N 
ATOM     58  N   UNL     1      10.454  -0.191  -2.751  1.00  0.00    -0.248 NA
ATOM     59  C   UNL     1      11.677  -0.347  -0.770  1.00  0.00     0.031 C 
ATOM     60  C   UNL     1      12.078   1.357  -6.578  1.00  0.00     0.029 A 
ATOM     61  C   UNL     1      11.604   0.869  -5.372  1.00  0.00     0.049 A 
ATOM     62  H   UNL     1       9.716   0.038  -4.922  1.00  0.00     0.167 HD
ATOM     63  C   UNL     1      11.735   0.306  -2.964  1.00  0.00     0.074 A 
ATOM     64  C   UNL     1      12.433   0.218  -1.700  1.00  0.00     0.031 C 
ATOM     65  C   UNL     1      12.284   0.792  -4.104  1.00  0.00     0.037 A 
BRANCH  52  66
ATOM     66  C   UNL     1       8.493   0.594  -8.974  1.00  0.00     0.057 A 
ATOM     67  C   UNL     1       7.628   1.598  -9.426  1.00  0.00     0.134 A 
ATOM     68  C   UNL     1       9.211  -0.123  -9.940  1.00  0.00     0.134 A 
ATOM     69  F   UNL     1       6.901   2.313  -8.553  1.00  0.00    -0.206 F 
ATOM     70  C   UNL     1       7.469   1.867 -10.787  1.00  0.00     0.040 A 
ATOM     71  C   UNL     1       9.082   0.156 -11.301  1.00  0.00     0.040 A 
ATOM     72  F   UNL     1      10.062  -1.094  -9.576  1.00  0.00    -0.206 F 
ATOM     73  C   UNL     1       8.205   1.150 -11.728  1.00  0.00     0.006 A 
ENDBRANCH  52  66
BRANCH  53  74
ATOM     74  C   UNL     1       9.438  -1.456   0.739  1.00  0.00     0.057 A 
ATOM     75  C   UNL     1       9.661  -0.463   1.700  1.00  0.00     0.134 A 
ATOM     76  C   UNL     1       9.440  -2.786   1.178  1.00  0.00     0.134 A 
ATOM     77  F   UNL     1       9.697   0.829   1.340  1.00  0.00    -0.206 F 
ATOM     78  C   UNL     1       9.907  -0.779   3.038  1.00  0.00     0.040 A 
ATOM     79  C   UNL     1       9.655  -3.116   2.517  1.00  0.00     0.040 A 
ATOM     80  F   UNL     1       9.234  -3.787   0.309  1.00  0.00    -0.206 F 
ATOM     81  C   UNL     1       9.900  -2.110   3.450  1.00  0.00     0.006 A 
ENDBRANCH  53  74
BRANCH  65  82
ATOM     82  C   UNL     1      13.691   1.318  -4.031  1.00  0.00     0.057 A 
ATOM     83  C   UNL     1      14.796   0.472  -3.867  1.00  0.00     0.134 A 
ATOM     84  C   UNL     1      13.945   2.689  -4.171  1.00  0.00     0.134 A 
ATOM     85  F   UNL     1      14.624  -0.850  -3.716  1.00  0.00    -0.206 F 
ATOM     86  C   UNL     1      16.098   0.973  -3.818  1.00  0.00     0.040 A 
ATOM     87  C   UNL     1      15.244   3.199  -4.155  1.00  0.00     0.040 A 
ATOM     88  F   UNL     1      12.935   3.555  -4.343  1.00  0.00    -0.206 F 
ATOM     89  C   UNL     1      16.326   2.340  -3.970  1.00  0.00     0.006 A 
ENDBRANCH  65  82
ENDBRANCH  39  40
ENDBRANCH  32  34
ENDBRANCH  31  32
ENDBRANCH  30  31
ENDBRANCH  29  30
ENDBRANCH  28  29
ENDBRANCH  27  28
ENDBRANCH   1  27
TORSDOF 20
