REMARK SMILES Cc1ccccc1OCC(=O)NCCC(=O)OCCOCCOCCOC(=O)c1ccc(-c2c3nc(c(-c4c(F)cccc4F)c4ccc([nH]4)c(-c4c(F)cccc4F)c4nc(c(-c5c(F)cccc5F)c5ccc2[nH]5)C=C4)C=C3)cc1
REMARK SMILES IDX 20 1 19 2 18 3 17 4 15 5 16 6 14 7 13 8 12 9 10 10 11 11
REMARK SMILES IDX 9 13 8 14 7 15 1 16 2 17 3 18 4 19 6 20 5 21 21 22 22 23
REMARK SMILES IDX 23 24 24 25 25 26 26 27 27 28 28 29 29 30 30 31 82 32 31 33
REMARK SMILES IDX 81 34 32 35 33 36 34 37 75 38 35 39 80 40 74 41 76 42 36 43
REMARK SMILES IDX 79 44 73 45 72 46 37 48 63 49 46 50 62 51 47 52 50 53 61 54
REMARK SMILES IDX 77 55 48 56 49 57 60 59 78 60 51 61 38 62 39 63 44 64 40 65
REMARK SMILES IDX 41 66 43 67 45 68 42 69 64 70 65 71 70 72 66 73 67 74 69 75
REMARK SMILES IDX 71 76 68 77 52 78 53 79 58 80 54 81 55 82 57 83 59 84 56 85
REMARK H PARENT 12 12 76 47 50 58
REMARK Flexibility Score: inf
ROOT
ATOM      1  O   UNL     1       3.335   1.556   7.562  1.00  0.00    -0.376 OA
ENDROOT
BRANCH   1   2
ATOM      2  C   UNL     1       4.101   0.924   6.527  1.00  0.00     0.202 C 
BRANCH   2   3
ATOM      3  C   UNL     1       3.618   0.482   4.963  1.00  0.00     0.261 C 
BRANCH   3   4
ATOM      4  O   UNL     1       3.013   1.328   3.592  1.00  0.00    -0.463 OA
BRANCH   4   5
ATOM      5  C   UNL     1       1.780   1.868   3.070  1.00  0.00     0.307 C 
ATOM      6  O   UNL     1       0.688   2.102   3.591  1.00  0.00    -0.252 OA
BRANCH   5   7
ATOM      7  C   UNL     1       1.666   2.030   1.623  1.00  0.00     0.144 C 
BRANCH   7   8
ATOM      8  C   UNL     1       2.339   3.299   1.222  1.00  0.00     0.127 C 
BRANCH   8   9
ATOM      9  N   UNL     1       3.631   2.895   0.751  1.00  0.00    -0.353 N 
ATOM     10  C   UNL     1       3.777   2.162  -0.401  1.00  0.00     0.257 C 
ATOM     11  O   UNL     1       4.772   1.448  -0.519  1.00  0.00    -0.271 OA
ATOM     12  H   UNL     1       4.431   3.149   1.264  1.00  0.00     0.163 HD
BRANCH  10  13
ATOM     13  C   UNL     1       2.718   2.322  -1.527  1.00  0.00     0.329 C 
BRANCH  13  14
ATOM     14  O   UNL     1       1.326   2.150  -1.363  1.00  0.00    -0.484 OA
BRANCH  14  15
ATOM     15  C   UNL     1       0.665   0.974  -1.159  1.00  0.00     0.122 A 
ATOM     16  C   UNL     1       2.572  -0.763  -1.262  1.00  0.00     0.048 C 
ATOM     17  C   UNL     1       1.147  -0.338  -1.079  1.00  0.00    -0.009 A 
ATOM     18  C   UNL     1       0.248  -1.366  -0.699  1.00  0.00     0.007 A 
ATOM     19  C   UNL     1      -1.096  -1.114  -0.425  1.00  0.00     0.001 A 
ATOM     20  C   UNL     1      -0.708   1.202  -0.914  1.00  0.00     0.047 A 
ATOM     21  C   UNL     1      -1.579   0.177  -0.540  1.00  0.00     0.004 A 
ENDBRANCH  14  15
ENDBRANCH  13  14
ENDBRANCH  10  13
ENDBRANCH   8   9
ENDBRANCH   7   8
ENDBRANCH   5   7
ENDBRANCH   4   5
ENDBRANCH   3   4
ENDBRANCH   2   3
ENDBRANCH   1   2
BRANCH   1  22
ATOM     22  C   UNL     1       3.537   2.883   8.084  1.00  0.00     0.188 C 
BRANCH  22  23
ATOM     23  C   UNL     1       4.851   3.648   7.979  1.00  0.00     0.188 C 
BRANCH  23  24
ATOM     24  O   UNL     1       5.434   3.451   6.708  1.00  0.00    -0.376 OA
BRANCH  24  25
ATOM     25  C   UNL     1       6.642   4.151   6.474  1.00  0.00     0.202 C 
BRANCH  25  26
ATOM     26  C   UNL     1       6.442   5.664   6.248  1.00  0.00     0.261 C 
BRANCH  26  27
ATOM     27  O   UNL     1       5.470   5.922   5.203  1.00  0.00    -0.460 OA
BRANCH  27  28
ATOM     28  C   UNL     1       4.237   6.437   5.567  1.00  0.00     0.338 C 
ATOM     29  O   UNL     1       4.062   7.358   6.312  1.00  0.00    -0.246 OA
BRANCH  28  30
ATOM     30  C   UNL     1       3.153   5.486   5.108  1.00  0.00     0.060 A 
ATOM     31  C   UNL     1       1.821   5.458   5.558  1.00  0.00     0.016 A 
ATOM     32  C   UNL     1       3.613   4.337   4.578  1.00  0.00     0.016 A 
ATOM     33  C   UNL     1       1.078   4.210   5.679  1.00  0.00     0.010 A 
ATOM     34  C   UNL     1       3.010   3.194   5.070  1.00  0.00     0.010 A 
ATOM     35  C   UNL     1       1.699   2.964   5.549  1.00  0.00    -0.014 A 
BRANCH  35  36
ATOM     36  C   UNL     1       1.041   1.458   5.911  1.00  0.00     0.031 A 
ATOM     37  C   UNL     1       0.658   0.076   4.962  1.00  0.00     0.074 A 
ATOM     38  C   UNL     1       0.599   1.339   7.180  1.00  0.00     0.049 A 
ATOM     39  N   UNL     1      -0.420  -0.669   5.129  1.00  0.00    -0.248 NA
ATOM     40  C   UNL     1       1.329  -0.520   3.730  1.00  0.00     0.031 C 
ATOM     41  C   UNL     1       0.147   0.142   7.878  1.00  0.00     0.029 A 
ATOM     42  N   UNL     1       0.383   2.370   8.103  1.00  0.00    -0.354 N 
ATOM     43  C   UNL     1      -0.337  -1.735   4.210  1.00  0.00     0.074 A 
ATOM     44  C   UNL     1       0.431  -1.284   3.140  1.00  0.00     0.031 C 
ATOM     45  C   UNL     1      -0.566   0.525   8.952  1.00  0.00     0.029 A 
ATOM     46  C   UNL     1      -0.715   1.969   8.871  1.00  0.00     0.049 A 
ATOM     47  H   UNL     1       0.897   3.205   8.192  1.00  0.00     0.167 HD
ATOM     48  C   UNL     1      -0.575  -3.039   4.525  1.00  0.00     0.037 A 
ATOM     49  C   UNL     1      -1.881   2.670   8.814  1.00  0.00     0.037 A 
ATOM     50  C   UNL     1      -1.395  -3.050   5.702  1.00  0.00     0.049 A 
ATOM     51  C   UNL     1      -3.030   1.789   8.380  1.00  0.00     0.074 A 
ATOM     52  C   UNL     1      -1.163  -3.329   7.030  1.00  0.00     0.029 A 
ATOM     53  N   UNL     1      -2.577  -2.332   5.630  1.00  0.00    -0.354 N 
ATOM     54  N   UNL     1      -2.874   0.637   7.782  1.00  0.00    -0.248 NA
ATOM     55  C   UNL     1      -4.434   2.091   8.630  1.00  0.00     0.031 C 
ATOM     56  C   UNL     1      -2.151  -2.617   7.775  1.00  0.00     0.029 A 
ATOM     57  C   UNL     1      -3.007  -1.984   6.887  1.00  0.00     0.049 A 
ATOM     58  H   UNL     1      -3.044  -2.104   4.794  1.00  0.00     0.167 HD
ATOM     59  C   UNL     1      -4.088   0.040   7.589  1.00  0.00     0.074 A 
ATOM     60  C   UNL     1      -5.035   0.991   8.139  1.00  0.00     0.031 C 
ATOM     61  C   UNL     1      -4.216  -1.182   6.993  1.00  0.00     0.037 A 
BRANCH  48  62
ATOM     62  C   UNL     1       0.075  -4.282   3.869  1.00  0.00     0.057 A 
ATOM     63  C   UNL     1      -0.331  -5.567   4.281  1.00  0.00     0.134 A 
ATOM     64  C   UNL     1       1.157  -4.324   2.944  1.00  0.00     0.134 A 
ATOM     65  F   UNL     1      -1.325  -5.725   5.166  1.00  0.00    -0.206 F 
ATOM     66  C   UNL     1       0.272  -6.760   3.828  1.00  0.00     0.040 A 
ATOM     67  C   UNL     1       1.727  -5.511   2.441  1.00  0.00     0.040 A 
ATOM     68  F   UNL     1       1.801  -3.237   2.506  1.00  0.00    -0.206 F 
ATOM     69  C   UNL     1       1.297  -6.739   2.896  1.00  0.00     0.006 A 
ENDBRANCH  48  62
BRANCH  49  70
ATOM     70  C   UNL     1      -1.689   4.143   8.605  1.00  0.00     0.057 A 
ATOM     71  C   UNL     1      -0.811   4.827   9.481  1.00  0.00     0.134 A 
ATOM     72  C   UNL     1      -2.043   4.829   7.441  1.00  0.00     0.134 A 
ATOM     73  F   UNL     1      -0.425   4.250  10.632  1.00  0.00    -0.206 F 
ATOM     74  C   UNL     1      -0.218   6.053   9.161  1.00  0.00     0.040 A 
ATOM     75  C   UNL     1      -1.478   6.081   7.122  1.00  0.00     0.040 A 
ATOM     76  F   UNL     1      -2.840   4.260   6.527  1.00  0.00    -0.206 F 
ATOM     77  C   UNL     1      -0.536   6.677   7.964  1.00  0.00     0.006 A 
ENDBRANCH  49  70
BRANCH  61  78
ATOM     78  C   UNL     1      -5.484  -1.755   6.399  1.00  0.00     0.057 A 
ATOM     79  C   UNL     1      -6.556  -0.980   5.940  1.00  0.00     0.134 A 
ATOM     80  C   UNL     1      -5.556  -3.131   6.064  1.00  0.00     0.134 A 
ATOM     81  F   UNL     1      -6.580   0.351   6.087  1.00  0.00    -0.206 F 
ATOM     82  C   UNL     1      -7.633  -1.532   5.236  1.00  0.00     0.040 A 
ATOM     83  C   UNL     1      -6.584  -3.675   5.293  1.00  0.00     0.040 A 
ATOM     84  F   UNL     1      -4.604  -4.002   6.431  1.00  0.00    -0.206 F 
ATOM     85  C   UNL     1      -7.639  -2.877   4.888  1.00  0.00     0.006 A 
ENDBRANCH  61  78
ENDBRANCH  35  36
ENDBRANCH  28  30
ENDBRANCH  27  28
ENDBRANCH  26  27
ENDBRANCH  25  26
ENDBRANCH  24  25
ENDBRANCH  23  24
ENDBRANCH  22  23
ENDBRANCH   1  22
TORSDOF 22
