REMARK SMILES O=C(OCCOCCOCCOC(=O)c1ccc2c(c1)=N[C@H](C(F)(F)F)N=2)c1ccc(-c2c3nc(c(-c4c(F)cccc4F)c4ccc([nH]4)c(-c4c(F)cccc4F)c4nc(c(-c5c(F)cccc5F)c5ccc2[nH]5)C=C4)C=C3)cc1
REMARK SMILES IDX 7 1 6 2 5 3 4 4 3 5 2 6 1 7 28 8 29 9 81 10 30 11 80 12
REMARK SMILES IDX 31 13 32 14 33 15 74 16 34 17 79 18 73 19 75 20 35 21 78 22
REMARK SMILES IDX 72 23 71 24 36 26 62 27 45 28 61 29 46 30 49 31 60 32 76 33
REMARK SMILES IDX 47 34 48 35 59 37 77 38 50 39 37 40 38 41 43 42 39 43 40 44
REMARK SMILES IDX 42 45 44 46 41 47 63 48 64 49 69 50 65 51 66 52 68 53 70 54
REMARK SMILES IDX 67 55 51 56 52 57 57 58 53 59 54 60 56 61 58 62 55 63 8 64
REMARK SMILES IDX 9 65 10 66 11 67 12 68 13 69 14 70 15 71 16 72 20 73 17 74
REMARK SMILES IDX 19 75 18 76 21 77 27 78 22 79 23 80 24 81 25 82 26 83
REMARK H PARENT 75 25 49 36
REMARK Flexibility Score: inf
ROOT
ATOM      1  C   UNL     1       2.807   1.001  -1.262  1.00  0.00     0.188 C 
ENDROOT
BRANCH   1   2
ATOM      2  O   UNL     1       4.176   0.646  -1.097  1.00  0.00    -0.376 OA
BRANCH   2   3
ATOM      3  C   UNL     1       4.524  -0.609  -1.675  1.00  0.00     0.202 C 
BRANCH   3   4
ATOM      4  C   UNL     1       4.527  -1.740  -0.652  1.00  0.00     0.261 C 
BRANCH   4   5
ATOM      5  O   UNL     1       3.248  -1.920  -0.020  1.00  0.00    -0.460 OA
BRANCH   5   6
ATOM      6  C   UNL     1       2.781  -1.456   1.161  1.00  0.00     0.338 C 
ATOM      7  O   UNL     1       1.781  -1.999   1.631  1.00  0.00    -0.246 OA
BRANCH   6   8
ATOM      8  C   UNL     1       3.307  -0.253   1.891  1.00  0.00     0.060 A 
ATOM      9  C   UNL     1       2.388   0.400   2.739  1.00  0.00     0.016 A 
ATOM     10  C   UNL     1       4.616   0.232   1.866  1.00  0.00     0.016 A 
ATOM     11  C   UNL     1       2.775   1.466   3.562  1.00  0.00     0.010 A 
ATOM     12  C   UNL     1       5.010   1.299   2.685  1.00  0.00     0.010 A 
ATOM     13  C   UNL     1       4.102   1.899   3.561  1.00  0.00    -0.014 A 
BRANCH  13  14
ATOM     14  C   UNL     1       4.597   2.825   4.604  1.00  0.00     0.031 A 
ATOM     15  C   UNL     1       4.833   4.276   4.330  1.00  0.00     0.074 A 
ATOM     16  C   UNL     1       4.911   2.300   5.804  1.00  0.00     0.049 A 
ATOM     17  N   UNL     1       5.182   5.221   5.166  1.00  0.00    -0.248 NA
ATOM     18  C   UNL     1       4.680   4.725   2.939  1.00  0.00     0.031 C 
ATOM     19  C   UNL     1       4.814   0.880   6.152  1.00  0.00     0.029 A 
ATOM     20  N   UNL     1       5.397   2.891   6.940  1.00  0.00    -0.354 N 
ATOM     21  C   UNL     1       5.234   6.388   4.419  1.00  0.00     0.074 A 
ATOM     22  C   UNL     1       4.962   6.019   3.045  1.00  0.00     0.031 C 
ATOM     23  C   UNL     1       5.243   0.708   7.412  1.00  0.00     0.029 A 
ATOM     24  C   UNL     1       5.632   2.002   7.959  1.00  0.00     0.049 A 
ATOM     25  H   UNL     1       5.562   3.858   7.017  1.00  0.00     0.167 HD
ATOM     26  C   UNL     1       5.462   7.652   4.849  1.00  0.00     0.037 A 
ATOM     27  C   UNL     1       6.098   2.212   9.203  1.00  0.00     0.037 A 
ATOM     28  C   UNL     1       5.803   8.000   6.203  1.00  0.00     0.049 A 
ATOM     29  C   UNL     1       6.363   3.619   9.651  1.00  0.00     0.074 A 
ATOM     30  C   UNL     1       6.030   9.254   6.745  1.00  0.00     0.029 A 
ATOM     31  N   UNL     1       5.991   7.083   7.226  1.00  0.00    -0.354 N 
ATOM     32  N   UNL     1       6.267   4.735   8.968  1.00  0.00    -0.248 NA
ATOM     33  C   UNL     1       6.765   3.800  11.051  1.00  0.00     0.031 C 
ATOM     34  C   UNL     1       6.389   9.091   8.089  1.00  0.00     0.029 A 
ATOM     35  C   UNL     1       6.352   7.739   8.391  1.00  0.00     0.049 A 
ATOM     36  H   UNL     1       5.883   6.108   7.137  1.00  0.00     0.167 HD
ATOM     37  C   UNL     1       6.569   5.752   9.862  1.00  0.00     0.074 A 
ATOM     38  C   UNL     1       6.832   5.120  11.139  1.00  0.00     0.031 C 
ATOM     39  C   UNL     1       6.620   7.090   9.649  1.00  0.00     0.037 A 
BRANCH  26  40
ATOM     40  C   UNL     1       5.304   8.759   3.852  1.00  0.00     0.057 A 
ATOM     41  C   UNL     1       6.405   9.411   3.290  1.00  0.00     0.134 A 
ATOM     42  C   UNL     1       4.030   9.214   3.493  1.00  0.00     0.134 A 
ATOM     43  F   UNL     1       7.653   9.034   3.604  1.00  0.00    -0.206 F 
ATOM     44  C   UNL     1       6.243  10.470   2.393  1.00  0.00     0.040 A 
ATOM     45  C   UNL     1       3.853  10.264   2.589  1.00  0.00     0.040 A 
ATOM     46  F   UNL     1       2.934   8.623   3.991  1.00  0.00    -0.206 F 
ATOM     47  C   UNL     1       4.964  10.895   2.036  1.00  0.00     0.006 A 
ENDBRANCH  26  40
BRANCH  27  48
ATOM     48  C   UNL     1       6.283   1.065  10.123  1.00  0.00     0.057 A 
ATOM     49  C   UNL     1       7.327   0.151   9.943  1.00  0.00     0.134 A 
ATOM     50  C   UNL     1       5.412   0.850  11.196  1.00  0.00     0.134 A 
ATOM     51  F   UNL     1       8.187   0.295   8.924  1.00  0.00    -0.206 F 
ATOM     52  C   UNL     1       7.499  -0.938  10.800  1.00  0.00     0.040 A 
ATOM     53  C   UNL     1       5.584  -0.221  12.073  1.00  0.00     0.040 A 
ATOM     54  F   UNL     1       4.400   1.700  11.423  1.00  0.00    -0.206 F 
ATOM     55  C   UNL     1       6.629  -1.121  11.873  1.00  0.00     0.006 A 
ENDBRANCH  27  48
BRANCH  39  56
ATOM     56  C   UNL     1       6.961   7.943  10.833  1.00  0.00     0.057 A 
ATOM     57  C   UNL     1       5.981   8.724  11.456  1.00  0.00     0.134 A 
ATOM     58  C   UNL     1       8.256   7.977  11.367  1.00  0.00     0.134 A 
ATOM     59  F   UNL     1       4.723   8.741  10.988  1.00  0.00    -0.206 F 
ATOM     60  C   UNL     1       6.273   9.499  12.579  1.00  0.00     0.040 A 
ATOM     61  C   UNL     1       8.554   8.728  12.504  1.00  0.00     0.040 A 
ATOM     62  F   UNL     1       9.235   7.239  10.823  1.00  0.00    -0.206 F 
ATOM     63  C   UNL     1       7.560   9.493  13.113  1.00  0.00     0.006 A 
ENDBRANCH  39  56
ENDBRANCH  13  14
ENDBRANCH   6   8
ENDBRANCH   5   6
ENDBRANCH   4   5
ENDBRANCH   3   4
ENDBRANCH   2   3
ENDBRANCH   1   2
BRANCH   1  64
ATOM     64  C   UNL     1       2.364   1.469  -2.659  1.00  0.00     0.188 C 
BRANCH  64  65
ATOM     65  O   UNL     1       3.323   1.541  -3.702  1.00  0.00    -0.376 OA
BRANCH  65  66
ATOM     66  C   UNL     1       4.500   2.315  -3.504  1.00  0.00     0.202 C 
BRANCH  66  67
ATOM     67  C   UNL     1       4.326   3.799  -3.189  1.00  0.00     0.261 C 
BRANCH  67  68
ATOM     68  O   UNL     1       3.727   4.038  -1.901  1.00  0.00    -0.460 OA
BRANCH  68  69
ATOM     69  C   UNL     1       2.630   4.834  -1.928  1.00  0.00     0.338 C 
ATOM     70  O   UNL     1       2.062   5.274  -2.913  1.00  0.00    -0.246 OA
BRANCH  69  71
ATOM     71  C   UNL     1       2.211   5.193  -0.556  1.00  0.00     0.062 A 
ATOM     72  C   UNL     1       2.652   6.463  -0.006  1.00  0.00     0.018 A 
ATOM     73  C   UNL     1       1.302   4.405   0.042  1.00  0.00     0.046 A 
ATOM     74  C   UNL     1       2.129   6.994   1.105  1.00  0.00     0.031 A 
ATOM     75  C   UNL     1       0.710   4.899   1.290  1.00  0.00     0.087 A 
ATOM     76  C   UNL     1       1.099   6.227   1.805  1.00  0.00     0.086 A 
ATOM     77  N   UNL     1      -0.173   4.327   2.033  1.00  0.00    -0.247 NA
ATOM     78  N   UNL     1       0.450   6.551   2.865  1.00  0.00    -0.247 NA
ATOM     79  C   UNL     1      -0.476   5.386   3.069  1.00  0.00     0.326 C 
BRANCH  79  80
ATOM     80  C   UNL     1      -1.968   5.831   3.009  1.00  0.00     0.431 C 
ATOM     81  F   UNL     1      -2.801   4.825   3.367  1.00  0.00    -0.167 F 
ATOM     82  F   UNL     1      -2.220   6.870   3.840  1.00  0.00    -0.167 F 
ATOM     83  F   UNL     1      -2.317   6.223   1.757  1.00  0.00    -0.167 F 
ENDBRANCH  79  80
ENDBRANCH  69  71
ENDBRANCH  68  69
ENDBRANCH  67  68
ENDBRANCH  66  67
ENDBRANCH  65  66
ENDBRANCH  64  65
ENDBRANCH   1  64
TORSDOF 18
