REMARK SMILES COc1ccc(OC)c([C@@](C)(O)[C@H](F)C(=O)OCCOCCOCCOC(=O)c2ccc(-c3c4nc(c(-c5c(F)cccc5F)c5ccc([nH]5)c(-c5c(F)cccc5F)c5nc(c(-c6c(F)cccc6F)c6ccc3[nH]6)C=C5)C=C4)cc2)c1
REMARK SMILES IDX 21 1 20 2 19 3 18 4 17 5 15 6 16 7 13 8 14 9 10 10 11 11
REMARK SMILES IDX 9 12 3 13 4 14 83 15 5 16 6 17 2 18 1 19 7 20 8 21 12 22
REMARK SMILES IDX 22 24 23 25 24 26 25 27 26 28 27 29 28 30 29 31 30 32 82 33
REMARK SMILES IDX 31 34 81 35 32 36 33 37 34 38 75 39 35 40 80 41 74 42 76 43
REMARK SMILES IDX 36 44 79 45 73 46 72 47 37 49 63 50 46 51 62 52 47 53 50 54
REMARK SMILES IDX 61 55 77 56 48 57 49 58 60 60 78 61 51 62 38 63 39 64 44 65
REMARK SMILES IDX 40 66 41 67 43 68 45 69 42 70 64 71 65 72 70 73 66 74 67 75
REMARK SMILES IDX 69 76 71 77 68 78 52 79 53 80 58 81 54 82 55 83 57 84 59 85
REMARK SMILES IDX 56 86
REMARK H PARENT 12 23 76 48 50 59
REMARK Flexibility Score: inf
ROOT
ATOM      1  C   UNL     1       5.634   4.058  -0.434  1.00  0.00     0.188 C 
ENDROOT
BRANCH   1   2
ATOM      2  O   UNL     1       5.387   3.925  -1.824  1.00  0.00    -0.376 OA
BRANCH   2   3
ATOM      3  C   UNL     1       4.231   3.255  -2.313  1.00  0.00     0.202 C 
BRANCH   3   4
ATOM      4  C   UNL     1       3.735   1.933  -1.710  1.00  0.00     0.261 C 
BRANCH   4   5
ATOM      5  O   UNL     1       3.523   1.966  -0.295  1.00  0.00    -0.461 OA
BRANCH   5   6
ATOM      6  C   UNL     1       4.444   1.304   0.452  1.00  0.00     0.344 C 
ATOM      7  O   UNL     1       5.376   0.665  -0.021  1.00  0.00    -0.249 OA
BRANCH   6   8
ATOM      8  C   UNL     1       4.235   1.534   1.945  1.00  0.00     0.311 C 
ATOM      9  F   UNL     1       3.297   2.510   2.197  1.00  0.00    -0.231 F 
BRANCH   8  10
ATOM     10  C   UNL     1       3.771   0.256   2.667  1.00  0.00     0.133 C 
ATOM     11  C   UNL     1       2.393  -0.063   2.034  1.00  0.00     0.051 C 
BRANCH  10  12
ATOM     12  C   UNL     1       4.774  -0.906   2.658  1.00  0.00     0.033 A 
ATOM     13  C   UNL     1       7.018  -1.738   2.057  1.00  0.00     0.119 A 
ATOM     14  C   UNL     1       6.560  -3.042   2.196  1.00  0.00     0.050 A 
ATOM     15  C   UNL     1       6.145  -0.687   2.346  1.00  0.00     0.057 A 
ATOM     16  C   UNL     1       5.263  -3.288   2.645  1.00  0.00     0.050 A 
ATOM     17  C   UNL     1       4.385  -2.233   2.907  1.00  0.00     0.125 A 
BRANCH  13  18
ATOM     18  O   UNL     1       8.302  -1.628   1.600  1.00  0.00    -0.497 OA
ATOM     19  C   UNL     1       8.816  -0.329   1.325  1.00  0.00     0.278 C 
ENDBRANCH  13  18
BRANCH  17  20
ATOM     20  O   UNL     1       3.133  -2.615   3.308  1.00  0.00    -0.496 OA
ATOM     21  C   UNL     1       2.783  -2.170   4.622  1.00  0.00     0.278 C 
ENDBRANCH  17  20
ENDBRANCH  10  12
BRANCH  10  22
ATOM     22  O   UNL     1       3.573   0.621   4.051  1.00  0.00    -0.382 OA
ATOM     23  H   UNL     1       3.278  -0.156   4.551  1.00  0.00     0.212 HD
ENDBRANCH  10  22
ENDBRANCH   8  10
ENDBRANCH   6   8
ENDBRANCH   5   6
ENDBRANCH   4   5
ENDBRANCH   3   4
ENDBRANCH   2   3
ENDBRANCH   1   2
BRANCH   1  24
ATOM     24  C   UNL     1       4.560   4.637   0.505  1.00  0.00     0.188 C 
BRANCH  24  25
ATOM     25  O   UNL     1       3.272   4.729  -0.037  1.00  0.00    -0.376 OA
BRANCH  25  26
ATOM     26  C   UNL     1       2.862   5.946  -0.636  1.00  0.00     0.202 C 
BRANCH  26  27
ATOM     27  C   UNL     1       3.808   7.101  -1.050  1.00  0.00     0.261 C 
BRANCH  27  28
ATOM     28  O   UNL     1       5.204   7.008  -0.726  1.00  0.00    -0.460 OA
BRANCH  28  29
ATOM     29  C   UNL     1       5.613   7.654   0.398  1.00  0.00     0.338 C 
ATOM     30  O   UNL     1       4.932   8.313   1.157  1.00  0.00    -0.246 OA
BRANCH  29  31
ATOM     31  C   UNL     1       7.003   7.233   0.697  1.00  0.00     0.060 A 
ATOM     32  C   UNL     1       7.253   6.478   1.855  1.00  0.00     0.016 A 
ATOM     33  C   UNL     1       8.052   7.584  -0.151  1.00  0.00     0.016 A 
ATOM     34  C   UNL     1       8.555   6.089   2.177  1.00  0.00     0.010 A 
ATOM     35  C   UNL     1       9.360   7.221   0.189  1.00  0.00     0.010 A 
ATOM     36  C   UNL     1       9.622   6.498   1.368  1.00  0.00    -0.014 A 
BRANCH  36  37
ATOM     37  C   UNL     1      11.020   6.363   1.850  1.00  0.00     0.031 A 
ATOM     38  C   UNL     1      11.667   7.559   2.496  1.00  0.00     0.074 A 
ATOM     39  C   UNL     1      11.712   5.218   1.715  1.00  0.00     0.049 A 
ATOM     40  N   UNL     1      12.898   7.723   2.906  1.00  0.00    -0.248 NA
ATOM     41  C   UNL     1      10.802   8.733   2.699  1.00  0.00     0.031 C 
ATOM     42  C   UNL     1      11.193   3.972   1.156  1.00  0.00     0.029 A 
ATOM     43  N   UNL     1      13.018   4.928   2.029  1.00  0.00    -0.354 N 
ATOM     44  C   UNL     1      12.962   9.023   3.393  1.00  0.00     0.074 A 
ATOM     45  C   UNL     1      11.653   9.610   3.208  1.00  0.00     0.031 C 
ATOM     46  C   UNL     1      12.176   3.054   1.153  1.00  0.00     0.029 A 
ATOM     47  C   UNL     1      13.403   3.659   1.671  1.00  0.00     0.049 A 
ATOM     48  H   UNL     1      13.622   5.571   2.468  1.00  0.00     0.167 HD
ATOM     49  C   UNL     1      14.015   9.670   3.945  1.00  0.00     0.037 A 
ATOM     50  C   UNL     1      14.614   3.068   1.730  1.00  0.00     0.037 A 
ATOM     51  C   UNL     1      15.318   9.087   4.128  1.00  0.00     0.049 A 
ATOM     52  C   UNL     1      15.794   3.838   2.269  1.00  0.00     0.074 A 
ATOM     53  C   UNL     1      16.441   9.652   4.706  1.00  0.00     0.029 A 
ATOM     54  N   UNL     1      15.677   7.811   3.720  1.00  0.00    -0.354 N 
ATOM     55  N   UNL     1      15.840   5.055   2.756  1.00  0.00    -0.248 NA
ATOM     56  C   UNL     1      17.094   3.150   2.261  1.00  0.00     0.031 C 
ATOM     57  C   UNL     1      17.497   8.742   4.588  1.00  0.00     0.029 A 
ATOM     58  C   UNL     1      17.014   7.584   4.001  1.00  0.00     0.049 A 
ATOM     59  H   UNL     1      15.071   7.163   3.293  1.00  0.00     0.167 HD
ATOM     60  C   UNL     1      17.158   5.262   3.148  1.00  0.00     0.074 A 
ATOM     61  C   UNL     1      17.879   4.043   2.849  1.00  0.00     0.031 C 
ATOM     62  C   UNL     1      17.721   6.361   3.710  1.00  0.00     0.037 A 
BRANCH  49  63
ATOM     63  C   UNL     1      13.811  11.102   4.350  1.00  0.00     0.057 A 
ATOM     64  C   UNL     1      12.996  11.464   5.431  1.00  0.00     0.134 A 
ATOM     65  C   UNL     1      14.456  12.134   3.656  1.00  0.00     0.134 A 
ATOM     66  F   UNL     1      12.336  10.528   6.130  1.00  0.00    -0.206 F 
ATOM     67  C   UNL     1      12.806  12.801   5.786  1.00  0.00     0.040 A 
ATOM     68  C   UNL     1      14.299  13.471   4.021  1.00  0.00     0.040 A 
ATOM     69  F   UNL     1      15.255  11.858   2.614  1.00  0.00    -0.206 F 
ATOM     70  C   UNL     1      13.465  13.809   5.084  1.00  0.00     0.006 A 
ENDBRANCH  49  63
BRANCH  50  71
ATOM     71  C   UNL     1      14.788   1.668   1.260  1.00  0.00     0.057 A 
ATOM     72  C   UNL     1      15.103   0.640   2.157  1.00  0.00     0.134 A 
ATOM     73  C   UNL     1      14.682   1.329  -0.094  1.00  0.00     0.134 A 
ATOM     74  F   UNL     1      15.247   0.905   3.464  1.00  0.00    -0.206 F 
ATOM     75  C   UNL     1      15.325  -0.669   1.724  1.00  0.00     0.040 A 
ATOM     76  C   UNL     1      14.873   0.020  -0.538  1.00  0.00     0.040 A 
ATOM     77  F   UNL     1      14.387   2.267  -1.006  1.00  0.00    -0.206 F 
ATOM     78  C   UNL     1      15.204  -0.983   0.371  1.00  0.00     0.006 A 
ENDBRANCH  50  71
BRANCH  62  79
ATOM     79  C   UNL     1      19.173   6.284   4.090  1.00  0.00     0.057 A 
ATOM     80  C   UNL     1      20.196   6.254   3.134  1.00  0.00     0.134 A 
ATOM     81  C   UNL     1      19.554   6.285   5.440  1.00  0.00     0.134 A 
ATOM     82  F   UNL     1      19.903   6.241   1.825  1.00  0.00    -0.206 F 
ATOM     83  C   UNL     1      21.542   6.202   3.505  1.00  0.00     0.040 A 
ATOM     84  C   UNL     1      20.896   6.265   5.823  1.00  0.00     0.040 A 
ATOM     85  F   UNL     1      18.628   6.324   6.410  1.00  0.00    -0.206 F 
ATOM     86  C   UNL     1      21.895   6.216   4.853  1.00  0.00     0.006 A 
ENDBRANCH  62  79
ENDBRANCH  36  37
ENDBRANCH  29  31
ENDBRANCH  28  29
ENDBRANCH  27  28
ENDBRANCH  26  27
ENDBRANCH  25  26
ENDBRANCH  24  25
ENDBRANCH   1  24
TORSDOF 22
