REMARK SMILES Cc1cc(F)cc(N[C@H](C(=O)OCCOCCOCCOC(=O)c2ccc(-c3c4nc(c(-c5c(F)cccc5F)c5ccc([nH]5)c(-c5c(F)cccc5F)c5nc(c(-c6c(F)cccc6F)c6ccc3[nH]6)C=C5)C=C4)cc2)c2cc(C)cc(C)c2)c1
REMARK SMILES IDX 16 1 15 2 14 3 13 4 12 5 10 6 11 7 9 8 8 9 7 11 1 12 2 13
REMARK SMILES IDX 3 14 86 15 4 16 5 17 6 18 78 19 79 20 85 21 80 22 83 23
REMARK SMILES IDX 81 24 82 25 84 26 17 27 18 28 19 29 20 30 21 31 22 32 23 33
REMARK SMILES IDX 24 34 25 35 77 36 26 37 76 38 27 39 28 40 29 41 70 42 30 43
REMARK SMILES IDX 75 44 69 45 71 46 31 47 74 48 68 49 67 50 32 52 58 53 41 54
REMARK SMILES IDX 57 55 42 56 45 57 56 58 72 59 43 60 44 61 55 63 73 64 46 65
REMARK SMILES IDX 33 66 34 67 39 68 35 69 36 70 38 71 40 72 37 73 59 74 60 75
REMARK SMILES IDX 65 76 61 77 62 78 64 79 66 80 63 81 47 82 48 83 53 84 49 85
REMARK SMILES IDX 50 86 52 87 54 88 51 89
REMARK H PARENT 8 10 71 51 45 62
REMARK Flexibility Score: inf
ROOT
ATOM      1  C   UNL     1       0.864  -1.102  -0.149  1.00  0.00     0.188 C 
ENDROOT
BRANCH   1   2
ATOM      2  O   UNL     1       2.208  -0.885  -0.539  1.00  0.00    -0.376 OA
BRANCH   2   3
ATOM      3  C   UNL     1       3.115  -1.960  -0.327  1.00  0.00     0.202 C 
BRANCH   3   4
ATOM      4  C   UNL     1       2.829  -3.259  -1.100  1.00  0.00     0.261 C 
BRANCH   4   5
ATOM      5  O   UNL     1       1.530  -3.832  -0.880  1.00  0.00    -0.461 OA
BRANCH   5   6
ATOM      6  C   UNL     1       1.261  -4.258   0.391  1.00  0.00     0.333 C 
ATOM      7  O   UNL     1       2.057  -4.135   1.314  1.00  0.00    -0.249 OA
BRANCH   6   8
ATOM      8  C   UNL     1      -0.210  -4.739   0.501  1.00  0.00     0.221 C 
BRANCH   8   9
ATOM      9  N   UNL     1      -0.609  -5.588  -0.651  1.00  0.00    -0.369 N 
ATOM     10  H   UNL     1      -1.356  -5.258  -1.200  1.00  0.00     0.161 HD
BRANCH   9  11
ATOM     11  C   UNL     1      -0.043  -6.793  -1.039  1.00  0.00     0.038 A 
ATOM     12  C   UNL     1      -0.239  -9.214  -4.016  1.00  0.00     0.044 C 
ATOM     13  C   UNL     1       0.125  -8.611  -2.694  1.00  0.00    -0.046 A 
ATOM     14  C   UNL     1       0.977  -9.321  -1.848  1.00  0.00     0.042 A 
ATOM     15  C   UNL     1      -0.396  -7.368  -2.272  1.00  0.00     0.029 A 
ATOM     16  C   UNL     1       1.319  -8.774  -0.631  1.00  0.00     0.125 A 
ATOM     17  F   UNL     1       2.132  -9.441   0.200  1.00  0.00    -0.207 F 
ATOM     18  C   UNL     1       0.834  -7.531  -0.248  1.00  0.00     0.065 A 
ENDBRANCH   9  11
ENDBRANCH   8   9
BRANCH   8  19
ATOM     19  C   UNL     1      -0.615  -5.341   1.845  1.00  0.00    -0.014 A 
ATOM     20  C   UNL     1       0.305  -6.068   2.607  1.00  0.00     0.010 A 
ATOM     21  C   UNL     1      -1.935  -5.264   2.319  1.00  0.00     0.010 A 
ATOM     22  C   UNL     1      -0.091  -6.894   3.652  1.00  0.00    -0.051 A 
ATOM     23  C   UNL     1      -2.318  -5.954   3.483  1.00  0.00    -0.051 A 
ATOM     24  C   UNL     1       0.866  -7.951   4.113  1.00  0.00     0.044 C 
ATOM     25  C   UNL     1      -1.405  -6.821   4.101  1.00  0.00     0.006 A 
ATOM     26  C   UNL     1      -3.705  -5.834   4.044  1.00  0.00     0.044 C 
ENDBRANCH   8  19
ENDBRANCH   6   8
ENDBRANCH   5   6
ENDBRANCH   4   5
ENDBRANCH   3   4
ENDBRANCH   2   3
ENDBRANCH   1   2
BRANCH   1  27
ATOM     27  C   UNL     1      -0.115  -1.344  -1.321  1.00  0.00     0.188 C 
BRANCH  27  28
ATOM     28  O   UNL     1       0.344  -1.347  -2.663  1.00  0.00    -0.376 OA
BRANCH  28  29
ATOM     29  C   UNL     1       1.298  -0.379  -3.076  1.00  0.00     0.202 C 
BRANCH  29  30
ATOM     30  C   UNL     1       1.058   1.118  -2.803  1.00  0.00     0.261 C 
BRANCH  30  31
ATOM     31  O   UNL     1       0.594   1.464  -1.485  1.00  0.00    -0.460 OA
BRANCH  31  32
ATOM     32  C   UNL     1      -0.695   1.862  -1.395  1.00  0.00     0.338 C 
ATOM     33  O   UNL     1      -1.502   1.972  -2.315  1.00  0.00    -0.246 OA
BRANCH  32  34
ATOM     34  C   UNL     1      -1.094   1.994   0.020  1.00  0.00     0.060 A 
ATOM     35  C   UNL     1      -2.114   1.163   0.507  1.00  0.00     0.016 A 
ATOM     36  C   UNL     1      -0.530   2.969   0.844  1.00  0.00     0.016 A 
ATOM     37  C   UNL     1      -2.592   1.321   1.808  1.00  0.00     0.010 A 
ATOM     38  C   UNL     1      -1.030   3.145   2.141  1.00  0.00     0.010 A 
ATOM     39  C   UNL     1      -2.085   2.344   2.618  1.00  0.00    -0.014 A 
BRANCH  39  40
ATOM     40  C   UNL     1      -2.787   2.694   3.879  1.00  0.00     0.031 A 
ATOM     41  C   UNL     1      -3.756   3.846   3.870  1.00  0.00     0.074 A 
ATOM     42  C   UNL     1      -2.599   1.986   5.007  1.00  0.00     0.049 A 
ATOM     43  N   UNL     1      -4.453   4.357   4.853  1.00  0.00    -0.248 NA
ATOM     44  C   UNL     1      -3.965   4.512   2.574  1.00  0.00     0.031 C 
ATOM     45  C   UNL     1      -1.728   0.821   5.140  1.00  0.00     0.029 A 
ATOM     46  N   UNL     1      -3.131   2.156   6.262  1.00  0.00    -0.354 N 
ATOM     47  C   UNL     1      -5.174   5.408   4.298  1.00  0.00     0.074 A 
ATOM     48  C   UNL     1      -4.807   5.481   2.900  1.00  0.00     0.031 C 
ATOM     49  C   UNL     1      -1.773   0.388   6.412  1.00  0.00     0.029 A 
ATOM     50  C   UNL     1      -2.650   1.263   7.189  1.00  0.00     0.049 A 
ATOM     51  H   UNL     1      -3.793   2.851   6.477  1.00  0.00     0.167 HD
ATOM     52  C   UNL     1      -6.067   6.233   4.895  1.00  0.00     0.037 A 
ATOM     53  C   UNL     1      -2.875   1.178   8.515  1.00  0.00     0.037 A 
ATOM     54  C   UNL     1      -6.429   6.164   6.286  1.00  0.00     0.049 A 
ATOM     55  C   UNL     1      -3.814   2.157   9.174  1.00  0.00     0.074 A 
ATOM     56  C   UNL     1      -7.334   6.949   6.981  1.00  0.00     0.029 A 
ATOM     57  N   UNL     1      -5.898   5.265   7.198  1.00  0.00    -0.354 N 
ATOM     58  N   UNL     1      -4.508   3.131   8.637  1.00  0.00    -0.248 NA
ATOM     59  C   UNL     1      -4.005   2.019  10.626  1.00  0.00     0.031 C 
ATOM     60  C   UNL     1      -7.308   6.560   8.324  1.00  0.00     0.029 A 
ATOM     61  C   UNL     1      -6.437   5.491   8.454  1.00  0.00     0.049 A 
ATOM     62  H   UNL     1      -5.235   4.568   6.984  1.00  0.00     0.167 HD
ATOM     63  C   UNL     1      -5.245   3.694   9.674  1.00  0.00     0.074 A 
ATOM     64  C   UNL     1      -4.918   2.948  10.870  1.00  0.00     0.031 C 
ATOM     65  C   UNL     1      -6.117   4.732   9.636  1.00  0.00     0.037 A 
BRANCH  52  66
ATOM     66  C   UNL     1      -6.692   7.304   4.048  1.00  0.00     0.057 A 
ATOM     67  C   UNL     1      -7.625   7.008   3.045  1.00  0.00     0.134 A 
ATOM     68  C   UNL     1      -6.378   8.652   4.259  1.00  0.00     0.134 A 
ATOM     69  F   UNL     1      -7.959   5.736   2.781  1.00  0.00    -0.206 F 
ATOM     70  C   UNL     1      -8.202   8.013   2.265  1.00  0.00     0.040 A 
ATOM     71  C   UNL     1      -6.971   9.668   3.507  1.00  0.00     0.040 A 
ATOM     72  F   UNL     1      -5.497   9.007   5.207  1.00  0.00    -0.206 F 
ATOM     73  C   UNL     1      -7.880   9.348   2.501  1.00  0.00     0.006 A 
ENDBRANCH  52  66
BRANCH  53  74
ATOM     74  C   UNL     1      -2.193   0.134   9.322  1.00  0.00     0.057 A 
ATOM     75  C   UNL     1      -2.910  -0.913   9.914  1.00  0.00     0.134 A 
ATOM     76  C   UNL     1      -0.812   0.177   9.550  1.00  0.00     0.134 A 
ATOM     77  F   UNL     1      -4.239  -0.994   9.756  1.00  0.00    -0.206 F 
ATOM     78  C   UNL     1      -2.284  -1.867  10.718  1.00  0.00     0.040 A 
ATOM     79  C   UNL     1      -0.168  -0.787  10.329  1.00  0.00     0.040 A 
ATOM     80  F   UNL     1      -0.067   1.155   9.015  1.00  0.00    -0.206 F 
ATOM     81  C   UNL     1      -0.907  -1.808  10.923  1.00  0.00     0.006 A 
ENDBRANCH  53  74
BRANCH  65  82
ATOM     82  C   UNL     1      -6.827   5.090  10.912  1.00  0.00     0.057 A 
ATOM     83  C   UNL     1      -6.169   5.694  11.990  1.00  0.00     0.134 A 
ATOM     84  C   UNL     1      -8.204   4.863  11.043  1.00  0.00     0.134 A 
ATOM     85  F   UNL     1      -4.850   5.931  11.936  1.00  0.00    -0.206 F 
ATOM     86  C   UNL     1      -6.849   6.034  13.162  1.00  0.00     0.040 A 
ATOM     87  C   UNL     1      -8.900   5.226  12.197  1.00  0.00     0.040 A 
ATOM     88  F   UNL     1      -8.900   4.298  10.044  1.00  0.00    -0.206 F 
ATOM     89  C   UNL     1      -8.220   5.807  13.264  1.00  0.00     0.006 A 
ENDBRANCH  65  82
ENDBRANCH  39  40
ENDBRANCH  32  34
ENDBRANCH  31  32
ENDBRANCH  30  31
ENDBRANCH  29  30
ENDBRANCH  28  29
ENDBRANCH  27  28
ENDBRANCH   1  27
TORSDOF 20
