REMARK SMILES CC[C@@](C)(NC(=O)N(C)CCO)C(=O)OCCOCCOCCOC(=O)c1ccc(-c2c3nc(c(-c4c(F)cccc4F)c4ccc([nH]4)c(-c4c(F)cccc4F)c4nc(c(-c5c(F)cccc5F)c5ccc2[nH]5)C=C4)C=C3)cc1
REMARK SMILES IDX 18 1 17 2 16 3 15 4 13 5 14 6 3 7 4 8 2 9 1 10 5 11 6 12
REMARK SMILES IDX 7 14 8 15 9 16 10 17 11 18 12 19 19 21 20 22 21 23 22 24
REMARK SMILES IDX 23 25 24 26 25 27 26 28 27 29 28 30 80 31 29 32 79 33 30 34
REMARK SMILES IDX 31 35 32 36 73 37 33 38 78 39 72 40 74 41 34 42 77 43 71 44
REMARK SMILES IDX 70 45 35 47 61 48 44 49 60 50 45 51 48 52 59 53 75 54 46 55
REMARK SMILES IDX 47 56 58 58 76 59 49 60 36 61 37 62 42 63 38 64 39 65 41 66
REMARK SMILES IDX 43 67 40 68 62 69 63 70 68 71 64 72 65 73 67 74 69 75 66 76
REMARK SMILES IDX 50 77 51 78 56 79 52 80 53 81 55 82 57 83 54 84
REMARK H PARENT 5 13 12 20 74 46 48 57
REMARK Flexibility Score: inf
ROOT
ATOM      1  O   UNL     1       5.787   1.569  -0.447  1.00  0.00    -0.376 OA
ENDROOT
BRANCH   1   2
ATOM      2  C   UNL     1       5.864   1.406  -1.869  1.00  0.00     0.202 C 
BRANCH   2   3
ATOM      3  C   UNL     1       4.812   0.475  -2.467  1.00  0.00     0.261 C 
BRANCH   3   4
ATOM      4  O   UNL     1       3.541   1.161  -2.486  1.00  0.00    -0.462 OA
BRANCH   4   5
ATOM      5  C   UNL     1       2.449   0.371  -2.431  1.00  0.00     0.331 C 
ATOM      6  O   UNL     1       2.514  -0.855  -2.393  1.00  0.00    -0.249 OA
BRANCH   5   7
ATOM      7  C   UNL     1       1.106   1.151  -2.373  1.00  0.00     0.136 C 
ATOM      8  C   UNL     1       0.161   0.450  -3.362  1.00  0.00     0.047 C 
BRANCH   7   9
ATOM      9  C   UNL     1       0.554   0.992  -0.900  1.00  0.00     0.037 C 
ATOM     10  C   UNL     1       0.682  -0.338  -0.175  1.00  0.00     0.007 C 
ENDBRANCH   7   9
BRANCH   7  11
ATOM     11  N   UNL     1       0.969   2.638  -2.575  1.00  0.00    -0.322 N 
ATOM     12  C   UNL     1       1.279   3.705  -3.306  1.00  0.00     0.318 C 
ATOM     13  H   UNL     1       0.399   2.963  -1.841  1.00  0.00     0.166 HD
ATOM     14  O   UNL     1       0.484   4.644  -3.167  1.00  0.00    -0.249 OA
BRANCH  12  15
ATOM     15  N   UNL     1       2.397   3.862  -4.045  1.00  0.00    -0.326 N 
ATOM     16  C   UNL     1       3.182   2.828  -4.674  1.00  0.00     0.148 C 
BRANCH  15  17
ATOM     17  C   UNL     1       2.934   5.235  -4.148  1.00  0.00     0.149 C 
BRANCH  17  18
ATOM     18  C   UNL     1       2.857   5.837  -5.554  1.00  0.00     0.177 C 
BRANCH  18  19
ATOM     19  O   UNL     1       1.517   5.960  -6.019  1.00  0.00    -0.395 OA
ATOM     20  H   UNL     1       1.110   5.081  -6.067  1.00  0.00     0.210 HD
ENDBRANCH  18  19
ENDBRANCH  17  18
ENDBRANCH  15  17
ENDBRANCH  12  15
ENDBRANCH   7  11
ENDBRANCH   5   7
ENDBRANCH   4   5
ENDBRANCH   3   4
ENDBRANCH   2   3
ENDBRANCH   1   2
BRANCH   1  21
ATOM     21  C   UNL     1       4.517   1.942   0.075  1.00  0.00     0.188 C 
BRANCH  21  22
ATOM     22  C   UNL     1       4.098   3.400  -0.127  1.00  0.00     0.188 C 
BRANCH  22  23
ATOM     23  O   UNL     1       4.533   4.026  -1.332  1.00  0.00    -0.376 OA
BRANCH  23  24
ATOM     24  C   UNL     1       5.703   4.838  -1.163  1.00  0.00     0.202 C 
BRANCH  24  25
ATOM     25  C   UNL     1       5.363   6.296  -0.827  1.00  0.00     0.261 C 
BRANCH  25  26
ATOM     26  O   UNL     1       4.750   6.362   0.470  1.00  0.00    -0.460 OA
BRANCH  26  27
ATOM     27  C   UNL     1       3.402   6.508   0.475  1.00  0.00     0.338 C 
ATOM     28  O   UNL     1       2.700   6.887  -0.446  1.00  0.00    -0.246 OA
BRANCH  27  29
ATOM     29  C   UNL     1       2.874   5.925   1.734  1.00  0.00     0.060 A 
ATOM     30  C   UNL     1       1.609   5.321   1.704  1.00  0.00     0.016 A 
ATOM     31  C   UNL     1       3.645   5.878   2.903  1.00  0.00     0.016 A 
ATOM     32  C   UNL     1       1.099   4.703   2.848  1.00  0.00     0.010 A 
ATOM     33  C   UNL     1       3.140   5.254   4.043  1.00  0.00     0.010 A 
ATOM     34  C   UNL     1       1.851   4.695   4.030  1.00  0.00    -0.014 A 
BRANCH  34  35
ATOM     35  C   UNL     1       1.225   4.313   5.316  1.00  0.00     0.031 A 
ATOM     36  C   UNL     1       0.709   5.419   6.194  1.00  0.00     0.074 A 
ATOM     37  C   UNL     1       1.143   3.031   5.709  1.00  0.00     0.049 A 
ATOM     38  N   UNL     1       0.200   5.361   7.396  1.00  0.00    -0.248 NA
ATOM     39  C   UNL     1       0.796   6.782   5.640  1.00  0.00     0.031 C 
ATOM     40  C   UNL     1       1.594   1.875   4.938  1.00  0.00     0.029 A 
ATOM     41  N   UNL     1       0.660   2.492   6.876  1.00  0.00    -0.354 N 
ATOM     42  C   UNL     1      -0.087   6.675   7.743  1.00  0.00     0.074 A 
ATOM     43  C   UNL     1       0.340   7.512   6.644  1.00  0.00     0.031 C 
ATOM     44  C   UNL     1       1.378   0.760   5.660  1.00  0.00     0.029 A 
ATOM     45  C   UNL     1       0.799   1.128   6.951  1.00  0.00     0.049 A 
ATOM     46  H   UNL     1       0.253   3.033   7.591  1.00  0.00     0.167 HD
ATOM     47  C   UNL     1      -0.667   7.144   8.872  1.00  0.00     0.037 A 
ATOM     48  C   UNL     1       0.507   0.284   7.960  1.00  0.00     0.037 A 
ATOM     49  C   UNL     1      -1.083   6.309   9.965  1.00  0.00     0.049 A 
ATOM     50  C   UNL     1      -0.087   0.834   9.232  1.00  0.00     0.074 A 
ATOM     51  C   UNL     1      -1.692   6.679  11.150  1.00  0.00     0.029 A 
ATOM     52  N   UNL     1      -0.924   4.932  10.005  1.00  0.00    -0.354 N 
ATOM     53  N   UNL     1      -0.388   2.074   9.538  1.00  0.00    -0.248 NA
ATOM     54  C   UNL     1      -0.384  -0.134  10.298  1.00  0.00     0.031 C 
ATOM     55  C   UNL     1      -1.863   5.528  11.928  1.00  0.00     0.029 A 
ATOM     56  C   UNL     1      -1.406   4.437  11.204  1.00  0.00     0.049 A 
ATOM     57  H   UNL     1      -0.527   4.388   9.287  1.00  0.00     0.167 HD
ATOM     58  C   UNL     1      -0.940   2.030  10.814  1.00  0.00     0.074 A 
ATOM     59  C   UNL     1      -0.939   0.640  11.220  1.00  0.00     0.031 C 
ATOM     60  C   UNL     1      -1.407   3.046  11.581  1.00  0.00     0.037 A 
BRANCH  47  61
ATOM     61  C   UNL     1      -0.858   8.627   8.977  1.00  0.00     0.057 A 
ATOM     62  C   UNL     1      -1.799   9.309   8.194  1.00  0.00     0.134 A 
ATOM     63  C   UNL     1      -0.088   9.385   9.868  1.00  0.00     0.134 A 
ATOM     64  F   UNL     1      -2.552   8.644   7.304  1.00  0.00    -0.206 F 
ATOM     65  C   UNL     1      -1.948  10.694   8.272  1.00  0.00     0.040 A 
ATOM     66  C   UNL     1      -0.247  10.768   9.976  1.00  0.00     0.040 A 
ATOM     67  F   UNL     1       0.833   8.795  10.646  1.00  0.00    -0.206 F 
ATOM     68  C   UNL     1      -1.174  11.427   9.170  1.00  0.00     0.006 A 
ENDBRANCH  47  61
BRANCH  48  69
ATOM     69  C   UNL     1       0.765  -1.172   7.818  1.00  0.00     0.057 A 
ATOM     70  C   UNL     1      -0.289  -2.090   7.736  1.00  0.00     0.134 A 
ATOM     71  C   UNL     1       2.067  -1.686   7.794  1.00  0.00     0.134 A 
ATOM     72  F   UNL     1      -1.560  -1.663   7.779  1.00  0.00    -0.206 F 
ATOM     73  C   UNL     1      -0.059  -3.465   7.655  1.00  0.00     0.040 A 
ATOM     74  C   UNL     1       2.312  -3.056   7.689  1.00  0.00     0.040 A 
ATOM     75  F   UNL     1       3.122  -0.861   7.870  1.00  0.00    -0.206 F 
ATOM     76  C   UNL     1       1.246  -3.951   7.627  1.00  0.00     0.006 A 
ENDBRANCH  48  69
BRANCH  60  77
ATOM     77  C   UNL     1      -1.998   2.689  12.913  1.00  0.00     0.057 A 
ATOM     78  C   UNL     1      -1.203   2.286  13.993  1.00  0.00     0.134 A 
ATOM     79  C   UNL     1      -3.378   2.798  13.129  1.00  0.00     0.134 A 
ATOM     80  F   UNL     1       0.124   2.152  13.848  1.00  0.00    -0.206 F 
ATOM     81  C   UNL     1      -1.763   1.982  15.235  1.00  0.00     0.040 A 
ATOM     82  C   UNL     1      -3.946   2.523  14.373  1.00  0.00     0.040 A 
ATOM     83  F   UNL     1      -4.194   3.191  12.139  1.00  0.00    -0.206 F 
ATOM     84  C   UNL     1      -3.138   2.108  15.430  1.00  0.00     0.006 A 
ENDBRANCH  60  77
ENDBRANCH  34  35
ENDBRANCH  27  29
ENDBRANCH  26  27
ENDBRANCH  25  26
ENDBRANCH  24  25
ENDBRANCH  23  24
ENDBRANCH  22  23
ENDBRANCH  21  22
ENDBRANCH   1  21
TORSDOF 23
