REMARK SMILES CCc1cc(OCC(=O)OCCOCCOCCOC(=O)c2ccc(-c3c4nc(c(-c5c(F)cccc5F)c5ccc([nH]5)c(-c5c(F)cccc5F)c5nc(c(-c6c(F)cccc6F)c6ccc3[nH]6)C=C5)C=C4)cc2)nc(Nc2ccc(C)c(F)c2)n1
REMARK SMILES IDX 14 1 13 2 12 3 11 4 10 5 8 6 9 7 7 8 6 9 5 10 3 11 4 12
REMARK SMILES IDX 87 13 77 14 76 15 2 16 1 17 78 18 79 20 80 21 86 22 81 23
REMARK SMILES IDX 84 24 82 25 85 26 83 27 15 28 16 29 17 30 18 31 19 32 20 33
REMARK SMILES IDX 21 34 22 35 23 36 75 37 24 38 74 39 25 40 26 41 27 42 68 43
REMARK SMILES IDX 28 44 73 45 67 46 69 47 29 48 72 49 66 50 65 51 30 53 56 54
REMARK SMILES IDX 39 55 55 56 40 57 43 58 54 59 70 60 41 61 42 62 53 64 71 65
REMARK SMILES IDX 44 66 31 67 32 68 37 69 33 70 34 71 36 72 38 73 35 74 57 75
REMARK SMILES IDX 58 76 63 77 59 78 60 79 62 80 64 81 61 82 45 83 46 84 51 85
REMARK SMILES IDX 47 86 48 87 50 88 52 89 49 90
REMARK H PARENT 78 19 69 52 43 63
REMARK Flexibility Score: inf
ROOT
ATOM      1  C   UNL     1       3.396   1.870   1.272  1.00  0.00     0.188 C 
ENDROOT
BRANCH   1   2
ATOM      2  O   UNL     1       3.991   3.151   1.067  1.00  0.00    -0.376 OA
BRANCH   2   3
ATOM      3  C   UNL     1       4.964   3.556   2.028  1.00  0.00     0.202 C 
BRANCH   3   4
ATOM      4  C   UNL     1       4.389   3.827   3.425  1.00  0.00     0.261 C 
BRANCH   4   5
ATOM      5  O   UNL     1       3.781   2.640   3.990  1.00  0.00    -0.461 OA
BRANCH   5   6
ATOM      6  C   UNL     1       2.544   2.792   4.542  1.00  0.00     0.344 C 
ATOM      7  O   UNL     1       1.998   3.875   4.729  1.00  0.00    -0.248 OA
BRANCH   6   8
ATOM      8  C   UNL     1       1.819   1.457   4.793  1.00  0.00     0.353 C 
BRANCH   8   9
ATOM      9  O   UNL     1       2.614   0.282   4.684  1.00  0.00    -0.466 OA
BRANCH   9  10
ATOM     10  C   UNL     1       1.916  -0.898   4.498  1.00  0.00     0.218 A 
ATOM     11  C   UNL     1       0.666  -2.353   3.137  1.00  0.00     0.050 A 
ATOM     12  C   UNL     1       1.095  -1.073   3.397  1.00  0.00     0.092 A 
ATOM     13  N   UNL     1       1.002  -3.344   3.949  1.00  0.00    -0.218 NA
ATOM     14  C   UNL     1       1.857  -3.128   4.954  1.00  0.00     0.230 A 
ATOM     15  N   UNL     1       2.300  -1.913   5.302  1.00  0.00    -0.177 NA
BRANCH  11  16
ATOM     16  C   UNL     1      -0.080  -2.825   1.925  1.00  0.00     0.053 C 
ATOM     17  C   UNL     1       0.775  -3.686   0.986  1.00  0.00     0.011 C 
ENDBRANCH  11  16
BRANCH  14  18
ATOM     18  N   UNL     1       2.349  -4.301   5.545  1.00  0.00    -0.324 N 
ATOM     19  H   UNL     1       2.758  -4.270   6.439  1.00  0.00     0.170 HD
BRANCH  18  20
ATOM     20  C   UNL     1       2.253  -5.528   4.849  1.00  0.00     0.044 A 
ATOM     21  C   UNL     1       1.267  -6.470   5.162  1.00  0.00     0.026 A 
ATOM     22  C   UNL     1       2.929  -5.656   3.622  1.00  0.00     0.065 A 
ATOM     23  C   UNL     1       0.941  -7.489   4.250  1.00  0.00     0.008 A 
ATOM     24  C   UNL     1       2.602  -6.666   2.726  1.00  0.00     0.128 A 
ATOM     25  C   UNL     1       1.596  -7.585   3.014  1.00  0.00    -0.015 A 
ATOM     26  F   UNL     1       3.228  -6.701   1.540  1.00  0.00    -0.207 F 
ATOM     27  C   UNL     1       1.182  -8.610   2.002  1.00  0.00     0.047 C 
ENDBRANCH  18  20
ENDBRANCH  14  18
ENDBRANCH   9  10
ENDBRANCH   8   9
ENDBRANCH   6   8
ENDBRANCH   5   6
ENDBRANCH   4   5
ENDBRANCH   3   4
ENDBRANCH   2   3
ENDBRANCH   1   2
BRANCH   1  28
ATOM     28  C   UNL     1       4.348   0.726   1.637  1.00  0.00     0.188 C 
BRANCH  28  29
ATOM     29  O   UNL     1       5.132   0.393   0.488  1.00  0.00    -0.376 OA
BRANCH  29  30
ATOM     30  C   UNL     1       5.033  -0.977   0.111  1.00  0.00     0.202 C 
BRANCH  30  31
ATOM     31  C   UNL     1       4.270  -1.172  -1.216  1.00  0.00     0.261 C 
BRANCH  31  32
ATOM     32  O   UNL     1       2.966  -0.563  -1.390  1.00  0.00    -0.460 OA
BRANCH  32  33
ATOM     33  C   UNL     1       2.087  -0.762  -0.397  1.00  0.00     0.338 C 
ATOM     34  O   UNL     1       2.332  -1.249   0.692  1.00  0.00    -0.246 OA
BRANCH  33  35
ATOM     35  C   UNL     1       0.696  -0.387  -0.708  1.00  0.00     0.060 A 
ATOM     36  C   UNL     1       0.002   0.327   0.273  1.00  0.00     0.016 A 
ATOM     37  C   UNL     1      -0.006  -1.071  -1.702  1.00  0.00     0.016 A 
ATOM     38  C   UNL     1      -1.384   0.217   0.363  1.00  0.00     0.010 A 
ATOM     39  C   UNL     1      -1.408  -1.095  -1.666  1.00  0.00     0.010 A 
ATOM     40  C   UNL     1      -2.110  -0.484  -0.613  1.00  0.00    -0.014 A 
BRANCH  40  41
ATOM     41  C   UNL     1      -3.597  -0.446  -0.608  1.00  0.00     0.031 A 
ATOM     42  C   UNL     1      -4.448  -1.685  -0.525  1.00  0.00     0.074 A 
ATOM     43  C   UNL     1      -4.182   0.760  -0.743  1.00  0.00     0.049 A 
ATOM     44  N   UNL     1      -5.730  -1.818  -0.765  1.00  0.00    -0.248 NA
ATOM     45  C   UNL     1      -3.786  -2.933  -0.115  1.00  0.00     0.031 C 
ATOM     46  C   UNL     1      -3.470   2.041  -0.786  1.00  0.00     0.029 A 
ATOM     47  N   UNL     1      -5.498   1.107  -0.902  1.00  0.00    -0.354 N 
ATOM     48  C   UNL     1      -6.026  -3.164  -0.572  1.00  0.00     0.074 A 
ATOM     49  C   UNL     1      -4.788  -3.806  -0.176  1.00  0.00     0.031 C 
ATOM     50  C   UNL     1      -4.350   3.029  -0.971  1.00  0.00     0.029 A 
ATOM     51  C   UNL     1      -5.665   2.442  -1.169  1.00  0.00     0.049 A 
ATOM     52  H   UNL     1      -6.243   0.467  -0.833  1.00  0.00     0.167 HD
ATOM     53  C   UNL     1      -7.218  -3.795  -0.728  1.00  0.00     0.037 A 
ATOM     54  C   UNL     1      -6.731   3.127  -1.616  1.00  0.00     0.037 A 
ATOM     55  C   UNL     1      -8.445  -3.131  -1.106  1.00  0.00     0.049 A 
ATOM     56  C   UNL     1      -8.011   2.402  -1.856  1.00  0.00     0.074 A 
ATOM     57  C   UNL     1      -9.710  -3.675  -1.267  1.00  0.00     0.029 A 
ATOM     58  N   UNL     1      -8.562  -1.776  -1.384  1.00  0.00    -0.354 N 
ATOM     59  N   UNL     1      -8.268   1.125  -1.719  1.00  0.00    -0.248 NA
ATOM     60  C   UNL     1      -9.146   3.208  -2.317  1.00  0.00     0.031 C 
ATOM     61  C   UNL     1     -10.579  -2.660  -1.685  1.00  0.00     0.029 A 
ATOM     62  C   UNL     1      -9.868  -1.473  -1.740  1.00  0.00     0.049 A 
ATOM     63  H   UNL     1      -7.825  -1.125  -1.336  1.00  0.00     0.167 HD
ATOM     64  C   UNL     1      -9.601   0.972  -2.064  1.00  0.00     0.074 A 
ATOM     65  C   UNL     1     -10.098   2.291  -2.405  1.00  0.00     0.031 C 
ATOM     66  C   UNL     1     -10.344  -0.160  -2.093  1.00  0.00     0.037 A 
BRANCH  53  67
ATOM     67  C   UNL     1      -7.272  -5.287  -0.538  1.00  0.00     0.057 A 
ATOM     68  C   UNL     1      -7.240  -5.882   0.728  1.00  0.00     0.134 A 
ATOM     69  C   UNL     1      -7.468  -6.133  -1.640  1.00  0.00     0.134 A 
ATOM     70  F   UNL     1      -7.057  -5.135   1.827  1.00  0.00    -0.206 F 
ATOM     71  C   UNL     1      -7.394  -7.263   0.891  1.00  0.00     0.040 A 
ATOM     72  C   UNL     1      -7.643  -7.510  -1.488  1.00  0.00     0.040 A 
ATOM     73  F   UNL     1      -7.524  -5.629  -2.882  1.00  0.00    -0.206 F 
ATOM     74  C   UNL     1      -7.606  -8.080  -0.218  1.00  0.00     0.006 A 
ENDBRANCH  53  67
BRANCH  54  75
ATOM     75  C   UNL     1      -6.571   4.569  -1.911  1.00  0.00     0.057 A 
ATOM     76  C   UNL     1      -7.087   5.539  -1.050  1.00  0.00     0.134 A 
ATOM     77  C   UNL     1      -5.794   5.002  -2.995  1.00  0.00     0.134 A 
ATOM     78  F   UNL     1      -7.841   5.178  -0.002  1.00  0.00    -0.206 F 
ATOM     79  C   UNL     1      -6.827   6.895  -1.248  1.00  0.00     0.040 A 
ATOM     80  C   UNL     1      -5.505   6.351  -3.189  1.00  0.00     0.040 A 
ATOM     81  F   UNL     1      -5.253   4.111  -3.840  1.00  0.00    -0.206 F 
ATOM     82  C   UNL     1      -6.022   7.302  -2.312  1.00  0.00     0.006 A 
ENDBRANCH  54  75
BRANCH  66  83
ATOM     83  C   UNL     1     -11.780   0.001  -2.485  1.00  0.00     0.057 A 
ATOM     84  C   UNL     1     -12.156   0.230  -3.814  1.00  0.00     0.134 A 
ATOM     85  C   UNL     1     -12.792  -0.044  -1.519  1.00  0.00     0.134 A 
ATOM     86  F   UNL     1     -11.229   0.307  -4.780  1.00  0.00    -0.206 F 
ATOM     87  C   UNL     1     -13.491   0.438  -4.165  1.00  0.00     0.040 A 
ATOM     88  C   UNL     1     -14.131   0.141  -1.861  1.00  0.00     0.040 A 
ATOM     89  F   UNL     1     -12.494  -0.260  -0.229  1.00  0.00    -0.206 F 
ATOM     90  C   UNL     1     -14.483   0.392  -3.187  1.00  0.00     0.006 A 
ENDBRANCH  66  83
ENDBRANCH  40  41
ENDBRANCH  33  35
ENDBRANCH  32  33
ENDBRANCH  31  32
ENDBRANCH  30  31
ENDBRANCH  29  30
ENDBRANCH  28  29
ENDBRANCH   1  28
TORSDOF 22
