REMARK SMILES CC(C)(CNC(=O)[C@H]1CCC[C@H](C(=O)OCCOCCOCCOC(=O)c2ccc(-c3c4nc(c(-c5c(F)cccc5F)c5ccc([nH]5)c(-c5c(F)cccc5F)c5nc(c(-c6c(F)cccc6F)c6ccc3[nH]6)C=C5)C=C4)cc2)C1)S(C)(=O)=O
REMARK SMILES IDX 19 1 18 2 17 3 16 4 15 5 13 6 14 7 12 8 8 9 9 10 81 11 10 12
REMARK SMILES IDX 11 13 6 14 5 15 7 17 4 18 2 19 1 20 3 21 82 22 83 23 84 24
REMARK SMILES IDX 85 25 20 26 21 27 22 28 23 29 24 30 25 31 26 32 27 33 28 34
REMARK SMILES IDX 80 35 29 36 79 37 30 38 31 39 32 40 73 41 33 42 78 43 72 44
REMARK SMILES IDX 74 45 34 46 77 47 71 48 70 49 35 51 61 52 44 53 60 54 45 55
REMARK SMILES IDX 48 56 59 57 75 58 46 59 47 60 58 62 76 63 49 64 36 65 37 66
REMARK SMILES IDX 42 67 38 68 39 69 41 70 43 71 40 72 62 73 63 74 68 75 64 76
REMARK SMILES IDX 65 77 67 78 69 79 66 80 50 81 51 82 56 83 52 84 53 85 55 86
REMARK SMILES IDX 57 87 54 88
REMARK H PARENT 5 16 74 50 48 61
REMARK Flexibility Score: inf
ROOT
ATOM      1  C   UNL     1      -1.385  -4.748   7.893  1.00  0.00     0.188 C 
ENDROOT
BRANCH   1   2
ATOM      2  O   UNL     1      -0.281  -5.399   8.476  1.00  0.00    -0.376 OA
BRANCH   2   3
ATOM      3  C   UNL     1       0.678  -5.955   7.581  1.00  0.00     0.202 C 
BRANCH   3   4
ATOM      4  C   UNL     1       0.818  -5.493   6.109  1.00  0.00     0.261 C 
BRANCH   4   5
ATOM      5  O   UNL     1       0.220  -4.228   5.769  1.00  0.00    -0.463 OA
BRANCH   5   6
ATOM      6  C   UNL     1      -0.228  -4.147   4.486  1.00  0.00     0.309 C 
ATOM      7  O   UNL     1       0.082  -4.961   3.619  1.00  0.00    -0.252 OA
BRANCH   6   8
ATOM      8  C   UNL     1      -1.268  -3.034   4.259  1.00  0.00     0.100 C 
ATOM      9  C   UNL     1      -2.742  -2.092   2.338  1.00  0.00     0.079 C 
ATOM     10  C   UNL     1      -2.277  -0.678   2.764  1.00  0.00     0.013 C 
ATOM     11  C   UNL     1      -1.657  -3.075   2.772  1.00  0.00     0.028 C 
ATOM     12  C   UNL     1      -1.945  -0.608   4.258  1.00  0.00     0.002 C 
ATOM     13  C   UNL     1      -0.852  -1.614   4.643  1.00  0.00     0.015 C 
BRANCH   9  14
ATOM     14  C   UNL     1      -4.217  -2.313   2.734  1.00  0.00     0.223 C 
ATOM     15  N   UNL     1      -4.898  -3.485   2.626  1.00  0.00    -0.354 N 
ATOM     16  H   UNL     1      -5.861  -3.386   2.804  1.00  0.00     0.163 HD
ATOM     17  O   UNL     1      -4.923  -1.362   3.092  1.00  0.00    -0.275 OA
BRANCH  15  18
ATOM     18  C   UNL     1      -4.519  -4.846   2.307  1.00  0.00     0.138 C 
BRANCH  18  19
ATOM     19  C   UNL     1      -4.988  -5.942   3.297  1.00  0.00     0.084 C 
ATOM     20  C   UNL     1      -6.496  -6.196   3.179  1.00  0.00     0.030 C 
ATOM     21  C   UNL     1      -4.236  -7.242   2.913  1.00  0.00     0.030 C 
BRANCH  19  22
ATOM     22  S   UNL     1      -4.557  -5.610   5.040  1.00  0.00     0.154 S 
ATOM     23  C   UNL     1      -5.380  -4.125   5.581  1.00  0.00     0.158 C 
ATOM     24  O   UNL     1      -5.116  -6.681   5.847  1.00  0.00    -0.229 OA
ATOM     25  O   UNL     1      -3.131  -5.363   5.095  1.00  0.00    -0.229 OA
ENDBRANCH  19  22
ENDBRANCH  18  19
ENDBRANCH  15  18
ENDBRANCH   9  14
ENDBRANCH   6   8
ENDBRANCH   5   6
ENDBRANCH   4   5
ENDBRANCH   3   4
ENDBRANCH   2   3
ENDBRANCH   1   2
BRANCH   1  26
ATOM     26  C   UNL     1      -1.279  -3.218   7.908  1.00  0.00     0.188 C 
BRANCH  26  27
ATOM     27  O   UNL     1      -0.038  -2.528   7.951  1.00  0.00    -0.376 OA
BRANCH  27  28
ATOM     28  C   UNL     1       0.916  -2.847   8.954  1.00  0.00     0.202 C 
BRANCH  28  29
ATOM     29  C   UNL     1       0.546  -2.822  10.450  1.00  0.00     0.261 C 
BRANCH  29  30
ATOM     30  O   UNL     1      -0.819  -3.110  10.772  1.00  0.00    -0.460 OA
BRANCH  30  31
ATOM     31  C   UNL     1      -1.612  -2.015  10.921  1.00  0.00     0.338 C 
ATOM     32  O   UNL     1      -1.277  -0.848  10.894  1.00  0.00    -0.246 OA
BRANCH  31  33
ATOM     33  C   UNL     1      -3.026  -2.454  10.893  1.00  0.00     0.060 A 
ATOM     34  C   UNL     1      -3.845  -1.980   9.853  1.00  0.00     0.016 A 
ATOM     35  C   UNL     1      -3.536  -3.324  11.854  1.00  0.00     0.016 A 
ATOM     36  C   UNL     1      -5.178  -2.372   9.771  1.00  0.00     0.010 A 
ATOM     37  C   UNL     1      -4.888  -3.675  11.802  1.00  0.00     0.010 A 
ATOM     38  C   UNL     1      -5.718  -3.181  10.776  1.00  0.00    -0.014 A 
BRANCH  38  39
ATOM     39  C   UNL     1      -7.188  -3.314  10.888  1.00  0.00     0.031 A 
ATOM     40  C   UNL     1      -7.906  -2.396  11.838  1.00  0.00     0.074 A 
ATOM     41  C   UNL     1      -7.877  -4.208  10.160  1.00  0.00     0.049 A 
ATOM     42  N   UNL     1      -9.164  -2.382  12.194  1.00  0.00    -0.248 NA
ATOM     43  C   UNL     1      -7.085  -1.354  12.477  1.00  0.00     0.031 C 
ATOM     44  C   UNL     1      -7.307  -5.116   9.168  1.00  0.00     0.029 A 
ATOM     45  N   UNL     1      -9.216  -4.510  10.168  1.00  0.00    -0.354 N 
ATOM     46  C   UNL     1      -9.282  -1.342  13.107  1.00  0.00     0.074 A 
ATOM     47  C   UNL     1      -7.965  -0.768  13.273  1.00  0.00     0.031 C 
ATOM     48  C   UNL     1      -8.289  -5.897   8.682  1.00  0.00     0.029 A 
ATOM     49  C   UNL     1      -9.543  -5.570   9.360  1.00  0.00     0.049 A 
ATOM     50  H   UNL     1      -9.878  -4.014  10.702  1.00  0.00     0.167 HD
ATOM     51  C   UNL     1     -10.390  -0.900  13.746  1.00  0.00     0.037 A 
ATOM     52  C   UNL     1     -10.713  -6.224   9.220  1.00  0.00     0.037 A 
ATOM     53  C   UNL     1     -11.697  -1.482  13.591  1.00  0.00     0.049 A 
ATOM     54  C   UNL     1     -11.917  -5.777  10.013  1.00  0.00     0.074 A 
ATOM     55  C   UNL     1     -12.884  -1.108  14.194  1.00  0.00     0.029 A 
ATOM     56  N   UNL     1     -11.984  -2.570  12.780  1.00  0.00    -0.354 N 
ATOM     57  N   UNL     1     -12.028  -4.788  10.867  1.00  0.00    -0.248 NA
ATOM     58  C   UNL     1     -13.159  -6.540   9.819  1.00  0.00     0.031 C 
ATOM     59  C   UNL     1     -13.878  -2.006  13.793  1.00  0.00     0.029 A 
ATOM     60  C   UNL     1     -13.326  -2.897  12.887  1.00  0.00     0.049 A 
ATOM     61  H   UNL     1     -11.331  -3.040  12.213  1.00  0.00     0.167 HD
ATOM     62  C   UNL     1     -13.354  -4.790  11.287  1.00  0.00     0.074 A 
ATOM     63  C   UNL     1     -14.011  -5.871  10.584  1.00  0.00     0.031 C 
ATOM     64  C   UNL     1     -13.972  -3.970  12.174  1.00  0.00     0.037 A 
BRANCH  51  65
ATOM     65  C   UNL     1     -10.222   0.247  14.700  1.00  0.00     0.057 A 
ATOM     66  C   UNL     1      -9.925   1.544  14.258  1.00  0.00     0.134 A 
ATOM     67  C   UNL     1     -10.372   0.055  16.079  1.00  0.00     0.134 A 
ATOM     68  F   UNL     1      -9.751   1.794  12.951  1.00  0.00    -0.206 F 
ATOM     69  C   UNL     1      -9.753   2.599  15.155  1.00  0.00     0.040 A 
ATOM     70  C   UNL     1     -10.234   1.109  16.983  1.00  0.00     0.040 A 
ATOM     71  F   UNL     1     -10.659  -1.160  16.571  1.00  0.00    -0.206 F 
ATOM     72  C   UNL     1      -9.915   2.384  16.522  1.00  0.00     0.006 A 
ENDBRANCH  51  65
BRANCH  52  73
ATOM     73  C   UNL     1     -10.802  -7.398   8.314  1.00  0.00     0.057 A 
ATOM     74  C   UNL     1     -11.571  -7.360   7.145  1.00  0.00     0.134 A 
ATOM     75  C   UNL     1     -10.141  -8.597   8.610  1.00  0.00     0.134 A 
ATOM     76  F   UNL     1     -12.250  -6.250   6.820  1.00  0.00    -0.206 F 
ATOM     77  C   UNL     1     -11.694  -8.475   6.313  1.00  0.00     0.040 A 
ATOM     78  C   UNL     1     -10.229  -9.709   7.771  1.00  0.00     0.040 A 
ATOM     79  F   UNL     1      -9.392  -8.702   9.717  1.00  0.00    -0.206 F 
ATOM     80  C   UNL     1     -11.015  -9.652   6.622  1.00  0.00     0.006 A 
ENDBRANCH  52  73
BRANCH  64  81
ATOM     81  C   UNL     1     -15.445  -4.172  12.399  1.00  0.00     0.057 A 
ATOM     82  C   UNL     1     -15.951  -5.284  13.084  1.00  0.00     0.134 A 
ATOM     83  C   UNL     1     -16.368  -3.210  11.965  1.00  0.00     0.134 A 
ATOM     84  F   UNL     1     -15.125  -6.248  13.519  1.00  0.00    -0.206 F 
ATOM     85  C   UNL     1     -17.320  -5.445  13.305  1.00  0.00     0.040 A 
ATOM     86  C   UNL     1     -17.736  -3.344  12.207  1.00  0.00     0.040 A 
ATOM     87  F   UNL     1     -15.953  -2.113  11.313  1.00  0.00    -0.206 F 
ATOM     88  C   UNL     1     -18.216  -4.469  12.873  1.00  0.00     0.006 A 
ENDBRANCH  64  81
ENDBRANCH  38  39
ENDBRANCH  31  33
ENDBRANCH  30  31
ENDBRANCH  29  30
ENDBRANCH  28  29
ENDBRANCH  27  28
ENDBRANCH  26  27
ENDBRANCH   1  26
TORSDOF 21
