REMARK SMILES COC(=O)c1sc(NC(=O)[C@H]2CC=CC[C@H]2C(=O)OCCOCCOCCOC(=O)c2ccc(-c3c4nc(c(-c5c(F)cccc5F)c5ccc([nH]5)c(-c5c(F)cccc5F)c5nc(c(-c6c(F)cccc6F)c6ccc3[nH]6)C=C5)C=C4)cc2)nc1C
REMARK SMILES IDX 23 1 22 2 21 3 20 4 19 5 17 6 18 7 16 8 11 9 12 10 13 11
REMARK SMILES IDX 15 12 14 13 9 14 8 15 10 17 7 18 5 19 6 20 86 21 85 22 87 23
REMARK SMILES IDX 3 24 4 25 2 26 1 27 24 28 25 29 26 30 27 31 28 32 29 33
REMARK SMILES IDX 30 34 31 35 32 36 84 37 33 38 83 39 34 40 35 41 36 42 77 43
REMARK SMILES IDX 37 44 82 45 76 46 78 47 38 48 81 49 75 50 74 51 39 53 65 54
REMARK SMILES IDX 48 55 64 56 49 57 52 58 63 59 79 60 50 61 51 62 62 64 80 65
REMARK SMILES IDX 53 66 40 67 41 68 46 69 42 70 43 71 45 72 47 73 44 74 66 75
REMARK SMILES IDX 67 76 72 77 68 78 69 79 71 80 73 81 70 82 54 83 55 84 60 85
REMARK SMILES IDX 56 86 57 87 59 88 61 89 58 90
REMARK H PARENT 8 16 78 52 52 63
REMARK Flexibility Score: inf
ROOT
ATOM      1  C   UNL     1      -3.529  -9.336  -0.211  1.00  0.00     0.188 C 
ENDROOT
BRANCH   1   2
ATOM      2  O   UNL     1      -3.128 -10.668   0.093  1.00  0.00    -0.376 OA
BRANCH   2   3
ATOM      3  C   UNL     1      -1.932 -11.135  -0.533  1.00  0.00     0.202 C 
BRANCH   3   4
ATOM      4  C   UNL     1      -1.905 -11.117  -2.070  1.00  0.00     0.261 C 
BRANCH   4   5
ATOM      5  O   UNL     1      -2.146  -9.819  -2.666  1.00  0.00    -0.463 OA
BRANCH   5   6
ATOM      6  C   UNL     1      -3.200  -9.771  -3.519  1.00  0.00     0.310 C 
ATOM      7  O   UNL     1      -3.921 -10.738  -3.764  1.00  0.00    -0.252 OA
BRANCH   6   8
ATOM      8  C   UNL     1      -3.540  -8.397  -4.084  1.00  0.00     0.116 C 
ATOM      9  C   UNL     1      -2.632  -7.170  -3.822  1.00  0.00     0.097 C 
ATOM     10  C   UNL     1      -3.215  -5.922  -4.543  1.00  0.00     0.041 C 
ATOM     11  C   UNL     1      -3.821  -6.169  -5.891  1.00  0.00    -0.030 C 
ATOM     12  C   UNL     1      -3.848  -8.632  -5.575  1.00  0.00     0.043 C 
ATOM     13  C   UNL     1      -4.083  -7.390  -6.365  1.00  0.00    -0.030 C 
BRANCH   9  14
ATOM     14  C   UNL     1      -1.168  -7.369  -4.203  1.00  0.00     0.230 C 
ATOM     15  N   UNL     1      -0.201  -6.478  -3.827  1.00  0.00    -0.302 N 
ATOM     16  H   UNL     1       0.715  -6.703  -4.109  1.00  0.00     0.172 HD
ATOM     17  O   UNL     1      -0.810  -8.342  -4.875  1.00  0.00    -0.274 OA
BRANCH  15  18
ATOM     18  C   UNL     1      -0.330  -5.319  -3.114  1.00  0.00     0.190 A 
ATOM     19  C   UNL     1       0.265  -3.159  -2.186  1.00  0.00     0.137 A 
ATOM     20  S   UNL     1       1.111  -4.416  -3.006  1.00  0.00    -0.089 S 
ATOM     21  C   UNL     1      -1.068  -3.522  -2.048  1.00  0.00     0.065 A 
ATOM     22  N   UNL     1      -1.385  -4.785  -2.555  1.00  0.00    -0.224 NA
ATOM     23  C   UNL     1      -2.183  -2.715  -1.478  1.00  0.00     0.069 C 
BRANCH  19  24
ATOM     24  C   UNL     1       0.985  -1.964  -1.801  1.00  0.00     0.350 C 
ATOM     25  O   UNL     1       2.009  -1.543  -2.326  1.00  0.00    -0.245 OA
BRANCH  24  26
ATOM     26  O   UNL     1       0.369  -1.357  -0.745  1.00  0.00    -0.465 OA
ATOM     27  C   UNL     1       1.010  -0.169  -0.272  1.00  0.00     0.282 C 
ENDBRANCH  24  26
ENDBRANCH  19  24
ENDBRANCH  15  18
ENDBRANCH   9  14
ENDBRANCH   6   8
ENDBRANCH   5   6
ENDBRANCH   4   5
ENDBRANCH   3   4
ENDBRANCH   2   3
ENDBRANCH   1   2
BRANCH   1  28
ATOM     28  C   UNL     1      -2.520  -8.239   0.139  1.00  0.00     0.188 C 
BRANCH  28  29
ATOM     29  O   UNL     1      -1.177  -8.507  -0.237  1.00  0.00    -0.376 OA
BRANCH  29  30
ATOM     30  C   UNL     1      -0.177  -7.619   0.266  1.00  0.00     0.202 C 
BRANCH  30  31
ATOM     31  C   UNL     1      -0.114  -7.451   1.799  1.00  0.00     0.261 C 
BRANCH  31  32
ATOM     32  O   UNL     1      -1.290  -6.879   2.408  1.00  0.00    -0.460 OA
BRANCH  32  33
ATOM     33  C   UNL     1      -1.752  -5.710   1.896  1.00  0.00     0.338 C 
ATOM     34  O   UNL     1      -1.141  -4.939   1.187  1.00  0.00    -0.246 OA
BRANCH  33  35
ATOM     35  C   UNL     1      -3.221  -5.651   2.135  1.00  0.00     0.060 A 
ATOM     36  C   UNL     1      -4.044  -5.224   1.083  1.00  0.00     0.016 A 
ATOM     37  C   UNL     1      -3.797  -6.070   3.338  1.00  0.00     0.016 A 
ATOM     38  C   UNL     1      -5.431  -5.156   1.248  1.00  0.00     0.010 A 
ATOM     39  C   UNL     1      -5.186  -5.996   3.507  1.00  0.00     0.010 A 
ATOM     40  C   UNL     1      -6.007  -5.500   2.478  1.00  0.00    -0.014 A 
BRANCH  40  41
ATOM     41  C   UNL     1      -7.421  -5.142   2.760  1.00  0.00     0.031 A 
ATOM     42  C   UNL     1      -7.693  -3.869   3.517  1.00  0.00     0.074 A 
ATOM     43  C   UNL     1      -8.453  -5.906   2.358  1.00  0.00     0.049 A 
ATOM     44  N   UNL     1      -8.830  -3.364   3.921  1.00  0.00    -0.248 NA
ATOM     45  C   UNL     1      -6.514  -3.062   3.871  1.00  0.00     0.031 C 
ATOM     46  C   UNL     1      -8.345  -7.148   1.598  1.00  0.00     0.029 A 
ATOM     47  N   UNL     1      -9.804  -5.747   2.557  1.00  0.00    -0.354 N 
ATOM     48  C   UNL     1      -8.504  -2.189   4.586  1.00  0.00     0.074 A 
ATOM     49  C   UNL     1      -7.062  -2.072   4.557  1.00  0.00     0.031 C 
ATOM     50  C   UNL     1      -9.579  -7.652   1.414  1.00  0.00     0.029 A 
ATOM     51  C   UNL     1     -10.560  -6.783   2.066  1.00  0.00     0.049 A 
ATOM     52  H   UNL     1     -10.193  -4.963   3.008  1.00  0.00     0.167 HD
ATOM     53  C   UNL     1      -9.326  -1.283   5.165  1.00  0.00     0.037 A 
ATOM     54  C   UNL     1     -11.885  -7.018   2.155  1.00  0.00     0.037 A 
ATOM     55  C   UNL     1     -10.760  -1.391   5.202  1.00  0.00     0.049 A 
ATOM     56  C   UNL     1     -12.780  -6.026   2.853  1.00  0.00     0.074 A 
ATOM     57  C   UNL     1     -11.677  -0.499   5.730  1.00  0.00     0.029 A 
ATOM     58  N   UNL     1     -11.485  -2.464   4.708  1.00  0.00    -0.354 N 
ATOM     59  N   UNL     1     -12.468  -4.893   3.435  1.00  0.00    -0.248 NA
ATOM     60  C   UNL     1     -14.216  -6.345   2.903  1.00  0.00     0.031 C 
ATOM     61  C   UNL     1     -12.953  -1.060   5.608  1.00  0.00     0.029 A 
ATOM     62  C   UNL     1     -12.835  -2.274   4.951  1.00  0.00     0.049 A 
ATOM     63  H   UNL     1     -11.097  -3.245   4.251  1.00  0.00     0.167 HD
ATOM     64  C   UNL     1     -13.665  -4.356   3.898  1.00  0.00     0.074 A 
ATOM     65  C   UNL     1     -14.712  -5.280   3.518  1.00  0.00     0.031 C 
ATOM     66  C   UNL     1     -13.875  -3.199   4.574  1.00  0.00     0.037 A 
BRANCH  53  67
ATOM     67  C   UNL     1      -8.679  -0.111   5.845  1.00  0.00     0.057 A 
ATOM     68  C   UNL     1      -8.042   0.909   5.125  1.00  0.00     0.134 A 
ATOM     69  C   UNL     1      -8.697  -0.004   7.241  1.00  0.00     0.134 A 
ATOM     70  F   UNL     1      -7.973   0.856   3.786  1.00  0.00    -0.206 F 
ATOM     71  C   UNL     1      -7.415   1.975   5.773  1.00  0.00     0.040 A 
ATOM     72  C   UNL     1      -8.099   1.072   7.898  1.00  0.00     0.040 A 
ATOM     73  F   UNL     1      -9.292  -0.945   7.989  1.00  0.00    -0.206 F 
ATOM     74  C   UNL     1      -7.448   2.061   7.163  1.00  0.00     0.006 A 
ENDBRANCH  53  67
BRANCH  54  75
ATOM     75  C   UNL     1     -12.451  -8.268   1.586  1.00  0.00     0.057 A 
ATOM     76  C   UNL     1     -13.271  -8.250   0.453  1.00  0.00     0.134 A 
ATOM     77  C   UNL     1     -12.192  -9.512   2.175  1.00  0.00     0.134 A 
ATOM     78  F   UNL     1     -13.582  -7.087  -0.138  1.00  0.00    -0.206 F 
ATOM     79  C   UNL     1     -13.821  -9.422  -0.070  1.00  0.00     0.040 A 
ATOM     80  C   UNL     1     -12.715 -10.694   1.649  1.00  0.00     0.040 A 
ATOM     81  F   UNL     1     -11.419  -9.595   3.268  1.00  0.00    -0.206 F 
ATOM     82  C   UNL     1     -13.536 -10.650   0.524  1.00  0.00     0.006 A 
ENDBRANCH  54  75
BRANCH  66  83
ATOM     83  C   UNL     1     -15.292  -2.845   4.928  1.00  0.00     0.057 A 
ATOM     84  C   UNL     1     -16.002  -3.529   5.923  1.00  0.00     0.134 A 
ATOM     85  C   UNL     1     -15.937  -1.770   4.300  1.00  0.00     0.134 A 
ATOM     86  F   UNL     1     -15.448  -4.572   6.558  1.00  0.00    -0.206 F 
ATOM     87  C   UNL     1     -17.309  -3.171   6.265  1.00  0.00     0.040 A 
ATOM     88  C   UNL     1     -17.233  -1.387   4.652  1.00  0.00     0.040 A 
ATOM     89  F   UNL     1     -15.312  -1.064   3.346  1.00  0.00    -0.206 F 
ATOM     90  C   UNL     1     -17.924  -2.092   5.634  1.00  0.00     0.006 A 
ENDBRANCH  66  83
ENDBRANCH  40  41
ENDBRANCH  33  35
ENDBRANCH  32  33
ENDBRANCH  31  32
ENDBRANCH  30  31
ENDBRANCH  29  30
ENDBRANCH  28  29
ENDBRANCH   1  28
TORSDOF 21
