REMARK SMILES C[C@@H]1[NH2+]CC[C@@H]1C(=O)Nc1cc(F)ccc1C(=O)OCCOCCOCCOC(=O)c1ccc(-c2c3nc(c(-c4c(F)cccc4F)c4ccc([nH]4)c(-c4c(F)cccc4F)c4nc(c(-c5c(F)cccc5F)c5ccc2[nH]5)C=C4)C=C3)cc1
REMARK SMILES IDX 23 1 22 2 21 3 20 4 19 5 17 6 18 7 16 8 10 9 11 10 12 11
REMARK SMILES IDX 15 12 13 13 14 14 9 15 7 16 8 17 6 19 1 20 2 21 3 22 4 23
REMARK SMILES IDX 5 26 24 27 25 28 26 29 27 30 28 31 29 32 30 33 31 34 32 35
REMARK SMILES IDX 84 36 33 37 83 38 34 39 35 40 36 41 77 42 37 43 82 44 76 45
REMARK SMILES IDX 78 46 38 47 81 48 75 49 74 50 39 52 65 53 48 54 64 55 49 56
REMARK SMILES IDX 52 57 63 58 79 59 50 60 51 61 62 63 80 64 53 65 40 66 41 67
REMARK SMILES IDX 46 68 42 69 43 70 45 71 47 72 44 73 66 74 67 75 72 76 68 77
REMARK SMILES IDX 69 78 71 79 73 80 70 81 54 82 55 83 60 84 56 85 57 86 59 87
REMARK SMILES IDX 61 88 58 89
REMARK H PARENT 9 18 3 24 3 25 78 51 52 62
REMARK Flexibility Score: inf
ROOT
ATOM      1  C   UNL     1       5.185   4.485   0.198  1.00  0.00     0.188 C 
ENDROOT
BRANCH   1   2
ATOM      2  O   UNL     1       5.260   5.689  -0.527  1.00  0.00    -0.376 OA
BRANCH   2   3
ATOM      3  C   UNL     1       5.075   5.692  -1.933  1.00  0.00     0.202 C 
BRANCH   3   4
ATOM      4  C   UNL     1       4.401   4.574  -2.762  1.00  0.00     0.261 C 
BRANCH   4   5
ATOM      5  O   UNL     1       4.082   3.350  -2.091  1.00  0.00    -0.460 OA
BRANCH   5   6
ATOM      6  C   UNL     1       4.914   2.301  -2.295  1.00  0.00     0.340 C 
ATOM      7  O   UNL     1       5.874   2.277  -3.043  1.00  0.00    -0.246 OA
BRANCH   6   8
ATOM      8  C   UNL     1       4.633   1.244  -1.276  1.00  0.00     0.083 A 
ATOM      9  C   UNL     1       3.342   0.896  -0.785  1.00  0.00     0.058 A 
ATOM     10  C   UNL     1       3.291  -0.040   0.244  1.00  0.00     0.066 A 
ATOM     11  C   UNL     1       4.449  -0.638   0.745  1.00  0.00     0.125 A 
ATOM     12  C   UNL     1       5.797   0.665  -0.724  1.00  0.00     0.021 A 
ATOM     13  F   UNL     1       4.341  -1.560   1.710  1.00  0.00    -0.207 F 
ATOM     14  C   UNL     1       5.703  -0.283   0.285  1.00  0.00     0.040 A 
BRANCH   9  15
ATOM     15  N   UNL     1       2.198   1.536  -1.313  1.00  0.00    -0.325 N 
ATOM     16  C   UNL     1       0.848   1.555  -1.147  1.00  0.00     0.233 C 
ATOM     17  O   UNL     1       0.276   2.357  -1.902  1.00  0.00    -0.274 OA
ATOM     18  H   UNL     1       2.460   2.166  -2.023  1.00  0.00     0.169 HD
BRANCH  16  19
ATOM     19  C   UNL     1       0.026   0.776  -0.109  1.00  0.00     0.142 C 
ATOM     20  C   UNL     1       0.398  -1.388  -1.476  1.00  0.00     0.076 C 
ATOM     21  C   UNL     1       0.038  -0.758  -0.137  1.00  0.00     0.192 C 
ATOM     22  N   UNL     1      -1.310  -1.181   0.295  1.00  0.00    -0.343 N 
ATOM     23  C   UNL     1      -2.217  -0.220  -0.322  1.00  0.00     0.261 C 
ATOM     24  H   UNL     1      -1.389  -1.149   1.311  1.00  0.00     0.346 HD
ATOM     25  H   UNL     1      -1.520  -2.141   0.019  1.00  0.00     0.346 HD
ATOM     26  C   UNL     1      -1.489   1.109  -0.218  1.00  0.00     0.081 C 
ENDBRANCH  16  19
ENDBRANCH   9  15
ENDBRANCH   6   8
ENDBRANCH   5   6
ENDBRANCH   4   5
ENDBRANCH   3   4
ENDBRANCH   2   3
ENDBRANCH   1   2
BRANCH   1  27
ATOM     27  C   UNL     1       3.770   4.127   0.689  1.00  0.00     0.188 C 
BRANCH  27  28
ATOM     28  O   UNL     1       2.663   4.871   0.225  1.00  0.00    -0.376 OA
BRANCH  28  29
ATOM     29  C   UNL     1       2.614   6.269   0.473  1.00  0.00     0.202 C 
BRANCH  29  30
ATOM     30  C   UNL     1       3.191   6.931   1.746  1.00  0.00     0.261 C 
BRANCH  30  31
ATOM     31  O   UNL     1       4.369   6.350   2.324  1.00  0.00    -0.460 OA
BRANCH  31  32
ATOM     32  C   UNL     1       4.176   5.663   3.479  1.00  0.00     0.338 C 
ATOM     33  O   UNL     1       3.128   5.494   4.073  1.00  0.00    -0.246 OA
BRANCH  32  34
ATOM     34  C   UNL     1       5.419   4.947   3.837  1.00  0.00     0.060 A 
ATOM     35  C   UNL     1       5.407   3.543   3.853  1.00  0.00     0.016 A 
ATOM     36  C   UNL     1       6.563   5.647   4.218  1.00  0.00     0.016 A 
ATOM     37  C   UNL     1       6.526   2.835   4.288  1.00  0.00     0.010 A 
ATOM     38  C   UNL     1       7.676   4.937   4.680  1.00  0.00     0.010 A 
ATOM     39  C   UNL     1       7.647   3.531   4.755  1.00  0.00    -0.014 A 
BRANCH  39  40
ATOM     40  C   UNL     1       8.691   2.810   5.525  1.00  0.00     0.031 A 
ATOM     41  C   UNL     1       8.627   2.857   7.028  1.00  0.00     0.074 A 
ATOM     42  C   UNL     1       9.663   2.110   4.915  1.00  0.00     0.049 A 
ATOM     43  N   UNL     1       9.460   2.372   7.912  1.00  0.00    -0.248 NA
ATOM     44  C   UNL     1       7.464   3.546   7.612  1.00  0.00     0.031 C 
ATOM     45  C   UNL     1       9.804   1.939   3.471  1.00  0.00     0.029 A 
ATOM     46  N   UNL     1      10.725   1.417   5.444  1.00  0.00    -0.354 N 
ATOM     47  C   UNL     1       8.929   2.706   9.151  1.00  0.00     0.074 A 
ATOM     48  C   UNL     1       7.719   3.460   8.909  1.00  0.00     0.031 C 
ATOM     49  C   UNL     1      10.899   1.197   3.227  1.00  0.00     0.029 A 
ATOM     50  C   UNL     1      11.555   0.873   4.495  1.00  0.00     0.049 A 
ATOM     51  H   UNL     1      10.876   1.319   6.411  1.00  0.00     0.167 HD
ATOM     52  C   UNL     1       9.402   2.402  10.382  1.00  0.00     0.037 A 
ATOM     53  C   UNL     1      12.721   0.210   4.633  1.00  0.00     0.037 A 
ATOM     54  C   UNL     1      10.602   1.647  10.623  1.00  0.00     0.049 A 
ATOM     55  C   UNL     1      13.273  -0.046   6.013  1.00  0.00     0.074 A 
ATOM     56  C   UNL     1      11.157   1.283  11.837  1.00  0.00     0.029 A 
ATOM     57  N   UNL     1      11.433   1.146   9.634  1.00  0.00    -0.354 N 
ATOM     58  N   UNL     1      12.764   0.270   7.179  1.00  0.00    -0.248 NA
ATOM     59  C   UNL     1      14.561  -0.753   6.097  1.00  0.00     0.031 C 
ATOM     60  C   UNL     1      12.354   0.610  11.584  1.00  0.00     0.029 A 
ATOM     61  C   UNL     1      12.510   0.494  10.211  1.00  0.00     0.049 A 
ATOM     62  H   UNL     1      11.281   1.238   8.666  1.00  0.00     0.167 HD
ATOM     63  C   UNL     1      13.647  -0.227   8.131  1.00  0.00     0.074 A 
ATOM     64  C   UNL     1      14.723  -0.870   7.408  1.00  0.00     0.031 C 
ATOM     65  C   UNL     1      13.568  -0.160   9.483  1.00  0.00     0.037 A 
BRANCH  52  66
ATOM     66  C   UNL     1       8.630   2.897  11.570  1.00  0.00     0.057 A 
ATOM     67  C   UNL     1       9.166   3.886  12.405  1.00  0.00     0.134 A 
ATOM     68  C   UNL     1       7.392   2.349  11.929  1.00  0.00     0.134 A 
ATOM     69  F   UNL     1      10.350   4.450  12.121  1.00  0.00    -0.206 F 
ATOM     70  C   UNL     1       8.507   4.299  13.563  1.00  0.00     0.040 A 
ATOM     71  C   UNL     1       6.710   2.775  13.069  1.00  0.00     0.040 A 
ATOM     72  F   UNL     1       6.816   1.410  11.163  1.00  0.00    -0.206 F 
ATOM     73  C   UNL     1       7.273   3.745  13.897  1.00  0.00     0.006 A 
ENDBRANCH  52  66
BRANCH  53  74
ATOM     74  C   UNL     1      13.449  -0.262   3.427  1.00  0.00     0.057 A 
ATOM     75  C   UNL     1      14.045   0.638   2.534  1.00  0.00     0.134 A 
ATOM     76  C   UNL     1      13.560  -1.626   3.135  1.00  0.00     0.134 A 
ATOM     77  F   UNL     1      13.977   1.958   2.756  1.00  0.00    -0.206 F 
ATOM     78  C   UNL     1      14.706   0.199   1.385  1.00  0.00     0.040 A 
ATOM     79  C   UNL     1      14.241  -2.080   2.004  1.00  0.00     0.040 A 
ATOM     80  F   UNL     1      13.033  -2.538   3.965  1.00  0.00    -0.206 F 
ATOM     81  C   UNL     1      14.809  -1.165   1.119  1.00  0.00     0.006 A 
ENDBRANCH  53  74
BRANCH  65  82
ATOM     82  C   UNL     1      14.642  -0.832  10.290  1.00  0.00     0.057 A 
ATOM     83  C   UNL     1      14.344  -1.964  11.063  1.00  0.00     0.134 A 
ATOM     84  C   UNL     1      15.937  -0.309  10.386  1.00  0.00     0.134 A 
ATOM     85  F   UNL     1      13.118  -2.508  11.029  1.00  0.00    -0.206 F 
ATOM     86  C   UNL     1      15.287  -2.536  11.917  1.00  0.00     0.040 A 
ATOM     87  C   UNL     1      16.899  -0.891  11.215  1.00  0.00     0.040 A 
ATOM     88  F   UNL     1      16.290   0.768   9.669  1.00  0.00    -0.206 F 
ATOM     89  C   UNL     1      16.571  -2.000  11.993  1.00  0.00     0.006 A 
ENDBRANCH  65  82
ENDBRANCH  39  40
ENDBRANCH  32  34
ENDBRANCH  31  32
ENDBRANCH  30  31
ENDBRANCH  29  30
ENDBRANCH  28  29
ENDBRANCH  27  28
ENDBRANCH   1  27
TORSDOF 19
