REMARK SMILES CCN(CC(=O)NC(C)C)C(=O)N[C@H]1C=C[C@H](C(=O)OCCOCCOCCOC(=O)c2ccc(-c3c4nc(c(-c5c(F)cccc5F)c5ccc([nH]5)c(-c5c(F)cccc5F)c5nc(c(-c6c(F)cccc6F)c6ccc3[nH]6)C=C5)C=C4)cc2)C1
REMARK SMILES IDX 23 1 22 2 21 3 20 4 18 5 19 6 17 7 14 8 15 9 86 10 16 11
REMARK SMILES IDX 13 12 11 13 12 14 3 16 2 17 1 18 4 19 5 20 6 21 7 22 8 24
REMARK SMILES IDX 9 25 10 26 24 27 25 28 26 29 27 30 28 31 29 32 30 33 31 34
REMARK SMILES IDX 32 35 33 36 85 37 34 38 84 39 35 40 36 41 37 42 78 43 38 44
REMARK SMILES IDX 83 45 77 46 79 47 39 48 82 49 76 50 75 51 40 53 66 54 49 55
REMARK SMILES IDX 65 56 50 57 53 58 64 59 80 60 51 61 52 62 63 64 81 65 54 66
REMARK SMILES IDX 41 67 42 68 47 69 43 70 44 71 46 72 48 73 45 74 67 75 68 76
REMARK SMILES IDX 73 77 69 78 70 79 72 80 74 81 71 82 55 83 56 84 61 85 57 86
REMARK SMILES IDX 58 87 60 88 62 89 59 90
REMARK H PARENT 13 15 7 23 79 52 53 63
REMARK Flexibility Score: inf
ROOT
ATOM      1  O   UNL     1      -2.039  -2.702  -8.045  1.00  0.00    -0.376 OA
ENDROOT
BRANCH   1   2
ATOM      2  C   UNL     1      -3.249  -3.186  -7.503  1.00  0.00     0.202 C 
BRANCH   2   3
ATOM      3  C   UNL     1      -3.159  -4.162  -6.331  1.00  0.00     0.261 C 
BRANCH   3   4
ATOM      4  O   UNL     1      -2.158  -3.863  -5.349  1.00  0.00    -0.463 OA
BRANCH   4   5
ATOM      5  C   UNL     1      -1.057  -4.679  -5.366  1.00  0.00     0.312 C 
ATOM      6  O   UNL     1      -0.822  -5.510  -6.227  1.00  0.00    -0.252 OA
BRANCH   5   7
ATOM      7  C   UNL     1      -0.252  -4.521  -4.069  1.00  0.00     0.124 C 
ATOM      8  C   UNL     1       1.477  -2.739  -3.922  1.00  0.00     0.107 C 
ATOM      9  C   UNL     1       2.062  -4.110  -4.131  1.00  0.00    -0.006 C 
ATOM     10  C   UNL     1       0.009  -3.072  -3.652  1.00  0.00     0.048 C 
ATOM     11  C   UNL     1       1.132  -5.068  -4.197  1.00  0.00    -0.014 C 
BRANCH   8  12
ATOM     12  N   UNL     1       2.229  -2.121  -2.844  1.00  0.00    -0.332 N 
ATOM     13  C   UNL     1       2.182  -1.104  -1.979  1.00  0.00     0.318 C 
ATOM     14  O   UNL     1       3.210  -0.985  -1.298  1.00  0.00    -0.249 OA
ATOM     15  H   UNL     1       3.062  -2.627  -2.701  1.00  0.00     0.165 HD
BRANCH  13  16
ATOM     16  N   UNL     1       1.121  -0.266  -1.784  1.00  0.00    -0.316 N 
BRANCH  16  17
ATOM     17  C   UNL     1       1.169   0.603  -0.602  1.00  0.00     0.118 C 
ATOM     18  C   UNL     1       1.268  -0.165   0.713  1.00  0.00     0.027 C 
ENDBRANCH  16  17
BRANCH  16  19
ATOM     19  C   UNL     1       0.086   0.069  -2.751  1.00  0.00     0.221 C 
BRANCH  19  20
ATOM     20  C   UNL     1       0.647   0.807  -3.962  1.00  0.00     0.239 C 
ATOM     21  O   UNL     1       1.559   0.327  -4.634  1.00  0.00    -0.273 OA
ATOM     22  N   UNL     1       0.082   1.975  -4.381  1.00  0.00    -0.352 N 
ATOM     23  H   UNL     1       0.069   2.129  -5.353  1.00  0.00     0.163 HD
BRANCH  22  24
ATOM     24  C   UNL     1      -0.504   3.017  -3.553  1.00  0.00     0.075 C 
ATOM     25  C   UNL     1       0.515   4.148  -3.422  1.00  0.00     0.030 C 
ATOM     26  C   UNL     1      -1.809   3.513  -4.161  1.00  0.00     0.030 C 
ENDBRANCH  22  24
ENDBRANCH  19  20
ENDBRANCH  16  19
ENDBRANCH  13  16
ENDBRANCH   8  12
ENDBRANCH   5   7
ENDBRANCH   4   5
ENDBRANCH   3   4
ENDBRANCH   2   3
ENDBRANCH   1   2
BRANCH   1  27
ATOM     27  C   UNL     1      -1.290  -1.723  -7.339  1.00  0.00     0.188 C 
BRANCH  27  28
ATOM     28  C   UNL     1      -1.958  -0.722  -6.373  1.00  0.00     0.188 C 
BRANCH  28  29
ATOM     29  O   UNL     1      -3.284  -0.322  -6.620  1.00  0.00    -0.376 OA
BRANCH  29  30
ATOM     30  C   UNL     1      -3.636   0.671  -7.559  1.00  0.00     0.202 C 
BRANCH  30  31
ATOM     31  C   UNL     1      -2.663   1.592  -8.308  1.00  0.00     0.261 C 
BRANCH  31  32
ATOM     32  O   UNL     1      -1.373   1.064  -8.622  1.00  0.00    -0.460 OA
BRANCH  32  33
ATOM     33  C   UNL     1      -0.338   1.817  -8.184  1.00  0.00     0.338 C 
ATOM     34  O   UNL     1      -0.387   2.819  -7.481  1.00  0.00    -0.246 OA
BRANCH  33  35
ATOM     35  C   UNL     1       0.946   1.216  -8.559  1.00  0.00     0.060 A 
ATOM     36  C   UNL     1       1.566   0.396  -7.621  1.00  0.00     0.016 A 
ATOM     37  C   UNL     1       1.627   1.612  -9.706  1.00  0.00     0.016 A 
ATOM     38  C   UNL     1       2.901   0.040  -7.762  1.00  0.00     0.010 A 
ATOM     39  C   UNL     1       2.955   1.201  -9.883  1.00  0.00     0.010 A 
ATOM     40  C   UNL     1       3.615   0.448  -8.892  1.00  0.00    -0.014 A 
BRANCH  40  41
ATOM     41  C   UNL     1       5.071   0.170  -8.993  1.00  0.00     0.031 A 
ATOM     42  C   UNL     1       6.048   1.313  -8.964  1.00  0.00     0.074 A 
ATOM     43  C   UNL     1       5.526  -1.093  -9.085  1.00  0.00     0.049 A 
ATOM     44  N   UNL     1       7.328   1.321  -9.238  1.00  0.00    -0.248 NA
ATOM     45  C   UNL     1       5.507   2.627  -8.580  1.00  0.00     0.031 C 
ATOM     46  C   UNL     1       4.701  -2.300  -9.026  1.00  0.00     0.029 A 
ATOM     47  N   UNL     1       6.803  -1.569  -9.255  1.00  0.00    -0.354 N 
ATOM     48  C   UNL     1       7.735   2.642  -9.105  1.00  0.00     0.074 A 
ATOM     49  C   UNL     1       6.567   3.409  -8.727  1.00  0.00     0.031 C 
ATOM     50  C   UNL     1       5.491  -3.377  -9.160  1.00  0.00     0.029 A 
ATOM     51  C   UNL     1       6.863  -2.935  -9.389  1.00  0.00     0.049 A 
ATOM     52  H   UNL     1       7.597  -0.989  -9.279  1.00  0.00     0.167 HD
ATOM     53  C   UNL     1       8.971   3.166  -9.287  1.00  0.00     0.037 A 
ATOM     54  C   UNL     1       7.897  -3.735  -9.714  1.00  0.00     0.037 A 
ATOM     55  C   UNL     1      10.137   2.390  -9.620  1.00  0.00     0.049 A 
ATOM     56  C   UNL     1       9.242  -3.122  -9.992  1.00  0.00     0.074 A 
ATOM     57  C   UNL     1      11.435   2.826  -9.825  1.00  0.00     0.029 A 
ATOM     58  N   UNL     1      10.147   1.014  -9.787  1.00  0.00    -0.354 N 
ATOM     59  N   UNL     1       9.610  -1.865  -9.925  1.00  0.00    -0.248 NA
ATOM     60  C   UNL     1      10.313  -4.038 -10.410  1.00  0.00     0.031 C 
ATOM     61  C   UNL     1      12.222   1.718 -10.158  1.00  0.00     0.029 A 
ATOM     62  C   UNL     1      11.424   0.587 -10.114  1.00  0.00     0.049 A 
ATOM     63  H   UNL     1       9.363   0.427  -9.687  1.00  0.00     0.167 HD
ATOM     64  C   UNL     1      10.956  -1.843 -10.267  1.00  0.00     0.074 A 
ATOM     65  C   UNL     1      11.344  -3.214 -10.529  1.00  0.00     0.031 C 
ATOM     66  C   UNL     1      11.796  -0.783 -10.358  1.00  0.00     0.037 A 
BRANCH  53  67
ATOM     67  C   UNL     1       9.116   4.655  -9.179  1.00  0.00     0.057 A 
ATOM     68  C   UNL     1       9.070   5.326  -7.951  1.00  0.00     0.134 A 
ATOM     69  C   UNL     1       9.334   5.426 -10.329  1.00  0.00     0.134 A 
ATOM     70  F   UNL     1       8.849   4.650  -6.814  1.00  0.00    -0.206 F 
ATOM     71  C   UNL     1       9.213   6.713  -7.873  1.00  0.00     0.040 A 
ATOM     72  C   UNL     1       9.504   6.809 -10.261  1.00  0.00     0.040 A 
ATOM     73  F   UNL     1       9.394   4.846 -11.537  1.00  0.00    -0.206 F 
ATOM     74  C   UNL     1       9.438   7.458  -9.030  1.00  0.00     0.006 A 
ENDBRANCH  53  67
BRANCH  54  75
ATOM     75  C   UNL     1       7.691  -5.199  -9.853  1.00  0.00     0.057 A 
ATOM     76  C   UNL     1       8.287  -6.103  -8.966  1.00  0.00     0.134 A 
ATOM     77  C   UNL     1       6.917  -5.731 -10.892  1.00  0.00     0.134 A 
ATOM     78  F   UNL     1       9.064  -5.656  -7.968  1.00  0.00    -0.206 F 
ATOM     79  C   UNL     1       8.134  -7.482  -9.116  1.00  0.00     0.040 A 
ATOM     80  C   UNL     1       6.731  -7.106 -11.036  1.00  0.00     0.040 A 
ATOM     81  F   UNL     1       6.322  -4.919 -11.778  1.00  0.00    -0.206 F 
ATOM     82  C   UNL     1       7.348  -7.987 -10.151  1.00  0.00     0.006 A 
ENDBRANCH  54  75
BRANCH  66  83
ATOM     83  C   UNL     1      13.224  -1.069 -10.715  1.00  0.00     0.057 A 
ATOM     84  C   UNL     1      13.605  -1.426 -12.014  1.00  0.00     0.134 A 
ATOM     85  C   UNL     1      14.236  -0.946  -9.754  1.00  0.00     0.134 A 
ATOM     86  F   UNL     1      12.683  -1.574 -12.977  1.00  0.00    -0.206 F 
ATOM     87  C   UNL     1      14.940  -1.672 -12.340  1.00  0.00     0.040 A 
ATOM     88  C   UNL     1      15.576  -1.165 -10.073  1.00  0.00     0.040 A 
ATOM     89  F   UNL     1      13.939  -0.599  -8.493  1.00  0.00    -0.206 F 
ATOM     90  C   UNL     1      15.931  -1.534 -11.369  1.00  0.00     0.006 A 
ENDBRANCH  66  83
ENDBRANCH  40  41
ENDBRANCH  33  35
ENDBRANCH  32  33
ENDBRANCH  31  32
ENDBRANCH  30  31
ENDBRANCH  29  30
ENDBRANCH  28  29
ENDBRANCH  27  28
ENDBRANCH   1  27
TORSDOF 23
