REMARK SMILES CC1=C(C)C[C@@H](C(=O)OCCOCCOCCOC(=O)c2ccc(-c3c4nc(c(-c5c(F)cccc5F)c5ccc([nH]5)c(-c5c(F)cccc5F)c5nc(c(-c6c(F)cccc6F)c6ccc3[nH]6)C=C5)C=C4)cc2)[C@@H](C(=O)NCC[NH+]2CCOCC2)C1
REMARK SMILES IDX 13 1 12 2 11 3 10 4 9 5 7 6 8 7 6 8 1 9 2 10 3 11 87 12 4 13
REMARK SMILES IDX 5 14 75 15 76 16 77 17 78 18 79 20 80 21 81 22 82 23 86 24
REMARK SMILES IDX 83 26 85 27 84 28 14 29 15 30 16 31 17 32 18 33 19 34 20 35
REMARK SMILES IDX 21 36 22 37 74 38 23 39 73 40 24 41 25 42 26 43 67 44 27 45
REMARK SMILES IDX 72 46 66 47 68 48 28 49 71 50 65 51 64 52 29 54 55 55 38 56
REMARK SMILES IDX 54 57 39 58 42 59 53 60 69 61 40 62 41 63 52 65 70 66 43 67
REMARK SMILES IDX 30 68 31 69 36 70 32 71 33 72 35 73 37 74 34 75 56 76 57 77
REMARK SMILES IDX 62 78 58 79 59 80 61 81 63 82 60 83 44 84 45 85 50 86 46 87
REMARK SMILES IDX 47 88 49 89 51 90 48 91
REMARK H PARENT 78 19 81 25 68 53 42 64
REMARK Flexibility Score: inf
ROOT
ATOM      1  C   UNL     1      -3.528  -0.201  -5.908  1.00  0.00     0.188 C 
ENDROOT
BRANCH   1   2
ATOM      2  O   UNL     1      -4.149  -1.466  -5.684  1.00  0.00    -0.376 OA
BRANCH   2   3
ATOM      3  C   UNL     1      -4.790  -1.722  -4.440  1.00  0.00     0.202 C 
BRANCH   3   4
ATOM      4  C   UNL     1      -3.872  -2.199  -3.294  1.00  0.00     0.261 C 
BRANCH   4   5
ATOM      5  O   UNL     1      -2.707  -1.395  -2.981  1.00  0.00    -0.463 OA
BRANCH   5   6
ATOM      6  C   UNL     1      -1.617  -1.625  -3.740  1.00  0.00     0.310 C 
ATOM      7  O   UNL     1      -1.581  -2.508  -4.600  1.00  0.00    -0.252 OA
BRANCH   6   8
ATOM      8  C   UNL     1      -0.361  -0.765  -3.506  1.00  0.00     0.116 C 
ATOM      9  C   UNL     1       1.345  -0.015   0.432  1.00  0.00     0.039 C 
ATOM     10  C   UNL     1       1.085  -0.360  -1.003  1.00  0.00    -0.074 C 
ATOM     11  C   UNL     1       0.931  -1.607  -1.490  1.00  0.00    -0.073 C 
ATOM     12  C   UNL     1       1.011   0.801  -1.969  1.00  0.00     0.045 C 
ATOM     13  C   UNL     1       1.022  -2.891  -0.719  1.00  0.00     0.039 C 
ATOM     14  C   UNL     1       0.691  -1.762  -2.966  1.00  0.00     0.046 C 
ATOM     15  C   UNL     1      -0.194   0.701  -2.935  1.00  0.00     0.097 C 
BRANCH  15  16
ATOM     16  C   UNL     1      -1.355   1.476  -2.294  1.00  0.00     0.224 C 
ATOM     17  O   UNL     1      -2.212   0.925  -1.606  1.00  0.00    -0.275 OA
ATOM     18  N   UNL     1      -1.449   2.849  -2.443  1.00  0.00    -0.350 N 
ATOM     19  H   UNL     1      -2.357   3.208  -2.317  1.00  0.00     0.163 HD
BRANCH  18  20
ATOM     20  C   UNL     1      -0.432   3.869  -2.756  1.00  0.00     0.177 C 
BRANCH  20  21
ATOM     21  C   UNL     1      -0.817   4.970  -3.799  1.00  0.00     0.283 C 
BRANCH  21  22
ATOM     22  N   UNL     1      -1.477   6.228  -3.363  1.00  0.00    -0.330 N 
ATOM     23  C   UNL     1      -2.718   6.080  -2.584  1.00  0.00     0.291 C 
ATOM     24  C   UNL     1      -1.804   7.104  -4.527  1.00  0.00     0.291 C 
ATOM     25  H   UNL     1      -0.776   6.636  -2.746  1.00  0.00     0.348 HD
ATOM     26  C   UNL     1      -3.894   5.591  -3.421  1.00  0.00     0.221 C 
ATOM     27  C   UNL     1      -3.045   6.700  -5.345  1.00  0.00     0.221 C 
ATOM     28  O   UNL     1      -4.193   6.445  -4.527  1.00  0.00    -0.370 OA
ENDBRANCH  21  22
ENDBRANCH  20  21
ENDBRANCH  18  20
ENDBRANCH  15  16
ENDBRANCH   6   8
ENDBRANCH   5   6
ENDBRANCH   4   5
ENDBRANCH   3   4
ENDBRANCH   2   3
ENDBRANCH   1   2
BRANCH   1  29
ATOM     29  C   UNL     1      -3.455   0.801  -4.762  1.00  0.00     0.188 C 
BRANCH  29  30
ATOM     30  O   UNL     1      -4.717   0.997  -4.164  1.00  0.00    -0.376 OA
BRANCH  30  31
ATOM     31  C   UNL     1      -5.250   2.294  -4.184  1.00  0.00     0.202 C 
BRANCH  31  32
ATOM     32  C   UNL     1      -5.779   2.748  -5.552  1.00  0.00     0.261 C 
BRANCH  32  33
ATOM     33  O   UNL     1      -4.920   2.649  -6.711  1.00  0.00    -0.460 OA
BRANCH  33  34
ATOM     34  C   UNL     1      -3.715   3.237  -6.622  1.00  0.00     0.338 C 
ATOM     35  O   UNL     1      -3.234   3.752  -5.638  1.00  0.00    -0.246 OA
BRANCH  34  36
ATOM     36  C   UNL     1      -2.880   3.057  -7.804  1.00  0.00     0.060 A 
ATOM     37  C   UNL     1      -1.551   2.642  -7.610  1.00  0.00     0.016 A 
ATOM     38  C   UNL     1      -3.350   3.431  -9.057  1.00  0.00     0.016 A 
ATOM     39  C   UNL     1      -0.683   2.592  -8.689  1.00  0.00     0.010 A 
ATOM     40  C   UNL     1      -2.480   3.372 -10.138  1.00  0.00     0.010 A 
ATOM     41  C   UNL     1      -1.150   2.951  -9.958  1.00  0.00    -0.014 A 
BRANCH  41  42
ATOM     42  C   UNL     1      -0.266   2.858 -11.132  1.00  0.00     0.031 A 
ATOM     43  C   UNL     1       0.239   4.104 -11.785  1.00  0.00     0.074 A 
ATOM     44  C   UNL     1       0.005   1.639 -11.627  1.00  0.00     0.049 A 
ATOM     45  N   UNL     1       0.854   4.244 -12.928  1.00  0.00    -0.248 NA
ATOM     46  C   UNL     1       0.010   5.364 -11.060  1.00  0.00     0.031 C 
ATOM     47  C   UNL     1      -0.421   0.372 -11.026  1.00  0.00     0.029 A 
ATOM     48  N   UNL     1       0.676   1.265 -12.758  1.00  0.00    -0.354 N 
ATOM     49  C   UNL     1       1.073   5.607 -13.073  1.00  0.00     0.074 A 
ATOM     50  C   UNL     1       0.506   6.255 -11.909  1.00  0.00     0.031 C 
ATOM     51  C   UNL     1      -0.012  -0.640 -11.804  1.00  0.00     0.029 A 
ATOM     52  C   UNL     1       0.646  -0.089 -12.982  1.00  0.00     0.049 A 
ATOM     53  H   UNL     1       1.135   1.903 -13.352  1.00  0.00     0.167 HD
ATOM     54  C   UNL     1       1.691   6.247 -14.093  1.00  0.00     0.037 A 
ATOM     55  C   UNL     1       1.064  -0.797 -14.046  1.00  0.00     0.037 A 
ATOM     56  C   UNL     1       2.228   5.569 -15.245  1.00  0.00     0.049 A 
ATOM     57  C   UNL     1       1.679  -0.055 -15.197  1.00  0.00     0.074 A 
ATOM     58  C   UNL     1       2.868   6.108 -16.346  1.00  0.00     0.029 A 
ATOM     59  N   UNL     1       2.177   4.195 -15.444  1.00  0.00    -0.354 N 
ATOM     60  N   UNL     1       1.875   1.235 -15.337  1.00  0.00    -0.248 NA
ATOM     61  C   UNL     1       2.126  -0.862 -16.337  1.00  0.00     0.031 C 
ATOM     62  C   UNL     1       3.163   5.065 -17.232  1.00  0.00     0.029 A 
ATOM     63  C   UNL     1       2.760   3.869 -16.657  1.00  0.00     0.049 A 
ATOM     64  H   UNL     1       1.784   3.547 -14.815  1.00  0.00     0.167 HD
ATOM     65  C   UNL     1       2.496   1.394 -16.568  1.00  0.00     0.074 A 
ATOM     66  C   UNL     1       2.652   0.064 -17.126  1.00  0.00     0.031 C 
ATOM     67  C   UNL     1       2.902   2.532 -17.182  1.00  0.00     0.037 A 
BRANCH  54  68
ATOM     68  C   UNL     1       1.786   7.745 -14.020  1.00  0.00     0.057 A 
ATOM     69  C   UNL     1       2.610   8.392 -13.089  1.00  0.00     0.134 A 
ATOM     70  C   UNL     1       1.061   8.552 -14.906  1.00  0.00     0.134 A 
ATOM     71  F   UNL     1       3.319   7.681 -12.199  1.00  0.00    -0.206 F 
ATOM     72  C   UNL     1       2.691   9.785 -13.027  1.00  0.00     0.040 A 
ATOM     73  C   UNL     1       1.155   9.945 -14.871  1.00  0.00     0.040 A 
ATOM     74  F   UNL     1       0.253   8.002 -15.824  1.00  0.00    -0.206 F 
ATOM     75  C   UNL     1       1.967  10.566 -13.925  1.00  0.00     0.006 A 
ENDBRANCH  54  68
BRANCH  55  76
ATOM     76  C   UNL     1       0.906  -2.271 -14.061  1.00  0.00     0.057 A 
ATOM     77  C   UNL     1       2.019  -3.114 -13.975  1.00  0.00     0.134 A 
ATOM     78  C   UNL     1      -0.356  -2.875 -14.127  1.00  0.00     0.134 A 
ATOM     79  F   UNL     1       3.255  -2.595 -13.922  1.00  0.00    -0.206 F 
ATOM     80  C   UNL     1       1.886  -4.503 -13.967  1.00  0.00     0.040 A 
ATOM     81  C   UNL     1      -0.506  -4.262 -14.091  1.00  0.00     0.040 A 
ATOM     82  F   UNL     1      -1.465  -2.123 -14.199  1.00  0.00    -0.206 F 
ATOM     83  C   UNL     1       0.619  -5.081 -14.017  1.00  0.00     0.006 A 
ENDBRANCH  55  76
BRANCH  67  84
ATOM     84  C   UNL     1       3.593   2.376 -18.505  1.00  0.00     0.057 A 
ATOM     85  C   UNL     1       2.900   2.007 -19.665  1.00  0.00     0.134 A 
ATOM     86  C   UNL     1       4.965   2.629 -18.620  1.00  0.00     0.134 A 
ATOM     87  F   UNL     1       1.587   1.736 -19.616  1.00  0.00    -0.206 F 
ATOM     88  C   UNL     1       3.555   1.869 -20.889  1.00  0.00     0.040 A 
ATOM     89  C   UNL     1       5.625   2.525 -19.844  1.00  0.00     0.040 A 
ATOM     90  F   UNL     1       5.684   2.995 -17.548  1.00  0.00    -0.206 F 
ATOM     91  C   UNL     1       4.920   2.136 -20.982  1.00  0.00     0.006 A 
ENDBRANCH  67  84
ENDBRANCH  41  42
ENDBRANCH  34  36
ENDBRANCH  33  34
ENDBRANCH  32  33
ENDBRANCH  31  32
ENDBRANCH  30  31
ENDBRANCH  29  30
ENDBRANCH   1  29
TORSDOF 21
