REMARK SMILES CS(=O)(=O)c1ccc(C2=NN(c3ccc(C(=O)OCCOCCOCCOC(=O)c4ccc(-c5c6nc(c(-c7c(F)cccc7F)c7ccc([nH]7)c(-c7c(F)cccc7F)c7nc(c(-c8c(F)cccc8F)c8ccc5[nH]8)C=C7)C=C6)cc4)cc3)[C@H](c3ccc(F)cc3)C2)cc1
REMARK SMILES IDX 22 1 21 2 20 3 19 4 18 5 16 6 17 7 15 8 12 9 13 10 85 11
REMARK SMILES IDX 14 12 84 13 11 14 9 15 10 16 94 17 86 18 8 19 5 20 6 21
REMARK SMILES IDX 96 22 7 23 95 24 2 25 1 26 3 27 4 28 87 29 88 30 93 31 89 32
REMARK SMILES IDX 92 33 90 34 91 35 23 36 24 37 25 38 26 39 27 40 28 41 29 42
REMARK SMILES IDX 30 43 31 44 83 45 32 46 82 47 33 48 34 49 35 50 76 51 36 52
REMARK SMILES IDX 81 53 75 54 77 55 37 56 80 57 74 58 73 59 38 61 64 62 47 63
REMARK SMILES IDX 63 64 48 65 51 66 62 67 78 68 49 69 50 70 61 72 79 73 52 74
REMARK SMILES IDX 39 75 40 76 45 77 41 78 42 79 44 80 46 81 43 82 65 83 66 84
REMARK SMILES IDX 71 85 67 86 68 87 70 88 72 89 69 90 53 91 54 92 59 93 55 94
REMARK SMILES IDX 56 95 58 96 60 97 57 98
REMARK H PARENT 77 60 51 71
REMARK Flexibility Score: inf
ROOT
ATOM      1  C   UNL     1       1.650   3.793 -14.472  1.00  0.00     0.188 C 
ENDROOT
BRANCH   1   2
ATOM      2  O   UNL     1       1.728   4.380 -15.766  1.00  0.00    -0.376 OA
BRANCH   2   3
ATOM      3  C   UNL     1       2.837   5.203 -16.109  1.00  0.00     0.202 C 
BRANCH   3   4
ATOM      4  C   UNL     1       3.234   6.372 -15.196  1.00  0.00     0.261 C 
BRANCH   4   5
ATOM      5  O   UNL     1       3.401   6.018 -13.815  1.00  0.00    -0.460 OA
BRANCH   5   6
ATOM      6  C   UNL     1       2.514   6.573 -12.953  1.00  0.00     0.338 C 
ATOM      7  O   UNL     1       1.648   7.390 -13.221  1.00  0.00    -0.246 OA
BRANCH   6   8
ATOM      8  C   UNL     1       2.629   5.944 -11.613  1.00  0.00     0.060 A 
ATOM      9  C   UNL     1       2.761   4.919  -8.998  1.00  0.00     0.060 A 
ATOM     10  C   UNL     1       1.533   5.310  -9.540  1.00  0.00     0.029 A 
ATOM     11  C   UNL     1       3.897   4.941  -9.822  1.00  0.00     0.029 A 
ATOM     12  C   UNL     1       1.467   5.826 -10.838  1.00  0.00     0.018 A 
ATOM     13  C   UNL     1       3.844   5.466 -11.116  1.00  0.00     0.018 A 
BRANCH   9  14
ATOM     14  N   UNL     1       2.911   4.676  -7.631  1.00  0.00    -0.257 N 
ATOM     15  C   UNL     1       2.175   3.873  -5.799  1.00  0.00     0.071 C 
ATOM     16  N   UNL     1       2.353   3.582  -7.051  1.00  0.00    -0.176 NA
ATOM     17  C   UNL     1       2.454   5.302  -5.417  1.00  0.00     0.091 C 
ATOM     18  C   UNL     1       3.083   5.818  -6.718  1.00  0.00     0.144 C 
BRANCH  15  19
ATOM     19  C   UNL     1       1.729   2.882  -4.798  1.00  0.00    -0.002 A 
ATOM     20  C   UNL     1       0.936   0.942  -2.954  1.00  0.00     0.067 A 
ATOM     21  C   UNL     1       1.788   0.590  -4.004  1.00  0.00     0.021 A 
ATOM     22  C   UNL     1       0.473   2.256  -2.822  1.00  0.00     0.021 A 
ATOM     23  C   UNL     1       2.176   1.561  -4.930  1.00  0.00     0.011 A 
ATOM     24  C   UNL     1       0.884   3.233  -3.738  1.00  0.00     0.011 A 
BRANCH  20  25
ATOM     25  S   UNL     1       0.360  -0.309  -1.825  1.00  0.00     0.175 S 
ATOM     26  C   UNL     1       1.078   0.137  -0.268  1.00  0.00     0.163 C 
ATOM     27  O   UNL     1       0.949  -1.572  -2.228  1.00  0.00    -0.224 OA
ATOM     28  O   UNL     1      -1.077  -0.150  -1.723  1.00  0.00    -0.224 OA
ENDBRANCH  20  25
ENDBRANCH  15  19
BRANCH  18  29
ATOM     29  C   UNL     1       4.548   6.243  -6.689  1.00  0.00    -0.023 A 
ATOM     30  C   UNL     1       5.479   5.768  -5.753  1.00  0.00     0.009 A 
ATOM     31  C   UNL     1       5.018   7.086  -7.721  1.00  0.00     0.009 A 
ATOM     32  C   UNL     1       6.832   6.113  -5.856  1.00  0.00     0.039 A 
ATOM     33  C   UNL     1       6.373   7.392  -7.849  1.00  0.00     0.039 A 
ATOM     34  C   UNL     1       7.268   6.903  -6.911  1.00  0.00     0.123 A 
ATOM     35  F   UNL     1       8.572   7.186  -7.032  1.00  0.00    -0.207 F 
ENDBRANCH  18  29
ENDBRANCH   9  14
ENDBRANCH   6   8
ENDBRANCH   5   6
ENDBRANCH   4   5
ENDBRANCH   3   4
ENDBRANCH   2   3
ENDBRANCH   1   2
BRANCH   1  36
ATOM     36  C   UNL     1       2.879   3.085 -13.864  1.00  0.00     0.188 C 
BRANCH  36  37
ATOM     37  O   UNL     1       4.037   3.132 -14.660  1.00  0.00    -0.376 OA
BRANCH  37  38
ATOM     38  C   UNL     1       4.368   2.036 -15.493  1.00  0.00     0.202 C 
BRANCH  38  39
ATOM     39  C   UNL     1       3.355   1.031 -16.080  1.00  0.00     0.261 C 
BRANCH  39  40
ATOM     40  O   UNL     1       2.024   1.020 -15.557  1.00  0.00    -0.460 OA
BRANCH  40  41
ATOM     41  C   UNL     1       1.755   0.098 -14.605  1.00  0.00     0.338 C 
ATOM     42  O   UNL     1       2.531  -0.696 -14.100  1.00  0.00    -0.246 OA
BRANCH  41  43
ATOM     43  C   UNL     1       0.370   0.307 -14.141  1.00  0.00     0.060 A 
ATOM     44  C   UNL     1       0.151   0.764 -12.835  1.00  0.00     0.016 A 
ATOM     45  C   UNL     1      -0.707   0.035 -14.988  1.00  0.00     0.016 A 
ATOM     46  C   UNL     1      -1.152   0.929 -12.364  1.00  0.00     0.010 A 
ATOM     47  C   UNL     1      -2.011   0.182 -14.508  1.00  0.00     0.010 A 
ATOM     48  C   UNL     1      -2.240   0.604 -13.185  1.00  0.00    -0.014 A 
BRANCH  48  49
ATOM     49  C   UNL     1      -3.608   0.536 -12.617  1.00  0.00     0.031 A 
ATOM     50  C   UNL     1      -4.148  -0.804 -12.200  1.00  0.00     0.074 A 
ATOM     51  C   UNL     1      -4.361   1.641 -12.471  1.00  0.00     0.049 A 
ATOM     52  N   UNL     1      -5.334  -1.120 -11.747  1.00  0.00    -0.248 NA
ATOM     53  C   UNL     1      -3.224  -1.943 -12.317  1.00  0.00     0.031 C 
ATOM     54  C   UNL     1      -3.942   3.001 -12.801  1.00  0.00     0.029 A 
ATOM     55  N   UNL     1      -5.649   1.784 -12.016  1.00  0.00    -0.354 N 
ATOM     56  C   UNL     1      -5.301  -2.492 -11.530  1.00  0.00     0.074 A 
ATOM     57  C   UNL     1      -3.989  -2.953 -11.931  1.00  0.00     0.031 C 
ATOM     58  C   UNL     1      -4.962   3.841 -12.553  1.00  0.00     0.029 A 
ATOM     59  C   UNL     1      -6.113   3.075 -12.079  1.00  0.00     0.049 A 
ATOM     60  H   UNL     1      -6.188   1.033 -11.678  1.00  0.00     0.167 HD
ATOM     61  C   UNL     1      -6.272  -3.294 -11.034  1.00  0.00     0.037 A 
ATOM     62  C   UNL     1      -7.336   3.573 -11.808  1.00  0.00     0.037 A 
ATOM     63  C   UNL     1      -7.578  -2.837 -10.640  1.00  0.00     0.049 A 
ATOM     64  C   UNL     1      -8.426   2.647 -11.332  1.00  0.00     0.074 A 
ATOM     65  C   UNL     1      -8.625  -3.571 -10.111  1.00  0.00     0.029 A 
ATOM     66  N   UNL     1      -8.019  -1.526 -10.742  1.00  0.00    -0.354 N 
ATOM     67  N   UNL     1      -8.378   1.357 -11.104  1.00  0.00    -0.248 NA
ATOM     68  C   UNL     1      -9.743   3.250 -11.074  1.00  0.00     0.031 C 
ATOM     69  C   UNL     1      -9.717  -2.714  -9.942  1.00  0.00     0.029 A 
ATOM     70  C   UNL     1      -9.332  -1.435 -10.311  1.00  0.00     0.049 A 
ATOM     71  H   UNL     1      -7.478  -0.772 -11.072  1.00  0.00     0.167 HD
ATOM     72  C   UNL     1      -9.642   1.001 -10.646  1.00  0.00     0.074 A 
ATOM     73  C   UNL     1     -10.432   2.213 -10.619  1.00  0.00     0.031 C 
ATOM     74  C   UNL     1     -10.105  -0.219 -10.279  1.00  0.00     0.037 A 
BRANCH  61  75
ATOM     75  C   UNL     1      -5.963  -4.758 -10.918  1.00  0.00     0.057 A 
ATOM     76  C   UNL     1      -5.065  -5.253  -9.963  1.00  0.00     0.134 A 
ATOM     77  C   UNL     1      -6.591  -5.688 -11.756  1.00  0.00     0.134 A 
ATOM     78  F   UNL     1      -4.418  -4.415  -9.140  1.00  0.00    -0.206 F 
ATOM     79  C   UNL     1      -4.784  -6.617  -9.863  1.00  0.00     0.040 A 
ATOM     80  C   UNL     1      -6.340  -7.056 -11.647  1.00  0.00     0.040 A 
ATOM     81  F   UNL     1      -7.465  -5.282 -12.690  1.00  0.00    -0.206 F 
ATOM     82  C   UNL     1      -5.428  -7.524 -10.703  1.00  0.00     0.006 A 
ENDBRANCH  61  75
BRANCH  62  83
ATOM     83  C   UNL     1      -7.609   5.021 -11.993  1.00  0.00     0.057 A 
ATOM     84  C   UNL     1      -7.863   5.858 -10.900  1.00  0.00     0.134 A 
ATOM     85  C   UNL     1      -7.656   5.596 -13.269  1.00  0.00     0.134 A 
ATOM     86  F   UNL     1      -7.860   5.361  -9.654  1.00  0.00    -0.206 F 
ATOM     87  C   UNL     1      -8.172   7.209 -11.069  1.00  0.00     0.040 A 
ATOM     88  C   UNL     1      -7.936   6.952 -13.451  1.00  0.00     0.040 A 
ATOM     89  F   UNL     1      -7.426   4.849 -14.358  1.00  0.00    -0.206 F 
ATOM     90  C   UNL     1      -8.204   7.760 -12.348  1.00  0.00     0.006 A 
ENDBRANCH  62  83
BRANCH  74  91
ATOM     91  C   UNL     1     -11.517  -0.301  -9.772  1.00  0.00     0.057 A 
ATOM     92  C   UNL     1     -12.622  -0.159 -10.621  1.00  0.00     0.134 A 
ATOM     93  C   UNL     1     -11.773  -0.571  -8.421  1.00  0.00     0.134 A 
ATOM     94  F   UNL     1     -12.448   0.112 -11.923  1.00  0.00    -0.206 F 
ATOM     95  C   UNL     1     -13.929  -0.260 -10.140  1.00  0.00     0.040 A 
ATOM     96  C   UNL     1     -13.074  -0.702  -7.934  1.00  0.00     0.040 A 
ATOM     97  F   UNL     1     -10.761  -0.729  -7.554  1.00  0.00    -0.206 F 
ATOM     98  C   UNL     1     -14.157  -0.540  -8.794  1.00  0.00     0.006 A 
ENDBRANCH  74  91
ENDBRANCH  48  49
ENDBRANCH  41  43
ENDBRANCH  40  41
ENDBRANCH  39  40
ENDBRANCH  38  39
ENDBRANCH  37  38
ENDBRANCH  36  37
ENDBRANCH   1  36
TORSDOF 21
