REMARK SMILES NC(=O)N[C@@H](C(=O)N[C@@H](CO)C(=O)OCCOCCOCCOC(=O)c1ccc(-c2c3nc(c(-c4c(F)cccc4F)c4ccc([nH]4)c(-c4c(F)cccc4F)c4nc(c(-c5c(F)cccc5F)c5ccc2[nH]5)C=C4)C=C3)cc1)c1ccccc1
REMARK SMILES IDX 18 1 17 2 16 3 15 4 14 5 12 6 13 7 9 8 8 9 6 10 7 11 5 13
REMARK SMILES IDX 4 14 1 15 2 16 3 19 80 21 81 22 85 23 82 24 84 25 83 26
REMARK SMILES IDX 10 27 11 28 19 30 20 31 21 32 22 33 23 34 24 35 25 36 26 37
REMARK SMILES IDX 27 38 79 39 28 40 78 41 29 42 30 43 31 44 72 45 32 46 77 47
REMARK SMILES IDX 71 48 73 49 33 50 76 51 70 52 69 53 34 55 60 56 43 57 59 58
REMARK SMILES IDX 44 59 47 60 58 61 74 62 45 63 46 64 57 66 75 67 48 68 35 69
REMARK SMILES IDX 36 70 41 71 37 72 38 73 40 74 42 75 39 76 61 77 62 78 67 79
REMARK SMILES IDX 63 80 64 81 66 82 68 83 65 84 49 85 50 86 55 87 51 88 52 89
REMARK SMILES IDX 54 90 56 91 53 92
REMARK H PARENT 8 12 1 17 1 18 4 20 11 29 73 54 47 65
REMARK Flexibility Score: inf
ROOT
ATOM      1  C   UNL     1       4.433  -0.190  -2.858  1.00  0.00     0.188 C 
ENDROOT
BRANCH   1   2
ATOM      2  O   UNL     1       4.475  -1.078  -3.968  1.00  0.00    -0.376 OA
BRANCH   2   3
ATOM      3  C   UNL     1       4.249  -0.567  -5.276  1.00  0.00     0.202 C 
BRANCH   3   4
ATOM      4  C   UNL     1       2.905   0.121  -5.539  1.00  0.00     0.261 C 
BRANCH   4   5
ATOM      5  O   UNL     1       2.562   1.150  -4.586  1.00  0.00    -0.462 OA
BRANCH   5   6
ATOM      6  C   UNL     1       1.344   1.015  -3.995  1.00  0.00     0.331 C 
ATOM      7  O   UNL     1       0.545   0.121  -4.258  1.00  0.00    -0.250 OA
BRANCH   6   8
ATOM      8  C   UNL     1       1.054   2.062  -2.899  1.00  0.00     0.218 C 
BRANCH   8   9
ATOM      9  N   UNL     1       2.086   3.045  -2.519  1.00  0.00    -0.339 N 
ATOM     10  C   UNL     1       2.537   3.467  -1.289  1.00  0.00     0.248 C 
ATOM     11  O   UNL     1       3.467   4.279  -1.330  1.00  0.00    -0.272 OA
ATOM     12  H   UNL     1       2.532   3.477  -3.282  1.00  0.00     0.164 HD
BRANCH  10  13
ATOM     13  C   UNL     1       2.097   2.769   0.046  1.00  0.00     0.203 C 
BRANCH  13  14
ATOM     14  N   UNL     1       0.669   2.504   0.142  1.00  0.00    -0.322 N 
ATOM     15  N   UNL     1       0.729   0.197   0.290  1.00  0.00    -0.352 N 
ATOM     16  C   UNL     1       0.011   1.335   0.263  1.00  0.00     0.313 C 
ATOM     17  H   UNL     1       0.273  -0.671   0.378  1.00  0.00     0.161 HD
ATOM     18  H   UNL     1       1.710   0.232   0.223  1.00  0.00     0.161 HD
ATOM     19  O   UNL     1      -1.213   1.305   0.269  1.00  0.00    -0.249 OA
ATOM     20  H   UNL     1       0.095   3.303   0.114  1.00  0.00     0.166 HD
ENDBRANCH  13  14
BRANCH  13  21
ATOM     21  C   UNL     1       2.546   3.416   1.359  1.00  0.00    -0.016 A 
ATOM     22  C   UNL     1       2.682   2.598   2.500  1.00  0.00     0.006 A 
ATOM     23  C   UNL     1       2.760   4.791   1.524  1.00  0.00     0.006 A 
ATOM     24  C   UNL     1       3.111   3.111   3.727  1.00  0.00     0.000 A 
ATOM     25  C   UNL     1       3.169   5.311   2.760  1.00  0.00     0.000 A 
ATOM     26  C   UNL     1       3.362   4.471   3.854  1.00  0.00     0.000 A 
ENDBRANCH  13  21
ENDBRANCH  10  13
ENDBRANCH   8   9
BRANCH   8  27
ATOM     27  C   UNL     1      -0.224   2.803  -3.307  1.00  0.00     0.193 C 
BRANCH  27  28
ATOM     28  O   UNL     1       0.049   3.719  -4.373  1.00  0.00    -0.394 OA
ATOM     29  H   UNL     1       0.705   4.370  -4.079  1.00  0.00     0.210 HD
ENDBRANCH  27  28
ENDBRANCH   8  27
ENDBRANCH   6   8
ENDBRANCH   5   6
ENDBRANCH   4   5
ENDBRANCH   3   4
ENDBRANCH   2   3
ENDBRANCH   1   2
BRANCH   1  30
ATOM     30  C   UNL     1       4.987   1.241  -2.991  1.00  0.00     0.188 C 
BRANCH  30  31
ATOM     31  O   UNL     1       5.766   1.463  -4.150  1.00  0.00    -0.376 OA
BRANCH  31  32
ATOM     32  C   UNL     1       7.090   1.914  -3.917  1.00  0.00     0.202 C 
BRANCH  32  33
ATOM     33  C   UNL     1       8.021   0.814  -3.392  1.00  0.00     0.261 C 
BRANCH  33  34
ATOM     34  O   UNL     1       7.557   0.156  -2.196  1.00  0.00    -0.460 OA
BRANCH  34  35
ATOM     35  C   UNL     1       7.718   0.824  -1.038  1.00  0.00     0.338 C 
ATOM     36  O   UNL     1       8.235   1.928  -0.889  1.00  0.00    -0.246 OA
BRANCH  35  37
ATOM     37  C   UNL     1       7.008   0.099   0.031  1.00  0.00     0.060 A 
ATOM     38  C   UNL     1       5.848   0.665   0.569  1.00  0.00     0.016 A 
ATOM     39  C   UNL     1       7.511  -1.098   0.550  1.00  0.00     0.016 A 
ATOM     40  C   UNL     1       5.211   0.050   1.646  1.00  0.00     0.010 A 
ATOM     41  C   UNL     1       6.878  -1.698   1.650  1.00  0.00     0.010 A 
ATOM     42  C   UNL     1       5.743  -1.105   2.229  1.00  0.00    -0.014 A 
BRANCH  42  43
ATOM     43  C   UNL     1       5.249  -1.509   3.575  1.00  0.00     0.031 A 
ATOM     44  C   UNL     1       6.054  -1.100   4.781  1.00  0.00     0.074 A 
ATOM     45  C   UNL     1       4.061  -2.118   3.752  1.00  0.00     0.049 A 
ATOM     46  N   UNL     1       5.854  -1.365   6.048  1.00  0.00    -0.248 NA
ATOM     47  C   UNL     1       7.241  -0.272   4.520  1.00  0.00     0.031 C 
ATOM     48  C   UNL     1       3.128  -2.490   2.691  1.00  0.00     0.029 A 
ATOM     49  N   UNL     1       3.434  -2.521   4.908  1.00  0.00    -0.354 N 
ATOM     50  C   UNL     1       6.907  -0.766   6.728  1.00  0.00     0.074 A 
ATOM     51  C   UNL     1       7.746  -0.131   5.735  1.00  0.00     0.031 C 
ATOM     52  C   UNL     1       2.046  -3.066   3.245  1.00  0.00     0.029 A 
ATOM     53  C   UNL     1       2.228  -3.146   4.695  1.00  0.00     0.049 A 
ATOM     54  H   UNL     1       3.813  -2.376   5.804  1.00  0.00     0.167 HD
ATOM     55  C   UNL     1       7.158  -0.742   8.058  1.00  0.00     0.037 A 
ATOM     56  C   UNL     1       1.385  -3.739   5.564  1.00  0.00     0.037 A 
ATOM     57  C   UNL     1       6.316  -1.343   9.058  1.00  0.00     0.049 A 
ATOM     58  C   UNL     1       1.718  -3.761   7.036  1.00  0.00     0.074 A 
ATOM     59  C   UNL     1       6.495  -1.373  10.431  1.00  0.00     0.029 A 
ATOM     60  N   UNL     1       5.134  -2.015   8.794  1.00  0.00    -0.354 N 
ATOM     61  N   UNL     1       2.739  -3.230   7.663  1.00  0.00    -0.248 NA
ATOM     62  C   UNL     1       0.779  -4.472   7.919  1.00  0.00     0.031 C 
ATOM     63  C   UNL     1       5.439  -2.098  10.994  1.00  0.00     0.029 A 
ATOM     64  C   UNL     1       4.579  -2.476   9.976  1.00  0.00     0.049 A 
ATOM     65  H   UNL     1       4.746  -2.146   7.899  1.00  0.00     0.167 HD
ATOM     66  C   UNL     1       2.553  -3.521   9.011  1.00  0.00     0.074 A 
ATOM     67  C   UNL     1       1.314  -4.261   9.113  1.00  0.00     0.031 C 
ATOM     68  C   UNL     1       3.340  -3.205  10.070  1.00  0.00     0.037 A 
BRANCH  55  69
ATOM     69  C   UNL     1       8.427  -0.078   8.504  1.00  0.00     0.057 A 
ATOM     70  C   UNL     1       8.590   1.312   8.482  1.00  0.00     0.134 A 
ATOM     71  C   UNL     1       9.499  -0.849   8.971  1.00  0.00     0.134 A 
ATOM     72  F   UNL     1       7.608   2.105   8.026  1.00  0.00    -0.206 F 
ATOM     73  C   UNL     1       9.784   1.912   8.886  1.00  0.00     0.040 A 
ATOM     74  C   UNL     1      10.688  -0.260   9.403  1.00  0.00     0.040 A 
ATOM     75  F   UNL     1       9.407  -2.187   9.018  1.00  0.00    -0.206 F 
ATOM     76  C   UNL     1      10.835   1.124   9.354  1.00  0.00     0.006 A 
ENDBRANCH  55  69
BRANCH  56  77
ATOM     77  C   UNL     1       0.150  -4.405   5.073  1.00  0.00     0.057 A 
ATOM     78  C   UNL     1      -1.121  -3.910   5.387  1.00  0.00     0.134 A 
ATOM     79  C   UNL     1       0.213  -5.582   4.316  1.00  0.00     0.134 A 
ATOM     80  F   UNL     1      -1.248  -2.806   6.138  1.00  0.00    -0.206 F 
ATOM     81  C   UNL     1      -2.284  -4.567   4.978  1.00  0.00     0.040 A 
ATOM     82  C   UNL     1      -0.940  -6.234   3.879  1.00  0.00     0.040 A 
ATOM     83  F   UNL     1       1.401  -6.113   3.988  1.00  0.00    -0.206 F 
ATOM     84  C   UNL     1      -2.194  -5.731   4.217  1.00  0.00     0.006 A 
ENDBRANCH  56  77
BRANCH  68  85
ATOM     85  C   UNL     1       2.867  -3.620  11.434  1.00  0.00     0.057 A 
ATOM     86  C   UNL     1       2.881  -4.957  11.851  1.00  0.00     0.134 A 
ATOM     87  C   UNL     1       2.422  -2.662  12.355  1.00  0.00     0.134 A 
ATOM     88  F   UNL     1       3.287  -5.925  11.015  1.00  0.00    -0.206 F 
ATOM     89  C   UNL     1       2.444  -5.330  13.123  1.00  0.00     0.040 A 
ATOM     90  C   UNL     1       2.008  -3.020  13.639  1.00  0.00     0.040 A 
ATOM     91  F   UNL     1       2.394  -1.362  12.026  1.00  0.00    -0.206 F 
ATOM     92  C   UNL     1       2.011  -4.359  14.024  1.00  0.00     0.006 A 
ENDBRANCH  68  85
ENDBRANCH  42  43
ENDBRANCH  35  37
ENDBRANCH  34  35
ENDBRANCH  33  34
ENDBRANCH  32  33
ENDBRANCH  31  32
ENDBRANCH  30  31
ENDBRANCH   1  30
TORSDOF 23
