REMARK SMILES O=C(OCCOCCOCCOC(=O)[C@@H]1CCCN(c2ccc3cc(S(=O)(=O)N4CCCCC4)ccc3n2)C1)c1ccc(-c2c3nc(c(-c4c(F)cccc4F)c4ccc([nH]4)c(-c4c(F)cccc4F)c4nc(c(-c5c(F)cccc5F)c5ccc2[nH]5)C=C4)C=C3)cc1
REMARK SMILES IDX 8 1 7 2 6 3 5 4 4 5 3 6 2 7 1 8 40 9 41 10 93 11 42 12 92 13
REMARK SMILES IDX 43 14 44 15 45 16 86 17 46 18 91 19 85 20 87 21 47 22 90 23
REMARK SMILES IDX 84 24 83 25 48 27 74 28 57 29 73 30 58 31 61 32 72 33 88 34
REMARK SMILES IDX 59 35 60 36 71 38 89 39 62 40 49 41 50 42 55 43 51 44 52 45
REMARK SMILES IDX 54 46 56 47 53 48 75 49 76 50 81 51 77 52 78 53 80 54 82 55
REMARK SMILES IDX 79 56 63 57 64 58 69 59 65 60 66 61 68 62 70 63 67 64 9 65
REMARK SMILES IDX 10 66 11 67 12 68 13 69 14 70 15 71 16 72 39 73 17 74 19 75
REMARK SMILES IDX 18 76 20 77 21 78 38 79 22 80 37 81 23 82 36 83 24 84 35 85
REMARK SMILES IDX 25 86 26 87 27 88 28 89 29 90 30 91 34 92 31 93 33 94 32 95
REMARK H PARENT 87 26 61 37
REMARK Flexibility Score: inf
ROOT
ATOM      1  C   UNL     1       3.265  -1.885  -1.669  1.00  0.00     0.188 C 
ENDROOT
BRANCH   1   2
ATOM      2  C   UNL     1       4.003  -0.600  -1.284  1.00  0.00     0.188 C 
BRANCH   2   3
ATOM      3  O   UNL     1       5.283  -0.732  -0.668  1.00  0.00    -0.376 OA
BRANCH   3   4
ATOM      4  C   UNL     1       5.347  -1.546   0.495  1.00  0.00     0.202 C 
BRANCH   4   5
ATOM      5  C   UNL     1       4.788  -0.889   1.764  1.00  0.00     0.261 C 
BRANCH   5   6
ATOM      6  O   UNL     1       3.444  -0.420   1.564  1.00  0.00    -0.460 OA
BRANCH   6   7
ATOM      7  C   UNL     1       3.105   0.851   1.906  1.00  0.00     0.338 C 
ATOM      8  O   UNL     1       2.237   1.077   2.739  1.00  0.00    -0.246 OA
BRANCH   7   9
ATOM      9  C   UNL     1       3.576   1.947   0.997  1.00  0.00     0.060 A 
ATOM     10  C   UNL     1       4.864   2.010   0.456  1.00  0.00     0.016 A 
ATOM     11  C   UNL     1       2.673   2.981   0.692  1.00  0.00     0.016 A 
ATOM     12  C   UNL     1       5.251   3.064  -0.366  1.00  0.00     0.010 A 
ATOM     13  C   UNL     1       3.068   4.068  -0.100  1.00  0.00     0.010 A 
ATOM     14  C   UNL     1       4.376   4.126  -0.598  1.00  0.00    -0.014 A 
BRANCH  14  15
ATOM     15  C   UNL     1       4.980   5.393  -1.066  1.00  0.00     0.031 A 
ATOM     16  C   UNL     1       5.599   6.273  -0.017  1.00  0.00     0.074 A 
ATOM     17  C   UNL     1       5.120   5.674  -2.371  1.00  0.00     0.049 A 
ATOM     18  N   UNL     1       6.324   7.350  -0.157  1.00  0.00    -0.248 NA
ATOM     19  C   UNL     1       5.410   5.850   1.383  1.00  0.00     0.031 C 
ATOM     20  C   UNL     1       4.659   4.829  -3.468  1.00  0.00     0.029 A 
ATOM     21  N   UNL     1       5.712   6.740  -2.996  1.00  0.00    -0.354 N 
ATOM     22  C   UNL     1       6.707   7.707   1.128  1.00  0.00     0.074 A 
ATOM     23  C   UNL     1       6.114   6.756   2.039  1.00  0.00     0.031 C 
ATOM     24  C   UNL     1       4.969   5.417  -4.637  1.00  0.00     0.029 A 
ATOM     25  C   UNL     1       5.640   6.685  -4.366  1.00  0.00     0.049 A 
ATOM     26  H   UNL     1       6.149   7.476  -2.508  1.00  0.00     0.167 HD
ATOM     27  C   UNL     1       7.491   8.737   1.517  1.00  0.00     0.037 A 
ATOM     28  C   UNL     1       6.063   7.571  -5.289  1.00  0.00     0.037 A 
ATOM     29  C   UNL     1       8.012   9.721   0.612  1.00  0.00     0.049 A 
ATOM     30  C   UNL     1       6.795   8.802  -4.821  1.00  0.00     0.074 A 
ATOM     31  C   UNL     1       8.740  10.860   0.897  1.00  0.00     0.029 A 
ATOM     32  N   UNL     1       7.829   9.689  -0.763  1.00  0.00    -0.354 N 
ATOM     33  N   UNL     1       7.150   9.137  -3.603  1.00  0.00    -0.248 NA
ATOM     34  C   UNL     1       7.189   9.773  -5.850  1.00  0.00     0.031 C 
ATOM     35  C   UNL     1       8.953  11.546  -0.304  1.00  0.00     0.029 A 
ATOM     36  C   UNL     1       8.403  10.805  -1.341  1.00  0.00     0.049 A 
ATOM     37  H   UNL     1       7.359   8.976  -1.254  1.00  0.00     0.167 HD
ATOM     38  C   UNL     1       7.834  10.339  -3.720  1.00  0.00     0.074 A 
ATOM     39  C   UNL     1       7.849  10.672  -5.131  1.00  0.00     0.031 C 
ATOM     40  C   UNL     1       8.404  11.100  -2.752  1.00  0.00     0.037 A 
BRANCH  27  41
ATOM     41  C   UNL     1       7.745   8.864   2.988  1.00  0.00     0.057 A 
ATOM     42  C   UNL     1       8.594   7.982   3.670  1.00  0.00     0.134 A 
ATOM     43  C   UNL     1       7.074   9.832   3.743  1.00  0.00     0.134 A 
ATOM     44  F   UNL     1       9.238   7.009   3.007  1.00  0.00    -0.206 F 
ATOM     45  C   UNL     1       8.744   8.041   5.057  1.00  0.00     0.040 A 
ATOM     46  C   UNL     1       7.231   9.914   5.127  1.00  0.00     0.040 A 
ATOM     47  F   UNL     1       6.235  10.696   3.152  1.00  0.00    -0.206 F 
ATOM     48  C   UNL     1       8.060   9.010   5.789  1.00  0.00     0.006 A 
ENDBRANCH  27  41
BRANCH  28  49
ATOM     49  C   UNL     1       5.789   7.340  -6.731  1.00  0.00     0.057 A 
ATOM     50  C   UNL     1       6.818   7.091  -7.646  1.00  0.00     0.134 A 
ATOM     51  C   UNL     1       4.481   7.382  -7.234  1.00  0.00     0.134 A 
ATOM     52  F   UNL     1       8.094   7.059  -7.235  1.00  0.00    -0.206 F 
ATOM     53  C   UNL     1       6.559   6.907  -9.008  1.00  0.00     0.040 A 
ATOM     54  C   UNL     1       4.206   7.177  -8.587  1.00  0.00     0.040 A 
ATOM     55  F   UNL     1       3.447   7.617  -6.412  1.00  0.00    -0.206 F 
ATOM     56  C   UNL     1       5.249   6.945  -9.480  1.00  0.00     0.006 A 
ENDBRANCH  28  49
BRANCH  40  57
ATOM     57  C   UNL     1       9.114  12.345  -3.189  1.00  0.00     0.057 A 
ATOM     58  C   UNL     1       8.417  13.488  -3.599  1.00  0.00     0.134 A 
ATOM     59  C   UNL     1      10.511  12.421  -3.131  1.00  0.00     0.134 A 
ATOM     60  F   UNL     1       7.078  13.473  -3.685  1.00  0.00    -0.206 F 
ATOM     61  C   UNL     1       9.087  14.660  -3.950  1.00  0.00     0.040 A 
ATOM     62  C   UNL     1      11.191  13.594  -3.455  1.00  0.00     0.040 A 
ATOM     63  F   UNL     1      11.235  11.362  -2.735  1.00  0.00    -0.206 F 
ATOM     64  C   UNL     1      10.478  14.717  -3.869  1.00  0.00     0.006 A 
ENDBRANCH  40  57
ENDBRANCH  14  15
ENDBRANCH   7   9
ENDBRANCH   6   7
ENDBRANCH   5   6
ENDBRANCH   4   5
ENDBRANCH   3   4
ENDBRANCH   2   3
ENDBRANCH   1   2
BRANCH   1  65
ATOM     65  O   UNL     1       3.987  -2.878  -2.391  1.00  0.00    -0.376 OA
BRANCH  65  66
ATOM     66  C   UNL     1       5.018  -2.430  -3.262  1.00  0.00     0.202 C 
BRANCH  66  67
ATOM     67  C   UNL     1       4.562  -1.687  -4.522  1.00  0.00     0.261 C 
BRANCH  67  68
ATOM     68  O   UNL     1       3.690  -0.575  -4.243  1.00  0.00    -0.463 OA
BRANCH  68  69
ATOM     69  C   UNL     1       3.251   0.082  -5.343  1.00  0.00     0.310 C 
ATOM     70  O   UNL     1       3.626  -0.174  -6.484  1.00  0.00    -0.252 OA
BRANCH  69  71
ATOM     71  C   UNL     1       2.148   1.090  -5.071  1.00  0.00     0.118 C 
ATOM     72  C   UNL     1       2.182   1.868  -3.746  1.00  0.00     0.019 C 
ATOM     73  C   UNL     1       0.800   0.444  -5.366  1.00  0.00     0.133 C 
ATOM     74  C   UNL     1       1.209   1.442  -2.635  1.00  0.00     0.022 C 
ATOM     75  N   UNL     1       0.262  -0.187  -4.171  1.00  0.00    -0.356 N 
ATOM     76  C   UNL     1      -0.065   0.728  -3.086  1.00  0.00     0.118 C 
BRANCH  75  77
ATOM     77  C   UNL     1       0.236  -1.548  -3.949  1.00  0.00     0.129 A 
ATOM     78  C   UNL     1       1.032  -2.434  -4.670  1.00  0.00     0.047 A 
ATOM     79  N   UNL     1      -0.567  -2.020  -2.970  1.00  0.00    -0.231 NA
ATOM     80  C   UNL     1       1.093  -3.780  -4.320  1.00  0.00     0.014 A 
ATOM     81  C   UNL     1      -0.580  -3.334  -2.681  1.00  0.00     0.073 A 
ATOM     82  C   UNL     1       0.273  -4.258  -3.308  1.00  0.00     0.002 A 
ATOM     83  C   UNL     1      -1.475  -3.819  -1.741  1.00  0.00     0.030 A 
ATOM     84  C   UNL     1       0.270  -5.614  -2.941  1.00  0.00     0.032 A 
ATOM     85  C   UNL     1      -1.524  -5.177  -1.399  1.00  0.00     0.024 A 
ATOM     86  C   UNL     1      -0.634  -6.076  -1.983  1.00  0.00     0.083 A 
BRANCH  86  87
ATOM     87  S   UNL     1      -0.630  -7.830  -1.635  1.00  0.00     0.243 S 
ATOM     88  O   UNL     1      -0.436  -8.487  -2.918  1.00  0.00    -0.207 OA
ATOM     89  O   UNL     1       0.289  -8.032  -0.543  1.00  0.00    -0.207 OA
BRANCH  87  90
ATOM     90  N   UNL     1      -2.204  -8.241  -1.110  1.00  0.00    -0.198 NA
ATOM     91  C   UNL     1      -2.484  -8.017   0.329  1.00  0.00     0.102 C 
ATOM     92  C   UNL     1      -3.283  -8.023  -2.104  1.00  0.00     0.102 C 
ATOM     93  C   UNL     1      -3.891  -8.426   0.741  1.00  0.00     0.017 C 
ATOM     94  C   UNL     1      -4.640  -8.492  -1.608  1.00  0.00     0.017 C 
ATOM     95  C   UNL     1      -4.939  -7.918  -0.234  1.00  0.00     0.003 C 
ENDBRANCH  87  90
ENDBRANCH  86  87
ENDBRANCH  75  77
ENDBRANCH  69  71
ENDBRANCH  68  69
ENDBRANCH  67  68
ENDBRANCH  66  67
ENDBRANCH  65  66
ENDBRANCH   1  65
TORSDOF 20
