REMARK SMILES COc1ccc(-c2noc(CC(=O)OCCOCCOCCOC(=O)c3ccc(-c4c5nc(c(-c6c(F)cccc6F)c6ccc([nH]6)c(-c6c(F)cccc6F)c6nc(c(-c7c(F)cccc7F)c7ccc4[nH]7)C=C6)C=C5)cc3)c2-c2ccc(OC)cc2)cc1
REMARK SMILES IDX 18 1 17 2 16 3 15 4 14 5 12 6 13 7 11 8 10 9 7 10 8 11 80 12
REMARK SMILES IDX 9 13 6 14 3 15 4 16 90 17 5 18 89 19 2 20 1 21 81 22 82 23
REMARK SMILES IDX 88 24 83 25 87 26 84 27 85 28 86 29 19 30 20 31 21 32 22 33
REMARK SMILES IDX 23 34 24 35 25 36 26 37 27 38 79 39 28 40 78 41 29 42 30 43
REMARK SMILES IDX 31 44 72 45 32 46 77 47 71 48 73 49 33 50 76 51 70 52 69 53
REMARK SMILES IDX 34 55 60 56 43 57 59 58 44 59 47 60 58 61 74 62 45 63 46 64
REMARK SMILES IDX 57 66 75 67 48 68 35 69 36 70 41 71 37 72 38 73 40 74 42 75
REMARK SMILES IDX 39 76 61 77 62 78 67 79 63 80 64 81 66 82 68 83 65 84 49 85
REMARK SMILES IDX 50 86 55 87 51 88 52 89 54 90 56 91 53 92
REMARK H PARENT 73 54 47 65
REMARK Flexibility Score: inf
ROOT
ATOM      1  C   UNL     1       1.786 -11.745   4.093  1.00  0.00     0.188 C 
ENDROOT
BRANCH   1   2
ATOM      2  O   UNL     1       1.515 -12.251   5.394  1.00  0.00    -0.376 OA
BRANCH   2   3
ATOM      3  C   UNL     1       1.239 -11.321   6.438  1.00  0.00     0.202 C 
BRANCH   3   4
ATOM      4  C   UNL     1       2.295 -10.236   6.706  1.00  0.00     0.261 C 
BRANCH   4   5
ATOM      5  O   UNL     1       2.613  -9.412   5.558  1.00  0.00    -0.463 OA
BRANCH   5   6
ATOM      6  C   UNL     1       3.931  -9.213   5.298  1.00  0.00     0.313 C 
ATOM      7  O   UNL     1       4.831  -9.562   6.060  1.00  0.00    -0.252 OA
BRANCH   6   8
ATOM      8  C   UNL     1       4.252  -8.715   3.901  1.00  0.00     0.201 C 
BRANCH   8   9
ATOM      9  C   UNL     1       3.353  -7.696   3.291  1.00  0.00     0.156 A 
ATOM     10  C   UNL     1       2.248  -5.993   2.364  1.00  0.00     0.122 A 
ATOM     11  N   UNL     1       1.796  -7.108   1.772  1.00  0.00    -0.079 NA
ATOM     12  C   UNL     1       3.248  -6.320   3.329  1.00  0.00     0.053 A 
ATOM     13  O   UNL     1       2.530  -8.147   2.300  1.00  0.00    -0.359 OA
BRANCH  10  14
ATOM     14  C   UNL     1       1.782  -4.673   1.954  1.00  0.00     0.005 A 
ATOM     15  C   UNL     1       0.913  -2.090   1.260  1.00  0.00     0.118 A 
ATOM     16  C   UNL     1       0.018  -3.019   1.796  1.00  0.00     0.047 A 
ATOM     17  C   UNL     1       2.245  -2.454   1.069  1.00  0.00     0.047 A 
ATOM     18  C   UNL     1       0.443  -4.310   2.127  1.00  0.00     0.014 A 
ATOM     19  C   UNL     1       2.678  -3.740   1.416  1.00  0.00     0.014 A 
BRANCH  15  20
ATOM     20  O   UNL     1       0.391  -0.851   1.012  1.00  0.00    -0.497 OA
ATOM     21  C   UNL     1       1.006  -0.119  -0.043  1.00  0.00     0.278 C 
ENDBRANCH  15  20
ENDBRANCH  10  14
BRANCH  12  22
ATOM     22  C   UNL     1       4.149  -5.463   4.057  1.00  0.00    -0.012 A 
ATOM     23  C   UNL     1       3.687  -4.537   4.993  1.00  0.00     0.013 A 
ATOM     24  C   UNL     1       5.514  -5.525   3.758  1.00  0.00     0.013 A 
ATOM     25  C   UNL     1       4.601  -3.705   5.646  1.00  0.00     0.047 A 
ATOM     26  C   UNL     1       6.422  -4.706   4.418  1.00  0.00     0.047 A 
ATOM     27  C   UNL     1       5.971  -3.796   5.372  1.00  0.00     0.118 A 
BRANCH  27  28
ATOM     28  O   UNL     1       6.770  -2.942   6.082  1.00  0.00    -0.497 OA
ATOM     29  C   UNL     1       8.174  -3.132   5.929  1.00  0.00     0.278 C 
ENDBRANCH  27  28
ENDBRANCH  12  22
ENDBRANCH   8   9
ENDBRANCH   6   8
ENDBRANCH   5   6
ENDBRANCH   4   5
ENDBRANCH   3   4
ENDBRANCH   2   3
ENDBRANCH   1   2
BRANCH   1  30
ATOM     30  C   UNL     1       0.973 -10.551   3.582  1.00  0.00     0.188 C 
BRANCH  30  31
ATOM     31  O   UNL     1      -0.188 -10.284   4.340  1.00  0.00    -0.376 OA
BRANCH  31  32
ATOM     32  C   UNL     1      -1.266  -9.700   3.629  1.00  0.00     0.202 C 
BRANCH  32  33
ATOM     33  C   UNL     1      -2.079 -10.794   2.930  1.00  0.00     0.261 C 
BRANCH  33  34
ATOM     34  O   UNL     1      -1.329 -11.570   1.971  1.00  0.00    -0.460 OA
BRANCH  34  35
ATOM     35  C   UNL     1      -0.919 -10.928   0.850  1.00  0.00     0.338 C 
ATOM     36  O   UNL     1      -1.217  -9.796   0.508  1.00  0.00    -0.246 OA
BRANCH  35  37
ATOM     37  C   UNL     1       0.147 -11.751   0.223  1.00  0.00     0.060 A 
ATOM     38  C   UNL     1       1.407 -11.178  -0.013  1.00  0.00     0.016 A 
ATOM     39  C   UNL     1      -0.071 -13.098  -0.069  1.00  0.00     0.016 A 
ATOM     40  C   UNL     1       2.447 -11.952  -0.544  1.00  0.00     0.010 A 
ATOM     41  C   UNL     1       0.962 -13.863  -0.623  1.00  0.00     0.010 A 
ATOM     42  C   UNL     1       2.225 -13.296  -0.876  1.00  0.00    -0.014 A 
BRANCH  42  43
ATOM     43  C   UNL     1       3.247 -14.091  -1.609  1.00  0.00     0.031 A 
ATOM     44  C   UNL     1       3.099 -14.263  -3.097  1.00  0.00     0.074 A 
ATOM     45  C   UNL     1       4.272 -14.688  -0.972  1.00  0.00     0.049 A 
ATOM     46  N   UNL     1       3.776 -15.023  -3.920  1.00  0.00    -0.248 NA
ATOM     47  C   UNL     1       2.038 -13.473  -3.740  1.00  0.00     0.031 C 
ATOM     48  C   UNL     1       4.567 -14.573   0.454  1.00  0.00     0.029 A 
ATOM     49  N   UNL     1       5.245 -15.535  -1.450  1.00  0.00    -0.354 N 
ATOM     50  C   UNL     1       3.219 -14.811  -5.174  1.00  0.00     0.074 A 
ATOM     51  C   UNL     1       2.133 -13.870  -5.001  1.00  0.00     0.031 C 
ATOM     52  C   UNL     1       5.634 -15.342   0.741  1.00  0.00     0.029 A 
ATOM     53  C   UNL     1       6.069 -16.037  -0.471  1.00  0.00     0.049 A 
ATOM     54  H   UNL     1       5.341 -15.761  -2.404  1.00  0.00     0.167 HD
ATOM     55  C   UNL     1       3.579 -15.348  -6.364  1.00  0.00     0.037 A 
ATOM     56  C   UNL     1       7.035 -16.976  -0.536  1.00  0.00     0.037 A 
ATOM     57  C   UNL     1       4.654 -16.289  -6.543  1.00  0.00     0.049 A 
ATOM     58  C   UNL     1       7.348 -17.639  -1.856  1.00  0.00     0.074 A 
ATOM     59  C   UNL     1       5.104 -16.869  -7.717  1.00  0.00     0.029 A 
ATOM     60  N   UNL     1       5.439 -16.797  -5.521  1.00  0.00    -0.354 N 
ATOM     61  N   UNL     1       6.835 -17.413  -3.041  1.00  0.00    -0.248 NA
ATOM     62  C   UNL     1       8.373 -18.697  -1.843  1.00  0.00     0.031 C 
ATOM     63  C   UNL     1       6.121 -17.773  -7.398  1.00  0.00     0.029 A 
ATOM     64  C   UNL     1       6.345 -17.713  -6.032  1.00  0.00     0.049 A 
ATOM     65  H   UNL     1       5.364 -16.546  -4.572  1.00  0.00     0.167 HD
ATOM     66  C   UNL     1       7.489 -18.277  -3.913  1.00  0.00     0.074 A 
ATOM     67  C   UNL     1       8.450 -19.019  -3.127  1.00  0.00     0.031 C 
ATOM     68  C   UNL     1       7.306 -18.444  -5.246  1.00  0.00     0.037 A 
BRANCH  55  69
ATOM     69  C   UNL     1       2.785 -14.950  -7.574  1.00  0.00     0.057 A 
ATOM     70  C   UNL     1       2.885 -13.672  -8.138  1.00  0.00     0.134 A 
ATOM     71  C   UNL     1       1.952 -15.876  -8.215  1.00  0.00     0.134 A 
ATOM     72  F   UNL     1       3.656 -12.735  -7.567  1.00  0.00    -0.206 F 
ATOM     73  C   UNL     1       2.169 -13.323  -9.285  1.00  0.00     0.040 A 
ATOM     74  C   UNL     1       1.254 -15.548  -9.377  1.00  0.00     0.040 A 
ATOM     75  F   UNL     1       1.817 -17.121  -7.731  1.00  0.00    -0.206 F 
ATOM     76  C   UNL     1       1.358 -14.266  -9.913  1.00  0.00     0.006 A 
ENDBRANCH  55  69
BRANCH  56  77
ATOM     77  C   UNL     1       7.764 -17.393   0.692  1.00  0.00     0.057 A 
ATOM     78  C   UNL     1       9.134 -17.147   0.844  1.00  0.00     0.134 A 
ATOM     79  C   UNL     1       7.122 -18.098   1.718  1.00  0.00     0.134 A 
ATOM     80  F   UNL     1       9.814 -16.506  -0.119  1.00  0.00    -0.206 F 
ATOM     81  C   UNL     1       9.842 -17.603   1.957  1.00  0.00     0.040 A 
ATOM     82  C   UNL     1       7.811 -18.534   2.851  1.00  0.00     0.040 A 
ATOM     83  F   UNL     1       5.812 -18.376   1.633  1.00  0.00    -0.206 F 
ATOM     84  C   UNL     1       9.179 -18.295   2.968  1.00  0.00     0.006 A 
ENDBRANCH  56  77
BRANCH  68  85
ATOM     85  C   UNL     1       8.178 -19.444  -5.952  1.00  0.00     0.057 A 
ATOM     86  C   UNL     1       8.016 -20.824  -5.774  1.00  0.00     0.134 A 
ATOM     87  C   UNL     1       9.156 -19.023  -6.863  1.00  0.00     0.134 A 
ATOM     88  F   UNL     1       7.106 -21.296  -4.908  1.00  0.00    -0.206 F 
ATOM     89  C   UNL     1       8.809 -21.747  -6.459  1.00  0.00     0.040 A 
ATOM     90  C   UNL     1       9.935 -19.937  -7.576  1.00  0.00     0.040 A 
ATOM     91  F   UNL     1       9.358 -17.717  -7.091  1.00  0.00    -0.206 F 
ATOM     92  C   UNL     1       9.766 -21.304  -7.370  1.00  0.00     0.006 A 
ENDBRANCH  68  85
ENDBRANCH  42  43
ENDBRANCH  35  37
ENDBRANCH  34  35
ENDBRANCH  33  34
ENDBRANCH  32  33
ENDBRANCH  31  32
ENDBRANCH  30  31
ENDBRANCH   1  30
TORSDOF 22
