REMARK SMILES COc1cc(/C=N/NC(=O)c2cccnc2)ccc1OCC(=O)OCCOCCOCCOC(=O)c1ccc(-c2c3nc(c(-c4c(F)cccc4F)c4ccc([nH]4)c(-c4c(F)cccc4F)c4nc(c(-c5c(F)cccc5F)c5ccc2[nH]5)C=C4)C=C3)cc1
REMARK SMILES IDX 27 1 26 2 25 3 24 4 22 5 23 6 21 7 20 8 19 9 3 10 4 11 5 12
REMARK SMILES IDX 18 13 17 14 2 15 1 16 6 17 7 18 8 19 9 20 10 22 11 23 12 24
REMARK SMILES IDX 16 25 13 26 15 27 14 28 28 29 29 30 30 31 31 32 32 33 33 34
REMARK SMILES IDX 34 35 35 36 36 37 37 38 89 39 38 40 88 41 39 42 40 43 41 44
REMARK SMILES IDX 82 45 42 46 87 47 81 48 83 49 43 50 86 51 80 52 79 53 44 55
REMARK SMILES IDX 70 56 53 57 69 58 54 59 57 60 68 61 84 62 55 63 56 64 67 66
REMARK SMILES IDX 85 67 58 68 45 69 46 70 51 71 47 72 48 73 50 74 52 75 49 76
REMARK SMILES IDX 71 77 72 78 77 79 73 80 74 81 76 82 78 83 75 84 59 85 60 86
REMARK SMILES IDX 65 87 61 88 62 89 64 90 66 91 63 92
REMARK H PARENT 8 21 83 54 57 65
REMARK Flexibility Score: inf
ROOT
ATOM      1  O   UNL     1      -0.488   2.351  -0.660  1.00  0.00    -0.376 OA
ENDROOT
BRANCH   1   2
ATOM      2  C   UNL     1       0.513   3.345  -0.834  1.00  0.00     0.202 C 
BRANCH   2   3
ATOM      3  C   UNL     1       1.798   3.107  -0.040  1.00  0.00     0.261 C 
BRANCH   3   4
ATOM      4  O   UNL     1       2.573   1.992  -0.534  1.00  0.00    -0.461 OA
BRANCH   4   5
ATOM      5  C   UNL     1       2.806   0.974   0.345  1.00  0.00     0.344 C 
ATOM      6  O   UNL     1       2.311   0.890   1.464  1.00  0.00    -0.248 OA
BRANCH   5   7
ATOM      7  C   UNL     1       3.854  -0.011  -0.178  1.00  0.00     0.352 C 
BRANCH   7   8
ATOM      8  O   UNL     1       3.887  -0.331  -1.554  1.00  0.00    -0.478 OA
BRANCH   8   9
ATOM      9  C   UNL     1       3.002  -1.208  -2.114  1.00  0.00     0.162 A 
ATOM     10  C   UNL     1       2.171  -2.152  -1.496  1.00  0.00     0.161 A 
ATOM     11  C   UNL     1       1.276  -2.916  -2.271  1.00  0.00     0.060 A 
ATOM     12  C   UNL     1       1.169  -2.686  -3.650  1.00  0.00    -0.002 A 
ATOM     13  C   UNL     1       2.964  -1.088  -3.511  1.00  0.00     0.051 A 
ATOM     14  C   UNL     1       2.048  -1.806  -4.276  1.00  0.00     0.014 A 
BRANCH  10  15
ATOM     15  O   UNL     1       2.312  -2.400  -0.159  1.00  0.00    -0.493 OA
ATOM     16  C   UNL     1       1.118  -2.267   0.610  1.00  0.00     0.278 C 
ENDBRANCH  10  15
BRANCH  12  17
ATOM     17  C   UNL     1       0.069  -3.221  -4.480  1.00  0.00     0.141 C 
ATOM     18  N   UNL     1      -0.773  -4.114  -4.067  1.00  0.00    -0.180 NA
BRANCH  18  19
ATOM     19  N   UNL     1      -1.801  -4.427  -4.922  1.00  0.00    -0.243 N 
ATOM     20  C   UNL     1      -1.795  -4.761  -6.262  1.00  0.00     0.272 C 
ATOM     21  H   UNL     1      -2.695  -4.409  -4.510  1.00  0.00     0.194 HD
ATOM     22  O   UNL     1      -2.851  -4.956  -6.862  1.00  0.00    -0.267 OA
BRANCH  20  23
ATOM     23  C   UNL     1      -0.531  -4.873  -6.998  1.00  0.00     0.059 A 
ATOM     24  C   UNL     1       0.591  -5.527  -6.492  1.00  0.00     0.017 A 
ATOM     25  C   UNL     1      -0.440  -4.245  -8.232  1.00  0.00     0.124 A 
ATOM     26  C   UNL     1       1.782  -5.467  -7.209  1.00  0.00     0.021 A 
ATOM     27  N   UNL     1       0.709  -4.170  -8.946  1.00  0.00    -0.264 NA
ATOM     28  C   UNL     1       1.793  -4.777  -8.413  1.00  0.00     0.111 A 
ENDBRANCH  20  23
ENDBRANCH  18  19
ENDBRANCH  12  17
ENDBRANCH   8   9
ENDBRANCH   7   8
ENDBRANCH   5   7
ENDBRANCH   4   5
ENDBRANCH   3   4
ENDBRANCH   2   3
ENDBRANCH   1   2
BRANCH   1  29
ATOM     29  C   UNL     1      -0.258   1.088  -1.273  1.00  0.00     0.188 C 
BRANCH  29  30
ATOM     30  C   UNL     1       0.287   1.089  -2.706  1.00  0.00     0.188 C 
BRANCH  30  31
ATOM     31  O   UNL     1      -0.353   2.035  -3.557  1.00  0.00    -0.376 OA
BRANCH  31  32
ATOM     32  C   UNL     1      -1.191   1.461  -4.559  1.00  0.00     0.202 C 
BRANCH  32  33
ATOM     33  C   UNL     1      -2.598   1.208  -4.028  1.00  0.00     0.261 C 
BRANCH  33  34
ATOM     34  O   UNL     1      -2.640   0.089  -3.119  1.00  0.00    -0.460 OA
BRANCH  34  35
ATOM     35  C   UNL     1      -2.967  -1.096  -3.669  1.00  0.00     0.338 C 
ATOM     36  O   UNL     1      -3.117  -1.331  -4.863  1.00  0.00    -0.246 OA
BRANCH  35  37
ATOM     37  C   UNL     1      -3.168  -2.115  -2.620  1.00  0.00     0.060 A 
ATOM     38  C   UNL     1      -2.152  -2.426  -1.716  1.00  0.00     0.016 A 
ATOM     39  C   UNL     1      -4.323  -2.896  -2.656  1.00  0.00     0.016 A 
ATOM     40  C   UNL     1      -2.231  -3.596  -0.947  1.00  0.00     0.010 A 
ATOM     41  C   UNL     1      -4.430  -4.023  -1.833  1.00  0.00     0.010 A 
ATOM     42  C   UNL     1      -3.356  -4.431  -1.019  1.00  0.00    -0.014 A 
BRANCH  42  43
ATOM     43  C   UNL     1      -3.377  -5.795  -0.400  1.00  0.00     0.031 A 
ATOM     44  C   UNL     1      -3.597  -7.002  -1.284  1.00  0.00     0.074 A 
ATOM     45  C   UNL     1      -3.183  -6.011   0.915  1.00  0.00     0.049 A 
ATOM     46  N   UNL     1      -3.986  -8.215  -0.988  1.00  0.00    -0.248 NA
ATOM     47  C   UNL     1      -3.353  -6.795  -2.715  1.00  0.00     0.031 C 
ATOM     48  C   UNL     1      -2.846  -5.000   1.914  1.00  0.00     0.029 A 
ATOM     49  N   UNL     1      -3.256  -7.182   1.634  1.00  0.00    -0.354 N 
ATOM     50  C   UNL     1      -4.121  -8.877  -2.207  1.00  0.00     0.074 A 
ATOM     51  C   UNL     1      -3.760  -7.937  -3.243  1.00  0.00     0.031 C 
ATOM     52  C   UNL     1      -2.732  -5.594   3.114  1.00  0.00     0.029 A 
ATOM     53  C   UNL     1      -3.076  -7.009   2.984  1.00  0.00     0.049 A 
ATOM     54  H   UNL     1      -3.422  -8.059   1.220  1.00  0.00     0.167 HD
ATOM     55  C   UNL     1      -4.508 -10.152  -2.444  1.00  0.00     0.037 A 
ATOM     56  C   UNL     1      -3.229  -7.875   4.005  1.00  0.00     0.037 A 
ATOM     57  C   UNL     1      -4.758 -11.124  -1.416  1.00  0.00     0.049 A 
ATOM     58  C   UNL     1      -3.691  -9.283   3.735  1.00  0.00     0.074 A 
ATOM     59  C   UNL     1      -5.170 -12.439  -1.548  1.00  0.00     0.029 A 
ATOM     60  N   UNL     1      -4.571 -10.895  -0.064  1.00  0.00    -0.354 N 
ATOM     61  N   UNL     1      -3.954  -9.867   2.591  1.00  0.00    -0.248 NA
ATOM     62  C   UNL     1      -3.899 -10.147   4.907  1.00  0.00     0.031 C 
ATOM     63  C   UNL     1      -5.246 -13.003  -0.270  1.00  0.00     0.029 A 
ATOM     64  C   UNL     1      -4.850 -12.046   0.650  1.00  0.00     0.049 A 
ATOM     65  H   UNL     1      -4.283 -10.041   0.330  1.00  0.00     0.167 HD
ATOM     66  C   UNL     1      -4.339 -11.166   2.905  1.00  0.00     0.074 A 
ATOM     67  C   UNL     1      -4.258 -11.292   4.344  1.00  0.00     0.031 C 
ATOM     68  C   UNL     1      -4.736 -12.164   2.078  1.00  0.00     0.037 A 
BRANCH  55  69
ATOM     69  C   UNL     1      -4.723 -10.563  -3.870  1.00  0.00     0.057 A 
ATOM     70  C   UNL     1      -3.662 -10.825  -4.745  1.00  0.00     0.134 A 
ATOM     71  C   UNL     1      -6.024 -10.738  -4.359  1.00  0.00     0.134 A 
ATOM     72  F   UNL     1      -2.393 -10.659  -4.343  1.00  0.00    -0.206 F 
ATOM     73  C   UNL     1      -3.889 -11.233  -6.061  1.00  0.00     0.040 A 
ATOM     74  C   UNL     1      -6.263 -11.168  -5.665  1.00  0.00     0.040 A 
ATOM     75  F   UNL     1      -7.085 -10.507  -3.570  1.00  0.00    -0.206 F 
ATOM     76  C   UNL     1      -5.193 -11.414  -6.521  1.00  0.00     0.006 A 
ENDBRANCH  55  69
BRANCH  56  77
ATOM     77  C   UNL     1      -3.011  -7.423   5.403  1.00  0.00     0.057 A 
ATOM     78  C   UNL     1      -1.950  -7.920   6.168  1.00  0.00     0.134 A 
ATOM     79  C   UNL     1      -3.884  -6.519   6.021  1.00  0.00     0.134 A 
ATOM     80  F   UNL     1      -1.099  -8.813   5.641  1.00  0.00    -0.206 F 
ATOM     81  C   UNL     1      -1.774  -7.550   7.502  1.00  0.00     0.040 A 
ATOM     82  C   UNL     1      -3.703  -6.117   7.345  1.00  0.00     0.040 A 
ATOM     83  F   UNL     1      -4.923  -6.009   5.344  1.00  0.00    -0.206 F 
ATOM     84  C   UNL     1      -2.651  -6.641   8.092  1.00  0.00     0.006 A 
ENDBRANCH  56  77
BRANCH  68  85
ATOM     85  C   UNL     1      -5.056 -13.489   2.700  1.00  0.00     0.057 A 
ATOM     86  C   UNL     1      -6.243 -13.704   3.410  1.00  0.00     0.134 A 
ATOM     87  C   UNL     1      -4.179 -14.572   2.556  1.00  0.00     0.134 A 
ATOM     88  F   UNL     1      -7.118 -12.703   3.591  1.00  0.00    -0.206 F 
ATOM     89  C   UNL     1      -6.537 -14.946   3.976  1.00  0.00     0.040 A 
ATOM     90  C   UNL     1      -4.472 -15.823   3.099  1.00  0.00     0.040 A 
ATOM     91  F   UNL     1      -3.030 -14.433   1.878  1.00  0.00    -0.206 F 
ATOM     92  C   UNL     1      -5.652 -16.011   3.817  1.00  0.00     0.006 A 
ENDBRANCH  68  85
ENDBRANCH  42  43
ENDBRANCH  35  37
ENDBRANCH  34  35
ENDBRANCH  33  34
ENDBRANCH  32  33
ENDBRANCH  31  32
ENDBRANCH  30  31
ENDBRANCH  29  30
ENDBRANCH   1  29
TORSDOF 23
