REMARK SMILES Nc1c(Cl)ccc2c1C=C(C(=O)OCCOCCOCCOC(=O)c1ccc(-c3c4nc(c(-c5c(F)cccc5F)c5ccc([nH]5)c(-c5c(F)cccc5F)c5nc(c(-c6c(F)cccc6F)c6ccc3[nH]6)C=C5)C=C4)cc1)[C@@H](C(F)(F)F)O2
REMARK SMILES IDX 18 1 17 2 16 3 15 4 14 5 13 6 11 7 12 8 10 9 2 10 3 11 8 12
REMARK SMILES IDX 4 13 5 14 7 15 9 16 6 17 84 18 79 19 1 20 80 23 81 24 82 25
REMARK SMILES IDX 83 26 19 27 20 28 21 29 22 30 23 31 24 32 25 33 26 34 78 35
REMARK SMILES IDX 27 36 77 37 28 38 29 39 30 40 71 41 31 42 76 43 70 44 72 45
REMARK SMILES IDX 32 46 75 47 69 48 68 49 33 51 59 52 42 53 58 54 43 55 46 56
REMARK SMILES IDX 57 57 73 58 44 59 45 60 56 62 74 63 47 64 34 65 35 66 40 67
REMARK SMILES IDX 36 68 37 69 39 70 41 71 38 72 60 73 61 74 66 75 62 76 63 77
REMARK SMILES IDX 65 78 67 79 64 80 48 81 49 82 54 83 50 84 51 85 53 86 55 87
REMARK SMILES IDX 52 88
REMARK H PARENT 1 21 1 22 72 50 46 61
REMARK Flexibility Score: inf
ROOT
ATOM      1  C   UNL     1      -4.178   1.877   1.691  1.00  0.00     0.188 C 
ENDROOT
BRANCH   1   2
ATOM      2  C   UNL     1      -3.209   2.328   2.805  1.00  0.00     0.188 C 
BRANCH   2   3
ATOM      3  O   UNL     1      -3.643   3.264   3.764  1.00  0.00    -0.376 OA
BRANCH   3   4
ATOM      4  C   UNL     1      -3.878   4.619   3.424  1.00  0.00     0.202 C 
BRANCH   4   5
ATOM      5  C   UNL     1      -3.314   5.328   2.182  1.00  0.00     0.261 C 
BRANCH   5   6
ATOM      6  O   UNL     1      -3.081   4.517   1.027  1.00  0.00    -0.460 OA
BRANCH   6   7
ATOM      7  C   UNL     1      -1.779   4.361   0.685  1.00  0.00     0.338 C 
ATOM      8  O   UNL     1      -0.812   4.841   1.252  1.00  0.00    -0.246 OA
BRANCH   7   9
ATOM      9  C   UNL     1      -1.676   3.369  -0.404  1.00  0.00     0.088 C 
ATOM     10  C   UNL     1       0.406   0.411  -1.257  1.00  0.00     0.061 A 
ATOM     11  C   UNL     1       0.657  -0.342  -2.425  1.00  0.00     0.064 A 
ATOM     12  C   UNL     1      -0.573   1.431  -1.322  1.00  0.00     0.042 A 
ATOM     13  Cl  UNL     1       1.920  -1.528  -2.457  1.00  0.00    -0.082 Cl
ATOM     14  C   UNL     1      -0.103  -0.168  -3.582  1.00  0.00     0.026 A 
ATOM     15  C   UNL     1      -1.361   1.570  -2.476  1.00  0.00     0.130 A 
ATOM     16  C   UNL     1      -0.756   2.407  -0.250  1.00  0.00     0.029 C 
ATOM     17  C   UNL     1      -1.132   0.768  -3.594  1.00  0.00     0.049 A 
ATOM     18  O   UNL     1      -2.382   2.467  -2.611  1.00  0.00    -0.475 OA
ATOM     19  C   UNL     1      -2.587   3.478  -1.592  1.00  0.00     0.316 C 
BRANCH  10  20
ATOM     20  N   UNL     1       1.196   0.216  -0.118  1.00  0.00    -0.397 N 
ATOM     21  H   UNL     1       1.869  -0.503  -0.102  1.00  0.00     0.156 HD
ATOM     22  H   UNL     1       1.079   0.797   0.668  1.00  0.00     0.156 HD
ENDBRANCH  10  20
BRANCH  19  23
ATOM     23  C   UNL     1      -2.509   4.858  -2.260  1.00  0.00     0.430 C 
ATOM     24  F   UNL     1      -3.298   4.919  -3.359  1.00  0.00    -0.167 F 
ATOM     25  F   UNL     1      -2.926   5.842  -1.429  1.00  0.00    -0.167 F 
ATOM     26  F   UNL     1      -1.249   5.162  -2.646  1.00  0.00    -0.167 F 
ENDBRANCH  19  23
ENDBRANCH   7   9
ENDBRANCH   6   7
ENDBRANCH   5   6
ENDBRANCH   4   5
ENDBRANCH   3   4
ENDBRANCH   2   3
ENDBRANCH   1   2
BRANCH   1  27
ATOM     27  O   UNL     1      -5.458   2.460   1.574  1.00  0.00    -0.376 OA
BRANCH  27  28
ATOM     28  C   UNL     1      -6.364   2.365   2.663  1.00  0.00     0.202 C 
BRANCH  28  29
ATOM     29  C   UNL     1      -6.500   1.097   3.526  1.00  0.00     0.261 C 
BRANCH  29  30
ATOM     30  O   UNL     1      -5.274   0.455   3.904  1.00  0.00    -0.460 OA
BRANCH  30  31
ATOM     31  C   UNL     1      -5.080  -0.785   3.383  1.00  0.00     0.338 C 
ATOM     32  O   UNL     1      -5.818  -1.407   2.644  1.00  0.00    -0.246 OA
BRANCH  31  33
ATOM     33  C   UNL     1      -3.711  -1.229   3.709  1.00  0.00     0.060 A 
ATOM     34  C   UNL     1      -2.749  -1.268   2.689  1.00  0.00     0.016 A 
ATOM     35  C   UNL     1      -3.398  -1.650   5.000  1.00  0.00     0.016 A 
ATOM     36  C   UNL     1      -1.459  -1.720   2.962  1.00  0.00     0.010 A 
ATOM     37  C   UNL     1      -2.117  -2.144   5.263  1.00  0.00     0.010 A 
ATOM     38  C   UNL     1      -1.151  -2.198   4.241  1.00  0.00    -0.014 A 
BRANCH  38  39
ATOM     39  C   UNL     1       0.104  -2.955   4.450  1.00  0.00     0.031 A 
ATOM     40  C   UNL     1       0.077  -4.442   4.232  1.00  0.00     0.074 A 
ATOM     41  C   UNL     1       1.241  -2.342   4.817  1.00  0.00     0.049 A 
ATOM     42  N   UNL     1       1.028  -5.324   4.395  1.00  0.00    -0.248 NA
ATOM     43  C   UNL     1      -1.200  -5.008   3.764  1.00  0.00     0.031 C 
ATOM     44  C   UNL     1       1.406  -0.904   5.015  1.00  0.00     0.029 A 
ATOM     45  N   UNL     1       2.477  -2.867   5.103  1.00  0.00    -0.354 N 
ATOM     46  C   UNL     1       0.468  -6.547   4.047  1.00  0.00     0.074 A 
ATOM     47  C   UNL     1      -0.912  -6.298   3.692  1.00  0.00     0.031 C 
ATOM     48  C   UNL     1       2.668  -0.663   5.415  1.00  0.00     0.029 A 
ATOM     49  C   UNL     1       3.386  -1.931   5.529  1.00  0.00     0.049 A 
ATOM     50  H   UNL     1       2.690  -3.824   5.011  1.00  0.00     0.167 HD
ATOM     51  C   UNL     1       1.051  -7.768   4.023  1.00  0.00     0.037 A 
ATOM     52  C   UNL     1       4.644  -2.092   5.987  1.00  0.00     0.037 A 
ATOM     53  C   UNL     1       2.413  -8.021   4.410  1.00  0.00     0.049 A 
ATOM     54  C   UNL     1       5.233  -3.479   6.057  1.00  0.00     0.074 A 
ATOM     55  C   UNL     1       3.100  -9.222   4.416  1.00  0.00     0.029 A 
ATOM     56  N   UNL     1       3.289  -7.055   4.881  1.00  0.00    -0.354 N 
ATOM     57  N   UNL     1       4.711  -4.625   5.691  1.00  0.00    -0.248 NA
ATOM     58  C   UNL     1       6.592  -3.592   6.608  1.00  0.00     0.031 C 
ATOM     59  C   UNL     1       4.373  -8.993   4.949  1.00  0.00     0.029 A 
ATOM     60  C   UNL     1       4.500  -7.639   5.214  1.00  0.00     0.049 A 
ATOM     61  H   UNL     1       3.082  -6.096   4.966  1.00  0.00     0.167 HD
ATOM     62  C   UNL     1       5.687  -5.586   5.935  1.00  0.00     0.074 A 
ATOM     63  C   UNL     1       6.838  -4.886   6.465  1.00  0.00     0.031 C 
ATOM     64  C   UNL     1       5.638  -6.927   5.739  1.00  0.00     0.037 A 
BRANCH  51  65
ATOM     65  C   UNL     1       0.195  -8.926   3.602  1.00  0.00     0.057 A 
ATOM     66  C   UNL     1      -0.202  -9.894   4.533  1.00  0.00     0.134 A 
ATOM     67  C   UNL     1      -0.231  -9.090   2.277  1.00  0.00     0.134 A 
ATOM     68  F   UNL     1       0.171  -9.797   5.818  1.00  0.00    -0.206 F 
ATOM     69  C   UNL     1      -0.991 -10.983   4.161  1.00  0.00     0.040 A 
ATOM     70  C   UNL     1      -1.044 -10.160   1.899  1.00  0.00     0.040 A 
ATOM     71  F   UNL     1       0.099  -8.187   1.340  1.00  0.00    -0.206 F 
ATOM     72  C   UNL     1      -1.421 -11.114   2.842  1.00  0.00     0.006 A 
ENDBRANCH  51  65
BRANCH  52  73
ATOM     73  C   UNL     1       5.436  -0.923   6.449  1.00  0.00     0.057 A 
ATOM     74  C   UNL     1       5.097  -0.229   7.617  1.00  0.00     0.134 A 
ATOM     75  C   UNL     1       6.594  -0.518   5.774  1.00  0.00     0.134 A 
ATOM     76  F   UNL     1       4.003  -0.569   8.315  1.00  0.00    -0.206 F 
ATOM     77  C   UNL     1       5.881   0.822   8.098  1.00  0.00     0.040 A 
ATOM     78  C   UNL     1       7.402   0.512   6.258  1.00  0.00     0.040 A 
ATOM     79  F   UNL     1       6.987  -1.162   4.665  1.00  0.00    -0.206 F 
ATOM     80  C   UNL     1       7.045   1.186   7.424  1.00  0.00     0.006 A 
ENDBRANCH  52  73
BRANCH  64  81
ATOM     81  C   UNL     1       6.877  -7.716   6.058  1.00  0.00     0.057 A 
ATOM     82  C   UNL     1       7.631  -8.303   5.033  1.00  0.00     0.134 A 
ATOM     83  C   UNL     1       7.315  -7.915   7.374  1.00  0.00     0.134 A 
ATOM     84  F   UNL     1       7.264  -8.163   3.750  1.00  0.00    -0.206 F 
ATOM     85  C   UNL     1       8.774  -9.057   5.305  1.00  0.00     0.040 A 
ATOM     86  C   UNL     1       8.475  -8.640   7.657  1.00  0.00     0.040 A 
ATOM     87  F   UNL     1       6.647  -7.370   8.403  1.00  0.00    -0.206 F 
ATOM     88  C   UNL     1       9.204  -9.218   6.620  1.00  0.00     0.006 A 
ENDBRANCH  64  81
ENDBRANCH  38  39
ENDBRANCH  31  33
ENDBRANCH  30  31
ENDBRANCH  29  30
ENDBRANCH  28  29
ENDBRANCH  27  28
ENDBRANCH   1  27
TORSDOF 19
