REMARK SMILES C[C@H]1[NH2+]CC[C@@H]1C(=O)N[C@@H](CC(=O)OCCOCCOCCOC(=O)c1ccc(-c2c3nc(c(-c4c(F)cccc4F)c4ccc([nH]4)c(-c4c(F)cccc4F)c4nc(c(-c5c(F)cccc5F)c5ccc2[nH]5)C=C4)C=C3)cc1)c1cccs1
REMARK SMILES IDX 18 1 17 2 16 3 15 4 14 5 12 6 13 7 11 8 10 9 9 10 7 11 8 12
REMARK SMILES IDX 6 14 1 15 2 16 3 17 4 18 5 21 80 22 81 23 84 24 82 25 83 26
REMARK SMILES IDX 19 27 20 28 21 29 22 30 23 31 24 32 25 33 26 34 27 35 79 36
REMARK SMILES IDX 28 37 78 38 29 39 30 40 31 41 72 42 32 43 77 44 71 45 73 46
REMARK SMILES IDX 33 47 76 48 70 49 69 50 34 52 60 53 43 54 59 55 44 56 47 57
REMARK SMILES IDX 58 58 74 59 45 60 46 61 57 63 75 64 48 65 35 66 36 67 41 68
REMARK SMILES IDX 37 69 38 70 40 71 42 72 39 73 61 74 62 75 67 76 63 77 64 78
REMARK SMILES IDX 66 79 68 80 65 81 49 82 50 83 55 84 51 85 52 86 54 87 56 88
REMARK SMILES IDX 53 89
REMARK H PARENT 9 13 3 19 3 20 73 51 47 62
REMARK Flexibility Score: inf
ROOT
ATOM      1  C   UNL     1      -5.981   4.124  -3.351  1.00  0.00     0.188 C 
ENDROOT
BRANCH   1   2
ATOM      2  O   UNL     1      -5.652   5.107  -4.328  1.00  0.00    -0.376 OA
BRANCH   2   3
ATOM      3  C   UNL     1      -4.494   4.913  -5.130  1.00  0.00     0.202 C 
BRANCH   3   4
ATOM      4  C   UNL     1      -3.172   5.221  -4.423  1.00  0.00     0.261 C 
BRANCH   4   5
ATOM      5  O   UNL     1      -2.953   4.376  -3.268  1.00  0.00    -0.463 OA
BRANCH   5   6
ATOM      6  C   UNL     1      -2.623   5.021  -2.127  1.00  0.00     0.308 C 
ATOM      7  O   UNL     1      -2.414   6.229  -2.053  1.00  0.00    -0.252 OA
BRANCH   6   8
ATOM      8  C   UNL     1      -2.695   4.179  -0.876  1.00  0.00     0.153 C 
BRANCH   8   9
ATOM      9  C   UNL     1      -2.222   2.722  -0.774  1.00  0.00     0.133 C 
BRANCH   9  10
ATOM     10  N   UNL     1      -1.328   2.219  -1.790  1.00  0.00    -0.347 N 
ATOM     11  C   UNL     1      -0.334   1.279  -1.679  1.00  0.00     0.229 C 
ATOM     12  O   UNL     1       0.130   0.869  -2.747  1.00  0.00    -0.275 OA
ATOM     13  H   UNL     1      -1.447   2.605  -2.688  1.00  0.00     0.164 HD
BRANCH  11  14
ATOM     14  C   UNL     1       0.277   0.889  -0.313  1.00  0.00     0.142 C 
ATOM     15  C   UNL     1       2.513  -0.012   0.494  1.00  0.00     0.076 C 
ATOM     16  C   UNL     1       1.330  -0.234  -0.456  1.00  0.00     0.192 C 
ATOM     17  N   UNL     1       0.659  -1.504  -0.097  1.00  0.00    -0.343 N 
ATOM     18  C   UNL     1      -0.655  -1.189   0.447  1.00  0.00     0.261 C 
ATOM     19  H   UNL     1       1.212  -2.001   0.601  1.00  0.00     0.346 HD
ATOM     20  H   UNL     1       0.566  -2.097  -0.922  1.00  0.00     0.346 HD
ATOM     21  C   UNL     1      -0.614   0.287   0.764  1.00  0.00     0.081 C 
ENDBRANCH  11  14
ENDBRANCH   9  10
BRANCH   9  22
ATOM     22  C   UNL     1      -3.355   1.726  -0.505  1.00  0.00     0.027 A 
ATOM     23  C   UNL     1      -4.128   1.653   0.646  1.00  0.00     0.017 A 
ATOM     24  S   UNL     1      -3.682   0.375  -1.525  1.00  0.00    -0.147 S 
ATOM     25  C   UNL     1      -4.902   0.457   0.722  1.00  0.00     0.012 A 
ATOM     26  C   UNL     1      -4.769  -0.315  -0.408  1.00  0.00     0.065 A 
ENDBRANCH   9  22
ENDBRANCH   8   9
ENDBRANCH   6   8
ENDBRANCH   5   6
ENDBRANCH   4   5
ENDBRANCH   3   4
ENDBRANCH   2   3
ENDBRANCH   1   2
BRANCH   1  27
ATOM     27  C   UNL     1      -5.429   2.704  -3.489  1.00  0.00     0.188 C 
BRANCH  27  28
ATOM     28  O   UNL     1      -5.637   2.162  -4.786  1.00  0.00    -0.376 OA
BRANCH  28  29
ATOM     29  C   UNL     1      -6.078   0.806  -4.773  1.00  0.00     0.202 C 
BRANCH  29  30
ATOM     30  C   UNL     1      -7.606   0.792  -4.811  1.00  0.00     0.261 C 
BRANCH  30  31
ATOM     31  O   UNL     1      -8.189   1.361  -3.622  1.00  0.00    -0.460 OA
BRANCH  31  32
ATOM     32  C   UNL     1      -8.155   0.567  -2.530  1.00  0.00     0.338 C 
ATOM     33  O   UNL     1      -7.720  -0.567  -2.449  1.00  0.00    -0.246 OA
BRANCH  32  34
ATOM     34  C   UNL     1      -8.634   1.340  -1.374  1.00  0.00     0.060 A 
ATOM     35  C   UNL     1      -7.695   1.893  -0.501  1.00  0.00     0.016 A 
ATOM     36  C   UNL     1      -9.994   1.430  -1.094  1.00  0.00     0.016 A 
ATOM     37  C   UNL     1      -8.100   2.475   0.697  1.00  0.00     0.010 A 
ATOM     38  C   UNL     1     -10.405   2.047   0.092  1.00  0.00     0.010 A 
ATOM     39  C   UNL     1      -9.460   2.540   1.013  1.00  0.00    -0.014 A 
BRANCH  39  40
ATOM     40  C   UNL     1      -9.899   3.017   2.348  1.00  0.00     0.031 A 
ATOM     41  C   UNL     1     -10.512   2.037   3.309  1.00  0.00     0.074 A 
ATOM     42  C   UNL     1      -9.741   4.301   2.716  1.00  0.00     0.049 A 
ATOM     43  N   UNL     1     -11.153   2.260   4.426  1.00  0.00    -0.248 NA
ATOM     44  C   UNL     1     -10.386   0.613   2.958  1.00  0.00     0.031 C 
ATOM     45  C   UNL     1      -9.081   5.339   1.925  1.00  0.00     0.029 A 
ATOM     46  N   UNL     1     -10.142   4.952   3.857  1.00  0.00    -0.354 N 
ATOM     47  C   UNL     1     -11.551   1.011   4.886  1.00  0.00     0.074 A 
ATOM     48  C   UNL     1     -11.074   0.034   3.932  1.00  0.00     0.031 C 
ATOM     49  C   UNL     1      -9.127   6.498   2.602  1.00  0.00     0.029 A 
ATOM     50  C   UNL     1      -9.880   6.300   3.837  1.00  0.00     0.049 A 
ATOM     51  H   UNL     1     -10.575   4.497   4.615  1.00  0.00     0.167 HD
ATOM     52  C   UNL     1     -12.259   0.710   6.001  1.00  0.00     0.037 A 
ATOM     53  C   UNL     1     -10.252   7.273   4.691  1.00  0.00     0.037 A 
ATOM     54  C   UNL     1     -12.702   1.679   6.967  1.00  0.00     0.049 A 
ATOM     55  C   UNL     1     -11.102   6.927   5.883  1.00  0.00     0.074 A 
ATOM     56  C   UNL     1     -13.426   1.473   8.128  1.00  0.00     0.029 A 
ATOM     57  N   UNL     1     -12.451   3.040   6.888  1.00  0.00    -0.354 N 
ATOM     58  N   UNL     1     -11.535   5.754   6.278  1.00  0.00    -0.248 NA
ATOM     59  C   UNL     1     -11.533   8.045   6.735  1.00  0.00     0.031 C 
ATOM     60  C   UNL     1     -13.641   2.715   8.736  1.00  0.00     0.029 A 
ATOM     61  C   UNL     1     -13.018   3.689   7.972  1.00  0.00     0.049 A 
ATOM     62  H   UNL     1     -11.945   3.481   6.167  1.00  0.00     0.167 HD
ATOM     63  C   UNL     1     -12.277   5.991   7.428  1.00  0.00     0.074 A 
ATOM     64  C   UNL     1     -12.221   7.416   7.678  1.00  0.00     0.031 C 
ATOM     65  C   UNL     1     -12.950   5.108   8.206  1.00  0.00     0.037 A 
BRANCH  52  66
ATOM     66  C   UNL     1     -12.635  -0.726   6.209  1.00  0.00     0.057 A 
ATOM     67  C   UNL     1     -11.705  -1.687   6.622  1.00  0.00     0.134 A 
ATOM     68  C   UNL     1     -13.957  -1.145   6.010  1.00  0.00     0.134 A 
ATOM     69  F   UNL     1     -10.419  -1.353   6.810  1.00  0.00    -0.206 F 
ATOM     70  C   UNL     1     -12.073  -3.020   6.813  1.00  0.00     0.040 A 
ATOM     71  C   UNL     1     -14.341  -2.470   6.219  1.00  0.00     0.040 A 
ATOM     72  F   UNL     1     -14.895  -0.272   5.614  1.00  0.00    -0.206 F 
ATOM     73  C   UNL     1     -13.397  -3.413   6.617  1.00  0.00     0.006 A 
ENDBRANCH  52  66
BRANCH  53  74
ATOM     74  C   UNL     1      -9.876   8.682   4.420  1.00  0.00     0.057 A 
ATOM     75  C   UNL     1      -8.952   9.353   5.228  1.00  0.00     0.134 A 
ATOM     76  C   UNL     1     -10.445   9.397   3.359  1.00  0.00     0.134 A 
ATOM     77  F   UNL     1      -8.394   8.728   6.276  1.00  0.00    -0.206 F 
ATOM     78  C   UNL     1      -8.614  10.688   4.998  1.00  0.00     0.040 A 
ATOM     79  C   UNL     1     -10.099  10.724   3.102  1.00  0.00     0.040 A 
ATOM     80  F   UNL     1     -11.341   8.811   2.551  1.00  0.00    -0.206 F 
ATOM     81  C   UNL     1      -9.184  11.375   3.928  1.00  0.00     0.006 A 
ENDBRANCH  53  74
BRANCH  65  82
ATOM     82  C   UNL     1     -13.652   5.655   9.412  1.00  0.00     0.057 A 
ATOM     83  C   UNL     1     -14.850   6.371   9.305  1.00  0.00     0.134 A 
ATOM     84  C   UNL     1     -13.140   5.434  10.697  1.00  0.00     0.134 A 
ATOM     85  F   UNL     1     -15.383   6.628   8.101  1.00  0.00    -0.206 F 
ATOM     86  C   UNL     1     -15.505   6.866  10.434  1.00  0.00     0.040 A 
ATOM     87  C   UNL     1     -13.797   5.905  11.834  1.00  0.00     0.040 A 
ATOM     88  F   UNL     1     -11.999   4.749  10.867  1.00  0.00    -0.206 F 
ATOM     89  C   UNL     1     -14.982   6.628  11.703  1.00  0.00     0.006 A 
ENDBRANCH  65  82
ENDBRANCH  39  40
ENDBRANCH  32  34
ENDBRANCH  31  32
ENDBRANCH  30  31
ENDBRANCH  29  30
ENDBRANCH  28  29
ENDBRANCH  27  28
ENDBRANCH   1  27
TORSDOF 21
