REMARK SMILES CC[C@@](C)(NC(=O)c1cccc2ccccc12)C(=O)OCCOCCOCCOC(=O)c1ccc(-c2c3nc(c(-c4c(F)cccc4F)c4ccc([nH]4)c(-c4c(F)cccc4F)c4nc(c(-c5c(F)cccc5F)c5ccc2[nH]5)C=C4)C=C3)cc1
REMARK SMILES IDX 24 1 23 2 22 3 21 4 20 5 18 6 19 7 3 8 4 9 2 10 1 11 5 12
REMARK SMILES IDX 6 13 7 15 8 16 9 17 17 18 10 19 12 20 16 21 11 22 13 23
REMARK SMILES IDX 15 24 14 25 25 26 26 27 27 28 28 29 29 30 30 31 31 32 32 33
REMARK SMILES IDX 33 34 85 35 34 36 84 37 35 38 36 39 37 40 78 41 38 42 83 43
REMARK SMILES IDX 77 44 79 45 39 46 82 47 76 48 75 49 40 51 66 52 49 53 65 54
REMARK SMILES IDX 50 55 53 56 64 57 80 58 51 59 52 60 63 62 81 63 54 64 41 65
REMARK SMILES IDX 42 66 47 67 43 68 44 69 46 70 48 71 45 72 67 73 68 74 73 75
REMARK SMILES IDX 69 76 70 77 72 78 74 79 71 80 55 81 56 82 61 83 57 84 58 85
REMARK SMILES IDX 60 86 62 87 59 88
REMARK H PARENT 5 14 79 50 53 61
REMARK Flexibility Score: inf
ROOT
ATOM      1  C   UNL     1       1.934   3.214   0.797  1.00  0.00     0.188 C 
ENDROOT
BRANCH   1   2
ATOM      2  O   UNL     1       3.300   2.924   1.133  1.00  0.00    -0.376 OA
BRANCH   2   3
ATOM      3  C   UNL     1       3.853   1.615   0.828  1.00  0.00     0.202 C 
BRANCH   3   4
ATOM      4  C   UNL     1       4.225   1.207  -0.631  1.00  0.00     0.261 C 
BRANCH   4   5
ATOM      5  O   UNL     1       3.297   1.699  -1.591  1.00  0.00    -0.462 OA
BRANCH   5   6
ATOM      6  C   UNL     1       2.222   0.962  -1.922  1.00  0.00     0.331 C 
ATOM      7  O   UNL     1       2.196  -0.260  -1.910  1.00  0.00    -0.249 OA
BRANCH   6   8
ATOM      8  C   UNL     1       0.999   1.906  -2.093  1.00  0.00     0.135 C 
ATOM      9  C   UNL     1       0.286   1.486  -3.401  1.00  0.00     0.047 C 
BRANCH   8  10
ATOM     10  C   UNL     1      -0.101   1.661  -0.968  1.00  0.00     0.037 C 
ATOM     11  C   UNL     1      -0.037   0.313  -0.238  1.00  0.00     0.007 C 
ENDBRANCH   8  10
BRANCH   8  12
ATOM     12  N   UNL     1       1.400   3.394  -2.306  1.00  0.00    -0.336 N 
ATOM     13  C   UNL     1       2.368   4.377  -2.014  1.00  0.00     0.252 C 
ATOM     14  H   UNL     1       0.705   3.815  -2.862  1.00  0.00     0.165 HD
ATOM     15  O   UNL     1       2.200   5.403  -2.700  1.00  0.00    -0.269 OA
BRANCH  13  16
ATOM     16  C   UNL     1       3.718   4.340  -1.202  1.00  0.00     0.047 A 
ATOM     17  C   UNL     1       4.710   4.017  -2.179  1.00  0.00     0.014 A 
ATOM     18  C   UNL     1       4.093   4.977   0.204  1.00  0.00    -0.006 A 
ATOM     19  C   UNL     1       6.090   4.104  -1.985  1.00  0.00     0.001 A 
ATOM     20  C   UNL     1       5.853   5.255   0.130  1.00  0.00    -0.018 A 
ATOM     21  C   UNL     1       3.241   5.781   1.727  1.00  0.00     0.009 A 
ATOM     22  C   UNL     1       6.646   4.684  -0.856  1.00  0.00     0.009 A 
ATOM     23  C   UNL     1       6.634   6.395   1.246  1.00  0.00     0.009 A 
ATOM     24  C   UNL     1       4.090   6.944   2.812  1.00  0.00     0.001 A 
ATOM     25  C   UNL     1       5.792   7.231   2.536  1.00  0.00     0.001 A 
ENDBRANCH  13  16
ENDBRANCH   8  12
ENDBRANCH   6   8
ENDBRANCH   5   6
ENDBRANCH   4   5
ENDBRANCH   3   4
ENDBRANCH   2   3
ENDBRANCH   1   2
BRANCH   1  26
ATOM     26  C   UNL     1       1.216   4.747   0.546  1.00  0.00     0.188 C 
BRANCH  26  27
ATOM     27  O   UNL     1       1.718   5.917  -0.234  1.00  0.00    -0.376 OA
BRANCH  27  28
ATOM     28  C   UNL     1       2.743   7.024  -0.082  1.00  0.00     0.202 C 
BRANCH  28  29
ATOM     29  C   UNL     1       4.450   6.983   0.654  1.00  0.00     0.261 C 
BRANCH  29  30
ATOM     30  O   UNL     1       5.038   5.461   1.896  1.00  0.00    -0.460 OA
BRANCH  30  31
ATOM     31  C   UNL     1       5.136   4.706   3.151  1.00  0.00     0.338 C 
ATOM     32  O   UNL     1       6.259   4.688   3.688  1.00  0.00    -0.246 OA
BRANCH  31  33
ATOM     33  C   UNL     1       4.058   3.926   4.008  1.00  0.00     0.060 A 
ATOM     34  C   UNL     1       2.667   3.846   3.861  1.00  0.00     0.016 A 
ATOM     35  C   UNL     1       4.524   3.202   5.132  1.00  0.00     0.016 A 
ATOM     36  C   UNL     1       1.799   3.103   4.707  1.00  0.00     0.010 A 
ATOM     37  C   UNL     1       3.669   2.478   6.016  1.00  0.00     0.010 A 
ATOM     38  C   UNL     1       2.285   2.426   5.819  1.00  0.00    -0.014 A 
BRANCH  38  39
ATOM     39  C   UNL     1       1.357   1.783   6.806  1.00  0.00     0.031 A 
ATOM     40  C   UNL     1       0.847   2.577   7.988  1.00  0.00     0.074 A 
ATOM     41  C   UNL     1       0.936   0.508   6.674  1.00  0.00     0.049 A 
ATOM     42  N   UNL     1       0.123   2.187   9.011  1.00  0.00    -0.248 NA
ATOM     43  C   UNL     1       1.191   4.005   8.008  1.00  0.00     0.031 C 
ATOM     44  C   UNL     1       1.247  -0.374   5.553  1.00  0.00     0.029 A 
ATOM     45  N   UNL     1       0.158  -0.272   7.505  1.00  0.00    -0.354 N 
ATOM     46  C   UNL     1      -0.058   3.314   9.806  1.00  0.00     0.074 A 
ATOM     47  C   UNL     1       0.627   4.404   9.141  1.00  0.00     0.031 C 
ATOM     48  C   UNL     1       0.692  -1.579   5.777  1.00  0.00     0.029 A 
ATOM     49  C   UNL     1       0.017  -1.572   7.077  1.00  0.00     0.049 A 
ATOM     50  H   UNL     1      -0.259   0.071   8.329  1.00  0.00     0.167 HD
ATOM     51  C   UNL     1      -0.719   3.436  10.986  1.00  0.00     0.037 A 
ATOM     52  C   UNL     1      -0.554  -2.643   7.669  1.00  0.00     0.037 A 
ATOM     53  C   UNL     1      -1.397   2.362  11.671  1.00  0.00     0.049 A 
ATOM     54  C   UNL     1      -1.199  -2.511   9.027  1.00  0.00     0.074 A 
ATOM     55  C   UNL     1      -2.085   2.405  12.875  1.00  0.00     0.029 A 
ATOM     56  N   UNL     1      -1.468   1.053  11.224  1.00  0.00    -0.354 N 
ATOM     57  N   UNL     1      -1.345  -1.445   9.774  1.00  0.00    -0.248 NA
ATOM     58  C   UNL     1      -1.756  -3.737   9.624  1.00  0.00     0.031 C 
ATOM     59  C   UNL     1      -2.530   1.112  13.178  1.00  0.00     0.029 A 
ATOM     60  C   UNL     1      -2.167   0.276  12.137  1.00  0.00     0.049 A 
ATOM     61  H   UNL     1      -1.080   0.723  10.382  1.00  0.00     0.167 HD
ATOM     62  C   UNL     1      -2.036  -1.863  10.907  1.00  0.00     0.074 A 
ATOM     63  C   UNL     1      -2.288  -3.278  10.748  1.00  0.00     0.031 C 
ATOM     64  C   UNL     1      -2.429  -1.132  11.980  1.00  0.00     0.037 A 
BRANCH  51  65
ATOM     65  C   UNL     1      -0.704   4.783  11.654  1.00  0.00     0.057 A 
ATOM     66  C   UNL     1      -1.469   5.856  11.183  1.00  0.00     0.134 A 
ATOM     67  C   UNL     1       0.049   4.989  12.819  1.00  0.00     0.134 A 
ATOM     68  F   UNL     1      -2.207   5.729  10.070  1.00  0.00    -0.206 F 
ATOM     69  C   UNL     1      -1.470   7.093  11.834  1.00  0.00     0.040 A 
ATOM     70  C   UNL     1       0.037   6.213  13.491  1.00  0.00     0.040 A 
ATOM     71  F   UNL     1       0.793   3.999  13.333  1.00  0.00    -0.206 F 
ATOM     72  C   UNL     1      -0.720   7.271  12.995  1.00  0.00     0.006 A 
ENDBRANCH  51  65
BRANCH  52  73
ATOM     73  C   UNL     1      -0.520  -3.971   6.997  1.00  0.00     0.057 A 
ATOM     74  C   UNL     1      -1.688  -4.575   6.515  1.00  0.00     0.134 A 
ATOM     75  C   UNL     1       0.677  -4.683   6.852  1.00  0.00     0.134 A 
ATOM     76  F   UNL     1      -2.873  -3.963   6.660  1.00  0.00    -0.206 F 
ATOM     77  C   UNL     1      -1.668  -5.837   5.918  1.00  0.00     0.040 A 
ATOM     78  C   UNL     1       0.716  -5.934   6.233  1.00  0.00     0.040 A 
ATOM     79  F   UNL     1       1.829  -4.168   7.306  1.00  0.00    -0.206 F 
ATOM     80  C   UNL     1      -0.461  -6.516   5.768  1.00  0.00     0.006 A 
ENDBRANCH  52  73
BRANCH  64  81
ATOM     81  C   UNL     1      -3.220  -1.837  13.047  1.00  0.00     0.057 A 
ATOM     82  C   UNL     1      -2.636  -2.761  13.922  1.00  0.00     0.134 A 
ATOM     83  C   UNL     1      -4.588  -1.575  13.209  1.00  0.00     0.134 A 
ATOM     84  F   UNL     1      -1.334  -3.068  13.817  1.00  0.00    -0.206 F 
ATOM     85  C   UNL     1      -3.388  -3.421  14.898  1.00  0.00     0.040 A 
ATOM     86  C   UNL     1      -5.344  -2.209  14.196  1.00  0.00     0.040 A 
ATOM     87  F   UNL     1      -5.211  -0.694  12.412  1.00  0.00    -0.206 F 
ATOM     88  C   UNL     1      -4.746  -3.143  15.039  1.00  0.00     0.006 A 
ENDBRANCH  64  81
ENDBRANCH  38  39
ENDBRANCH  31  33
ENDBRANCH  30  31
ENDBRANCH  29  30
ENDBRANCH  28  29
ENDBRANCH  27  28
ENDBRANCH  26  27
ENDBRANCH   1  26
TORSDOF 20
