REMARK SMILES O=C(Cc1cccn1-c1ccccc1F)OCCOCCOCCOC(=O)c1ccc(-c2c3nc(c(-c4c(F)cccc4F)c4ccc([nH]4)c(-c4c(F)cccc4F)c4nc(c(-c5c(F)cccc5F)c5ccc2[nH]5)C=C4)C=C3)cc1
REMARK SMILES IDX 20 1 19 2 18 3 17 4 16 5 2 6 1 7 3 8 4 9 5 10 8 11 6 12 7 13
REMARK SMILES IDX 9 14 10 15 14 16 11 17 13 18 15 19 12 20 21 21 22 22 23 23
REMARK SMILES IDX 24 24 25 25 26 26 27 27 28 28 29 29 81 30 30 31 80 32 31 33
REMARK SMILES IDX 32 34 33 35 74 36 34 37 79 38 73 39 75 40 35 41 78 42 72 43
REMARK SMILES IDX 71 44 36 46 62 47 45 48 61 49 46 50 49 51 60 52 76 53 47 54
REMARK SMILES IDX 48 55 59 57 77 58 50 59 37 60 38 61 43 62 39 63 40 64 42 65
REMARK SMILES IDX 44 66 41 67 63 68 64 69 69 70 65 71 66 72 68 73 70 74 67 75
REMARK SMILES IDX 51 76 52 77 57 78 53 79 54 80 56 81 58 82 55 83
REMARK H PARENT 75 45 49 56
REMARK Flexibility Score: inf
ROOT
ATOM      1  C   UNL     1       3.192   2.093  -1.321  1.00  0.00     0.188 C 
ENDROOT
BRANCH   1   2
ATOM      2  O   UNL     1       4.589   1.855  -1.291  1.00  0.00    -0.376 OA
BRANCH   2   3
ATOM      3  C   UNL     1       5.050   1.108  -0.170  1.00  0.00     0.202 C 
BRANCH   3   4
ATOM      4  C   UNL     1       4.665  -0.368  -0.206  1.00  0.00     0.261 C 
BRANCH   4   5
ATOM      5  O   UNL     1       3.243  -0.623  -0.221  1.00  0.00    -0.463 OA
BRANCH   5   6
ATOM      6  C   UNL     1       2.326  -0.389   0.738  1.00  0.00     0.311 C 
ATOM      7  O   UNL     1       1.129  -0.496   0.466  1.00  0.00    -0.252 OA
BRANCH   6   8
ATOM      8  C   UNL     1       2.735   0.103   2.105  1.00  0.00     0.177 C 
BRANCH   8   9
ATOM      9  C   UNL     1       3.843  -0.638   2.787  1.00  0.00     0.034 A 
ATOM     10  C   UNL     1       4.895  -0.093   3.506  1.00  0.00     0.024 A 
ATOM     11  N   UNL     1       4.025  -2.017   2.753  1.00  0.00    -0.318 N 
ATOM     12  C   UNL     1       5.770  -1.143   3.854  1.00  0.00     0.020 A 
ATOM     13  C   UNL     1       5.237  -2.303   3.341  1.00  0.00     0.091 A 
BRANCH  11  14
ATOM     14  C   UNL     1       3.194  -2.951   2.104  1.00  0.00     0.081 A 
ATOM     15  C   UNL     1       1.852  -3.061   2.479  1.00  0.00     0.030 A 
ATOM     16  C   UNL     1       3.672  -3.619   0.975  1.00  0.00     0.147 A 
ATOM     17  C   UNL     1       0.988  -3.830   1.699  1.00  0.00     0.002 A 
ATOM     18  C   UNL     1       2.799  -4.350   0.177  1.00  0.00     0.041 A 
ATOM     19  F   UNL     1       4.941  -3.467   0.568  1.00  0.00    -0.205 F 
ATOM     20  C   UNL     1       1.454  -4.454   0.539  1.00  0.00     0.003 A 
ENDBRANCH  11  14
ENDBRANCH   8   9
ENDBRANCH   6   8
ENDBRANCH   5   6
ENDBRANCH   4   5
ENDBRANCH   3   4
ENDBRANCH   2   3
ENDBRANCH   1   2
BRANCH   1  21
ATOM     21  C   UNL     1       2.377   1.334  -2.392  1.00  0.00     0.188 C 
BRANCH  21  22
ATOM     22  O   UNL     1       2.936   0.401  -3.307  1.00  0.00    -0.376 OA
BRANCH  22  23
ATOM     23  C   UNL     1       4.280   0.454  -3.752  1.00  0.00     0.202 C 
BRANCH  23  24
ATOM     24  C   UNL     1       4.711   1.589  -4.671  1.00  0.00     0.261 C 
BRANCH  24  25
ATOM     25  O   UNL     1       4.573   2.867  -4.063  1.00  0.00    -0.460 OA
BRANCH  25  26
ATOM     26  C   UNL     1       3.413   3.468  -4.366  1.00  0.00     0.338 C 
ATOM     27  O   UNL     1       2.503   3.031  -5.070  1.00  0.00    -0.246 OA
BRANCH  26  28
ATOM     28  C   UNL     1       3.345   4.795  -3.764  1.00  0.00     0.060 A 
ATOM     29  C   UNL     1       2.063   5.327  -3.582  1.00  0.00     0.016 A 
ATOM     30  C   UNL     1       4.501   5.579  -3.681  1.00  0.00     0.016 A 
ATOM     31  C   UNL     1       1.916   6.693  -3.551  1.00  0.00     0.010 A 
ATOM     32  C   UNL     1       4.353   6.950  -3.680  1.00  0.00     0.010 A 
ATOM     33  C   UNL     1       3.057   7.484  -3.715  1.00  0.00    -0.014 A 
BRANCH  33  34
ATOM     34  C   UNL     1       2.855   8.895  -4.067  1.00  0.00     0.031 A 
ATOM     35  C   UNL     1       2.787   9.800  -2.862  1.00  0.00     0.074 A 
ATOM     36  C   UNL     1       2.730   9.135  -5.406  1.00  0.00     0.049 A 
ATOM     37  N   UNL     1       2.282  10.987  -2.751  1.00  0.00    -0.248 NA
ATOM     38  C   UNL     1       3.308   9.292  -1.565  1.00  0.00     0.031 C 
ATOM     39  C   UNL     1       2.810   8.081  -6.439  1.00  0.00     0.029 A 
ATOM     40  N   UNL     1       2.507  10.257  -6.175  1.00  0.00    -0.354 N 
ATOM     41  C   UNL     1       2.616  11.445  -1.469  1.00  0.00     0.074 A 
ATOM     42  C   UNL     1       3.125  10.322  -0.742  1.00  0.00     0.031 C 
ATOM     43  C   UNL     1       2.573   8.589  -7.660  1.00  0.00     0.029 A 
ATOM     44  C   UNL     1       2.341  10.014  -7.563  1.00  0.00     0.049 A 
ATOM     45  H   UNL     1       2.466  11.162  -5.789  1.00  0.00     0.167 HD
ATOM     46  C   UNL     1       2.603  12.760  -1.122  1.00  0.00     0.037 A 
ATOM     47  C   UNL     1       2.008  10.885  -8.565  1.00  0.00     0.037 A 
ATOM     48  C   UNL     1       2.078  13.571  -2.169  1.00  0.00     0.049 A 
ATOM     49  C   UNL     1       2.009  12.224  -7.943  1.00  0.00     0.074 A 
ATOM     50  C   UNL     1       0.811  13.771  -2.654  1.00  0.00     0.029 A 
ATOM     51  N   UNL     1       2.975  14.083  -3.074  1.00  0.00    -0.354 N 
ATOM     52  N   UNL     1       3.074  12.863  -7.555  1.00  0.00    -0.248 NA
ATOM     53  C   UNL     1       0.726  12.865  -7.633  1.00  0.00     0.031 C 
ATOM     54  C   UNL     1       0.988  14.096  -4.019  1.00  0.00     0.029 A 
ATOM     55  C   UNL     1       2.356  14.134  -4.304  1.00  0.00     0.049 A 
ATOM     56  H   UNL     1       3.898  14.364  -2.879  1.00  0.00     0.167 HD
ATOM     57  C   UNL     1       2.571  13.793  -6.672  1.00  0.00     0.074 A 
ATOM     58  C   UNL     1       1.168  13.936  -6.980  1.00  0.00     0.031 C 
ATOM     59  C   UNL     1       3.188  14.001  -5.481  1.00  0.00     0.037 A 
BRANCH  46  60
ATOM     60  C   UNL     1       3.241  13.416   0.060  1.00  0.00     0.057 A 
ATOM     61  C   UNL     1       4.484  13.034   0.583  1.00  0.00     0.134 A 
ATOM     62  C   UNL     1       2.732  14.649   0.512  1.00  0.00     0.134 A 
ATOM     63  F   UNL     1       5.099  11.914   0.181  1.00  0.00    -0.206 F 
ATOM     64  C   UNL     1       5.190  13.842   1.481  1.00  0.00     0.040 A 
ATOM     65  C   UNL     1       3.447  15.483   1.374  1.00  0.00     0.040 A 
ATOM     66  F   UNL     1       1.544  15.104   0.082  1.00  0.00    -0.206 F 
ATOM     67  C   UNL     1       4.687  15.083   1.855  1.00  0.00     0.006 A 
ENDBRANCH  46  60
BRANCH  47  68
ATOM     68  C   UNL     1       1.589  10.785 -10.018  1.00  0.00     0.057 A 
ATOM     69  C   UNL     1       1.103  11.933 -10.700  1.00  0.00     0.134 A 
ATOM     70  C   UNL     1       1.543   9.621 -10.796  1.00  0.00     0.134 A 
ATOM     71  F   UNL     1       1.183  13.159 -10.165  1.00  0.00    -0.206 F 
ATOM     72  C   UNL     1       0.499  11.900 -11.964  1.00  0.00     0.040 A 
ATOM     73  C   UNL     1       0.964   9.576 -12.080  1.00  0.00     0.040 A 
ATOM     74  F   UNL     1       2.065   8.466 -10.380  1.00  0.00    -0.206 F 
ATOM     75  C   UNL     1       0.408  10.709 -12.655  1.00  0.00     0.006 A 
ENDBRANCH  47  68
BRANCH  59  76
ATOM     76  C   UNL     1       4.651  13.617  -5.480  1.00  0.00     0.057 A 
ATOM     77  C   UNL     1       5.146  12.462  -4.859  1.00  0.00     0.134 A 
ATOM     78  C   UNL     1       5.580  14.358  -6.219  1.00  0.00     0.134 A 
ATOM     79  F   UNL     1       4.343  11.680  -4.140  1.00  0.00    -0.206 F 
ATOM     80  C   UNL     1       6.482  12.060  -4.951  1.00  0.00     0.040 A 
ATOM     81  C   UNL     1       6.921  13.965  -6.333  1.00  0.00     0.040 A 
ATOM     82  F   UNL     1       5.200  15.480  -6.849  1.00  0.00    -0.206 F 
ATOM     83  C   UNL     1       7.376  12.811  -5.699  1.00  0.00     0.006 A 
ENDBRANCH  59  76
ENDBRANCH  33  34
ENDBRANCH  26  28
ENDBRANCH  25  26
ENDBRANCH  24  25
ENDBRANCH  23  24
ENDBRANCH  22  23
ENDBRANCH  21  22
ENDBRANCH   1  21
TORSDOF 19
