REMARK SMILES Cc1coc2c(C)c3oc(=O)c(CCC(=O)N[C@H](CC(C)C)C(=O)OCCOCCOCCOC(=O)c4ccc(-c5c6nc(c(-c7c(F)cccc7F)c7ccc([nH]7)c(-c7c(F)cccc7F)c7nc(c(-c8c(F)cccc8F)c8ccc5[nH]8)C=C7)C=C6)cc4)c(C)c3cc12
REMARK SMILES IDX 29 1 28 2 27 3 26 4 25 5 23 6 24 7 18 8 17 9 15 10 16 11
REMARK SMILES IDX 14 13 13 14 12 15 1 16 2 17 3 18 95 19 4 20 5 21 94 22 6 23
REMARK SMILES IDX 93 24 7 25 8 26 91 27 9 28 92 29 10 30 11 31 19 32 20 33
REMARK SMILES IDX 21 34 22 35 30 36 31 37 32 38 33 39 34 40 35 41 36 42 37 43
REMARK SMILES IDX 38 44 90 45 39 46 89 47 40 48 41 49 42 50 83 51 43 52 88 53
REMARK SMILES IDX 82 54 84 55 44 56 87 57 81 58 80 59 45 61 71 62 54 63 70 64
REMARK SMILES IDX 55 65 58 66 69 67 85 68 56 69 57 70 68 72 86 73 59 74 46 75
REMARK SMILES IDX 47 76 52 77 48 78 49 79 51 80 53 81 50 82 72 83 73 84 78 85
REMARK SMILES IDX 74 86 75 87 77 88 79 89 76 90 60 91 61 92 66 93 62 94 63 95
REMARK SMILES IDX 65 96 67 97 64 98
REMARK H PARENT 17 12 84 60 58 71
REMARK Flexibility Score: inf
ROOT
ATOM      1  C   UNL     1       4.594   3.394   6.546  1.00  0.00     0.188 C 
ENDROOT
BRANCH   1   2
ATOM      2  O   UNL     1       5.421   2.579   5.745  1.00  0.00    -0.376 OA
BRANCH   2   3
ATOM      3  C   UNL     1       4.934   1.654   4.770  1.00  0.00     0.202 C 
BRANCH   3   4
ATOM      4  C   UNL     1       4.093   1.977   3.440  1.00  0.00     0.261 C 
BRANCH   4   5
ATOM      5  O   UNL     1       2.354   2.252   3.400  1.00  0.00    -0.462 OA
BRANCH   5   6
ATOM      6  C   UNL     1       0.911   3.090   4.219  1.00  0.00     0.328 C 
ATOM      7  O   UNL     1       1.012   3.836   5.239  1.00  0.00    -0.250 OA
BRANCH   6   8
ATOM      8  C   UNL     1      -0.622   2.934   3.888  1.00  0.00     0.192 C 
BRANCH   8   9
ATOM      9  N   UNL     1      -1.430   1.780   3.518  1.00  0.00    -0.343 N 
ATOM     10  C   UNL     1      -1.621   0.643   4.270  1.00  0.00     0.221 C 
ATOM     11  O   UNL     1      -2.615  -0.047   4.046  1.00  0.00    -0.275 OA
ATOM     12  H   UNL     1      -1.884   1.817   2.644  1.00  0.00     0.164 HD
BRANCH  10  13
ATOM     13  C   UNL     1      -0.571   0.197   5.282  1.00  0.00     0.105 C 
BRANCH  13  14
ATOM     14  C   UNL     1       0.660  -0.361   4.571  1.00  0.00     0.053 C 
BRANCH  14  15
ATOM     15  C   UNL     1       1.295   0.791   3.880  1.00  0.00     0.042 A 
ATOM     16  C   UNL     1      -0.231   5.289  -1.859  1.00  0.00     0.048 C 
ATOM     17  C   UNL     1       0.782   5.594  -0.819  1.00  0.00    -0.005 A 
ATOM     18  C   UNL     1       1.345   6.833  -0.626  1.00  0.00     0.199 A 
ATOM     19  C   UNL     1       1.278   4.752   0.252  1.00  0.00     0.024 A 
ATOM     20  O   UNL     1       2.086   6.846   0.494  1.00  0.00    -0.464 OA
ATOM     21  C   UNL     1       2.014   5.611   1.089  1.00  0.00     0.140 A 
ATOM     22  C   UNL     1       1.032   3.387   0.586  1.00  0.00     0.024 A 
ATOM     23  C   UNL     1       2.583   5.401   2.381  1.00  0.00     0.036 A 
ATOM     24  C   UNL     1       1.506   2.948   1.811  1.00  0.00     0.022 A 
ATOM     25  C   UNL     1       3.178   6.552   3.074  1.00  0.00     0.052 C 
ATOM     26  C   UNL     1       2.393   4.087   2.775  1.00  0.00     0.145 A 
ATOM     27  C   UNL     1       1.012   1.257   2.432  1.00  0.00    -0.030 A 
ATOM     28  O   UNL     1       2.847   3.484   4.476  1.00  0.00    -0.422 OA
ATOM     29  C   UNL     1       0.226   0.488   1.410  1.00  0.00     0.046 C 
ATOM     30  C   UNL     1       2.312   1.840   5.176  1.00  0.00     0.339 A 
ATOM     31  O   UNL     1       2.479   1.450   6.329  1.00  0.00    -0.246 OA
ENDBRANCH  14  15
ENDBRANCH  13  14
ENDBRANCH  10  13
ENDBRANCH   8   9
BRANCH   8  32
ATOM     32  C   UNL     1      -1.003   4.325   3.285  1.00  0.00     0.040 C 
BRANCH  32  33
ATOM     33  C   UNL     1      -2.244   4.464   2.415  1.00  0.00    -0.015 C 
ATOM     34  C   UNL     1      -3.478   4.601   3.295  1.00  0.00     0.007 C 
ATOM     35  C   UNL     1      -2.107   5.704   1.527  1.00  0.00     0.007 C 
ENDBRANCH  32  33
ENDBRANCH   8  32
ENDBRANCH   6   8
ENDBRANCH   5   6
ENDBRANCH   4   5
ENDBRANCH   3   4
ENDBRANCH   2   3
ENDBRANCH   1   2
BRANCH   1  36
ATOM     36  C   UNL     1       4.685   4.821   6.083  1.00  0.00     0.188 C 
BRANCH  36  37
ATOM     37  O   UNL     1       4.812   5.010   4.684  1.00  0.00    -0.376 OA
BRANCH  37  38
ATOM     38  C   UNL     1       6.091   4.874   4.080  1.00  0.00     0.202 C 
BRANCH  38  39
ATOM     39  C   UNL     1       7.050   6.043   4.298  1.00  0.00     0.261 C 
BRANCH  39  40
ATOM     40  O   UNL     1       6.590   6.907   5.320  1.00  0.00    -0.460 OA
BRANCH  40  41
ATOM     41  C   UNL     1       5.549   7.696   4.959  1.00  0.00     0.338 C 
ATOM     42  O   UNL     1       5.408   8.258   3.888  1.00  0.00    -0.246 OA
BRANCH  41  43
ATOM     43  C   UNL     1       4.655   7.849   6.136  1.00  0.00     0.060 A 
ATOM     44  C   UNL     1       3.626   8.778   6.007  1.00  0.00     0.016 A 
ATOM     45  C   UNL     1       5.267   7.614   7.364  1.00  0.00     0.016 A 
ATOM     46  C   UNL     1       3.694   9.862   6.842  1.00  0.00     0.010 A 
ATOM     47  C   UNL     1       5.352   8.680   8.178  1.00  0.00     0.010 A 
ATOM     48  C   UNL     1       4.720   9.851   7.775  1.00  0.00    -0.014 A 
BRANCH  48  49
ATOM     49  C   UNL     1       5.263  11.070   8.313  1.00  0.00     0.031 A 
ATOM     50  C   UNL     1       4.793  11.243   9.694  1.00  0.00     0.074 A 
ATOM     51  C   UNL     1       6.288  11.700   7.706  1.00  0.00     0.049 A 
ATOM     52  N   UNL     1       3.693  11.821  10.059  1.00  0.00    -0.248 NA
ATOM     53  C   UNL     1       5.340  10.314  10.707  1.00  0.00     0.031 C 
ATOM     54  C   UNL     1       7.036  11.327   6.498  1.00  0.00     0.029 A 
ATOM     55  N   UNL     1       6.962  12.793   8.150  1.00  0.00    -0.354 N 
ATOM     56  C   UNL     1       3.618  11.501  11.405  1.00  0.00     0.074 A 
ATOM     57  C   UNL     1       4.296  10.249  11.536  1.00  0.00     0.031 C 
ATOM     58  C   UNL     1       8.182  12.049   6.439  1.00  0.00     0.029 A 
ATOM     59  C   UNL     1       8.203  12.990   7.542  1.00  0.00     0.049 A 
ATOM     60  H   UNL     1       6.604  13.396   8.842  1.00  0.00     0.167 HD
ATOM     61  C   UNL     1       3.551  12.472  12.357  1.00  0.00     0.037 A 
ATOM     62  C   UNL     1       9.165  13.803   8.055  1.00  0.00     0.037 A 
ATOM     63  C   UNL     1       3.236  13.747  11.754  1.00  0.00     0.049 A 
ATOM     64  C   UNL     1       8.496  14.648   9.094  1.00  0.00     0.074 A 
ATOM     65  C   UNL     1       2.211  14.197  10.943  1.00  0.00     0.029 A 
ATOM     66  N   UNL     1       4.279  14.628  11.576  1.00  0.00    -0.354 N 
ATOM     67  N   UNL     1       7.591  15.551   8.829  1.00  0.00    -0.248 NA
ATOM     68  C   UNL     1       8.458  14.110  10.449  1.00  0.00     0.031 C 
ATOM     69  C   UNL     1       2.831  15.060   9.994  1.00  0.00     0.029 A 
ATOM     70  C   UNL     1       4.183  15.178  10.321  1.00  0.00     0.049 A 
ATOM     71  H   UNL     1       4.978  14.830  12.238  1.00  0.00     0.167 HD
ATOM     72  C   UNL     1       6.619  15.378   9.809  1.00  0.00     0.074 A 
ATOM     73  C   UNL     1       7.238  14.516  10.814  1.00  0.00     0.031 C 
ATOM     74  C   UNL     1       5.311  15.688   9.568  1.00  0.00     0.037 A 
BRANCH  61  75
ATOM     75  C   UNL     1       4.170  12.341  13.733  1.00  0.00     0.057 A 
ATOM     76  C   UNL     1       3.765  13.247  14.720  1.00  0.00     0.134 A 
ATOM     77  C   UNL     1       5.261  11.515  14.104  1.00  0.00     0.134 A 
ATOM     78  F   UNL     1       2.754  14.098  14.493  1.00  0.00    -0.206 F 
ATOM     79  C   UNL     1       4.417  13.351  15.955  1.00  0.00     0.040 A 
ATOM     80  C   UNL     1       5.879  11.570  15.352  1.00  0.00     0.040 A 
ATOM     81  F   UNL     1       5.870  10.664  13.274  1.00  0.00    -0.206 F 
ATOM     82  C   UNL     1       5.476  12.511  16.276  1.00  0.00     0.006 A 
ENDBRANCH  61  75
BRANCH  62  83
ATOM     83  C   UNL     1      10.642  13.653   8.020  1.00  0.00     0.057 A 
ATOM     84  C   UNL     1      11.480  14.707   8.418  1.00  0.00     0.134 A 
ATOM     85  C   UNL     1      11.260  12.398   7.885  1.00  0.00     0.134 A 
ATOM     86  F   UNL     1      10.981  15.938   8.605  1.00  0.00    -0.206 F 
ATOM     87  C   UNL     1      12.839  14.517   8.706  1.00  0.00     0.040 A 
ATOM     88  C   UNL     1      12.617  12.195   8.164  1.00  0.00     0.040 A 
ATOM     89  F   UNL     1      10.552  11.305   7.572  1.00  0.00    -0.206 F 
ATOM     90  C   UNL     1      13.408  13.253   8.595  1.00  0.00     0.006 A 
ENDBRANCH  62  83
BRANCH  74  91
ATOM     91  C   UNL     1       4.990  16.449   8.305  1.00  0.00     0.057 A 
ATOM     92  C   UNL     1       5.202  15.960   7.005  1.00  0.00     0.134 A 
ATOM     93  C   UNL     1       4.293  17.657   8.413  1.00  0.00     0.134 A 
ATOM     94  F   UNL     1       5.774  14.768   6.798  1.00  0.00    -0.206 F 
ATOM     95  C   UNL     1       4.773  16.659   5.870  1.00  0.00     0.040 A 
ATOM     96  C   UNL     1       3.828  18.346   7.291  1.00  0.00     0.040 A 
ATOM     97  F   UNL     1       4.006  18.163   9.623  1.00  0.00    -0.206 F 
ATOM     98  C   UNL     1       4.075  17.853   6.013  1.00  0.00     0.006 A 
ENDBRANCH  74  91
ENDBRANCH  48  49
ENDBRANCH  41  43
ENDBRANCH  40  41
ENDBRANCH  39  40
ENDBRANCH  38  39
ENDBRANCH  37  38
ENDBRANCH  36  37
ENDBRANCH   1  36
TORSDOF 23
