REMARK SMILES Cc1ccccc1/[NH+]=C1\S[C@@H](CC(=O)Nc2ccc(C(=O)OCCOCCOCCOC(=O)c3ccc(-c4c5nc(c(-c6c(F)cccc6F)c6ccc([nH]6)c(-c6c(F)cccc6F)c6nc(c(-c7c(F)cccc7F)c7ccc4[nH]7)C=C6)C=C5)cc3)cc2)C(=O)N1C
REMARK SMILES IDX 26 1 25 2 24 3 23 4 22 5 20 6 21 7 19 8 16 9 17 10 89 11
REMARK SMILES IDX 18 12 88 13 15 14 13 15 14 16 12 18 11 19 8 20 9 21 10 23
REMARK SMILES IDX 92 24 90 25 93 26 91 27 7 28 1 29 2 30 3 31 4 32 6 33 5 34
REMARK SMILES IDX 27 35 28 36 29 37 30 38 31 39 32 40 33 41 34 42 35 43 87 44
REMARK SMILES IDX 36 45 86 46 37 47 38 48 39 49 80 50 40 51 85 52 79 53 81 54
REMARK SMILES IDX 41 55 84 56 78 57 77 58 42 60 68 61 51 62 67 63 52 64 55 65
REMARK SMILES IDX 66 66 82 67 53 68 54 69 65 71 83 72 56 73 43 74 44 75 49 76
REMARK SMILES IDX 45 77 46 78 48 79 50 80 47 81 69 82 70 83 75 84 71 85 72 86
REMARK SMILES IDX 74 87 76 88 73 89 57 90 58 91 63 92 59 93 60 94 62 95 64 96
REMARK SMILES IDX 61 97
REMARK H PARENT 15 17 8 22 81 59 55 70
REMARK Flexibility Score: inf
ROOT
ATOM      1  C   UNL     1       3.643   9.442  -4.386  1.00  0.00     0.188 C 
ENDROOT
BRANCH   1   2
ATOM      2  O   UNL     1       3.177   8.154  -3.998  1.00  0.00    -0.376 OA
BRANCH   2   3
ATOM      3  C   UNL     1       1.867   7.870  -3.550  1.00  0.00     0.202 C 
BRANCH   3   4
ATOM      4  C   UNL     1       1.727   7.127  -2.105  1.00  0.00     0.261 C 
BRANCH   4   5
ATOM      5  O   UNL     1       2.207   5.633  -1.765  1.00  0.00    -0.460 OA
BRANCH   5   6
ATOM      6  C   UNL     1       3.082   4.653  -1.316  1.00  0.00     0.338 C 
ATOM      7  O   UNL     1       2.689   3.485  -1.367  1.00  0.00    -0.246 OA
BRANCH   6   8
ATOM      8  C   UNL     1       4.485   4.718  -0.711  1.00  0.00     0.060 A 
ATOM      9  C   UNL     1       6.787   4.104   0.791  1.00  0.00     0.041 A 
ATOM     10  C   UNL     1       5.843   4.990   1.301  1.00  0.00     0.027 A 
ATOM     11  C   UNL     1       6.748   3.759  -0.556  1.00  0.00     0.027 A 
ATOM     12  C   UNL     1       4.678   5.263   0.564  1.00  0.00     0.018 A 
ATOM     13  C   UNL     1       5.583   4.036  -1.296  1.00  0.00     0.018 A 
BRANCH   9  14
ATOM     14  N   UNL     1       7.504   3.326   1.722  1.00  0.00    -0.326 N 
ATOM     15  C   UNL     1       7.065   2.080   2.138  1.00  0.00     0.226 C 
ATOM     16  O   UNL     1       7.454   1.623   3.216  1.00  0.00    -0.275 OA
ATOM     17  H   UNL     1       8.345   3.681   2.090  1.00  0.00     0.169 HD
BRANCH  15  18
ATOM     18  C   UNL     1       6.110   1.281   1.272  1.00  0.00     0.128 C 
BRANCH  18  19
ATOM     19  C   UNL     1       4.654   1.288   1.713  1.00  0.00     0.183 C 
ATOM     20  N   UNL     1       0.993   1.494   0.844  1.00  0.00    -0.234 N 
ATOM     21  C   UNL     1       2.261   1.679   0.913  1.00  0.00     0.319 C 
ATOM     22  H   UNL     1       0.485   2.247   1.223  1.00  0.00     0.313 HD
ATOM     23  S   UNL     1       3.608   0.775   0.321  1.00  0.00    -0.022 SA
ATOM     24  N   UNL     1       2.739   2.736   1.647  1.00  0.00    -0.193 N 
ATOM     25  C   UNL     1       3.993   2.567   2.204  1.00  0.00     0.324 C 
ATOM     26  C   UNL     1       1.901   3.883   1.950  1.00  0.00     0.301 C 
ATOM     27  O   UNL     1       4.447   3.265   3.106  1.00  0.00    -0.245 OA
BRANCH  20  28
ATOM     28  C   UNL     1       0.160   0.480   0.360  1.00  0.00     0.128 A 
ATOM     29  C   UNL     1       1.716  -1.589   0.269  1.00  0.00     0.049 C 
ATOM     30  C   UNL     1       0.388  -0.901   0.201  1.00  0.00    -0.004 A 
ATOM     31  C   UNL     1      -0.708  -1.763  -0.040  1.00  0.00     0.008 A 
ATOM     32  C   UNL     1      -2.015  -1.295  -0.098  1.00  0.00     0.001 A 
ATOM     33  C   UNL     1      -1.177   0.926   0.246  1.00  0.00     0.052 A 
ATOM     34  C   UNL     1      -2.252   0.061   0.035  1.00  0.00     0.004 A 
ENDBRANCH  20  28
ENDBRANCH  18  19
ENDBRANCH  15  18
ENDBRANCH   9  14
ENDBRANCH   6   8
ENDBRANCH   5   6
ENDBRANCH   4   5
ENDBRANCH   3   4
ENDBRANCH   2   3
ENDBRANCH   1   2
BRANCH   1  35
ATOM     35  C   UNL     1       3.313  10.617  -3.475  1.00  0.00     0.188 C 
BRANCH  35  36
ATOM     36  O   UNL     1       2.913  10.140  -2.200  1.00  0.00    -0.376 OA
BRANCH  36  37
ATOM     37  C   UNL     1       2.625  11.157  -1.254  1.00  0.00     0.202 C 
BRANCH  37  38
ATOM     38  C   UNL     1       3.897  11.774  -0.650  1.00  0.00     0.261 C 
BRANCH  38  39
ATOM     39  O   UNL     1       4.767  10.723  -0.176  1.00  0.00    -0.460 OA
BRANCH  39  40
ATOM     40  C   UNL     1       5.925  10.527  -0.893  1.00  0.00     0.338 C 
ATOM     41  O   UNL     1       6.674  11.388  -1.261  1.00  0.00    -0.246 OA
BRANCH  40  42
ATOM     42  C   UNL     1       5.962   9.104  -1.376  1.00  0.00     0.060 A 
ATOM     43  C   UNL     1       6.753   8.658  -2.430  1.00  0.00     0.016 A 
ATOM     44  C   UNL     1       4.992   8.246  -0.974  1.00  0.00     0.016 A 
ATOM     45  C   UNL     1       6.399   7.481  -3.193  1.00  0.00     0.010 A 
ATOM     46  C   UNL     1       4.638   7.193  -1.836  1.00  0.00     0.010 A 
ATOM     47  C   UNL     1       5.208   6.760  -3.034  1.00  0.00    -0.014 A 
BRANCH  47  48
ATOM     48  C   UNL     1       4.520   5.856  -4.190  1.00  0.00     0.031 A 
ATOM     49  C   UNL     1       3.539   4.622  -4.228  1.00  0.00     0.074 A 
ATOM     50  C   UNL     1       4.791   6.188  -5.478  1.00  0.00     0.049 A 
ATOM     51  N   UNL     1       3.880   3.397  -4.591  1.00  0.00    -0.248 NA
ATOM     52  C   UNL     1       2.060   4.692  -4.114  1.00  0.00     0.031 C 
ATOM     53  C   UNL     1       4.271   5.580  -6.707  1.00  0.00     0.029 A 
ATOM     54  N   UNL     1       5.768   7.071  -5.939  1.00  0.00    -0.354 N 
ATOM     55  C   UNL     1       2.705   2.628  -4.680  1.00  0.00     0.074 A 
ATOM     56  C   UNL     1       1.639   3.431  -4.171  1.00  0.00     0.031 C 
ATOM     57  C   UNL     1       5.142   5.831  -7.698  1.00  0.00     0.029 A 
ATOM     58  C   UNL     1       6.277   6.529  -7.121  1.00  0.00     0.049 A 
ATOM     59  H   UNL     1       6.044   7.914  -5.514  1.00  0.00     0.167 HD
ATOM     60  C   UNL     1       2.437   1.562  -5.495  1.00  0.00     0.037 A 
ATOM     61  C   UNL     1       7.591   6.189  -7.217  1.00  0.00     0.037 A 
ATOM     62  C   UNL     1       3.282   1.550  -6.651  1.00  0.00     0.049 A 
ATOM     63  C   UNL     1       7.814   4.744  -7.580  1.00  0.00     0.074 A 
ATOM     64  C   UNL     1       3.080   1.995  -7.946  1.00  0.00     0.029 A 
ATOM     65  N   UNL     1       4.628   1.316  -6.502  1.00  0.00    -0.354 N 
ATOM     66  N   UNL     1       6.886   3.829  -7.552  1.00  0.00    -0.248 NA
ATOM     67  C   UNL     1       9.116   4.202  -7.959  1.00  0.00     0.031 C 
ATOM     68  C   UNL     1       4.344   2.101  -8.564  1.00  0.00     0.029 A 
ATOM     69  C   UNL     1       5.289   1.655  -7.660  1.00  0.00     0.049 A 
ATOM     70  H   UNL     1       5.055   0.959  -5.689  1.00  0.00     0.167 HD
ATOM     71  C   UNL     1       7.445   2.606  -7.822  1.00  0.00     0.074 A 
ATOM     72  C   UNL     1       8.832   2.897  -8.110  1.00  0.00     0.031 C 
ATOM     73  C   UNL     1       6.716   1.456  -7.753  1.00  0.00     0.037 A 
BRANCH  60  74
ATOM     74  C   UNL     1       1.135   0.790  -5.363  1.00  0.00     0.057 A 
ATOM     75  C   UNL     1       0.244   0.506  -6.412  1.00  0.00     0.134 A 
ATOM     76  C   UNL     1       0.746   0.297  -4.100  1.00  0.00     0.134 A 
ATOM     77  F   UNL     1       0.500   0.880  -7.672  1.00  0.00    -0.206 F 
ATOM     78  C   UNL     1      -0.982  -0.155  -6.204  1.00  0.00     0.040 A 
ATOM     79  C   UNL     1      -0.482  -0.344  -3.877  1.00  0.00     0.040 A 
ATOM     80  F   UNL     1       1.556   0.443  -3.041  1.00  0.00    -0.206 F 
ATOM     81  C   UNL     1      -1.359  -0.563  -4.931  1.00  0.00     0.006 A 
ENDBRANCH  60  74
BRANCH  61  82
ATOM     82  C   UNL     1       8.520   7.028  -6.399  1.00  0.00     0.057 A 
ATOM     83  C   UNL     1       8.507   8.427  -6.584  1.00  0.00     0.134 A 
ATOM     84  C   UNL     1       9.193   6.554  -5.267  1.00  0.00     0.134 A 
ATOM     85  F   UNL     1       7.863   8.963  -7.633  1.00  0.00    -0.206 F 
ATOM     86  C   UNL     1       9.058   9.312  -5.652  1.00  0.00     0.040 A 
ATOM     87  C   UNL     1       9.762   7.433  -4.330  1.00  0.00     0.040 A 
ATOM     88  F   UNL     1       9.199   5.247  -4.973  1.00  0.00    -0.206 F 
ATOM     89  C   UNL     1       9.678   8.814  -4.511  1.00  0.00     0.006 A 
ENDBRANCH  61  82
BRANCH  73  90
ATOM     90  C   UNL     1       7.224   0.036  -7.798  1.00  0.00     0.057 A 
ATOM     91  C   UNL     1       8.499  -0.357  -7.378  1.00  0.00     0.134 A 
ATOM     92  C   UNL     1       6.343  -1.027  -8.119  1.00  0.00     0.134 A 
ATOM     93  F   UNL     1       9.400   0.533  -6.942  1.00  0.00    -0.206 F 
ATOM     94  C   UNL     1       8.888  -1.702  -7.326  1.00  0.00     0.040 A 
ATOM     95  C   UNL     1       6.702  -2.372  -8.014  1.00  0.00     0.040 A 
ATOM     96  F   UNL     1       5.082  -0.806  -8.523  1.00  0.00    -0.206 F 
ATOM     97  C   UNL     1       7.986  -2.715  -7.629  1.00  0.00     0.006 A 
ENDBRANCH  73  90
ENDBRANCH  47  48
ENDBRANCH  40  42
ENDBRANCH  39  40
ENDBRANCH  38  39
ENDBRANCH  37  38
ENDBRANCH  36  37
ENDBRANCH  35  36
ENDBRANCH   1  35
TORSDOF 21
