REMARK SMILES [NH3+][C@H](c1cc(F)c(F)cc1C(=O)OCCOCCOCCOC(=O)c1ccc(-c2c3nc(c(-c4c(F)cccc4F)c4ccc([nH]4)c(-c4c(F)cccc4F)c4nc(c(-c5c(F)cccc5F)c5ccc2[nH]5)C=C4)C=C3)cc1)C(F)(F)F
REMARK SMILES IDX 17 1 16 2 15 3 14 4 13 5 11 6 12 7 10 8 3 9 4 10 5 11 9 12
REMARK SMILES IDX 6 13 7 14 8 15 2 16 1 17 79 21 80 22 81 23 82 24 18 25 19 26
REMARK SMILES IDX 20 27 21 28 22 29 23 30 24 31 25 32 26 33 78 34 27 35 77 36
REMARK SMILES IDX 28 37 29 38 30 39 71 40 31 41 76 42 70 43 72 44 32 45 75 46
REMARK SMILES IDX 69 47 68 48 33 50 59 51 42 52 58 53 43 54 46 55 57 56 73 57
REMARK SMILES IDX 44 58 45 59 56 61 74 62 47 63 34 64 35 65 40 66 36 67 37 68
REMARK SMILES IDX 39 69 41 70 38 71 60 72 61 73 66 74 62 75 63 76 65 77 67 78
REMARK SMILES IDX 64 79 48 80 49 81 54 82 50 83 51 84 53 85 55 86 52 87
REMARK H PARENT 1 18 1 19 1 20 72 49 46 60
REMARK Flexibility Score: inf
ROOT
ATOM      1  C   UNL     1      -2.831   1.674  -0.204  1.00  0.00     0.188 C 
ENDROOT
BRANCH   1   2
ATOM      2  O   UNL     1      -3.573   1.903  -1.385  1.00  0.00    -0.376 OA
BRANCH   2   3
ATOM      3  C   UNL     1      -3.063   1.503  -2.653  1.00  0.00     0.202 C 
BRANCH   3   4
ATOM      4  C   UNL     1      -1.626   1.857  -3.032  1.00  0.00     0.261 C 
BRANCH   4   5
ATOM      5  O   UNL     1      -0.691   1.204  -2.158  1.00  0.00    -0.460 OA
BRANCH   5   6
ATOM      6  C   UNL     1       0.326   1.963  -1.712  1.00  0.00     0.338 C 
ATOM      7  O   UNL     1       0.596   3.099  -2.061  1.00  0.00    -0.246 OA
BRANCH   6   8
ATOM      8  C   UNL     1       0.945   1.312  -0.530  1.00  0.00     0.072 A 
ATOM      9  C   UNL     1       1.321  -0.053  -0.420  1.00  0.00     0.036 A 
ATOM     10  C   UNL     1       1.939  -0.444   0.796  1.00  0.00     0.053 A 
ATOM     11  C   UNL     1       2.170   0.467   1.829  1.00  0.00     0.159 A 
ATOM     12  C   UNL     1       1.145   2.206   0.545  1.00  0.00     0.058 A 
ATOM     13  F   UNL     1       2.807   0.057   2.934  1.00  0.00    -0.204 F 
ATOM     14  C   UNL     1       1.756   1.779   1.712  1.00  0.00     0.159 A 
ATOM     15  F   UNL     1       1.942   2.647   2.715  1.00  0.00    -0.204 F 
BRANCH   9  16
ATOM     16  C   UNL     1       1.138  -1.094  -1.544  1.00  0.00     0.319 C 
BRANCH  16  17
ATOM     17  N   UNL     1       2.295  -2.044  -1.568  1.00  0.00    -0.344 N 
ATOM     18  H   UNL     1       2.160  -2.725  -2.314  1.00  0.00     0.345 HD
ATOM     19  H   UNL     1       2.356  -2.529  -0.672  1.00  0.00     0.345 HD
ATOM     20  H   UNL     1       3.157  -1.525  -1.733  1.00  0.00     0.345 HD
ENDBRANCH  16  17
BRANCH  16  21
ATOM     21  C   UNL     1      -0.234  -1.864  -1.513  1.00  0.00     0.445 C 
ATOM     22  F   UNL     1      -1.256  -1.126  -1.979  1.00  0.00    -0.165 F 
ATOM     23  F   UNL     1      -0.185  -2.972  -2.298  1.00  0.00    -0.165 F 
ATOM     24  F   UNL     1      -0.524  -2.285  -0.261  1.00  0.00    -0.165 F 
ENDBRANCH  16  21
ENDBRANCH   9  16
ENDBRANCH   6   8
ENDBRANCH   5   6
ENDBRANCH   4   5
ENDBRANCH   3   4
ENDBRANCH   2   3
ENDBRANCH   1   2
BRANCH   1  25
ATOM     25  C   UNL     1      -2.554   0.252   0.326  1.00  0.00     0.188 C 
BRANCH  25  26
ATOM     26  O   UNL     1      -3.105  -0.929  -0.219  1.00  0.00    -0.376 OA
BRANCH  26  27
ATOM     27  C   UNL     1      -4.439  -0.974  -0.676  1.00  0.00     0.202 C 
BRANCH  27  28
ATOM     28  C   UNL     1      -5.579  -0.824   0.327  1.00  0.00     0.261 C 
BRANCH  28  29
ATOM     29  O   UNL     1      -5.403   0.265   1.235  1.00  0.00    -0.460 OA
BRANCH  29  30
ATOM     30  C   UNL     1      -5.023  -0.098   2.482  1.00  0.00     0.338 C 
ATOM     31  O   UNL     1      -4.830  -1.224   2.914  1.00  0.00    -0.246 OA
BRANCH  30  32
ATOM     32  C   UNL     1      -4.707   1.122   3.235  1.00  0.00     0.060 A 
ATOM     33  C   UNL     1      -3.416   1.265   3.759  1.00  0.00     0.016 A 
ATOM     34  C   UNL     1      -5.678   2.105   3.433  1.00  0.00     0.016 A 
ATOM     35  C   UNL     1      -3.086   2.403   4.484  1.00  0.00     0.010 A 
ATOM     36  C   UNL     1      -5.357   3.229   4.191  1.00  0.00     0.010 A 
ATOM     37  C   UNL     1      -4.068   3.370   4.734  1.00  0.00    -0.014 A 
BRANCH  37  38
ATOM     38  C   UNL     1      -3.800   4.434   5.721  1.00  0.00     0.031 A 
ATOM     39  C   UNL     1      -4.264   4.226   7.132  1.00  0.00     0.074 A 
ATOM     40  C   UNL     1      -3.147   5.553   5.367  1.00  0.00     0.049 A 
ATOM     41  N   UNL     1      -4.210   5.040   8.152  1.00  0.00    -0.248 NA
ATOM     42  C   UNL     1      -4.878   2.921   7.429  1.00  0.00     0.031 C 
ATOM     43  C   UNL     1      -2.607   5.835   4.039  1.00  0.00     0.029 A 
ATOM     44  N   UNL     1      -2.838   6.667   6.104  1.00  0.00    -0.354 N 
ATOM     45  C   UNL     1      -4.788   4.350   9.210  1.00  0.00     0.074 A 
ATOM     46  C   UNL     1      -5.213   3.065   8.702  1.00  0.00     0.031 C 
ATOM     47  C   UNL     1      -2.046   7.056   4.049  1.00  0.00     0.029 A 
ATOM     48  C   UNL     1      -2.222   7.652   5.373  1.00  0.00     0.049 A 
ATOM     49  H   UNL     1      -3.038   6.752   7.064  1.00  0.00     0.167 HD
ATOM     50  C   UNL     1      -4.945   4.755  10.492  1.00  0.00     0.037 A 
ATOM     51  C   UNL     1      -1.871   8.901   5.731  1.00  0.00     0.037 A 
ATOM     52  C   UNL     1      -4.527   6.041  10.983  1.00  0.00     0.049 A 
ATOM     53  C   UNL     1      -2.135   9.360   7.142  1.00  0.00     0.074 A 
ATOM     54  C   UNL     1      -4.628   6.548  12.266  1.00  0.00     0.029 A 
ATOM     55  N   UNL     1      -3.937   7.028  10.206  1.00  0.00    -0.354 N 
ATOM     56  N   UNL     1      -2.665   8.700   8.144  1.00  0.00    -0.248 NA
ATOM     57  C   UNL     1      -1.750  10.740   7.471  1.00  0.00     0.031 C 
ATOM     58  C   UNL     1      -4.155   7.864  12.252  1.00  0.00     0.029 A 
ATOM     59  C   UNL     1      -3.698   8.154  10.976  1.00  0.00     0.049 A 
ATOM     60  H   UNL     1      -3.721   6.941   9.250  1.00  0.00     0.167 HD
ATOM     61  C   UNL     1      -2.648   9.570   9.228  1.00  0.00     0.074 A 
ATOM     62  C   UNL     1      -2.044  10.801   8.762  1.00  0.00     0.031 C 
ATOM     63  C   UNL     1      -3.090   9.370  10.495  1.00  0.00     0.037 A 
BRANCH  50  64
ATOM     64  C   UNL     1      -5.631   3.810  11.434  1.00  0.00     0.057 A 
ATOM     65  C   UNL     1      -5.028   2.621  11.866  1.00  0.00     0.134 A 
ATOM     66  C   UNL     1      -6.909   4.102  11.927  1.00  0.00     0.134 A 
ATOM     67  F   UNL     1      -3.813   2.271  11.416  1.00  0.00    -0.206 F 
ATOM     68  C   UNL     1      -5.683   1.745  12.734  1.00  0.00     0.040 A 
ATOM     69  C   UNL     1      -7.560   3.249  12.818  1.00  0.00     0.040 A 
ATOM     70  F   UNL     1      -7.543   5.224  11.553  1.00  0.00    -0.206 F 
ATOM     71  C   UNL     1      -6.950   2.063  13.219  1.00  0.00     0.006 A 
ENDBRANCH  50  64
BRANCH  51  72
ATOM     72  C   UNL     1      -1.252   9.815   4.739  1.00  0.00     0.057 A 
ATOM     73  C   UNL     1       0.077  10.234   4.868  1.00  0.00     0.134 A 
ATOM     74  C   UNL     1      -1.980  10.309   3.649  1.00  0.00     0.134 A 
ATOM     75  F   UNL     1       0.820   9.815   5.903  1.00  0.00    -0.206 F 
ATOM     76  C   UNL     1       0.655  11.126   3.962  1.00  0.00     0.040 A 
ATOM     77  C   UNL     1      -1.407  11.179   2.720  1.00  0.00     0.040 A 
ATOM     78  F   UNL     1      -3.258   9.947   3.467  1.00  0.00    -0.206 F 
ATOM     79  C   UNL     1      -0.087  11.597   2.880  1.00  0.00     0.006 A 
ENDBRANCH  51  72
BRANCH  63  80
ATOM     80  C   UNL     1      -2.899  10.490  11.477  1.00  0.00     0.057 A 
ATOM     81  C   UNL     1      -3.640  11.676  11.406  1.00  0.00     0.134 A 
ATOM     82  C   UNL     1      -1.987  10.361  12.533  1.00  0.00     0.134 A 
ATOM     83  F   UNL     1      -4.522  11.870  10.414  1.00  0.00    -0.206 F 
ATOM     84  C   UNL     1      -3.462  12.704  12.335  1.00  0.00     0.040 A 
ATOM     85  C   UNL     1      -1.823  11.368  13.485  1.00  0.00     0.040 A 
ATOM     86  F   UNL     1      -1.253   9.246  12.668  1.00  0.00    -0.206 F 
ATOM     87  C   UNL     1      -2.557  12.547  13.383  1.00  0.00     0.006 A 
ENDBRANCH  63  80
ENDBRANCH  37  38
ENDBRANCH  30  32
ENDBRANCH  29  30
ENDBRANCH  28  29
ENDBRANCH  27  28
ENDBRANCH  26  27
ENDBRANCH  25  26
ENDBRANCH   1  25
TORSDOF 20
