REMARK SMILES CCC[C@@](C)(Nc1cc(C)cc(C)c1)C(=O)OCCOCCOCCOC(=O)c1ccc(-c2c3nc(c(-c4c(F)cccc4F)c4ccc([nH]4)c(-c4c(F)cccc4F)c4nc(c(-c5c(F)cccc5F)c5ccc2[nH]5)C=C4)C=C3)cc1
REMARK SMILES IDX 21 1 20 2 19 3 18 4 17 5 15 6 16 7 4 8 5 9 3 10 2 11 1 12
REMARK SMILES IDX 6 13 7 15 8 16 14 17 9 18 12 19 10 20 11 21 13 22 22 23
REMARK SMILES IDX 23 24 24 25 25 26 26 27 27 28 28 29 29 30 30 31 82 32 31 33
REMARK SMILES IDX 81 34 32 35 33 36 34 37 75 38 35 39 80 40 74 41 76 42 36 43
REMARK SMILES IDX 79 44 73 45 72 46 37 48 63 49 46 50 62 51 47 52 50 53 61 54
REMARK SMILES IDX 77 55 48 56 49 57 60 59 78 60 51 61 38 62 39 63 44 64 40 65
REMARK SMILES IDX 41 66 43 67 45 68 42 69 64 70 65 71 70 72 66 73 67 74 69 75
REMARK SMILES IDX 71 76 68 77 52 78 53 79 58 80 54 81 55 82 57 83 59 84 56 85
REMARK H PARENT 6 14 76 47 50 58
REMARK Flexibility Score: inf
ROOT
ATOM      1  C   UNL     1       2.969  -0.652  -2.193  1.00  0.00     0.188 C 
ENDROOT
BRANCH   1   2
ATOM      2  O   UNL     1       2.773  -1.807  -2.996  1.00  0.00    -0.376 OA
BRANCH   2   3
ATOM      3  C   UNL     1       1.819  -1.680  -4.057  1.00  0.00     0.202 C 
BRANCH   3   4
ATOM      4  C   UNL     1       0.434  -1.190  -3.631  1.00  0.00     0.261 C 
BRANCH   4   5
ATOM      5  O   UNL     1       0.513   0.203  -3.269  1.00  0.00    -0.462 OA
BRANCH   5   6
ATOM      6  C   UNL     1      -0.381   0.655  -2.362  1.00  0.00     0.331 C 
ATOM      7  O   UNL     1      -1.239  -0.074  -1.865  1.00  0.00    -0.249 OA
BRANCH   6   8
ATOM      8  C   UNL     1      -0.197   2.134  -1.937  1.00  0.00     0.133 C 
ATOM      9  C   UNL     1      -1.617   2.706  -1.769  1.00  0.00     0.047 C 
BRANCH   8  10
ATOM     10  C   UNL     1       0.602   2.205  -0.590  1.00  0.00     0.040 C 
BRANCH  10  11
ATOM     11  C   UNL     1       0.095   1.471   0.660  1.00  0.00    -0.000 C 
ATOM     12  C   UNL     1       0.660   0.069   0.846  1.00  0.00     0.004 C 
ENDBRANCH  10  11
ENDBRANCH   8  10
BRANCH   8  13
ATOM     13  N   UNL     1       0.520   3.102  -2.823  1.00  0.00    -0.370 N 
ATOM     14  H   UNL     1       0.592   3.993  -2.411  1.00  0.00     0.161 HD
BRANCH  13  15
ATOM     15  C   UNL     1       1.104   3.063  -4.066  1.00  0.00     0.035 A 
ATOM     16  C   UNL     1       0.710   2.232  -5.109  1.00  0.00     0.029 A 
ATOM     17  C   UNL     1       2.238   3.873  -4.286  1.00  0.00     0.029 A 
ATOM     18  C   UNL     1       1.471   2.112  -6.286  1.00  0.00    -0.049 A 
ATOM     19  C   UNL     1       2.982   3.821  -5.475  1.00  0.00    -0.049 A 
ATOM     20  C   UNL     1       1.147   1.061  -7.304  1.00  0.00     0.044 C 
ATOM     21  C   UNL     1       2.595   2.922  -6.468  1.00  0.00     0.007 A 
ATOM     22  C   UNL     1       4.197   4.677  -5.679  1.00  0.00     0.044 C 
ENDBRANCH  13  15
ENDBRANCH   8  13
ENDBRANCH   6   8
ENDBRANCH   5   6
ENDBRANCH   4   5
ENDBRANCH   3   4
ENDBRANCH   2   3
ENDBRANCH   1   2
BRANCH   1  23
ATOM     23  C   UNL     1       3.682   0.543  -2.831  1.00  0.00     0.188 C 
BRANCH  23  24
ATOM     24  O   UNL     1       3.732   0.607  -4.247  1.00  0.00    -0.376 OA
BRANCH  24  25
ATOM     25  C   UNL     1       4.812  -0.107  -4.846  1.00  0.00     0.202 C 
BRANCH  25  26
ATOM     26  C   UNL     1       6.091   0.732  -4.954  1.00  0.00     0.261 C 
BRANCH  26  27
ATOM     27  O   UNL     1       6.625   0.987  -3.644  1.00  0.00    -0.460 OA
BRANCH  27  28
ATOM     28  C   UNL     1       6.486   2.255  -3.191  1.00  0.00     0.338 C 
ATOM     29  O   UNL     1       6.226   3.257  -3.835  1.00  0.00    -0.246 OA
BRANCH  28  30
ATOM     30  C   UNL     1       6.523   2.242  -1.716  1.00  0.00     0.060 A 
ATOM     31  C   UNL     1       5.564   2.999  -1.026  1.00  0.00     0.016 A 
ATOM     32  C   UNL     1       7.473   1.491  -1.022  1.00  0.00     0.016 A 
ATOM     33  C   UNL     1       5.602   3.069   0.365  1.00  0.00     0.010 A 
ATOM     34  C   UNL     1       7.513   1.565   0.369  1.00  0.00     0.010 A 
ATOM     35  C   UNL     1       6.613   2.396   1.060  1.00  0.00    -0.014 A 
BRANCH  35  36
ATOM     36  C   UNL     1       6.897   2.732   2.471  1.00  0.00     0.031 A 
ATOM     37  C   UNL     1       8.031   3.681   2.746  1.00  0.00     0.074 A 
ATOM     38  C   UNL     1       6.192   2.187   3.476  1.00  0.00     0.049 A 
ATOM     39  N   UNL     1       8.573   4.026   3.884  1.00  0.00    -0.248 NA
ATOM     40  C   UNL     1       8.650   4.316   1.568  1.00  0.00     0.031 C 
ATOM     41  C   UNL     1       5.054   1.284   3.320  1.00  0.00     0.029 A 
ATOM     42  N   UNL     1       6.355   2.299   4.833  1.00  0.00    -0.354 N 
ATOM     43  C   UNL     1       9.609   4.894   3.558  1.00  0.00     0.074 A 
ATOM     44  C   UNL     1       9.637   5.005   2.117  1.00  0.00     0.031 C 
ATOM     45  C   UNL     1       4.637   0.898   4.539  1.00  0.00     0.029 A 
ATOM     46  C   UNL     1       5.503   1.498   5.552  1.00  0.00     0.049 A 
ATOM     47  H   UNL     1       7.019   2.895   5.250  1.00  0.00     0.167 HD
ATOM     48  C   UNL     1      10.458   5.541   4.389  1.00  0.00     0.037 A 
ATOM     49  C   UNL     1       5.459   1.256   6.876  1.00  0.00     0.037 A 
ATOM     50  C   UNL     1      10.414   5.422   5.822  1.00  0.00     0.049 A 
ATOM     51  C   UNL     1       6.445   1.951   7.779  1.00  0.00     0.074 A 
ATOM     52  C   UNL     1      11.205   6.053   6.764  1.00  0.00     0.029 A 
ATOM     53  N   UNL     1       9.530   4.609   6.516  1.00  0.00    -0.354 N 
ATOM     54  N   UNL     1       7.405   2.791   7.469  1.00  0.00    -0.248 NA
ATOM     55  C   UNL     1       6.339   1.669   9.217  1.00  0.00     0.031 C 
ATOM     56  C   UNL     1      10.836   5.579   8.027  1.00  0.00     0.029 A 
ATOM     57  C   UNL     1       9.772   4.703   7.876  1.00  0.00     0.049 A 
ATOM     58  H   UNL     1       8.834   4.049   6.103  1.00  0.00     0.167 HD
ATOM     59  C   UNL     1       7.993   3.163   8.672  1.00  0.00     0.074 A 
ATOM     60  C   UNL     1       7.272   2.467   9.718  1.00  0.00     0.031 C 
ATOM     61  C   UNL     1       9.032   4.005   8.897  1.00  0.00     0.037 A 
BRANCH  48  62
ATOM     62  C   UNL     1      11.520   6.401   3.768  1.00  0.00     0.057 A 
ATOM     63  C   UNL     1      11.220   7.605   3.117  1.00  0.00     0.134 A 
ATOM     64  C   UNL     1      12.869   6.031   3.846  1.00  0.00     0.134 A 
ATOM     65  F   UNL     1       9.947   8.010   2.989  1.00  0.00    -0.206 F 
ATOM     66  C   UNL     1      12.219   8.397   2.547  1.00  0.00     0.040 A 
ATOM     67  C   UNL     1      13.879   6.828   3.306  1.00  0.00     0.040 A 
ATOM     68  F   UNL     1      13.228   4.890   4.454  1.00  0.00    -0.206 F 
ATOM     69  C   UNL     1      13.554   8.012   2.648  1.00  0.00     0.006 A 
ENDBRANCH  48  62
BRANCH  49  70
ATOM     70  C   UNL     1       4.462   0.302   7.429  1.00  0.00     0.057 A 
ATOM     71  C   UNL     1       3.419   0.738   8.254  1.00  0.00     0.134 A 
ATOM     72  C   UNL     1       4.542  -1.071   7.164  1.00  0.00     0.134 A 
ATOM     73  F   UNL     1       3.301   2.037   8.563  1.00  0.00    -0.206 F 
ATOM     74  C   UNL     1       2.504  -0.158   8.812  1.00  0.00     0.040 A 
ATOM     75  C   UNL     1       3.617  -1.974   7.692  1.00  0.00     0.040 A 
ATOM     76  F   UNL     1       5.515  -1.555   6.379  1.00  0.00    -0.206 F 
ATOM     77  C   UNL     1       2.599  -1.518   8.527  1.00  0.00     0.006 A 
ENDBRANCH  49  70
BRANCH  61  78
ATOM     78  C   UNL     1       9.414   4.259  10.327  1.00  0.00     0.057 A 
ATOM     79  C   UNL     1      10.034   3.283  11.117  1.00  0.00     0.134 A 
ATOM     80  C   UNL     1       9.188   5.513  10.909  1.00  0.00     0.134 A 
ATOM     81  F   UNL     1      10.271   2.058  10.624  1.00  0.00    -0.206 F 
ATOM     82  C   UNL     1      10.386   3.535  12.444  1.00  0.00     0.040 A 
ATOM     83  C   UNL     1       9.566   5.788  12.223  1.00  0.00     0.040 A 
ATOM     84  F   UNL     1       8.611   6.498  10.203  1.00  0.00    -0.206 F 
ATOM     85  C   UNL     1      10.158   4.794  12.998  1.00  0.00     0.006 A 
ENDBRANCH  61  78
ENDBRANCH  35  36
ENDBRANCH  28  30
ENDBRANCH  27  28
ENDBRANCH  26  27
ENDBRANCH  25  26
ENDBRANCH  24  25
ENDBRANCH  23  24
ENDBRANCH   1  23
TORSDOF 21
