REMARK SMILES O=C(CSc1nc2cccnc2n1C1CCCCCC1)OCCOCCOCCOC(=O)c1ccc(-c2c3nc(c(-c4c(F)cccc4F)c4ccc([nH]4)c(-c4c(F)cccc4F)c4nc(c(-c5c(F)cccc5F)c5ccc2[nH]5)C=C4)C=C3)cc1
REMARK SMILES IDX 23 1 22 2 21 3 2 4 1 5 3 6 4 7 5 8 6 9 13 10 7 11 12 12 8 13
REMARK SMILES IDX 11 14 9 15 10 16 14 17 15 18 16 19 17 20 18 21 20 23 19 24
REMARK SMILES IDX 24 26 25 27 26 28 27 29 28 30 29 31 30 32 31 33 32 34 33 35
REMARK SMILES IDX 34 36 86 37 35 38 85 39 36 40 37 41 38 42 79 43 39 44 84 45
REMARK SMILES IDX 78 46 80 47 40 48 83 49 77 50 76 51 41 53 67 54 50 55 66 56
REMARK SMILES IDX 51 57 54 58 65 59 81 60 52 61 53 62 64 64 82 65 55 66 42 67
REMARK SMILES IDX 43 68 48 69 44 70 45 71 47 72 49 73 46 74 68 75 69 76 74 77
REMARK SMILES IDX 70 78 71 79 73 80 75 81 72 82 56 83 57 84 62 85 58 86 59 87
REMARK SMILES IDX 61 88 63 89 60 90
REMARK H PARENT 80 52 54 63
REMARK Flexibility Score: 80.00
ROOT
ATOM      1  C   UNL     1       4.958  -0.555   0.547  1.00  0.00     0.202 C 
ENDROOT
BRANCH   1   2
ATOM      2  C   UNL     1       4.433   0.855   0.285  1.00  0.00     0.261 C 
BRANCH   2   3
ATOM      3  O   UNL     1       3.075   1.016  -0.195  1.00  0.00    -0.463 OA
BRANCH   3   4
ATOM      4  C   UNL     1       2.395   0.402  -1.187  1.00  0.00     0.316 C 
ATOM      5  O   UNL     1       1.224   0.721  -1.386  1.00  0.00    -0.251 OA
BRANCH   4   6
ATOM      6  C   UNL     1       3.047  -0.692  -1.997  1.00  0.00     0.200 C 
BRANCH   6   7
ATOM      7  S   UNL     1       4.346  -0.034  -3.072  1.00  0.00    -0.076 SA
BRANCH   7   8
ATOM      8  C   UNL     1       3.307   0.973  -4.022  1.00  0.00     0.171 A 
ATOM      9  N   UNL     1       2.421   0.472  -4.848  1.00  0.00    -0.221 NA
ATOM     10  N   UNL     1       3.195   2.336  -3.864  1.00  0.00    -0.301 N 
ATOM     11  C   UNL     1       1.722   1.556  -5.293  1.00  0.00     0.109 A 
ATOM     12  C   UNL     1       2.205   2.735  -4.730  1.00  0.00     0.160 A 
ATOM     13  C   UNL     1       0.650   1.638  -6.185  1.00  0.00     0.034 A 
ATOM     14  N   UNL     1       1.773   3.986  -4.978  1.00  0.00    -0.237 NA
ATOM     15  C   UNL     1       0.159   2.911  -6.471  1.00  0.00     0.022 A 
ATOM     16  C   UNL     1       0.747   4.016  -5.862  1.00  0.00     0.113 A 
BRANCH  10  17
ATOM     17  C   UNL     1       3.975   3.189  -2.965  1.00  0.00     0.091 C 
BRANCH  17  18
ATOM     18  C   UNL     1       5.149   3.845  -3.704  1.00  0.00     0.025 C 
BRANCH  18  19
ATOM     19  C   UNL     1       4.930   5.289  -4.138  1.00  0.00     0.002 C 
BRANCH  19  20
ATOM     20  C   UNL     1       5.254   6.293  -3.035  1.00  0.00     0.000 C 
BRANCH  20  21
ATOM     21  C   UNL     1       4.239   6.371  -1.898  1.00  0.00     0.000 CG0
ATOM     22  G   UNL     1       3.938   5.050  -1.193  1.00  0.00     0.000 G0
ENDBRANCH  20  21
ENDBRANCH  19  20
ENDBRANCH  18  19
ENDBRANCH  17  18
BRANCH  17  23
ATOM     23  C   UNL     1       3.118   4.094  -2.061  1.00  0.00     0.025 C 
BRANCH  23  24
ATOM     24  C   UNL     1       3.938   5.050  -1.193  1.00  0.00     0.002 CG0
ATOM     25  G   UNL     1       4.239   6.371  -1.898  1.00  0.00     0.000 G0
ENDBRANCH  23  24
ENDBRANCH  17  23
ENDBRANCH  10  17
ENDBRANCH   7   8
ENDBRANCH   6   7
ENDBRANCH   4   6
ENDBRANCH   3   4
ENDBRANCH   2   3
ENDBRANCH   1   2
BRANCH   1  26
ATOM     26  O   UNL     1       4.305  -1.330   1.539  1.00  0.00    -0.376 OA
BRANCH  26  27
ATOM     27  C   UNL     1       2.895  -1.405   1.551  1.00  0.00     0.188 C 
BRANCH  27  28
ATOM     28  C   UNL     1       2.204  -0.735   2.752  1.00  0.00     0.188 C 
BRANCH  28  29
ATOM     29  O   UNL     1       2.892   0.163   3.612  1.00  0.00    -0.376 OA
BRANCH  29  30
ATOM     30  C   UNL     1       4.241  -0.039   4.011  1.00  0.00     0.202 C 
BRANCH  30  31
ATOM     31  C   UNL     1       4.659  -1.314   4.741  1.00  0.00     0.261 C 
BRANCH  31  32
ATOM     32  O   UNL     1       4.468  -2.493   3.970  1.00  0.00    -0.460 OA
BRANCH  32  33
ATOM     33  C   UNL     1       3.342  -3.150   4.257  1.00  0.00     0.338 C 
ATOM     34  O   UNL     1       2.482  -2.825   5.090  1.00  0.00    -0.246 OA
BRANCH  33  35
ATOM     35  C   UNL     1       3.256  -4.399   3.509  1.00  0.00     0.060 A 
ATOM     36  C   UNL     1       2.018  -5.042   3.557  1.00  0.00     0.016 A 
ATOM     37  C   UNL     1       4.442  -5.072   3.185  1.00  0.00     0.016 A 
ATOM     38  C   UNL     1       2.016  -6.411   3.626  1.00  0.00     0.010 A 
ATOM     39  C   UNL     1       4.439  -6.445   3.259  1.00  0.00     0.010 A 
ATOM     40  C   UNL     1       3.247  -7.075   3.608  1.00  0.00    -0.014 A 
BRANCH  40  41
ATOM     41  C   UNL     1       3.237  -8.445   4.066  1.00  0.00     0.031 A 
ATOM     42  C   UNL     1       2.720  -9.410   3.086  1.00  0.00     0.074 A 
ATOM     43  C   UNL     1       3.670  -8.794   5.292  1.00  0.00     0.049 A 
ATOM     44  N   UNL     1       1.640 -10.112   3.160  1.00  0.00    -0.248 NA
ATOM     45  C   UNL     1       3.439  -9.514   1.811  1.00  0.00     0.031 C 
ATOM     46  C   UNL     1       4.440  -7.991   6.246  1.00  0.00     0.029 A 
ATOM     47  N   UNL     1       3.580 -10.006   5.902  1.00  0.00    -0.354 N 
ATOM     48  C   UNL     1       1.640 -10.901   2.017  1.00  0.00     0.074 A 
ATOM     49  C   UNL     1       2.672 -10.384   1.156  1.00  0.00     0.031 C 
ATOM     50  C   UNL     1       4.927  -8.805   7.211  1.00  0.00     0.029 A 
ATOM     51  C   UNL     1       4.404 -10.147   7.007  1.00  0.00     0.049 A 
ATOM     52  H   UNL     1       2.982 -10.721   5.587  1.00  0.00     0.167 HD
ATOM     53  C   UNL     1       0.964 -12.078   1.981  1.00  0.00     0.037 A 
ATOM     54  C   UNL     1       4.691 -11.306   7.647  1.00  0.00     0.037 A 
ATOM     55  C   UNL     1      -0.077 -12.130   2.976  1.00  0.00     0.049 A 
ATOM     56  C   UNL     1       3.650 -12.300   7.285  1.00  0.00     0.074 A 
ATOM     57  C   UNL     1      -1.186 -11.359   3.269  1.00  0.00     0.029 A 
ATOM     58  N   UNL     1       0.115 -12.928   4.078  1.00  0.00    -0.354 N 
ATOM     59  N   UNL     1       2.419 -12.266   7.712  1.00  0.00    -0.248 NA
ATOM     60  C   UNL     1       3.875 -13.127   6.108  1.00  0.00     0.031 C 
ATOM     61  C   UNL     1      -1.310 -11.399   4.689  1.00  0.00     0.029 A 
ATOM     62  C   UNL     1      -0.283 -12.208   5.174  1.00  0.00     0.049 A 
ATOM     63  H   UNL     1       0.472 -13.845   4.079  1.00  0.00     0.167 HD
ATOM     64  C   UNL     1       1.659 -12.703   6.636  1.00  0.00     0.074 A 
ATOM     65  C   UNL     1       2.611 -13.326   5.724  1.00  0.00     0.031 C 
ATOM     66  C   UNL     1       0.377 -12.269   6.456  1.00  0.00     0.037 A 
BRANCH  53  67
ATOM     67  C   UNL     1       1.515 -13.311   1.312  1.00  0.00     0.057 A 
ATOM     68  C   UNL     1       2.886 -13.529   1.056  1.00  0.00     0.134 A 
ATOM     69  C   UNL     1       0.697 -14.447   1.200  1.00  0.00     0.134 A 
ATOM     70  F   UNL     1       3.810 -12.571   1.197  1.00  0.00    -0.206 F 
ATOM     71  C   UNL     1       3.407 -14.785   0.742  1.00  0.00     0.040 A 
ATOM     72  C   UNL     1       1.217 -15.720   0.941  1.00  0.00     0.040 A 
ATOM     73  F   UNL     1      -0.622 -14.370   1.431  1.00  0.00    -0.206 F 
ATOM     74  C   UNL     1       2.578 -15.893   0.720  1.00  0.00     0.006 A 
ENDBRANCH  53  67
BRANCH  54  75
ATOM     75  C   UNL     1       5.939 -11.688   8.341  1.00  0.00     0.057 A 
ATOM     76  C   UNL     1       7.186 -11.160   7.961  1.00  0.00     0.134 A 
ATOM     77  C   UNL     1       5.975 -12.774   9.226  1.00  0.00     0.134 A 
ATOM     78  F   UNL     1       7.278 -10.178   7.053  1.00  0.00    -0.206 F 
ATOM     79  C   UNL     1       8.396 -11.680   8.430  1.00  0.00     0.040 A 
ATOM     80  C   UNL     1       7.180 -13.314   9.693  1.00  0.00     0.040 A 
ATOM     81  F   UNL     1       4.841 -13.377   9.611  1.00  0.00    -0.206 F 
ATOM     82  C   UNL     1       8.396 -12.771   9.289  1.00  0.00     0.006 A 
ENDBRANCH  54  75
BRANCH  66  83
ATOM     83  C   UNL     1      -0.282 -11.555   7.601  1.00  0.00     0.057 A 
ATOM     84  C   UNL     1      -1.482 -12.059   8.115  1.00  0.00     0.134 A 
ATOM     85  C   UNL     1       0.173 -10.335   8.123  1.00  0.00     0.134 A 
ATOM     86  F   UNL     1      -2.009 -13.190   7.619  1.00  0.00    -0.206 F 
ATOM     87  C   UNL     1      -2.187 -11.396   9.121  1.00  0.00     0.040 A 
ATOM     88  C   UNL     1      -0.505  -9.679   9.154  1.00  0.00     0.040 A 
ATOM     89  F   UNL     1       1.253  -9.725   7.617  1.00  0.00    -0.206 F 
ATOM     90  C   UNL     1      -1.691 -10.209   9.655  1.00  0.00     0.006 A 
ENDBRANCH  66  83
ENDBRANCH  40  41
ENDBRANCH  33  35
ENDBRANCH  32  33
ENDBRANCH  31  32
ENDBRANCH  30  31
ENDBRANCH  29  30
ENDBRANCH  28  29
ENDBRANCH  27  28
ENDBRANCH  26  27
ENDBRANCH   1  26
TORSDOF 20
