REMARK SMILES O=C(OCCOCCOCCOC(=O)c1cc([C@@H]2C=NN=C2c2ccc(F)cc2)c2c(ccc3ccccc32)n1)c1ccc(-c2c3nc(c(-c4c(F)cccc4F)c4ccc([nH]4)c(-c4c(F)cccc4F)c4nc(c(-c5c(F)cccc5F)c5ccc2[nH]5)C=C4)C=C3)cc1
REMARK SMILES IDX 7 1 6 2 5 3 4 4 3 5 2 6 1 7 41 8 42 9 94 10 43 11 93 12
REMARK SMILES IDX 44 13 45 14 46 15 87 16 47 17 92 18 86 19 88 20 48 21 91 22
REMARK SMILES IDX 85 23 84 24 49 26 75 27 58 28 74 29 59 30 62 31 73 32 89 33
REMARK SMILES IDX 60 34 61 35 72 37 90 38 63 39 50 40 51 41 56 42 52 43 53 44
REMARK SMILES IDX 55 45 57 46 54 47 76 48 77 49 82 50 78 51 79 52 81 53 83 54
REMARK SMILES IDX 80 55 64 56 65 57 70 58 66 59 67 60 69 61 71 62 68 63 8 64
REMARK SMILES IDX 9 65 10 66 11 67 12 68 13 69 14 70 15 71 16 72 40 73 17 74
REMARK SMILES IDX 31 75 30 76 32 77 39 78 33 79 34 80 38 81 35 82 37 83 36 84
REMARK SMILES IDX 18 85 19 86 22 87 20 88 21 89 23 90 24 91 29 92 25 93 28 94
REMARK SMILES IDX 26 95 27 96
REMARK H PARENT 88 25 62 36
REMARK Flexibility Score: inf
ROOT
ATOM      1  C   UNL     1       3.438   0.942   1.410  1.00  0.00     0.188 C 
ENDROOT
BRANCH   1   2
ATOM      2  O   UNL     1       4.688   1.268   0.820  1.00  0.00    -0.376 OA
BRANCH   2   3
ATOM      3  C   UNL     1       5.166   0.342  -0.137  1.00  0.00     0.202 C 
BRANCH   3   4
ATOM      4  C   UNL     1       4.582   0.587  -1.526  1.00  0.00     0.261 C 
BRANCH   4   5
ATOM      5  O   UNL     1       3.164   0.842  -1.567  1.00  0.00    -0.460 OA
BRANCH   5   6
ATOM      6  C   UNL     1       2.106   0.015  -1.631  1.00  0.00     0.338 C 
ATOM      7  O   UNL     1       1.028   0.441  -2.040  1.00  0.00    -0.246 OA
BRANCH   6   8
ATOM      8  C   UNL     1       2.126  -1.357  -1.066  1.00  0.00     0.060 A 
ATOM      9  C   UNL     1       3.202  -2.236  -1.156  1.00  0.00     0.016 A 
ATOM     10  C   UNL     1       0.914  -1.808  -0.503  1.00  0.00     0.016 A 
ATOM     11  C   UNL     1       3.047  -3.564  -0.773  1.00  0.00     0.010 A 
ATOM     12  C   UNL     1       0.752  -3.137  -0.129  1.00  0.00     0.010 A 
ATOM     13  C   UNL     1       1.803  -4.027  -0.335  1.00  0.00    -0.014 A 
BRANCH  13  14
ATOM     14  C   UNL     1       1.628  -5.475  -0.259  1.00  0.00     0.031 A 
ATOM     15  C   UNL     1       2.390  -6.225   0.776  1.00  0.00     0.074 A 
ATOM     16  C   UNL     1       0.792  -6.125  -1.094  1.00  0.00     0.049 A 
ATOM     17  N   UNL     1       3.224  -7.204   0.611  1.00  0.00    -0.248 NA
ATOM     18  C   UNL     1       2.208  -5.819   2.176  1.00  0.00     0.031 C 
ATOM     19  C   UNL     1      -0.224  -5.550  -1.983  1.00  0.00     0.029 A 
ATOM     20  N   UNL     1       0.621  -7.469  -1.254  1.00  0.00    -0.354 N 
ATOM     21  C   UNL     1       3.545  -7.657   1.890  1.00  0.00     0.074 A 
ATOM     22  C   UNL     1       2.959  -6.718   2.815  1.00  0.00     0.031 C 
ATOM     23  C   UNL     1      -1.038  -6.534  -2.421  1.00  0.00     0.029 A 
ATOM     24  C   UNL     1      -0.522  -7.810  -1.958  1.00  0.00     0.049 A 
ATOM     25  H   UNL     1       1.252  -8.137  -0.900  1.00  0.00     0.167 HD
ATOM     26  C   UNL     1       4.128  -8.867   2.116  1.00  0.00     0.037 A 
ATOM     27  C   UNL     1      -1.052  -9.047  -2.094  1.00  0.00     0.037 A 
ATOM     28  C   UNL     1       4.821  -9.364   0.960  1.00  0.00     0.049 A 
ATOM     29  C   UNL     1       0.011 -10.040  -1.819  1.00  0.00     0.074 A 
ATOM     30  C   UNL     1       5.872  -8.918   0.183  1.00  0.00     0.029 A 
ATOM     31  N   UNL     1       4.281 -10.415   0.265  1.00  0.00    -0.354 N 
ATOM     32  N   UNL     1       1.035 -10.265  -2.593  1.00  0.00    -0.248 NA
ATOM     33  C   UNL     1       0.122 -10.566  -0.468  1.00  0.00     0.031 C 
ATOM     34  C   UNL     1       5.600  -9.397  -1.131  1.00  0.00     0.029 A 
ATOM     35  C   UNL     1       4.401 -10.108  -1.065  1.00  0.00     0.049 A 
ATOM     36  H   UNL     1       3.885 -11.232   0.647  1.00  0.00     0.167 HD
ATOM     37  C   UNL     1       2.066 -10.601  -1.729  1.00  0.00     0.074 A 
ATOM     38  C   UNL     1       1.416 -10.889  -0.456  1.00  0.00     0.031 C 
ATOM     39  C   UNL     1       3.369 -10.349  -2.046  1.00  0.00     0.037 A 
BRANCH  26  40
ATOM     40  C   UNL     1       3.837  -9.730   3.318  1.00  0.00     0.057 A 
ATOM     41  C   UNL     1       2.639  -9.652   4.058  1.00  0.00     0.134 A 
ATOM     42  C   UNL     1       4.636 -10.855   3.593  1.00  0.00     0.134 A 
ATOM     43  F   UNL     1       1.726  -8.699   3.831  1.00  0.00    -0.206 F 
ATOM     44  C   UNL     1       2.269 -10.610   5.006  1.00  0.00     0.040 A 
ATOM     45  C   UNL     1       4.251 -11.847   4.505  1.00  0.00     0.040 A 
ATOM     46  F   UNL     1       5.782 -11.066   2.928  1.00  0.00    -0.206 F 
ATOM     47  C   UNL     1       3.063 -11.727   5.215  1.00  0.00     0.006 A 
ENDBRANCH  26  40
BRANCH  27  48
ATOM     48  C   UNL     1      -2.486  -9.405  -2.152  1.00  0.00     0.057 A 
ATOM     49  C   UNL     1      -3.467  -8.619  -1.519  1.00  0.00     0.134 A 
ATOM     50  C   UNL     1      -2.904 -10.661  -2.608  1.00  0.00     0.134 A 
ATOM     51  F   UNL     1      -3.160  -7.438  -0.962  1.00  0.00    -0.206 F 
ATOM     52  C   UNL     1      -4.784  -9.054  -1.350  1.00  0.00     0.040 A 
ATOM     53  C   UNL     1      -4.217 -11.115  -2.433  1.00  0.00     0.040 A 
ATOM     54  F   UNL     1      -2.031 -11.502  -3.181  1.00  0.00    -0.206 F 
ATOM     55  C   UNL     1      -5.160 -10.313  -1.797  1.00  0.00     0.006 A 
ENDBRANCH  27  48
BRANCH  39  56
ATOM     56  C   UNL     1       3.691  -9.978  -3.466  1.00  0.00     0.057 A 
ATOM     57  C   UNL     1       4.616 -10.748  -4.180  1.00  0.00     0.134 A 
ATOM     58  C   UNL     1       3.240  -8.798  -4.075  1.00  0.00     0.134 A 
ATOM     59  F   UNL     1       5.142 -11.856  -3.632  1.00  0.00    -0.206 F 
ATOM     60  C   UNL     1       5.066 -10.370  -5.448  1.00  0.00     0.040 A 
ATOM     61  C   UNL     1       3.656  -8.426  -5.356  1.00  0.00     0.040 A 
ATOM     62  F   UNL     1       2.438  -7.946  -3.423  1.00  0.00    -0.206 F 
ATOM     63  C   UNL     1       4.578  -9.210  -6.045  1.00  0.00     0.006 A 
ENDBRANCH  39  56
ENDBRANCH  13  14
ENDBRANCH   6   8
ENDBRANCH   5   6
ENDBRANCH   4   5
ENDBRANCH   3   4
ENDBRANCH   2   3
ENDBRANCH   1   2
BRANCH   1  64
ATOM     64  C   UNL     1       2.359   2.036   1.266  1.00  0.00     0.188 C 
BRANCH  64  65
ATOM     65  O   UNL     1       2.674   3.425   1.211  1.00  0.00    -0.376 OA
BRANCH  65  66
ATOM     66  C   UNL     1       3.960   3.894   1.567  1.00  0.00     0.202 C 
BRANCH  66  67
ATOM     67  C   UNL     1       4.259   3.931   3.067  1.00  0.00     0.261 C 
BRANCH  67  68
ATOM     68  O   UNL     1       4.006   2.691   3.741  1.00  0.00    -0.459 OA
BRANCH  68  69
ATOM     69  C   UNL     1       2.815   2.616   4.387  1.00  0.00     0.357 C 
ATOM     70  O   UNL     1       1.994   3.502   4.549  1.00  0.00    -0.244 OA
BRANCH  69  71
ATOM     71  C   UNL     1       2.663   1.256   4.952  1.00  0.00     0.149 A 
ATOM     72  C   UNL     1       3.276   0.980   6.143  1.00  0.00     0.041 A 
ATOM     73  N   UNL     1       1.789   0.421   4.370  1.00  0.00    -0.241 NA
ATOM     74  C   UNL     1       2.903  -0.179   6.868  1.00  0.00    -0.021 A 
ATOM     75  C   UNL     1       1.467  -0.712   5.003  1.00  0.00     0.072 A 
ATOM     76  C   UNL     1       1.935  -1.113   6.295  1.00  0.00     0.012 A 
ATOM     77  C   UNL     1       0.554  -1.470   4.301  1.00  0.00     0.029 A 
ATOM     78  C   UNL     1       1.319  -2.347   6.846  1.00  0.00    -0.009 A 
ATOM     79  C   UNL     1       0.011  -2.638   4.811  1.00  0.00     0.011 A 
ATOM     80  C   UNL     1       0.367  -3.078   6.075  1.00  0.00    -0.018 A 
ATOM     81  C   UNL     1       1.548  -2.909   8.124  1.00  0.00     0.009 A 
ATOM     82  C   UNL     1      -0.264  -4.241   6.556  1.00  0.00     0.009 A 
ATOM     83  C   UNL     1       0.917  -4.063   8.611  1.00  0.00     0.001 A 
ATOM     84  C   UNL     1       0.006  -4.734   7.824  1.00  0.00     0.001 A 
BRANCH  74  85
ATOM     85  C   UNL     1       3.481  -0.132   8.265  1.00  0.00     0.115 C 
ATOM     86  C   UNL     1       4.301  -1.260   8.761  1.00  0.00     0.123 C 
ATOM     87  C   UNL     1       2.582   0.042   9.449  1.00  0.00     0.083 C 
ATOM     88  N   UNL     1       4.057  -1.539  10.002  1.00  0.00    -0.162 NA
ATOM     89  N   UNL     1       2.966  -0.708  10.444  1.00  0.00    -0.154 NA
BRANCH  87  90
ATOM     90  C   UNL     1       1.505   1.058   9.548  1.00  0.00    -0.001 A 
ATOM     91  C   UNL     1       1.334   1.716  10.773  1.00  0.00     0.013 A 
ATOM     92  C   UNL     1       0.662   1.389   8.478  1.00  0.00     0.013 A 
ATOM     93  C   UNL     1       0.360   2.709  10.910  1.00  0.00     0.040 A 
ATOM     94  C   UNL     1      -0.307   2.385   8.614  1.00  0.00     0.040 A 
ATOM     95  C   UNL     1      -0.448   3.039   9.828  1.00  0.00     0.123 A 
ATOM     96  F   UNL     1      -1.379   3.992   9.959  1.00  0.00    -0.207 F 
ENDBRANCH  87  90
ENDBRANCH  74  85
ENDBRANCH  69  71
ENDBRANCH  68  69
ENDBRANCH  67  68
ENDBRANCH  66  67
ENDBRANCH  65  66
ENDBRANCH  64  65
ENDBRANCH   1  64
TORSDOF 19
