REMARK SMILES O=C(OCCOCCOCCOC(=O)c1ccc(-c2c3nc(c(-c4c(F)cccc4F)c4ccc([nH]4)c(-c4c(F)cccc4F)c4nc(c(-c5c(F)cccc5F)c5ccc2[nH]5)C=C4)C=C3)cc1)c1ccc(NS(=O)(=O)C2=Cc3ccccc3CC2)cc1
REMARK SMILES IDX 7 1 6 2 5 3 4 4 3 5 2 6 1 7 69 8 70 9 88 10 71 11 87 12
REMARK SMILES IDX 72 13 73 14 74 16 75 17 76 18 77 19 78 20 86 21 79 22 85 23
REMARK SMILES IDX 80 24 84 25 81 26 83 27 82 28 8 29 9 30 10 31 11 32 12 33
REMARK SMILES IDX 13 34 14 35 15 36 16 37 68 38 17 39 67 40 18 41 19 42 20 43
REMARK SMILES IDX 61 44 21 45 66 46 60 47 62 48 22 49 65 50 59 51 58 52 23 54
REMARK SMILES IDX 49 55 32 56 48 57 33 58 36 59 47 60 63 61 34 62 35 63 46 65
REMARK SMILES IDX 64 66 37 67 24 68 25 69 30 70 26 71 27 72 29 73 31 74 28 75
REMARK SMILES IDX 50 76 51 77 56 78 52 79 53 80 55 81 57 82 54 83 38 84 39 85
REMARK SMILES IDX 44 86 40 87 41 88 43 89 45 90 42 91
REMARK H PARENT 73 15 62 53 36 64
REMARK Flexibility Score: inf
ROOT
ATOM      1  C   UNL     1       2.596  -1.724  -0.143  1.00  0.00     0.188 C 
ENDROOT
BRANCH   1   2
ATOM      2  O   UNL     1       3.743  -0.970  -0.553  1.00  0.00    -0.376 OA
BRANCH   2   3
ATOM      3  C   UNL     1       4.821  -1.011   0.376  1.00  0.00     0.202 C 
BRANCH   3   4
ATOM      4  C   UNL     1       4.624  -0.258   1.694  1.00  0.00     0.261 C 
BRANCH   4   5
ATOM      5  O   UNL     1       3.343   0.349   1.917  1.00  0.00    -0.460 OA
BRANCH   5   6
ATOM      6  C   UNL     1       2.775   1.444   1.369  1.00  0.00     0.338 C 
ATOM      7  O   UNL     1       1.661   1.787   1.761  1.00  0.00    -0.246 OA
BRANCH   6   8
ATOM      8  C   UNL     1       3.374   2.199   0.234  1.00  0.00     0.060 A 
ATOM      9  C   UNL     1       4.730   2.312  -0.056  1.00  0.00     0.018 A 
ATOM     10  C   UNL     1       2.479   2.891  -0.589  1.00  0.00     0.018 A 
ATOM     11  C   UNL     1       5.157   2.923  -1.243  1.00  0.00     0.027 A 
ATOM     12  C   UNL     1       2.920   3.519  -1.754  1.00  0.00     0.027 A 
ATOM     13  C   UNL     1       4.253   3.448  -2.150  1.00  0.00     0.049 A 
BRANCH  13  14
ATOM     14  N   UNL     1       4.559   3.730  -3.512  1.00  0.00    -0.280 N 
ATOM     15  H   UNL     1       3.801   3.943  -4.103  1.00  0.00     0.180 HD
BRANCH  14  16
ATOM     16  S   UNL     1       6.086   3.733  -4.208  1.00  0.00     0.258 S 
ATOM     17  O   UNL     1       5.834   4.162  -5.571  1.00  0.00    -0.202 OA
ATOM     18  O   UNL     1       6.916   4.549  -3.345  1.00  0.00    -0.202 OA
BRANCH  16  19
ATOM     19  C   UNL     1       6.690   2.044  -4.220  1.00  0.00     0.066 C 
ATOM     20  C   UNL     1       6.891   1.507  -5.449  1.00  0.00     0.026 C 
ATOM     21  C   UNL     1       7.861   1.773  -3.291  1.00  0.00     0.055 C 
ATOM     22  C   UNL     1       8.150   1.994  -6.096  1.00  0.00    -0.021 A 
ATOM     23  C   UNL     1       9.114   2.504  -3.793  1.00  0.00     0.041 C 
ATOM     24  C   UNL     1       8.291   1.942  -7.483  1.00  0.00     0.008 A 
ATOM     25  C   UNL     1       9.193   2.531  -5.305  1.00  0.00    -0.040 A 
ATOM     26  C   UNL     1       9.419   2.501  -8.088  1.00  0.00     0.001 A 
ATOM     27  C   UNL     1      10.293   3.130  -5.924  1.00  0.00     0.004 A 
ATOM     28  C   UNL     1      10.400   3.121  -7.312  1.00  0.00     0.000 A 
ENDBRANCH  16  19
ENDBRANCH  14  16
ENDBRANCH  13  14
ENDBRANCH   6   8
ENDBRANCH   5   6
ENDBRANCH   4   5
ENDBRANCH   3   4
ENDBRANCH   2   3
ENDBRANCH   1   2
BRANCH   1  29
ATOM     29  C   UNL     1       2.148  -2.709  -1.228  1.00  0.00     0.188 C 
BRANCH  29  30
ATOM     30  O   UNL     1       2.884  -3.932  -1.272  1.00  0.00    -0.376 OA
BRANCH  30  31
ATOM     31  C   UNL     1       4.228  -3.865  -1.743  1.00  0.00     0.202 C 
BRANCH  31  32
ATOM     32  C   UNL     1       4.399  -3.696  -3.254  1.00  0.00     0.261 C 
BRANCH  32  33
ATOM     33  O   UNL     1       3.974  -2.400  -3.717  1.00  0.00    -0.460 OA
BRANCH  33  34
ATOM     34  C   UNL     1       3.057  -2.425  -4.713  1.00  0.00     0.338 C 
ATOM     35  O   UNL     1       2.571  -3.403  -5.254  1.00  0.00    -0.246 OA
BRANCH  34  36
ATOM     36  C   UNL     1       2.680  -1.058  -5.109  1.00  0.00     0.060 A 
ATOM     37  C   UNL     1       1.502  -0.492  -4.611  1.00  0.00     0.016 A 
ATOM     38  C   UNL     1       3.392  -0.427  -6.129  1.00  0.00     0.016 A 
ATOM     39  C   UNL     1       1.011   0.697  -5.165  1.00  0.00     0.010 A 
ATOM     40  C   UNL     1       2.906   0.767  -6.670  1.00  0.00     0.010 A 
ATOM     41  C   UNL     1       1.694   1.323  -6.218  1.00  0.00    -0.014 A 
BRANCH  41  42
ATOM     42  C   UNL     1       1.151   2.526  -6.908  1.00  0.00     0.031 A 
ATOM     43  C   UNL     1       0.589   2.414  -8.289  1.00  0.00     0.074 A 
ATOM     44  C   UNL     1       1.205   3.741  -6.337  1.00  0.00     0.049 A 
ATOM     45  N   UNL     1       0.261   3.371  -9.117  1.00  0.00    -0.248 NA
ATOM     46  C   UNL     1       0.333   1.057  -8.793  1.00  0.00     0.031 C 
ATOM     47  C   UNL     1       1.611   3.983  -4.966  1.00  0.00     0.029 A 
ATOM     48  N   UNL     1       0.975   5.000  -6.841  1.00  0.00    -0.354 N 
ATOM     49  C   UNL     1      -0.261   2.739 -10.233  1.00  0.00     0.074 A 
ATOM     50  C   UNL     1      -0.171   1.313  -9.993  1.00  0.00     0.031 C 
ATOM     51  C   UNL     1       1.712   5.306  -4.758  1.00  0.00     0.029 A 
ATOM     52  C   UNL     1       1.417   5.997  -6.003  1.00  0.00     0.049 A 
ATOM     53  H   UNL     1       0.541   5.169  -7.708  1.00  0.00     0.167 HD
ATOM     54  C   UNL     1      -0.791   3.305 -11.341  1.00  0.00     0.037 A 
ATOM     55  C   UNL     1       1.639   7.306  -6.221  1.00  0.00     0.037 A 
ATOM     56  C   UNL     1      -0.887   4.723 -11.573  1.00  0.00     0.049 A 
ATOM     57  C   UNL     1       1.257   7.896  -7.543  1.00  0.00     0.074 A 
ATOM     58  C   UNL     1      -1.486   5.383 -12.632  1.00  0.00     0.029 A 
ATOM     59  N   UNL     1      -0.349   5.699 -10.749  1.00  0.00    -0.354 N 
ATOM     60  N   UNL     1       0.713   7.300  -8.574  1.00  0.00    -0.248 NA
ATOM     61  C   UNL     1       1.489   9.335  -7.729  1.00  0.00     0.031 C 
ATOM     62  C   UNL     1      -1.264   6.756 -12.477  1.00  0.00     0.029 A 
ATOM     63  C   UNL     1      -0.560   6.953 -11.301  1.00  0.00     0.049 A 
ATOM     64  H   UNL     1       0.113   5.527  -9.897  1.00  0.00     0.167 HD
ATOM     65  C   UNL     1       0.490   8.296  -9.511  1.00  0.00     0.074 A 
ATOM     66  C   UNL     1       0.970   9.534  -8.932  1.00  0.00     0.031 C 
ATOM     67  C   UNL     1      -0.085   8.187 -10.732  1.00  0.00     0.037 A 
BRANCH  54  68
ATOM     68  C   UNL     1      -1.312   2.389 -12.400  1.00  0.00     0.057 A 
ATOM     69  C   UNL     1      -2.544   1.737 -12.264  1.00  0.00     0.134 A 
ATOM     70  C   UNL     1      -0.611   2.218 -13.599  1.00  0.00     0.134 A 
ATOM     71  F   UNL     1      -3.255   1.855 -11.133  1.00  0.00    -0.206 F 
ATOM     72  C   UNL     1      -3.060   0.942 -13.287  1.00  0.00     0.040 A 
ATOM     73  C   UNL     1      -1.125   1.438 -14.635  1.00  0.00     0.040 A 
ATOM     74  F   UNL     1       0.574   2.818 -13.786  1.00  0.00    -0.206 F 
ATOM     75  C   UNL     1      -2.354   0.799 -14.481  1.00  0.00     0.006 A 
ENDBRANCH  54  68
BRANCH  55  76
ATOM     76  C   UNL     1       2.329   8.129  -5.195  1.00  0.00     0.057 A 
ATOM     77  C   UNL     1       1.666   9.133  -4.485  1.00  0.00     0.134 A 
ATOM     78  C   UNL     1       3.694   7.946  -4.932  1.00  0.00     0.134 A 
ATOM     79  F   UNL     1       0.364   9.366  -4.703  1.00  0.00    -0.206 F 
ATOM     80  C   UNL     1       2.340   9.944  -3.569  1.00  0.00     0.040 A 
ATOM     81  C   UNL     1       4.376   8.735  -4.006  1.00  0.00     0.040 A 
ATOM     82  F   UNL     1       4.381   6.988  -5.569  1.00  0.00    -0.206 F 
ATOM     83  C   UNL     1       3.699   9.746  -3.328  1.00  0.00     0.006 A 
ENDBRANCH  55  76
BRANCH  67  84
ATOM     84  C   UNL     1      -0.275   9.452 -11.508  1.00  0.00     0.057 A 
ATOM     85  C   UNL     1       0.796  10.102 -12.132  1.00  0.00     0.134 A 
ATOM     86  C   UNL     1      -1.548  10.021 -11.642  1.00  0.00     0.134 A 
ATOM     87  F   UNL     1       2.043   9.620 -12.020  1.00  0.00    -0.206 F 
ATOM     88  C   UNL     1       0.610  11.283 -12.851  1.00  0.00     0.040 A 
ATOM     89  C   UNL     1      -1.750  11.188 -12.378  1.00  0.00     0.040 A 
ATOM     90  F   UNL     1      -2.615   9.446 -11.067  1.00  0.00    -0.206 F 
ATOM     91  C   UNL     1      -0.668  11.826 -12.981  1.00  0.00     0.006 A 
ENDBRANCH  67  84
ENDBRANCH  41  42
ENDBRANCH  34  36
ENDBRANCH  33  34
ENDBRANCH  32  33
ENDBRANCH  31  32
ENDBRANCH  30  31
ENDBRANCH  29  30
ENDBRANCH   1  29
TORSDOF 20
