REMARK SMILES Cc1ccc2[nH]cc([C@@H](C(=O)OCCOCCOCCOC(=O)c3ccc(-c4c5nc(c(-c6c(F)cccc6F)c6ccc([nH]6)c(-c6c(F)cccc6F)c6nc(c(-c7c(F)cccc7F)c7ccc4[nH]7)C=C6)C=C5)cc3)[NH+]3CCN(c4cccc(Cl)c4)CC3)c2c1
REMARK SMILES IDX 16 1 15 2 14 3 13 4 12 5 10 6 11 7 9 8 8 9 1 10 2 11 3 12
REMARK SMILES IDX 92 13 4 14 91 15 5 16 6 17 7 18 78 20 79 21 90 22 80 24
REMARK SMILES IDX 89 25 81 26 82 27 83 28 88 29 84 30 86 31 85 32 87 33 17 34
REMARK SMILES IDX 18 35 19 36 20 37 21 38 22 39 23 40 24 41 25 42 77 43 26 44
REMARK SMILES IDX 76 45 27 46 28 47 29 48 70 49 30 50 75 51 69 52 71 53 31 54
REMARK SMILES IDX 74 55 68 56 67 57 32 59 58 60 41 61 57 62 42 63 45 64 56 65
REMARK SMILES IDX 72 66 43 67 44 68 55 70 73 71 46 72 33 73 34 74 39 75 35 76
REMARK SMILES IDX 36 77 38 78 40 79 37 80 59 81 60 82 65 83 61 84 62 85 64 86
REMARK SMILES IDX 66 87 63 88 47 89 48 90 53 91 49 92 50 93 52 94 54 95 51 96
REMARK H PARENT 6 19 78 23 71 58 45 69
REMARK Flexibility Score: inf
ROOT
ATOM      1  C   UNL     1      -5.122  -3.289   2.410  1.00  0.00     0.188 C 
ENDROOT
BRANCH   1   2
ATOM      2  O   UNL     1      -4.707  -4.186   3.434  1.00  0.00    -0.376 OA
BRANCH   2   3
ATOM      3  C   UNL     1      -3.463  -3.957   4.086  1.00  0.00     0.202 C 
BRANCH   3   4
ATOM      4  C   UNL     1      -2.216  -4.352   3.290  1.00  0.00     0.261 C 
BRANCH   4   5
ATOM      5  O   UNL     1      -1.805  -3.383   2.297  1.00  0.00    -0.459 OA
BRANCH   5   6
ATOM      6  C   UNL     1      -2.015  -3.742   0.997  1.00  0.00     0.370 C 
ATOM      7  O   UNL     1      -2.642  -4.753   0.684  1.00  0.00    -0.245 OA
BRANCH   6   8
ATOM      8  C   UNL     1      -1.281  -2.841  -0.033  1.00  0.00     0.328 C 
BRANCH   8   9
ATOM      9  C   UNL     1      -1.103  -1.367   0.277  1.00  0.00     0.046 A 
ATOM     10  C   UNL     1       3.966  -0.657  -0.071  1.00  0.00     0.044 C 
ATOM     11  C   UNL     1       2.552  -0.174   0.068  1.00  0.00    -0.050 A 
ATOM     12  C   UNL     1       2.260   1.190   0.135  1.00  0.00     0.005 A 
ATOM     13  C   UNL     1       1.508  -1.113   0.127  1.00  0.00     0.014 A 
ATOM     14  C   UNL     1       0.947   1.644   0.295  1.00  0.00     0.027 A 
ATOM     15  C   UNL     1       0.171  -0.685   0.275  1.00  0.00     0.009 A 
ATOM     16  C   UNL     1      -0.069   0.684   0.377  1.00  0.00     0.046 A 
ATOM     17  N   UNL     1      -1.421   0.841   0.544  1.00  0.00    -0.361 N 
ATOM     18  C   UNL     1      -2.047  -0.379   0.498  1.00  0.00     0.094 A 
ATOM     19  H   UNL     1      -1.877   1.704   0.676  1.00  0.00     0.166 HD
ENDBRANCH   8   9
BRANCH   8  20
ATOM     20  N   UNL     1      -1.814  -3.063  -1.396  1.00  0.00    -0.316 N 
ATOM     21  C   UNL     1      -3.237  -2.821  -1.639  1.00  0.00     0.284 C 
ATOM     22  C   UNL     1      -0.976  -2.637  -2.524  1.00  0.00     0.284 C 
ATOM     23  H   UNL     1      -1.745  -4.080  -1.374  1.00  0.00     0.349 HD
ATOM     24  C   UNL     1      -3.612  -1.487  -2.305  1.00  0.00     0.178 C 
ATOM     25  C   UNL     1      -1.284  -1.243  -3.126  1.00  0.00     0.178 C 
ATOM     26  N   UNL     1      -2.720  -1.106  -3.398  1.00  0.00    -0.360 N 
BRANCH  26  27
ATOM     27  C   UNL     1      -3.125   0.037  -4.091  1.00  0.00     0.038 A 
ATOM     28  C   UNL     1      -3.317   1.274  -3.455  1.00  0.00     0.026 A 
ATOM     29  C   UNL     1      -3.426  -0.067  -5.452  1.00  0.00     0.046 A 
ATOM     30  C   UNL     1      -3.835   2.369  -4.151  1.00  0.00     0.004 A 
ATOM     31  C   UNL     1      -3.938   1.028  -6.148  1.00  0.00     0.043 A 
ATOM     32  C   UNL     1      -4.153   2.244  -5.501  1.00  0.00     0.020 A 
ATOM     33  Cl  UNL     1      -4.328   0.874  -7.817  1.00  0.00    -0.084 Cl
ENDBRANCH  26  27
ENDBRANCH   8  20
ENDBRANCH   6   8
ENDBRANCH   5   6
ENDBRANCH   4   5
ENDBRANCH   3   4
ENDBRANCH   2   3
ENDBRANCH   1   2
BRANCH   1  34
ATOM     34  C   UNL     1      -4.617  -1.851   2.471  1.00  0.00     0.188 C 
BRANCH  34  35
ATOM     35  O   UNL     1      -4.870  -1.267   3.744  1.00  0.00    -0.376 OA
BRANCH  35  36
ATOM     36  C   UNL     1      -4.929   0.157   3.705  1.00  0.00     0.202 C 
BRANCH  36  37
ATOM     37  C   UNL     1      -6.400   0.566   3.809  1.00  0.00     0.261 C 
BRANCH  37  38
ATOM     38  O   UNL     1      -7.186   0.095   2.694  1.00  0.00    -0.460 OA
BRANCH  38  39
ATOM     39  C   UNL     1      -6.916   0.673   1.508  1.00  0.00     0.338 C 
ATOM     40  O   UNL     1      -6.121   1.587   1.297  1.00  0.00    -0.246 OA
BRANCH  39  41
ATOM     41  C   UNL     1      -7.551  -0.107   0.435  1.00  0.00     0.060 A 
ATOM     42  C   UNL     1      -6.728  -0.596  -0.582  1.00  0.00     0.016 A 
ATOM     43  C   UNL     1      -8.930  -0.325   0.393  1.00  0.00     0.016 A 
ATOM     44  C   UNL     1      -7.280  -1.285  -1.657  1.00  0.00     0.010 A 
ATOM     45  C   UNL     1      -9.484  -1.003  -0.701  1.00  0.00     0.010 A 
ATOM     46  C   UNL     1      -8.662  -1.468  -1.742  1.00  0.00    -0.014 A 
BRANCH  46  47
ATOM     47  C   UNL     1      -9.242  -1.969  -3.011  1.00  0.00     0.031 A 
ATOM     48  C   UNL     1      -9.862  -0.976  -3.951  1.00  0.00     0.074 A 
ATOM     49  C   UNL     1      -9.141  -3.259  -3.381  1.00  0.00     0.049 A 
ATOM     50  N   UNL     1     -10.598  -1.180  -5.011  1.00  0.00    -0.248 NA
ATOM     51  C   UNL     1      -9.606   0.443  -3.655  1.00  0.00     0.031 C 
ATOM     52  C   UNL     1      -8.422  -4.301  -2.650  1.00  0.00     0.029 A 
ATOM     53  N   UNL     1      -9.647  -3.907  -4.481  1.00  0.00    -0.354 N 
ATOM     54  C   UNL     1     -10.929   0.082  -5.484  1.00  0.00     0.074 A 
ATOM     55  C   UNL     1     -10.306   1.046  -4.604  1.00  0.00     0.031 C 
ATOM     56  C   UNL     1      -8.543  -5.462  -3.318  1.00  0.00     0.029 A 
ATOM     57  C   UNL     1      -9.404  -5.259  -4.481  1.00  0.00     0.049 A 
ATOM     58  H   UNL     1     -10.137  -3.447  -5.200  1.00  0.00     0.167 HD
ATOM     59  C   UNL     1     -11.695   0.406  -6.552  1.00  0.00     0.037 A 
ATOM     60  C   UNL     1      -9.872  -6.225  -5.296  1.00  0.00     0.037 A 
ATOM     61  C   UNL     1     -12.287  -0.556  -7.441  1.00  0.00     0.049 A 
ATOM     62  C   UNL     1     -10.823  -5.857  -6.405  1.00  0.00     0.074 A 
ATOM     63  C   UNL     1     -13.127  -0.337  -8.518  1.00  0.00     0.029 A 
ATOM     64  N   UNL     1     -12.083  -1.925  -7.363  1.00  0.00    -0.354 N 
ATOM     65  N   UNL     1     -11.241  -4.672  -6.780  1.00  0.00    -0.248 NA
ATOM     66  C   UNL     1     -11.393  -6.966  -7.186  1.00  0.00     0.031 C 
ATOM     67  C   UNL     1     -13.457  -1.578  -9.072  1.00  0.00     0.029 A 
ATOM     68  C   UNL     1     -12.790  -2.565  -8.364  1.00  0.00     0.049 A 
ATOM     69  H   UNL     1     -11.518  -2.375  -6.694  1.00  0.00     0.167 HD
ATOM     70  C   UNL     1     -12.101  -4.891  -7.850  1.00  0.00     0.074 A 
ATOM     71  C   UNL     1     -12.139  -6.321  -8.072  1.00  0.00     0.031 C 
ATOM     72  C   UNL     1     -12.802  -3.989  -8.580  1.00  0.00     0.037 A 
BRANCH  59  73
ATOM     73  C   UNL     1     -11.986   1.858  -6.770  1.00  0.00     0.057 A 
ATOM     74  C   UNL     1     -11.030   2.742  -7.283  1.00  0.00     0.134 A 
ATOM     75  C   UNL     1     -13.251   2.376  -6.463  1.00  0.00     0.134 A 
ATOM     76  F   UNL     1      -9.792   2.313  -7.571  1.00  0.00    -0.206 F 
ATOM     77  C   UNL     1     -11.316   4.096  -7.466  1.00  0.00     0.040 A 
ATOM     78  C   UNL     1     -13.556   3.722  -6.663  1.00  0.00     0.040 A 
ATOM     79  F   UNL     1     -14.209   1.581  -5.964  1.00  0.00    -0.206 F 
ATOM     80  C   UNL     1     -12.585   4.588  -7.162  1.00  0.00     0.006 A 
ENDBRANCH  59  73
BRANCH  60  81
ATOM     81  C   UNL     1      -9.520  -7.648  -5.052  1.00  0.00     0.057 A 
ATOM     82  C   UNL     1      -8.749  -8.374  -5.966  1.00  0.00     0.134 A 
ATOM     83  C   UNL     1      -9.989  -8.329  -3.922  1.00  0.00     0.134 A 
ATOM     84  F   UNL     1      -8.300  -7.789  -7.086  1.00  0.00    -0.206 F 
ATOM     85  C   UNL     1      -8.467  -9.728  -5.772  1.00  0.00     0.040 A 
ATOM     86  C   UNL     1      -9.693  -9.675  -3.701  1.00  0.00     0.040 A 
ATOM     87  F   UNL     1     -10.745  -7.695  -3.013  1.00  0.00    -0.206 F 
ATOM     88  C   UNL     1      -8.936 -10.381  -4.633  1.00  0.00     0.006 A 
ENDBRANCH  60  81
BRANCH  72  89
ATOM     89  C   UNL     1     -13.634  -4.513  -9.711  1.00  0.00     0.057 A 
ATOM     90  C   UNL     1     -14.855  -5.160  -9.490  1.00  0.00     0.134 A 
ATOM     91  C   UNL     1     -13.236  -4.314 -11.039  1.00  0.00     0.134 A 
ATOM     92  F   UNL     1     -15.287  -5.390  -8.240  1.00  0.00    -0.206 F 
ATOM     93  C   UNL     1     -15.646  -5.604 -10.551  1.00  0.00     0.040 A 
ATOM     94  C   UNL     1     -14.027  -4.735 -12.108  1.00  0.00     0.040 A 
ATOM     95  F   UNL     1     -12.080  -3.692 -11.318  1.00  0.00    -0.206 F 
ATOM     96  C   UNL     1     -15.235  -5.385 -11.865  1.00  0.00     0.006 A 
ENDBRANCH  72  89
ENDBRANCH  46  47
ENDBRANCH  39  41
ENDBRANCH  38  39
ENDBRANCH  37  38
ENDBRANCH  36  37
ENDBRANCH  35  36
ENDBRANCH  34  35
ENDBRANCH   1  34
TORSDOF 20
