REMARK SMILES C[N@H+](Cc1ccc(C(=O)OCCOCCOCCOC(=O)c2ccc(-c3c4nc(c(-c5c(F)cccc5F)c5ccc([nH]5)c(-c5c(F)cccc5F)c5nc(c(-c6c(F)cccc6F)c6ccc3[nH]6)C=C5)C=C4)cc2)cc1)[C@H]1CC(C)(C)OC1(C)C
REMARK SMILES IDX 14 1 13 2 12 3 11 4 10 5 8 6 9 7 7 8 4 9 5 10 77 11 6 12
REMARK SMILES IDX 76 13 3 14 2 15 1 16 78 18 79 19 84 20 80 21 83 22 85 23
REMARK SMILES IDX 86 24 81 25 82 26 15 27 16 28 17 29 18 30 19 31 20 32 21 33
REMARK SMILES IDX 22 34 23 35 75 36 24 37 74 38 25 39 26 40 27 41 68 42 28 43
REMARK SMILES IDX 73 44 67 45 69 46 29 47 72 48 66 49 65 50 30 52 56 53 39 54
REMARK SMILES IDX 55 55 40 56 43 57 54 58 70 59 41 60 42 61 53 63 71 64 44 65
REMARK SMILES IDX 31 66 32 67 37 68 33 69 34 70 36 71 38 72 35 73 57 74 58 75
REMARK SMILES IDX 63 76 59 77 60 78 62 79 64 80 61 81 45 82 46 83 51 84 47 85
REMARK SMILES IDX 48 86 50 87 52 88 49 89
REMARK H PARENT 2 17 69 51 43 62
REMARK Flexibility Score: inf
ROOT
ATOM      1  C   UNL     1      -4.423   3.343  -6.441  1.00  0.00     0.188 C 
ENDROOT
BRANCH   1   2
ATOM      2  O   UNL     1      -4.649   3.870  -7.731  1.00  0.00    -0.376 OA
BRANCH   2   3
ATOM      3  C   UNL     1      -4.509   3.045  -8.877  1.00  0.00     0.202 C 
BRANCH   3   4
ATOM      4  C   UNL     1      -3.404   1.990  -9.010  1.00  0.00     0.261 C 
BRANCH   4   5
ATOM      5  O   UNL     1      -3.227   1.151  -7.863  1.00  0.00    -0.460 OA
BRANCH   5   6
ATOM      6  C   UNL     1      -1.985   1.211  -7.318  1.00  0.00     0.338 C 
ATOM      7  O   UNL     1      -1.032   1.844  -7.722  1.00  0.00    -0.246 OA
BRANCH   6   8
ATOM      8  C   UNL     1      -1.982   0.550  -6.002  1.00  0.00     0.060 A 
ATOM      9  C   UNL     1      -1.509  -0.628  -3.516  1.00  0.00     0.006 A 
ATOM     10  C   UNL     1      -1.564   0.768  -3.639  1.00  0.00     0.010 A 
ATOM     11  C   UNL     1      -1.867  -1.417  -4.624  1.00  0.00     0.010 A 
ATOM     12  C   UNL     1      -1.726   1.352  -4.888  1.00  0.00     0.016 A 
ATOM     13  C   UNL     1      -2.132  -0.828  -5.866  1.00  0.00     0.016 A 
BRANCH   9  14
ATOM     14  C   UNL     1      -0.938  -1.271  -2.253  1.00  0.00     0.299 C 
BRANCH  14  15
ATOM     15  N   UNL     1       0.552  -1.172  -2.182  1.00  0.00    -0.329 N 
ATOM     16  C   UNL     1       0.903   0.249  -1.973  1.00  0.00     0.333 C 
ATOM     17  H   UNL     1       0.908  -1.548  -3.061  1.00  0.00     0.348 HD
BRANCH  15  18
ATOM     18  C   UNL     1       1.193  -1.990  -1.113  1.00  0.00     0.218 C 
ATOM     19  C   UNL     1       0.749  -3.462  -1.015  1.00  0.00     0.103 C 
ATOM     20  C   UNL     1       2.758  -2.203  -1.230  1.00  0.00     0.115 C 
ATOM     21  C   UNL     1       1.793  -4.279  -1.776  1.00  0.00     0.069 C 
ATOM     22  O   UNL     1       2.964  -3.469  -1.891  1.00  0.00    -0.363 OA
ATOM     23  C   UNL     1       3.613  -1.211  -2.025  1.00  0.00     0.048 C 
ATOM     24  C   UNL     1       3.371  -2.320   0.179  1.00  0.00     0.048 C 
ATOM     25  C   UNL     1       2.200  -5.543  -1.017  1.00  0.00     0.042 C 
ATOM     26  C   UNL     1       1.335  -4.648  -3.186  1.00  0.00     0.042 C 
ENDBRANCH  15  18
ENDBRANCH  14  15
ENDBRANCH   9  14
ENDBRANCH   6   8
ENDBRANCH   5   6
ENDBRANCH   4   5
ENDBRANCH   3   4
ENDBRANCH   2   3
ENDBRANCH   1   2
BRANCH   1  27
ATOM     27  C   UNL     1      -5.266   2.166  -5.909  1.00  0.00     0.188 C 
BRANCH  27  28
ATOM     28  O   UNL     1      -6.246   1.556  -6.719  1.00  0.00    -0.376 OA
BRANCH  28  29
ATOM     29  C   UNL     1      -7.370   2.281  -7.181  1.00  0.00     0.202 C 
BRANCH  29  30
ATOM     30  C   UNL     1      -8.031   3.440  -6.422  1.00  0.00     0.261 C 
BRANCH  30  31
ATOM     31  O   UNL     1      -7.173   4.271  -5.638  1.00  0.00    -0.460 OA
BRANCH  31  32
ATOM     32  C   UNL     1      -7.344   4.149  -4.300  1.00  0.00     0.338 C 
ATOM     33  O   UNL     1      -8.120   3.413  -3.714  1.00  0.00    -0.246 OA
BRANCH  32  34
ATOM     34  C   UNL     1      -6.325   4.940  -3.593  1.00  0.00     0.060 A 
ATOM     35  C   UNL     1      -5.451   4.264  -2.733  1.00  0.00     0.016 A 
ATOM     36  C   UNL     1      -6.301   6.333  -3.688  1.00  0.00     0.016 A 
ATOM     37  C   UNL     1      -4.590   4.986  -1.911  1.00  0.00     0.010 A 
ATOM     38  C   UNL     1      -5.447   7.057  -2.852  1.00  0.00     0.010 A 
ATOM     39  C   UNL     1      -4.627   6.387  -1.925  1.00  0.00    -0.014 A 
BRANCH  39  40
ATOM     40  C   UNL     1      -3.984   7.127  -0.814  1.00  0.00     0.031 A 
ATOM     41  C   UNL     1      -4.835   7.535   0.360  1.00  0.00     0.074 A 
ATOM     42  C   UNL     1      -2.664   7.382  -0.813  1.00  0.00     0.049 A 
ATOM     43  N   UNL     1      -4.495   8.160   1.458  1.00  0.00    -0.248 NA
ATOM     44  C   UNL     1      -6.263   7.186   0.284  1.00  0.00     0.031 C 
ATOM     45  C   UNL     1      -1.729   7.011  -1.871  1.00  0.00     0.029 A 
ATOM     46  N   UNL     1      -1.886   8.016   0.123  1.00  0.00    -0.354 N 
ATOM     47  C   UNL     1      -5.663   8.280   2.200  1.00  0.00     0.074 A 
ATOM     48  C   UNL     1      -6.728   7.697   1.413  1.00  0.00     0.031 C 
ATOM     49  C   UNL     1      -0.498   7.431  -1.528  1.00  0.00     0.029 A 
ATOM     50  C   UNL     1      -0.565   8.114  -0.237  1.00  0.00     0.049 A 
ATOM     51  H   UNL     1      -2.241   8.367   0.971  1.00  0.00     0.167 HD
ATOM     52  C   UNL     1      -5.835   8.815   3.432  1.00  0.00     0.037 A 
ATOM     53  C   UNL     1       0.467   8.697   0.403  1.00  0.00     0.037 A 
ATOM     54  C   UNL     1      -4.780   9.400   4.215  1.00  0.00     0.049 A 
ATOM     55  C   UNL     1       0.240   9.336   1.749  1.00  0.00     0.074 A 
ATOM     56  C   UNL     1      -4.853   9.967   5.475  1.00  0.00     0.029 A 
ATOM     57  N   UNL     1      -3.459   9.500   3.806  1.00  0.00    -0.354 N 
ATOM     58  N   UNL     1      -0.862   9.417   2.454  1.00  0.00    -0.248 NA
ATOM     59  C   UNL     1       1.409   9.952   2.393  1.00  0.00     0.031 C 
ATOM     60  C   UNL     1      -3.582  10.446   5.812  1.00  0.00     0.029 A 
ATOM     61  C   UNL     1      -2.709  10.131   4.784  1.00  0.00     0.049 A 
ATOM     62  H   UNL     1      -3.107   9.171   2.947  1.00  0.00     0.167 HD
ATOM     63  C   UNL     1      -0.512  10.057   3.638  1.00  0.00     0.074 A 
ATOM     64  C   UNL     1       0.907  10.333   3.558  1.00  0.00     0.031 C 
ATOM     65  C   UNL     1      -1.293  10.384   4.697  1.00  0.00     0.037 A 
BRANCH  52  66
ATOM     66  C   UNL     1      -7.226   8.807   3.994  1.00  0.00     0.057 A 
ATOM     67  C   UNL     1      -7.845   7.625   4.423  1.00  0.00     0.134 A 
ATOM     68  C   UNL     1      -7.952   9.998   4.117  1.00  0.00     0.134 A 
ATOM     69  F   UNL     1      -7.210   6.448   4.314  1.00  0.00    -0.206 F 
ATOM     70  C   UNL     1      -9.145   7.625   4.932  1.00  0.00     0.040 A 
ATOM     71  C   UNL     1      -9.243  10.014   4.649  1.00  0.00     0.040 A 
ATOM     72  F   UNL     1      -7.419  11.165   3.726  1.00  0.00    -0.206 F 
ATOM     73  C   UNL     1      -9.845   8.824   5.052  1.00  0.00     0.006 A 
ENDBRANCH  52  66
BRANCH  53  74
ATOM     74  C   UNL     1       1.818   8.705  -0.213  1.00  0.00     0.057 A 
ATOM     75  C   UNL     1       2.869   7.959   0.333  1.00  0.00     0.134 A 
ATOM     76  C   UNL     1       2.098   9.487  -1.339  1.00  0.00     0.134 A 
ATOM     77  F   UNL     1       2.667   7.209   1.427  1.00  0.00    -0.206 F 
ATOM     78  C   UNL     1       4.156   8.008  -0.204  1.00  0.00     0.040 A 
ATOM     79  C   UNL     1       3.374   9.525  -1.903  1.00  0.00     0.040 A 
ATOM     80  F   UNL     1       1.134  10.225  -1.909  1.00  0.00    -0.206 F 
ATOM     81  C   UNL     1       4.410   8.790  -1.329  1.00  0.00     0.006 A 
ENDBRANCH  53  74
BRANCH  65  82
ATOM     82  C   UNL     1      -0.620  11.024   5.878  1.00  0.00     0.057 A 
ATOM     83  C   UNL     1      -0.135  12.337   5.840  1.00  0.00     0.134 A 
ATOM     84  C   UNL     1      -0.476  10.317   7.080  1.00  0.00     0.134 A 
ATOM     85  F   UNL     1      -0.232  13.065   4.717  1.00  0.00    -0.206 F 
ATOM     86  C   UNL     1       0.498  12.913   6.943  1.00  0.00     0.040 A 
ATOM     87  C   UNL     1       0.130  10.892   8.198  1.00  0.00     0.040 A 
ATOM     88  F   UNL     1      -0.928   9.059   7.189  1.00  0.00    -0.206 F 
ATOM     89  C   UNL     1       0.628  12.191   8.128  1.00  0.00     0.006 A 
ENDBRANCH  65  82
ENDBRANCH  39  40
ENDBRANCH  32  34
ENDBRANCH  31  32
ENDBRANCH  30  31
ENDBRANCH  29  30
ENDBRANCH  28  29
ENDBRANCH  27  28
ENDBRANCH   1  27
TORSDOF 20
