REMARK SMILES COc1ccc(NCc2ccc(C(=O)OCCOCCOCCOC(=O)c3ccc(-c4c5nc(c(-c6c(F)cccc6F)c6ccc([nH]6)c(-c6c(F)cccc6F)c6nc(c(-c7c(F)cccc7F)c7ccc4[nH]7)C=C6)C=C5)cc3)o2)cc1
REMARK SMILES IDX 19 1 18 2 17 3 16 4 15 5 13 6 14 7 12 8 9 9 10 10 81 11
REMARK SMILES IDX 11 12 8 13 7 14 6 16 3 17 4 18 83 19 5 20 82 21 2 22 1 23
REMARK SMILES IDX 20 24 21 25 22 26 23 27 24 28 25 29 26 30 27 31 28 32 80 33
REMARK SMILES IDX 29 34 79 35 30 36 31 37 32 38 73 39 33 40 78 41 72 42 74 43
REMARK SMILES IDX 34 44 77 45 71 46 70 47 35 49 61 50 44 51 60 52 45 53 48 54
REMARK SMILES IDX 59 55 75 56 46 57 47 58 58 60 76 61 49 62 36 63 37 64 42 65
REMARK SMILES IDX 38 66 39 67 41 68 43 69 40 70 62 71 63 72 68 73 64 74 65 75
REMARK SMILES IDX 67 76 69 77 66 78 50 79 51 80 56 81 52 82 53 83 55 84 57 85
REMARK SMILES IDX 54 86
REMARK H PARENT 7 15 74 48 48 59
REMARK Flexibility Score: inf
ROOT
ATOM      1  C   UNL     1       2.467  11.050   6.641  1.00  0.00     0.188 C 
ENDROOT
BRANCH   1   2
ATOM      2  O   UNL     1       1.898  12.011   7.526  1.00  0.00    -0.376 OA
BRANCH   2   3
ATOM      3  C   UNL     1       1.018  11.576   8.557  1.00  0.00     0.202 C 
BRANCH   3   4
ATOM      4  C   UNL     1      -0.305  10.957   8.107  1.00  0.00     0.261 C 
BRANCH   4   5
ATOM      5  O   UNL     1      -0.114   9.693   7.448  1.00  0.00    -0.457 OA
BRANCH   5   6
ATOM      6  C   UNL     1      -0.591   9.612   6.171  1.00  0.00     0.374 C 
ATOM      7  O   UNL     1      -1.262  10.476   5.620  1.00  0.00    -0.242 OA
BRANCH   6   8
ATOM      8  C   UNL     1      -0.069   8.428   5.530  1.00  0.00     0.211 A 
ATOM      9  C   UNL     1       0.766   7.335   3.801  1.00  0.00     0.124 A 
ATOM     10  C   UNL     1       0.841   6.476   4.877  1.00  0.00     0.048 A 
ATOM     11  O   UNL     1       0.185   8.505   4.186  1.00  0.00    -0.452 OA
ATOM     12  C   UNL     1       0.324   7.184   5.993  1.00  0.00     0.058 A 
BRANCH   9  13
ATOM     13  C   UNL     1       1.206   7.271   2.377  1.00  0.00     0.188 C 
BRANCH  13  14
ATOM     14  N   UNL     1       2.056   6.141   2.042  1.00  0.00    -0.378 N 
ATOM     15  H   UNL     1       3.021   6.241   2.212  1.00  0.00     0.161 HD
BRANCH  14  16
ATOM     16  C   UNL     1       1.635   4.943   1.506  1.00  0.00     0.035 A 
ATOM     17  C   UNL     1       0.908   2.438   0.391  1.00  0.00     0.119 A 
ATOM     18  C   UNL     1      -0.019   3.473   0.484  1.00  0.00     0.048 A 
ATOM     19  C   UNL     1       2.207   2.656   0.837  1.00  0.00     0.048 A 
ATOM     20  C   UNL     1       0.338   4.706   1.046  1.00  0.00     0.029 A 
ATOM     21  C   UNL     1       2.561   3.898   1.383  1.00  0.00     0.029 A 
BRANCH  17  22
ATOM     22  O   UNL     1       0.437   1.285  -0.172  1.00  0.00    -0.497 OA
ATOM     23  C   UNL     1       1.185   0.106   0.099  1.00  0.00     0.278 C 
ENDBRANCH  17  22
ENDBRANCH  14  16
ENDBRANCH  13  14
ENDBRANCH   9  13
ENDBRANCH   6   8
ENDBRANCH   5   6
ENDBRANCH   4   5
ENDBRANCH   3   4
ENDBRANCH   2   3
ENDBRANCH   1   2
BRANCH   1  24
ATOM     24  C   UNL     1       3.040   9.746   7.225  1.00  0.00     0.188 C 
BRANCH  24  25
ATOM     25  O   UNL     1       3.309   9.822   8.617  1.00  0.00    -0.376 OA
BRANCH  25  26
ATOM     26  C   UNL     1       4.664   9.661   9.004  1.00  0.00     0.202 C 
BRANCH  26  27
ATOM     27  C   UNL     1       5.514  10.917   8.795  1.00  0.00     0.261 C 
BRANCH  27  28
ATOM     28  O   UNL     1       5.558  11.405   7.445  1.00  0.00    -0.460 OA
BRANCH  28  29
ATOM     29  C   UNL     1       6.223  10.655   6.540  1.00  0.00     0.338 C 
ATOM     30  O   UNL     1       6.763   9.580   6.721  1.00  0.00    -0.246 OA
BRANCH  29  31
ATOM     31  C   UNL     1       6.066  11.309   5.225  1.00  0.00     0.060 A 
ATOM     32  C   UNL     1       5.517  10.585   4.160  1.00  0.00     0.016 A 
ATOM     33  C   UNL     1       6.458  12.639   5.054  1.00  0.00     0.016 A 
ATOM     34  C   UNL     1       5.374  11.193   2.909  1.00  0.00     0.010 A 
ATOM     35  C   UNL     1       6.330  13.238   3.800  1.00  0.00     0.010 A 
ATOM     36  C   UNL     1       5.806  12.513   2.717  1.00  0.00    -0.014 A 
BRANCH  36  37
ATOM     37  C   UNL     1       5.862  13.107   1.361  1.00  0.00     0.031 A 
ATOM     38  C   UNL     1       7.149  13.019   0.591  1.00  0.00     0.074 A 
ATOM     39  C   UNL     1       4.806  13.756   0.841  1.00  0.00     0.049 A 
ATOM     40  N   UNL     1       7.473  13.566  -0.552  1.00  0.00    -0.248 NA
ATOM     41  C   UNL     1       8.217  12.207   1.197  1.00  0.00     0.031 C 
ATOM     42  C   UNL     1       3.495  13.885   1.473  1.00  0.00     0.029 A 
ATOM     43  N   UNL     1       4.684  14.451  -0.337  1.00  0.00    -0.354 N 
ATOM     44  C   UNL     1       8.780  13.171  -0.800  1.00  0.00     0.074 A 
ATOM     45  C   UNL     1       9.197  12.352   0.318  1.00  0.00     0.031 C 
ATOM     46  C   UNL     1       2.705  14.637   0.685  1.00  0.00     0.029 A 
ATOM     47  C   UNL     1       3.466  15.068  -0.487  1.00  0.00     0.049 A 
ATOM     48  H   UNL     1       5.401  14.502  -1.010  1.00  0.00     0.167 HD
ATOM     49  C   UNL     1       9.564  13.465  -1.863  1.00  0.00     0.037 A 
ATOM     50  C   UNL     1       3.030  15.910  -1.444  1.00  0.00     0.037 A 
ATOM     51  C   UNL     1       9.158  14.290  -2.968  1.00  0.00     0.049 A 
ATOM     52  C   UNL     1       3.947  16.285  -2.579  1.00  0.00     0.074 A 
ATOM     53  C   UNL     1       9.879  14.636  -4.096  1.00  0.00     0.029 A 
ATOM     54  N   UNL     1       7.921  14.906  -3.075  1.00  0.00    -0.354 N 
ATOM     55  N   UNL     1       5.175  15.890  -2.816  1.00  0.00    -0.248 NA
ATOM     56  C   UNL     1       3.421  17.231  -3.575  1.00  0.00     0.031 C 
ATOM     57  C   UNL     1       9.090  15.494  -4.871  1.00  0.00     0.029 A 
ATOM     58  C   UNL     1       7.865  15.649  -4.242  1.00  0.00     0.049 A 
ATOM     59  H   UNL     1       7.191  14.827  -2.419  1.00  0.00     0.167 HD
ATOM     60  C   UNL     1       5.555  16.512  -3.999  1.00  0.00     0.074 A 
ATOM     61  C   UNL     1       4.429  17.312  -4.433  1.00  0.00     0.031 C 
ATOM     62  C   UNL     1       6.730  16.425  -4.667  1.00  0.00     0.037 A 
BRANCH  49  63
ATOM     63  C   UNL     1      10.954  12.906  -1.864  1.00  0.00     0.057 A 
ATOM     64  C   UNL     1      11.202  11.554  -2.130  1.00  0.00     0.134 A 
ATOM     65  C   UNL     1      12.056  13.733  -1.615  1.00  0.00     0.134 A 
ATOM     66  F   UNL     1      10.186  10.708  -2.358  1.00  0.00    -0.206 F 
ATOM     67  C   UNL     1      12.499  11.039  -2.133  1.00  0.00     0.040 A 
ATOM     68  C   UNL     1      13.358  13.234  -1.634  1.00  0.00     0.040 A 
ATOM     69  F   UNL     1      11.883  15.037  -1.353  1.00  0.00    -0.206 F 
ATOM     70  C   UNL     1      13.582  11.882  -1.889  1.00  0.00     0.006 A 
ENDBRANCH  49  63
BRANCH  50  71
ATOM     71  C   UNL     1       1.664  16.482  -1.365  1.00  0.00     0.057 A 
ATOM     72  C   UNL     1       0.660  16.084  -2.256  1.00  0.00     0.134 A 
ATOM     73  C   UNL     1       1.335  17.456  -0.414  1.00  0.00     0.134 A 
ATOM     74  F   UNL     1       0.923  15.176  -3.206  1.00  0.00    -0.206 F 
ATOM     75  C   UNL     1      -0.619  16.642  -2.211  1.00  0.00     0.040 A 
ATOM     76  C   UNL     1       0.055  18.007  -0.345  1.00  0.00     0.040 A 
ATOM     77  F   UNL     1       2.256  17.883   0.462  1.00  0.00    -0.206 F 
ATOM     78  C   UNL     1      -0.925  17.604  -1.250  1.00  0.00     0.006 A 
ENDBRANCH  50  71
BRANCH  62  79
ATOM     79  C   UNL     1       6.852  17.176  -5.958  1.00  0.00     0.057 A 
ATOM     80  C   UNL     1       7.063  18.559  -5.990  1.00  0.00     0.134 A 
ATOM     81  C   UNL     1       6.828  16.493  -7.181  1.00  0.00     0.134 A 
ATOM     82  F   UNL     1       7.085  19.270  -4.853  1.00  0.00    -0.206 F 
ATOM     83  C   UNL     1       7.239  19.239  -7.196  1.00  0.00     0.040 A 
ATOM     84  C   UNL     1       7.022  17.159  -8.391  1.00  0.00     0.040 A 
ATOM     85  F   UNL     1       6.638  15.165  -7.216  1.00  0.00    -0.206 F 
ATOM     86  C   UNL     1       7.227  18.537  -8.401  1.00  0.00     0.006 A 
ENDBRANCH  62  79
ENDBRANCH  36  37
ENDBRANCH  29  31
ENDBRANCH  28  29
ENDBRANCH  27  28
ENDBRANCH  26  27
ENDBRANCH  25  26
ENDBRANCH  24  25
ENDBRANCH   1  24
TORSDOF 21
