REMARK SMILES O=C(OCCOCCOCCOC(=O)C1(NC(=O)c2nc(C3CC3)n[nH]2)CCCCC1)c1ccc(-c2c3nc(c(-c4c(F)cccc4F)c4ccc([nH]4)c(-c4c(F)cccc4F)c4nc(c(-c5c(F)cccc5F)c5ccc2[nH]5)C=C4)C=C3)cc1
REMARK SMILES IDX 8 1 7 2 6 3 5 4 4 5 3 6 2 7 1 8 32 9 33 10 85 11 34 12 84 13
REMARK SMILES IDX 35 14 36 15 37 16 78 17 38 18 83 19 77 20 79 21 39 22 82 23
REMARK SMILES IDX 76 24 75 25 40 27 66 28 49 29 65 30 50 31 53 32 64 33 80 34
REMARK SMILES IDX 51 35 52 36 63 38 81 39 54 40 41 41 42 42 47 43 43 44 44 45
REMARK SMILES IDX 46 46 48 47 45 48 67 49 68 50 73 51 69 52 70 53 72 54 74 55
REMARK SMILES IDX 71 56 55 57 56 58 61 59 57 60 58 61 60 62 62 63 59 64 9 65
REMARK SMILES IDX 10 66 11 67 12 68 13 69 14 70 15 71 27 72 31 73 28 74 30 75
REMARK SMILES IDX 29 76 16 77 17 78 18 80 19 81 20 82 26 83 21 84 25 85 22 87
REMARK SMILES IDX 23 88 24 89
REMARK H PARENT 79 26 53 37 16 79 26 86
REMARK Flexibility Score: inf
ROOT
ATOM      1  C   UNL     1       5.004  -1.211   2.801  1.00  0.00     0.188 C 
ENDROOT
BRANCH   1   2
ATOM      2  C   UNL     1       4.576  -0.811   1.400  1.00  0.00     0.188 C 
BRANCH   2   3
ATOM      3  O   UNL     1       5.618  -0.222   0.625  1.00  0.00    -0.376 OA
BRANCH   3   4
ATOM      4  C   UNL     1       5.324   1.141   0.313  1.00  0.00     0.202 C 
BRANCH   4   5
ATOM      5  C   UNL     1       4.534   1.335  -0.992  1.00  0.00     0.261 C 
BRANCH   5   6
ATOM      6  O   UNL     1       3.249   0.685  -0.936  1.00  0.00    -0.460 OA
BRANCH   6   7
ATOM      7  C   UNL     1       2.920  -0.161  -1.946  1.00  0.00     0.338 C 
ATOM      8  O   UNL     1       2.032   0.053  -2.757  1.00  0.00    -0.246 OA
BRANCH   7   9
ATOM      9  C   UNL     1       3.472  -1.516  -1.729  1.00  0.00     0.060 A 
ATOM     10  C   UNL     1       4.851  -1.733  -1.728  1.00  0.00     0.016 A 
ATOM     11  C   UNL     1       2.595  -2.581  -1.475  1.00  0.00     0.016 A 
ATOM     12  C   UNL     1       5.359  -2.965  -1.351  1.00  0.00     0.010 A 
ATOM     13  C   UNL     1       3.106  -3.848  -1.172  1.00  0.00     0.010 A 
ATOM     14  C   UNL     1       4.493  -4.035  -1.099  1.00  0.00    -0.014 A 
BRANCH  14  15
ATOM     15  C   UNL     1       5.119  -5.365  -1.002  1.00  0.00     0.031 A 
ATOM     16  C   UNL     1       5.691  -5.928  -2.267  1.00  0.00     0.074 A 
ATOM     17  C   UNL     1       5.337  -5.960   0.182  1.00  0.00     0.049 A 
ATOM     18  N   UNL     1       6.522  -6.920  -2.423  1.00  0.00    -0.248 NA
ATOM     19  C   UNL     1       5.352  -5.213  -3.511  1.00  0.00     0.031 C 
ATOM     20  C   UNL     1       4.944  -5.427   1.482  1.00  0.00     0.029 A 
ATOM     21  N   UNL     1       5.963  -7.141   0.480  1.00  0.00    -0.354 N 
ATOM     22  C   UNL     1       6.892  -6.874  -3.758  1.00  0.00     0.074 A 
ATOM     23  C   UNL     1       6.162  -5.793  -4.380  1.00  0.00     0.031 C 
ATOM     24  C   UNL     1       5.284  -6.309   2.439  1.00  0.00     0.029 A 
ATOM     25  C   UNL     1       5.921  -7.463   1.814  1.00  0.00     0.049 A 
ATOM     26  H   UNL     1       6.400  -7.706  -0.197  1.00  0.00     0.167 HD
ATOM     27  C   UNL     1       7.776  -7.664  -4.404  1.00  0.00     0.037 A 
ATOM     28  C   UNL     1       6.335  -8.582   2.440  1.00  0.00     0.037 A 
ATOM     29  C   UNL     1       8.364  -8.831  -3.815  1.00  0.00     0.049 A 
ATOM     30  C   UNL     1       7.069  -9.617   1.628  1.00  0.00     0.074 A 
ATOM     31  C   UNL     1       9.156  -9.795  -4.406  1.00  0.00     0.029 A 
ATOM     32  N   UNL     1       8.165  -9.217  -2.497  1.00  0.00    -0.354 N 
ATOM     33  N   UNL     1       7.442  -9.562   0.371  1.00  0.00    -0.248 NA
ATOM     34  C   UNL     1       7.455 -10.856   2.315  1.00  0.00     0.031 C 
ATOM     35  C   UNL     1       9.385 -10.800  -3.458  1.00  0.00     0.029 A 
ATOM     36  C   UNL     1       8.778 -10.433  -2.264  1.00  0.00     0.049 A 
ATOM     37  H   UNL     1       7.662  -8.700  -1.826  1.00  0.00     0.167 HD
ATOM     38  C   UNL     1       8.143 -10.734   0.127  1.00  0.00     0.074 A 
ATOM     39  C   UNL     1       8.135 -11.486   1.366  1.00  0.00     0.031 C 
ATOM     40  C   UNL     1       8.753 -11.147  -1.012  1.00  0.00     0.037 A 
BRANCH  27  41
ATOM     41  C   UNL     1       8.063  -7.305  -5.826  1.00  0.00     0.057 A 
ATOM     42  C   UNL     1       8.900  -6.228  -6.149  1.00  0.00     0.134 A 
ATOM     43  C   UNL     1       7.434  -7.980  -6.876  1.00  0.00     0.134 A 
ATOM     44  F   UNL     1       9.499  -5.518  -5.181  1.00  0.00    -0.206 F 
ATOM     45  C   UNL     1       9.087  -5.824  -7.472  1.00  0.00     0.040 A 
ATOM     46  C   UNL     1       7.622  -7.593  -8.203  1.00  0.00     0.040 A 
ATOM     47  F   UNL     1       6.600  -9.000  -6.626  1.00  0.00    -0.206 F 
ATOM     48  C   UNL     1       8.447  -6.508  -8.503  1.00  0.00     0.006 A 
ENDBRANCH  27  41
BRANCH  28  49
ATOM     49  C   UNL     1       6.022  -8.804   3.876  1.00  0.00     0.057 A 
ATOM     50  C   UNL     1       7.019  -8.884   4.853  1.00  0.00     0.134 A 
ATOM     51  C   UNL     1       4.697  -8.992   4.296  1.00  0.00     0.134 A 
ATOM     52  F   UNL     1       8.309  -8.734   4.516  1.00  0.00    -0.206 F 
ATOM     53  C   UNL     1       6.715  -9.163   6.189  1.00  0.00     0.040 A 
ATOM     54  C   UNL     1       4.377  -9.251   5.630  1.00  0.00     0.040 A 
ATOM     55  F   UNL     1       3.690  -8.929   3.412  1.00  0.00    -0.206 F 
ATOM     56  C   UNL     1       5.390  -9.346   6.580  1.00  0.00     0.006 A 
ENDBRANCH  28  49
BRANCH  40  57
ATOM     57  C   UNL     1       9.492 -12.447  -0.954  1.00  0.00     0.057 A 
ATOM     58  C   UNL     1       8.824 -13.677  -0.954  1.00  0.00     0.134 A 
ATOM     59  C   UNL     1      10.892 -12.463  -0.960  1.00  0.00     0.134 A 
ATOM     60  F   UNL     1       7.483 -13.723  -0.935  1.00  0.00    -0.206 F 
ATOM     61  C   UNL     1       9.526 -14.882  -0.948  1.00  0.00     0.040 A 
ATOM     62  C   UNL     1      11.604 -13.661  -0.978  1.00  0.00     0.040 A 
ATOM     63  F   UNL     1      11.586 -11.315  -0.969  1.00  0.00    -0.206 F 
ATOM     64  C   UNL     1      10.920 -14.875  -0.969  1.00  0.00     0.006 A 
ENDBRANCH  40  57
ENDBRANCH  14  15
ENDBRANCH   7   9
ENDBRANCH   6   7
ENDBRANCH   5   6
ENDBRANCH   4   5
ENDBRANCH   3   4
ENDBRANCH   2   3
ENDBRANCH   1   2
BRANCH   1  65
ATOM     65  O   UNL     1       5.618  -0.198   3.579  1.00  0.00    -0.376 OA
BRANCH  65  66
ATOM     66  C   UNL     1       5.905  -0.628   4.919  1.00  0.00     0.202 C 
BRANCH  66  67
ATOM     67  C   UNL     1       4.683  -0.626   5.855  1.00  0.00     0.261 C 
BRANCH  67  68
ATOM     68  O   UNL     1       3.763  -1.655   5.450  1.00  0.00    -0.461 OA
BRANCH  68  69
ATOM     69  C   UNL     1       2.466  -1.286   5.263  1.00  0.00     0.331 C 
ATOM     70  O   UNL     1       1.949  -0.286   5.749  1.00  0.00    -0.249 OA
BRANCH  69  71
ATOM     71  C   UNL     1       1.683  -2.334   4.412  1.00  0.00     0.138 C 
ATOM     72  C   UNL     1       2.579  -3.484   3.848  1.00  0.00     0.040 C 
ATOM     73  C   UNL     1       0.648  -2.919   5.422  1.00  0.00     0.040 C 
ATOM     74  C   UNL     1       1.858  -4.784   3.493  1.00  0.00     0.003 C 
ATOM     75  C   UNL     1      -0.002  -4.245   5.025  1.00  0.00     0.003 C 
ATOM     76  C   UNL     1       1.039  -5.289   4.661  1.00  0.00     0.000 C 
BRANCH  71  77
ATOM     77  N   UNL     1       0.955  -1.759   3.242  1.00  0.00    -0.333 N 
ATOM     78  C   UNL     1       0.721  -0.529   2.676  1.00  0.00     0.289 C 
ATOM     79  H   UNL     1       0.513  -2.470   2.724  1.00  0.00     0.165 HD
ATOM     80  O   UNL     1      -0.160  -0.561   1.806  1.00  0.00    -0.266 OA
BRANCH  78  81
ATOM     81  C   UNL     1       1.323   0.740   3.032  1.00  0.00     0.214 A 
ATOM     82  N   UNL     1       2.591   1.113   3.174  1.00  0.00    -0.207 NA
ATOM     83  N   UNL     1       0.553   1.870   3.033  1.00  0.00    -0.255 N 
ATOM     84  C   UNL     1       2.502   2.490   3.356  1.00  0.00     0.154 A 
ATOM     85  N   UNL     1       1.253   2.968   3.322  1.00  0.00    -0.158 NA
ATOM     86  H   UNL     1      -0.412   1.873   2.840  1.00  0.00     0.192 HD
BRANCH  84  87
ATOM     87  C   UNL     1       3.640   3.483   3.610  1.00  0.00     0.060 C 
ATOM     88  C   UNL     1       5.083   3.065   3.612  1.00  0.00     0.012 C 
ATOM     89  C   UNL     1       4.568   3.923   2.499  1.00  0.00     0.012 C 
ENDBRANCH  84  87
ENDBRANCH  78  81
ENDBRANCH  71  77
ENDBRANCH  69  71
ENDBRANCH  68  69
ENDBRANCH  67  68
ENDBRANCH  66  67
ENDBRANCH  65  66
ENDBRANCH   1  65
TORSDOF 20
