REMARK SMILES CSCC[C@H](NC(=O)Nc1cccc(-c2nc3ccccc3o2)c1)C(=O)OCCOCCOCCOC(=O)c1ccc(-c2c3nc(c(-c4c(F)cccc4F)c4ccc([nH]4)c(-c4c(F)cccc4F)c4nc(c(-c5c(F)cccc5F)c5ccc2[nH]5)C=C4)C=C3)cc1
REMARK SMILES IDX 31 1 30 2 29 3 28 4 27 5 25 6 26 7 5 8 4 9 3 10 2 11 1 12
REMARK SMILES IDX 6 13 7 14 8 16 9 17 10 19 11 20 24 21 12 22 14 23 13 24
REMARK SMILES IDX 15 25 16 26 23 27 17 28 22 29 18 30 21 31 19 32 20 33 32 34
REMARK SMILES IDX 33 35 34 36 35 37 36 38 37 39 38 40 39 41 40 42 92 43 41 44
REMARK SMILES IDX 91 45 42 46 43 47 44 48 85 49 45 50 90 51 84 52 86 53 46 54
REMARK SMILES IDX 89 55 83 56 82 57 47 59 73 60 56 61 72 62 57 63 60 64 71 65
REMARK SMILES IDX 87 66 58 67 59 68 70 70 88 71 61 72 48 73 49 74 54 75 50 76
REMARK SMILES IDX 51 77 53 78 55 79 52 80 74 81 75 82 80 83 76 84 77 85 79 86
REMARK SMILES IDX 81 87 78 88 62 89 63 90 68 91 64 92 65 93 67 94 69 95 66 96
REMARK H PARENT 6 15 9 18 86 58 60 69
REMARK Flexibility Score: inf
ROOT
ATOM      1  C   UNL     1      -2.112  -3.119  -5.260  1.00  0.00     0.188 C 
ENDROOT
BRANCH   1   2
ATOM      2  O   UNL     1      -1.456  -3.994  -6.176  1.00  0.00    -0.376 OA
BRANCH   2   3
ATOM      3  C   UNL     1      -0.079  -3.693  -6.400  1.00  0.00     0.202 C 
BRANCH   3   4
ATOM      4  C   UNL     1       0.918  -4.346  -5.416  1.00  0.00     0.261 C 
BRANCH   4   5
ATOM      5  O   UNL     1       1.030  -3.652  -4.149  1.00  0.00    -0.462 OA
BRANCH   5   6
ATOM      6  C   UNL     1       2.246  -3.428  -3.561  1.00  0.00     0.328 C 
ATOM      7  O   UNL     1       3.321  -3.679  -4.088  1.00  0.00    -0.250 OA
BRANCH   6   8
ATOM      8  C   UNL     1       2.087  -2.645  -2.208  1.00  0.00     0.194 C 
BRANCH   8   9
ATOM      9  C   UNL     1       3.326  -2.748  -1.306  1.00  0.00     0.048 C 
BRANCH   9  10
ATOM     10  C   UNL     1       3.190  -1.946   0.000  1.00  0.00     0.072 C 
BRANCH  10  11
ATOM     11  S   UNL     1       2.573  -2.999   1.359  1.00  0.00    -0.165 SA
ATOM     12  C   UNL     1       1.079  -2.088   1.836  1.00  0.00     0.085 C 
ENDBRANCH  10  11
ENDBRANCH   9  10
ENDBRANCH   8   9
BRANCH   8  13
ATOM     13  N   UNL     1       0.859  -3.016  -1.521  1.00  0.00    -0.324 N 
ATOM     14  C   UNL     1      -0.321  -2.450  -1.294  1.00  0.00     0.319 C 
ATOM     15  H   UNL     1       0.918  -3.914  -1.123  1.00  0.00     0.166 HD
ATOM     16  O   UNL     1      -1.026  -2.995  -0.435  1.00  0.00    -0.248 OA
ATOM     17  N   UNL     1      -0.853  -1.364  -1.867  1.00  0.00    -0.308 N 
ATOM     18  H   UNL     1      -1.607  -1.039  -1.324  1.00  0.00     0.171 HD
BRANCH  17  19
ATOM     19  C   UNL     1      -0.687  -0.535  -2.990  1.00  0.00     0.043 A 
ATOM     20  C   UNL     1      -1.716   0.359  -3.275  1.00  0.00     0.026 A 
ATOM     21  C   UNL     1       0.325  -0.588  -3.921  1.00  0.00     0.040 A 
ATOM     22  C   UNL     1      -1.669   1.210  -4.393  1.00  0.00     0.003 A 
ATOM     23  C   UNL     1       0.427   0.254  -5.043  1.00  0.00     0.039 A 
ATOM     24  C   UNL     1      -0.582   1.173  -5.273  1.00  0.00     0.014 A 
BRANCH  23  25
ATOM     25  C   UNL     1       1.532  -0.058  -5.949  1.00  0.00     0.227 A 
ATOM     26  N   UNL     1       1.710  -1.233  -6.524  1.00  0.00    -0.209 NA
ATOM     27  O   UNL     1       2.684   0.681  -5.814  1.00  0.00    -0.436 OA
ATOM     28  C   UNL     1       3.058  -1.343  -6.674  1.00  0.00     0.110 A 
ATOM     29  C   UNL     1       3.664  -0.162  -6.285  1.00  0.00     0.155 A 
ATOM     30  C   UNL     1       3.841  -2.433  -7.075  1.00  0.00     0.032 A 
ATOM     31  C   UNL     1       5.037   0.044  -6.319  1.00  0.00     0.049 A 
ATOM     32  C   UNL     1       5.230  -2.283  -7.064  1.00  0.00     0.003 A 
ATOM     33  C   UNL     1       5.813  -1.060  -6.712  1.00  0.00     0.004 A 
ENDBRANCH  23  25
ENDBRANCH  17  19
ENDBRANCH   8  13
ENDBRANCH   6   8
ENDBRANCH   5   6
ENDBRANCH   4   5
ENDBRANCH   3   4
ENDBRANCH   2   3
ENDBRANCH   1   2
BRANCH   1  34
ATOM     34  C   UNL     1      -2.001  -3.617  -3.825  1.00  0.00     0.188 C 
BRANCH  34  35
ATOM     35  O   UNL     1      -2.274  -4.986  -3.561  1.00  0.00    -0.376 OA
BRANCH  35  36
ATOM     36  C   UNL     1      -3.314  -5.583  -4.309  1.00  0.00     0.202 C 
BRANCH  36  37
ATOM     37  C   UNL     1      -4.738  -5.067  -4.055  1.00  0.00     0.261 C 
BRANCH  37  38
ATOM     38  O   UNL     1      -4.846  -3.737  -3.516  1.00  0.00    -0.460 OA
BRANCH  38  39
ATOM     39  C   UNL     1      -4.837  -3.657  -2.159  1.00  0.00     0.338 C 
ATOM     40  O   UNL     1      -4.750  -4.592  -1.375  1.00  0.00    -0.246 OA
BRANCH  39  41
ATOM     41  C   UNL     1      -4.902  -2.233  -1.725  1.00  0.00     0.060 A 
ATOM     42  C   UNL     1      -4.210  -1.842  -0.572  1.00  0.00     0.016 A 
ATOM     43  C   UNL     1      -5.684  -1.290  -2.403  1.00  0.00     0.016 A 
ATOM     44  C   UNL     1      -4.311  -0.528  -0.088  1.00  0.00     0.010 A 
ATOM     45  C   UNL     1      -5.801   0.021  -1.908  1.00  0.00     0.010 A 
ATOM     46  C   UNL     1      -5.133   0.409  -0.733  1.00  0.00    -0.014 A 
BRANCH  46  47
ATOM     47  C   UNL     1      -5.415   1.723  -0.083  1.00  0.00     0.031 A 
ATOM     48  C   UNL     1      -6.586   1.834   0.855  1.00  0.00     0.074 A 
ATOM     49  C   UNL     1      -4.644   2.810  -0.282  1.00  0.00     0.049 A 
ATOM     50  N   UNL     1      -6.960   2.845   1.598  1.00  0.00    -0.248 NA
ATOM     51  C   UNL     1      -7.446   0.647   0.968  1.00  0.00     0.031 C 
ATOM     52  C   UNL     1      -3.482   2.865  -1.153  1.00  0.00     0.029 A 
ATOM     53  N   UNL     1      -4.721   4.082   0.237  1.00  0.00    -0.354 N 
ATOM     54  C   UNL     1      -8.084   2.410   2.288  1.00  0.00     0.074 A 
ATOM     55  C   UNL     1      -8.357   1.061   1.837  1.00  0.00     0.031 C 
ATOM     56  C   UNL     1      -2.946   4.095  -1.117  1.00  0.00     0.029 A 
ATOM     57  C   UNL     1      -3.740   4.930  -0.223  1.00  0.00     0.049 A 
ATOM     58  H   UNL     1      -5.413   4.360   0.879  1.00  0.00     0.167 HD
ATOM     59  C   UNL     1      -8.815   3.066   3.221  1.00  0.00     0.037 A 
ATOM     60  C   UNL     1      -3.499   6.230   0.039  1.00  0.00     0.037 A 
ATOM     61  C   UNL     1      -8.577   4.422   3.646  1.00  0.00     0.049 A 
ATOM     62  C   UNL     1      -4.365   6.958   1.030  1.00  0.00     0.074 A 
ATOM     63  C   UNL     1      -9.262   5.159   4.598  1.00  0.00     0.029 A 
ATOM     64  N   UNL     1      -7.597   5.256   3.130  1.00  0.00    -0.354 N 
ATOM     65  N   UNL     1      -5.378   6.510   1.730  1.00  0.00    -0.248 NA
ATOM     66  C   UNL     1      -4.042   8.370   1.280  1.00  0.00     0.031 C 
ATOM     67  C   UNL     1      -8.739   6.457   4.611  1.00  0.00     0.029 A 
ATOM     68  C   UNL     1      -7.680   6.509   3.719  1.00  0.00     0.049 A 
ATOM     69  H   UNL     1      -6.938   4.997   2.446  1.00  0.00     0.167 HD
ATOM     70  C   UNL     1      -5.789   7.571   2.529  1.00  0.00     0.074 A 
ATOM     71  C   UNL     1      -4.905   8.679   2.237  1.00  0.00     0.031 C 
ATOM     72  C   UNL     1      -6.804   7.617   3.427  1.00  0.00     0.037 A 
BRANCH  59  73
ATOM     73  C   UNL     1      -9.972   2.322   3.824  1.00  0.00     0.057 A 
ATOM     74  C   UNL     1      -9.784   1.235   4.689  1.00  0.00     0.134 A 
ATOM     75  C   UNL     1     -11.290   2.706   3.547  1.00  0.00     0.134 A 
ATOM     76  F   UNL     1      -8.547   0.809   4.986  1.00  0.00    -0.206 F 
ATOM     77  C   UNL     1     -10.865   0.537   5.230  1.00  0.00     0.040 A 
ATOM     78  C   UNL     1     -12.379   2.034   4.106  1.00  0.00     0.040 A 
ATOM     79  F   UNL     1     -11.542   3.741   2.733  1.00  0.00    -0.206 F 
ATOM     80  C   UNL     1     -12.167   0.940   4.942  1.00  0.00     0.006 A 
ENDBRANCH  59  73
BRANCH  60  81
ATOM     81  C   UNL     1      -2.377   6.936  -0.637  1.00  0.00     0.057 A 
ATOM     82  C   UNL     1      -1.256   7.379   0.075  1.00  0.00     0.134 A 
ATOM     83  C   UNL     1      -2.419   7.218  -2.009  1.00  0.00     0.134 A 
ATOM     84  F   UNL     1      -1.165   7.161   1.395  1.00  0.00    -0.206 F 
ATOM     85  C   UNL     1      -0.231   8.098  -0.544  1.00  0.00     0.040 A 
ATOM     86  C   UNL     1      -1.389   7.912  -2.646  1.00  0.00     0.040 A 
ATOM     87  F   UNL     1      -3.462   6.819  -2.751  1.00  0.00    -0.206 F 
ATOM     88  C   UNL     1      -0.295   8.363  -1.911  1.00  0.00     0.006 A 
ENDBRANCH  60  81
BRANCH  72  89
ATOM     89  C   UNL     1      -6.990   8.898   4.193  1.00  0.00     0.057 A 
ATOM     90  C   UNL     1      -7.423  10.082   3.580  1.00  0.00     0.134 A 
ATOM     91  C   UNL     1      -6.739   8.945   5.571  1.00  0.00     0.134 A 
ATOM     92  F   UNL     1      -7.671  10.114   2.261  1.00  0.00    -0.206 F 
ATOM     93  C   UNL     1      -7.560  11.271   4.299  1.00  0.00     0.040 A 
ATOM     94  C   UNL     1      -6.905  10.119   6.308  1.00  0.00     0.040 A 
ATOM     95  F   UNL     1      -6.332   7.848   6.228  1.00  0.00    -0.206 F 
ATOM     96  C   UNL     1      -7.306  11.291   5.669  1.00  0.00     0.006 A 
ENDBRANCH  72  89
ENDBRANCH  46  47
ENDBRANCH  39  41
ENDBRANCH  38  39
ENDBRANCH  37  38
ENDBRANCH  36  37
ENDBRANCH  35  36
ENDBRANCH  34  35
ENDBRANCH   1  34
TORSDOF 23
