REMARK SMILES [NH3+]C[C@H]1CC[C@@H](C(=O)N[C@H](CC(=O)OCCOCCOCCOC(=O)c2ccc(-c3c4nc(c(-c5c(F)cccc5F)c5ccc([nH]5)c(-c5c(F)cccc5F)c5nc(c(-c6c(F)cccc6F)c6ccc3[nH]6)C=C5)C=C4)cc2)c2cccs2)O1
REMARK SMILES IDX 17 1 16 2 15 3 14 4 12 5 13 6 11 7 10 8 9 9 7 10 8 11 6 13
REMARK SMILES IDX 3 14 4 15 85 16 5 17 2 18 1 19 80 23 81 24 84 25 82 26 83 27
REMARK SMILES IDX 18 28 19 29 20 30 21 31 22 32 23 33 24 34 25 35 26 36 27 37
REMARK SMILES IDX 79 38 28 39 78 40 29 41 30 42 31 43 72 44 32 45 77 46 71 47
REMARK SMILES IDX 73 48 33 49 76 50 70 51 69 52 34 54 60 55 43 56 59 57 44 58
REMARK SMILES IDX 47 59 58 60 74 61 45 62 46 63 57 65 75 66 48 67 35 68 36 69
REMARK SMILES IDX 41 70 37 71 38 72 40 73 42 74 39 75 61 76 62 77 67 78 63 79
REMARK SMILES IDX 64 80 66 81 68 82 65 83 49 84 50 85 55 86 51 87 52 88 54 89
REMARK SMILES IDX 56 90 53 91
REMARK H PARENT 9 12 1 20 1 21 1 22 73 53 47 64
REMARK Flexibility Score: inf
ROOT
ATOM      1  O   UNL     1       2.502  -0.967  -2.102  1.00  0.00    -0.376 OA
ENDROOT
BRANCH   1   2
ATOM      2  C   UNL     1       1.325  -0.792  -2.872  1.00  0.00     0.202 C 
BRANCH   2   3
ATOM      3  C   UNL     1       0.952  -1.920  -3.837  1.00  0.00     0.261 C 
BRANCH   3   4
ATOM      4  O   UNL     1       0.783  -3.220  -3.233  1.00  0.00    -0.463 OA
BRANCH   4   5
ATOM      5  C   UNL     1       1.778  -4.099  -3.483  1.00  0.00     0.308 C 
ATOM      6  O   UNL     1       2.779  -3.845  -4.147  1.00  0.00    -0.252 OA
BRANCH   5   7
ATOM      7  C   UNL     1       1.547  -5.504  -2.988  1.00  0.00     0.153 C 
BRANCH   7   8
ATOM      8  C   UNL     1       0.590  -5.826  -1.836  1.00  0.00     0.133 C 
BRANCH   8   9
ATOM      9  N   UNL     1      -0.209  -7.044  -2.065  1.00  0.00    -0.346 N 
ATOM     10  C   UNL     1       0.156  -8.326  -2.365  1.00  0.00     0.249 C 
ATOM     11  O   UNL     1      -0.689  -9.211  -2.213  1.00  0.00    -0.272 OA
ATOM     12  H   UNL     1      -1.181  -6.909  -1.989  1.00  0.00     0.164 HD
BRANCH  10  13
ATOM     13  C   UNL     1       1.544  -8.632  -2.945  1.00  0.00     0.207 C 
ATOM     14  C   UNL     1       2.754 -10.587  -3.351  1.00  0.00     0.174 C 
ATOM     15  C   UNL     1       2.611  -9.841  -4.668  1.00  0.00     0.041 C 
ATOM     16  O   UNL     1       2.216  -9.729  -2.325  1.00  0.00    -0.359 OA
ATOM     17  C   UNL     1       1.414  -8.962  -4.425  1.00  0.00     0.045 C 
BRANCH  14  18
ATOM     18  C   UNL     1       1.983 -11.917  -3.317  1.00  0.00     0.291 C 
BRANCH  18  19
ATOM     19  N   UNL     1       2.042 -12.522  -1.980  1.00  0.00    -0.355 N 
ATOM     20  H   UNL     1       1.525 -13.401  -1.981  1.00  0.00     0.344 HD
ATOM     21  H   UNL     1       1.627 -11.885  -1.300  1.00  0.00     0.344 HD
ATOM     22  H   UNL     1       3.015 -12.700  -1.730  1.00  0.00     0.344 HD
ENDBRANCH  18  19
ENDBRANCH  14  18
ENDBRANCH  10  13
ENDBRANCH   8   9
BRANCH   8  23
ATOM     23  C   UNL     1       1.224  -6.044  -0.463  1.00  0.00     0.028 A 
ATOM     24  C   UNL     1       2.481  -6.503  -0.103  1.00  0.00     0.017 A 
ATOM     25  S   UNL     1       0.236  -5.843   0.946  1.00  0.00    -0.147 S 
ATOM     26  C   UNL     1       2.608  -6.738   1.301  1.00  0.00     0.012 A 
ATOM     27  C   UNL     1       1.459  -6.422   1.986  1.00  0.00     0.065 A 
ENDBRANCH   8  23
ENDBRANCH   7   8
ENDBRANCH   5   7
ENDBRANCH   4   5
ENDBRANCH   3   4
ENDBRANCH   2   3
ENDBRANCH   1   2
BRANCH   1  28
ATOM     28  C   UNL     1       2.548  -1.946  -1.070  1.00  0.00     0.188 C 
BRANCH  28  29
ATOM     29  C   UNL     1       1.260  -2.439  -0.395  1.00  0.00     0.188 C 
BRANCH  29  30
ATOM     30  O   UNL     1       0.206  -1.495  -0.369  1.00  0.00    -0.376 OA
BRANCH  30  31
ATOM     31  C   UNL     1      -0.296  -1.185   0.922  1.00  0.00     0.202 C 
BRANCH  31  32
ATOM     32  C   UNL     1       0.604  -0.182   1.650  1.00  0.00     0.261 C 
BRANCH  32  33
ATOM     33  O   UNL     1       1.942  -0.663   1.887  1.00  0.00    -0.460 OA
BRANCH  33  34
ATOM     34  C   UNL     1       2.075  -1.622   2.823  1.00  0.00     0.338 C 
ATOM     35  O   UNL     1       1.185  -2.118   3.507  1.00  0.00    -0.246 OA
BRANCH  34  36
ATOM     36  C   UNL     1       3.460  -2.119   2.786  1.00  0.00     0.060 A 
ATOM     37  C   UNL     1       3.700  -3.405   2.292  1.00  0.00     0.016 A 
ATOM     38  C   UNL     1       4.512  -1.344   3.272  1.00  0.00     0.016 A 
ATOM     39  C   UNL     1       4.989  -3.937   2.305  1.00  0.00     0.010 A 
ATOM     40  C   UNL     1       5.804  -1.883   3.296  1.00  0.00     0.010 A 
ATOM     41  C   UNL     1       6.045  -3.192   2.839  1.00  0.00    -0.014 A 
BRANCH  41  42
ATOM     42  C   UNL     1       7.363  -3.833   3.075  1.00  0.00     0.031 A 
ATOM     43  C   UNL     1       7.724  -4.245   4.476  1.00  0.00     0.074 A 
ATOM     44  C   UNL     1       8.220  -4.079   2.068  1.00  0.00     0.049 A 
ATOM     45  N   UNL     1       8.863  -4.677   4.950  1.00  0.00    -0.248 NA
ATOM     46  C   UNL     1       6.648  -4.156   5.476  1.00  0.00     0.031 C 
ATOM     47  C   UNL     1       7.964  -3.817   0.653  1.00  0.00     0.029 A 
ATOM     48  N   UNL     1       9.490  -4.602   2.090  1.00  0.00    -0.354 N 
ATOM     49  C   UNL     1       8.653  -4.880   6.308  1.00  0.00     0.074 A 
ATOM     50  C   UNL     1       7.278  -4.521   6.582  1.00  0.00     0.031 C 
ATOM     51  C   UNL     1       9.050  -4.168  -0.057  1.00  0.00     0.029 A 
ATOM     52  C   UNL     1      10.095  -4.627   0.857  1.00  0.00     0.049 A 
ATOM     53  H   UNL     1       9.926  -4.927   2.911  1.00  0.00     0.167 HD
ATOM     54  C   UNL     1       9.527  -5.321   7.243  1.00  0.00     0.037 A 
ATOM     55  C   UNL     1      11.360  -4.942   0.513  1.00  0.00     0.037 A 
ATOM     56  C   UNL     1      10.888  -5.696   6.968  1.00  0.00     0.049 A 
ATOM     57  C   UNL     1      12.342  -5.345   1.581  1.00  0.00     0.074 A 
ATOM     58  C   UNL     1      11.853  -6.153   7.849  1.00  0.00     0.029 A 
ATOM     59  N   UNL     1      11.478  -5.659   5.714  1.00  0.00    -0.354 N 
ATOM     60  N   UNL     1      12.151  -5.492   2.870  1.00  0.00    -0.248 NA
ATOM     61  C   UNL     1      13.723  -5.610   1.148  1.00  0.00     0.031 C 
ATOM     62  C   UNL     1      13.039  -6.353   7.134  1.00  0.00     0.029 A 
ATOM     63  C   UNL     1      12.799  -6.064   5.800  1.00  0.00     0.049 A 
ATOM     64  H   UNL     1      11.024  -5.385   4.884  1.00  0.00     0.167 HD
ATOM     65  C   UNL     1      13.377  -5.880   3.397  1.00  0.00     0.074 A 
ATOM     66  C   UNL     1      14.303  -5.963   2.287  1.00  0.00     0.031 C 
ATOM     67  C   UNL     1      13.708  -6.142   4.686  1.00  0.00     0.037 A 
BRANCH  54  68
ATOM     68  C   UNL     1       9.045  -5.375   8.662  1.00  0.00     0.057 A 
ATOM     69  C   UNL     1       8.144  -6.350   9.106  1.00  0.00     0.134 A 
ATOM     70  C   UNL     1       9.502  -4.439   9.599  1.00  0.00     0.134 A 
ATOM     71  F   UNL     1       7.653  -7.261   8.253  1.00  0.00    -0.206 F 
ATOM     72  C   UNL     1       7.696  -6.379  10.428  1.00  0.00     0.040 A 
ATOM     73  C   UNL     1       9.081  -4.473  10.928  1.00  0.00     0.040 A 
ATOM     74  F   UNL     1      10.367  -3.480   9.237  1.00  0.00    -0.206 F 
ATOM     75  C   UNL     1       8.170  -5.441  11.345  1.00  0.00     0.006 A 
ENDBRANCH  54  68
BRANCH  55  76
ATOM     76  C   UNL     1      11.793  -4.838  -0.904  1.00  0.00     0.057 A 
ATOM     77  C   UNL     1      12.119  -5.976  -1.650  1.00  0.00     0.134 A 
ATOM     78  C   UNL     1      11.918  -3.595  -1.537  1.00  0.00     0.134 A 
ATOM     79  F   UNL     1      12.049  -7.193  -1.090  1.00  0.00    -0.206 F 
ATOM     80  C   UNL     1      12.562  -5.883  -2.971  1.00  0.00     0.040 A 
ATOM     81  C   UNL     1      12.335  -3.488  -2.865  1.00  0.00     0.040 A 
ATOM     82  F   UNL     1      11.630  -2.466  -0.874  1.00  0.00    -0.206 F 
ATOM     83  C   UNL     1      12.664  -4.635  -3.583  1.00  0.00     0.006 A 
ENDBRANCH  55  76
BRANCH  67  84
ATOM     84  C   UNL     1      15.121  -6.567   4.962  1.00  0.00     0.057 A 
ATOM     85  C   UNL     1      16.186  -5.659   4.925  1.00  0.00     0.134 A 
ATOM     86  C   UNL     1      15.412  -7.892   5.312  1.00  0.00     0.134 A 
ATOM     87  F   UNL     1      15.975  -4.378   4.584  1.00  0.00    -0.206 F 
ATOM     88  C   UNL     1      17.494  -6.057   5.207  1.00  0.00     0.040 A 
ATOM     89  C   UNL     1      16.711  -8.297   5.620  1.00  0.00     0.040 A 
ATOM     90  F   UNL     1      14.436  -8.810   5.376  1.00  0.00    -0.206 F 
ATOM     91  C   UNL     1      17.758  -7.379   5.562  1.00  0.00     0.006 A 
ENDBRANCH  67  84
ENDBRANCH  41  42
ENDBRANCH  34  36
ENDBRANCH  33  34
ENDBRANCH  32  33
ENDBRANCH  31  32
ENDBRANCH  30  31
ENDBRANCH  29  30
ENDBRANCH  28  29
ENDBRANCH   1  28
TORSDOF 23
