REMARK SMILES C[C@H]1SC[C@H](C(=O)OCCOCCOCCOC(=O)c2ccc(-c3c4nc(c(-c5c(F)cccc5F)c5ccc([nH]5)c(-c5c(F)cccc5F)c5nc(c(-c6c(F)cccc6F)c6ccc3[nH]6)C=C5)C=C4)cc2)N1C(=O)[C@@H]1CSc2ccccc21
REMARK SMILES IDX 12 1 11 2 10 3 9 4 8 5 6 6 7 7 5 8 1 9 2 10 3 11 74 12 4 13
REMARK SMILES IDX 75 14 76 15 77 16 78 17 85 18 79 19 80 20 84 21 81 22 83 23
REMARK SMILES IDX 82 24 13 25 14 26 15 27 16 28 17 29 18 30 19 31 20 32 21 33
REMARK SMILES IDX 73 34 22 35 72 36 23 37 24 38 25 39 66 40 26 41 71 42 65 43
REMARK SMILES IDX 67 44 27 45 70 46 64 47 63 48 28 50 54 51 37 52 53 53 38 54
REMARK SMILES IDX 41 55 52 56 68 57 39 58 40 59 51 61 69 62 42 63 29 64 30 65
REMARK SMILES IDX 35 66 31 67 32 68 34 69 36 70 33 71 55 72 56 73 61 74 57 75
REMARK SMILES IDX 58 76 60 77 62 78 59 79 43 80 44 81 49 82 45 83 46 84 48 85
REMARK SMILES IDX 50 86 47 87
REMARK H PARENT 67 49 41 60
REMARK Flexibility Score: inf
ROOT
ATOM      1  C   UNL     1       1.478  -6.744   2.693  1.00  0.00     0.188 C 
ENDROOT
BRANCH   1   2
ATOM      2  O   UNL     1       2.025  -7.734   1.836  1.00  0.00    -0.376 OA
BRANCH   2   3
ATOM      3  C   UNL     1       2.959  -7.363   0.830  1.00  0.00     0.202 C 
BRANCH   3   4
ATOM      4  C   UNL     1       2.652  -6.195  -0.123  1.00  0.00     0.261 C 
BRANCH   4   5
ATOM      5  O   UNL     1       2.350  -4.925   0.498  1.00  0.00    -0.462 OA
BRANCH   5   6
ATOM      6  C   UNL     1       1.089  -4.463   0.319  1.00  0.00     0.329 C 
ATOM      7  O   UNL     1       0.231  -5.084  -0.304  1.00  0.00    -0.250 OA
BRANCH   6   8
ATOM      8  C   UNL     1       0.795  -3.072   0.921  1.00  0.00     0.206 C 
ATOM      9  C   UNL     1      -0.998  -0.574   1.152  1.00  0.00     0.043 C 
ATOM     10  C   UNL     1       0.409  -0.729   0.562  1.00  0.00     0.141 C 
ATOM     11  S   UNL     1       1.622  -0.693   1.905  1.00  0.00    -0.135 SA
ATOM     12  N   UNL     1       0.634  -2.013  -0.079  1.00  0.00    -0.316 N 
ATOM     13  C   UNL     1       1.784  -2.507   1.951  1.00  0.00     0.109 C 
BRANCH  12  14
ATOM     14  C   UNL     1       0.025  -2.249  -1.294  1.00  0.00     0.232 C 
ATOM     15  O   UNL     1      -1.123  -2.679  -1.377  1.00  0.00    -0.274 OA
BRANCH  14  16
ATOM     16  C   UNL     1       0.917  -2.059  -2.532  1.00  0.00     0.120 C 
ATOM     17  C   UNL     1       1.751  -3.318  -2.828  1.00  0.00     0.093 C 
ATOM     18  C   UNL     1       1.902  -0.917  -2.425  1.00  0.00    -0.021 A 
ATOM     19  S   UNL     1       3.432  -3.051  -2.171  1.00  0.00    -0.125 SA
ATOM     20  C   UNL     1       3.221  -1.300  -2.165  1.00  0.00     0.011 A 
ATOM     21  C   UNL     1       1.566   0.433  -2.484  1.00  0.00     0.006 A 
ATOM     22  C   UNL     1       4.209  -0.358  -1.923  1.00  0.00     0.015 A 
ATOM     23  C   UNL     1       2.552   1.387  -2.229  1.00  0.00     0.000 A 
ATOM     24  C   UNL     1       3.866   0.994  -1.946  1.00  0.00     0.001 A 
ENDBRANCH  14  16
ENDBRANCH  12  14
ENDBRANCH   6   8
ENDBRANCH   5   6
ENDBRANCH   4   5
ENDBRANCH   3   4
ENDBRANCH   2   3
ENDBRANCH   1   2
BRANCH   1  25
ATOM     25  C   UNL     1       2.385  -5.632   3.236  1.00  0.00     0.188 C 
BRANCH  25  26
ATOM     26  O   UNL     1       3.728  -5.682   2.839  1.00  0.00    -0.376 OA
BRANCH  26  27
ATOM     27  C   UNL     1       4.706  -6.159   3.743  1.00  0.00     0.202 C 
BRANCH  27  28
ATOM     28  C   UNL     1       4.414  -7.231   4.812  1.00  0.00     0.261 C 
BRANCH  28  29
ATOM     29  O   UNL     1       3.069  -7.356   5.296  1.00  0.00    -0.460 OA
BRANCH  29  30
ATOM     30  C   UNL     1       2.681  -6.516   6.284  1.00  0.00     0.338 C 
ATOM     31  O   UNL     1       3.353  -5.645   6.815  1.00  0.00    -0.246 OA
BRANCH  30  32
ATOM     32  C   UNL     1       1.216  -6.659   6.447  1.00  0.00     0.060 A 
ATOM     33  C   UNL     1       0.387  -5.558   6.180  1.00  0.00     0.016 A 
ATOM     34  C   UNL     1       0.660  -7.876   6.843  1.00  0.00     0.016 A 
ATOM     35  C   UNL     1      -0.997  -5.665   6.329  1.00  0.00     0.010 A 
ATOM     36  C   UNL     1      -0.723  -7.974   7.021  1.00  0.00     0.010 A 
ATOM     37  C   UNL     1      -1.556  -6.861   6.795  1.00  0.00    -0.014 A 
BRANCH  37  38
ATOM     38  C   UNL     1      -2.969  -6.898   7.245  1.00  0.00     0.031 A 
ATOM     39  C   UNL     1      -3.249  -6.758   8.716  1.00  0.00     0.074 A 
ATOM     40  C   UNL     1      -3.986  -7.054   6.380  1.00  0.00     0.049 A 
ATOM     41  N   UNL     1      -4.382  -6.856   9.364  1.00  0.00    -0.248 NA
ATOM     42  C   UNL     1      -2.087  -6.475   9.573  1.00  0.00     0.031 C 
ATOM     43  C   UNL     1      -3.858  -7.151   4.928  1.00  0.00     0.029 A 
ATOM     44  N   UNL     1      -5.335  -7.176   6.610  1.00  0.00    -0.354 N 
ATOM     45  C   UNL     1      -4.066  -6.662  10.703  1.00  0.00     0.074 A 
ATOM     46  C   UNL     1      -2.635  -6.470  10.778  1.00  0.00     0.031 C 
ATOM     47  C   UNL     1      -5.079  -7.339   4.397  1.00  0.00     0.029 A 
ATOM     48  C   UNL     1      -6.067  -7.414   5.473  1.00  0.00     0.049 A 
ATOM     49  H   UNL     1      -5.739  -7.100   7.505  1.00  0.00     0.167 HD
ATOM     50  C   UNL     1      -4.895  -6.643  11.774  1.00  0.00     0.037 A 
ATOM     51  C   UNL     1      -7.378  -7.691   5.323  1.00  0.00     0.037 A 
ATOM     52  C   UNL     1      -6.318  -6.841  11.698  1.00  0.00     0.049 A 
ATOM     53  C   UNL     1      -8.269  -7.749   6.538  1.00  0.00     0.074 A 
ATOM     54  C   UNL     1      -7.246  -6.822  12.725  1.00  0.00     0.029 A 
ATOM     55  N   UNL     1      -7.018  -7.108  10.531  1.00  0.00    -0.354 N 
ATOM     56  N   UNL     1      -7.969  -7.545   7.799  1.00  0.00    -0.248 NA
ATOM     57  C   UNL     1      -9.685  -8.076   6.308  1.00  0.00     0.031 C 
ATOM     58  C   UNL     1      -8.498  -7.138  12.188  1.00  0.00     0.029 A 
ATOM     59  C   UNL     1      -8.362  -7.286  10.817  1.00  0.00     0.049 A 
ATOM     60  H   UNL     1      -6.619  -7.162   9.633  1.00  0.00     0.167 HD
ATOM     61  C   UNL     1      -9.160  -7.685   8.504  1.00  0.00     0.074 A 
ATOM     62  C   UNL     1     -10.189  -7.981   7.530  1.00  0.00     0.031 C 
ATOM     63  C   UNL     1      -9.381  -7.574   9.838  1.00  0.00     0.037 A 
BRANCH  50  64
ATOM     64  C   UNL     1      -4.270  -6.438  13.124  1.00  0.00     0.057 A 
ATOM     65  C   UNL     1      -3.708  -5.212  13.507  1.00  0.00     0.134 A 
ATOM     66  C   UNL     1      -4.245  -7.479  14.060  1.00  0.00     0.134 A 
ATOM     67  F   UNL     1      -3.684  -4.178  12.652  1.00  0.00    -0.206 F 
ATOM     68  C   UNL     1      -3.118  -5.040  14.760  1.00  0.00     0.040 A 
ATOM     69  C   UNL     1      -3.686  -7.309  15.328  1.00  0.00     0.040 A 
ATOM     70  F   UNL     1      -4.769  -8.678  13.761  1.00  0.00    -0.206 F 
ATOM     71  C   UNL     1      -3.112  -6.089  15.677  1.00  0.00     0.006 A 
ENDBRANCH  50  64
BRANCH  51  72
ATOM     72  C   UNL     1      -7.933  -7.957   3.971  1.00  0.00     0.057 A 
ATOM     73  C   UNL     1      -8.839  -7.074   3.371  1.00  0.00     0.134 A 
ATOM     74  C   UNL     1      -7.593  -9.112   3.256  1.00  0.00     0.134 A 
ATOM     75  F   UNL     1      -9.228  -5.965   4.017  1.00  0.00    -0.206 F 
ATOM     76  C   UNL     1      -9.399  -7.337   2.119  1.00  0.00     0.040 A 
ATOM     77  C   UNL     1      -8.122  -9.374   1.991  1.00  0.00     0.040 A 
ATOM     78  F   UNL     1      -6.734 -10.002   3.776  1.00  0.00    -0.206 F 
ATOM     79  C   UNL     1      -9.034  -8.487   1.422  1.00  0.00     0.006 A 
ENDBRANCH  51  72
BRANCH  63  80
ATOM     80  C   UNL     1     -10.796  -7.724  10.324  1.00  0.00     0.057 A 
ATOM     81  C   UNL     1     -11.459  -8.958  10.322  1.00  0.00     0.134 A 
ATOM     82  C   UNL     1     -11.489  -6.622  10.845  1.00  0.00     0.134 A 
ATOM     83  F   UNL     1     -10.858 -10.052   9.828  1.00  0.00    -0.206 F 
ATOM     84  C   UNL     1     -12.766  -9.086  10.795  1.00  0.00     0.040 A 
ATOM     85  C   UNL     1     -12.784  -6.744  11.350  1.00  0.00     0.040 A 
ATOM     86  F   UNL     1     -10.910  -5.413  10.890  1.00  0.00    -0.206 F 
ATOM     87  C   UNL     1     -13.430  -7.977  11.319  1.00  0.00     0.006 A 
ENDBRANCH  63  80
ENDBRANCH  37  38
ENDBRANCH  30  32
ENDBRANCH  29  30
ENDBRANCH  28  29
ENDBRANCH  27  28
ENDBRANCH  26  27
ENDBRANCH  25  26
ENDBRANCH   1  25
TORSDOF 19
