REMARK SMILES CC(C)C[C@H](NC(=O)c1cc(Cl)nnc1Cl)C(=O)OCCOCCOCCOC(=O)c1ccc(-c2c3nc(c(-c4c(F)cccc4F)c4ccc([nH]4)c(-c4c(F)cccc4F)c4nc(c(-c5c(F)cccc5F)c5ccc2[nH]5)C=C4)C=C3)cc1
REMARK SMILES IDX 23 1 22 2 21 3 20 4 19 5 17 6 18 7 5 8 4 9 2 10 1 11 3 12
REMARK SMILES IDX 6 13 7 14 8 16 9 17 10 18 15 19 11 20 14 21 16 22 12 23
REMARK SMILES IDX 13 24 24 25 25 26 26 27 27 28 28 29 29 30 30 31 31 32 32 33
REMARK SMILES IDX 84 34 33 35 83 36 34 37 35 38 36 39 77 40 37 41 82 42 76 43
REMARK SMILES IDX 78 44 38 45 81 46 75 47 74 48 39 50 65 51 48 52 64 53 49 54
REMARK SMILES IDX 52 55 63 56 79 57 50 58 51 59 62 61 80 62 53 63 40 64 41 65
REMARK SMILES IDX 46 66 42 67 43 68 45 69 47 70 44 71 66 72 67 73 72 74 68 75
REMARK SMILES IDX 69 76 71 77 73 78 70 79 54 80 55 81 60 82 56 83 57 84 59 85
REMARK SMILES IDX 61 86 58 87
REMARK H PARENT 6 15 78 49 52 60
REMARK Flexibility Score: inf
ROOT
ATOM      1  C   UNL     1      -4.556   0.380  -0.199  1.00  0.00     0.188 C 
ENDROOT
BRANCH   1   2
ATOM      2  O   UNL     1      -5.802  -0.282  -0.380  1.00  0.00    -0.376 OA
BRANCH   2   3
ATOM      3  C   UNL     1      -6.176  -1.345   0.482  1.00  0.00     0.202 C 
BRANCH   3   4
ATOM      4  C   UNL     1      -5.288  -2.598   0.500  1.00  0.00     0.261 C 
BRANCH   4   5
ATOM      5  O   UNL     1      -3.879  -2.377   0.732  1.00  0.00    -0.462 OA
BRANCH   5   6
ATOM      6  C   UNL     1      -3.076  -2.538  -0.353  1.00  0.00     0.328 C 
ATOM      7  O   UNL     1      -3.483  -2.857  -1.467  1.00  0.00    -0.250 OA
BRANCH   6   8
ATOM      8  C   UNL     1      -1.564  -2.347  -0.077  1.00  0.00     0.192 C 
BRANCH   8   9
ATOM      9  C   UNL     1      -0.791  -3.604  -0.495  1.00  0.00     0.040 C 
BRANCH   9  10
ATOM     10  C   UNL     1      -1.136  -4.934   0.206  1.00  0.00    -0.015 C 
ATOM     11  C   UNL     1      -2.494  -5.536  -0.157  1.00  0.00     0.007 C 
ATOM     12  C   UNL     1      -0.039  -5.953  -0.106  1.00  0.00     0.007 C 
ENDBRANCH   9  10
ENDBRANCH   8   9
BRANCH   8  13
ATOM     13  N   UNL     1      -1.069  -1.603   1.112  1.00  0.00    -0.338 N 
ATOM     14  C   UNL     1      -0.498  -1.820   2.327  1.00  0.00     0.255 C 
ATOM     15  H   UNL     1      -1.197  -0.636   0.975  1.00  0.00     0.164 HD
ATOM     16  O   UNL     1      -0.354  -0.876   3.101  1.00  0.00    -0.269 OA
BRANCH  14  17
ATOM     17  C   UNL     1       0.001  -3.107   2.765  1.00  0.00     0.082 A 
ATOM     18  C   UNL     1      -0.771  -3.868   3.641  1.00  0.00     0.060 A 
ATOM     19  C   UNL     1       1.280  -3.523   2.442  1.00  0.00     0.164 A 
ATOM     20  C   UNL     1      -0.244  -5.072   4.052  1.00  0.00     0.152 A 
ATOM     21  N   UNL     1       1.757  -4.710   2.867  1.00  0.00    -0.136 NA
ATOM     22  Cl  UNL     1       2.387  -2.619   1.494  1.00  0.00    -0.059 Cl
ATOM     23  Cl  UNL     1      -1.126  -6.144   5.050  1.00  0.00    -0.060 Cl
ATOM     24  N   UNL     1       0.974  -5.506   3.667  1.00  0.00    -0.137 NA
ENDBRANCH  14  17
ENDBRANCH   8  13
ENDBRANCH   6   8
ENDBRANCH   5   6
ENDBRANCH   4   5
ENDBRANCH   3   4
ENDBRANCH   2   3
ENDBRANCH   1   2
BRANCH   1  25
ATOM     25  C   UNL     1      -3.904   0.448   1.195  1.00  0.00     0.188 C 
BRANCH  25  26
ATOM     26  O   UNL     1      -4.784   0.175   2.263  1.00  0.00    -0.376 OA
BRANCH  26  27
ATOM     27  C   UNL     1      -4.997   1.221   3.191  1.00  0.00     0.202 C 
BRANCH  27  28
ATOM     28  C   UNL     1      -5.700   2.468   2.638  1.00  0.00     0.261 C 
BRANCH  28  29
ATOM     29  O   UNL     1      -5.166   3.001   1.412  1.00  0.00    -0.460 OA
BRANCH  29  30
ATOM     30  C   UNL     1      -3.999   3.683   1.486  1.00  0.00     0.338 C 
ATOM     31  O   UNL     1      -3.344   3.912   2.482  1.00  0.00    -0.246 OA
BRANCH  30  32
ATOM     32  C   UNL     1      -3.537   3.928   0.099  1.00  0.00     0.060 A 
ATOM     33  C   UNL     1      -2.355   3.317  -0.348  1.00  0.00     0.016 A 
ATOM     34  C   UNL     1      -4.260   4.768  -0.748  1.00  0.00     0.016 A 
ATOM     35  C   UNL     1      -1.879   3.565  -1.638  1.00  0.00     0.010 A 
ATOM     36  C   UNL     1      -3.760   5.053  -2.022  1.00  0.00     0.010 A 
ATOM     37  C   UNL     1      -2.549   4.483  -2.457  1.00  0.00    -0.014 A 
BRANCH  37  38
ATOM     38  C   UNL     1      -1.844   5.085  -3.615  1.00  0.00     0.031 A 
ATOM     39  C   UNL     1      -0.998   6.301  -3.353  1.00  0.00     0.074 A 
ATOM     40  C   UNL     1      -1.960   4.602  -4.864  1.00  0.00     0.049 A 
ATOM     41  N   UNL     1      -0.375   7.084  -4.194  1.00  0.00    -0.248 NA
ATOM     42  C   UNL     1      -0.843   6.686  -1.941  1.00  0.00     0.031 C 
ATOM     43  C   UNL     1      -2.698   3.402  -5.245  1.00  0.00     0.029 A 
ATOM     44  N   UNL     1      -1.469   5.092  -6.049  1.00  0.00    -0.354 N 
ATOM     45  C   UNL     1       0.240   8.055  -3.414  1.00  0.00     0.074 A 
ATOM     46  C   UNL     1      -0.102   7.777  -2.037  1.00  0.00     0.031 C 
ATOM     47  C   UNL     1      -2.642   3.267  -6.583  1.00  0.00     0.029 A 
ATOM     48  C   UNL     1      -1.898   4.393  -7.150  1.00  0.00     0.049 A 
ATOM     49  H   UNL     1      -0.867   5.869  -6.104  1.00  0.00     0.167 HD
ATOM     50  C   UNL     1       1.015   9.093  -3.805  1.00  0.00     0.037 A 
ATOM     51  C   UNL     1      -1.742   4.659  -8.463  1.00  0.00     0.037 A 
ATOM     52  C   UNL     1       1.319   9.397  -5.176  1.00  0.00     0.049 A 
ATOM     53  C   UNL     1      -0.971   5.884  -8.888  1.00  0.00     0.074 A 
ATOM     54  C   UNL     1       2.093  10.425  -5.682  1.00  0.00     0.029 A 
ATOM     55  N   UNL     1       0.836   8.684  -6.264  1.00  0.00    -0.354 N 
ATOM     56  N   UNL     1      -0.372   6.786  -8.147  1.00  0.00    -0.248 NA
ATOM     57  C   UNL     1      -0.860   6.132 -10.334  1.00  0.00     0.031 C 
ATOM     58  C   UNL     1       2.028  10.371  -7.078  1.00  0.00     0.029 A 
ATOM     59  C   UNL     1       1.266   9.271  -7.441  1.00  0.00     0.049 A 
ATOM     60  H   UNL     1       0.272   7.879  -6.207  1.00  0.00     0.167 HD
ATOM     61  C   UNL     1       0.211   7.687  -9.032  1.00  0.00     0.074 A 
ATOM     62  C   UNL     1      -0.105   7.223 -10.367  1.00  0.00     0.031 C 
ATOM     63  C   UNL     1       0.948   8.793  -8.764  1.00  0.00     0.037 A 
BRANCH  50  64
ATOM     64  C   UNL     1       1.523  10.002  -2.724  1.00  0.00     0.057 A 
ATOM     65  C   UNL     1       1.010  11.297  -2.588  1.00  0.00     0.134 A 
ATOM     66  C   UNL     1       2.483   9.585  -1.792  1.00  0.00     0.134 A 
ATOM     67  F   UNL     1       0.088  11.759  -3.447  1.00  0.00    -0.206 F 
ATOM     68  C   UNL     1       1.422  12.141  -1.556  1.00  0.00     0.040 A 
ATOM     69  C   UNL     1       2.880  10.408  -0.737  1.00  0.00     0.040 A 
ATOM     70  F   UNL     1       2.998   8.347  -1.852  1.00  0.00    -0.206 F 
ATOM     71  C   UNL     1       2.350  11.692  -0.619  1.00  0.00     0.006 A 
ENDBRANCH  50  64
BRANCH  51  72
ATOM     72  C   UNL     1      -2.363   3.769  -9.477  1.00  0.00     0.057 A 
ATOM     73  C   UNL     1      -3.753   3.719  -9.646  1.00  0.00     0.134 A 
ATOM     74  C   UNL     1      -1.584   2.961 -10.311  1.00  0.00     0.134 A 
ATOM     75  F   UNL     1      -4.556   4.474  -8.881  1.00  0.00    -0.206 F 
ATOM     76  C   UNL     1      -4.345   2.885 -10.595  1.00  0.00     0.040 A 
ATOM     77  C   UNL     1      -2.162   2.140 -11.282  1.00  0.00     0.040 A 
ATOM     78  F   UNL     1      -0.246   2.986 -10.218  1.00  0.00    -0.206 F 
ATOM     79  C   UNL     1      -3.548   2.096 -11.421  1.00  0.00     0.006 A 
ENDBRANCH  51  72
BRANCH  63  80
ATOM     80  C   UNL     1       1.507   9.561  -9.927  1.00  0.00     0.057 A 
ATOM     81  C   UNL     1       2.885   9.554 -10.182  1.00  0.00     0.134 A 
ATOM     82  C   UNL     1       0.703  10.363 -10.746  1.00  0.00     0.134 A 
ATOM     83  F   UNL     1       3.713   8.815  -9.429  1.00  0.00    -0.206 F 
ATOM     84  C   UNL     1       3.445  10.328 -11.199  1.00  0.00     0.040 A 
ATOM     85  C   UNL     1       1.248  11.122 -11.784  1.00  0.00     0.040 A 
ATOM     86  F   UNL     1      -0.625  10.406 -10.563  1.00  0.00    -0.206 F 
ATOM     87  C   UNL     1       2.624  11.113 -12.006  1.00  0.00     0.006 A 
ENDBRANCH  63  80
ENDBRANCH  37  38
ENDBRANCH  30  32
ENDBRANCH  29  30
ENDBRANCH  28  29
ENDBRANCH  27  28
ENDBRANCH  26  27
ENDBRANCH  25  26
ENDBRANCH   1  25
TORSDOF 21
