REMARK SMILES Cn1ccc(C(=O)NCc2ccc(C(=O)OCCOCCOCCOC(=O)c3ccc(-c4c5nc(c(-c6c(F)cccc6F)c6ccc([nH]6)c(-c6c(F)cccc6F)c6nc(c(-c7c(F)cccc7F)c7ccc4[nH]7)C=C6)C=C5)cc3)cc2)cc1=O
REMARK SMILES IDX 20 1 19 2 18 3 17 4 16 5 14 6 15 7 13 8 10 9 11 10 83 11
REMARK SMILES IDX 12 12 82 13 9 14 8 15 6 16 7 17 5 19 1 20 2 21 3 22 85 23
REMARK SMILES IDX 4 24 84 25 86 26 21 27 22 28 23 29 24 30 25 31 26 32 27 33
REMARK SMILES IDX 28 34 29 35 81 36 30 37 80 38 31 39 32 40 33 41 74 42 34 43
REMARK SMILES IDX 79 44 73 45 75 46 35 47 78 48 72 49 71 50 36 52 62 53 45 54
REMARK SMILES IDX 61 55 46 56 49 57 60 58 76 59 47 60 48 61 59 63 77 64 50 65
REMARK SMILES IDX 37 66 38 67 43 68 39 69 40 70 42 71 44 72 41 73 63 74 64 75
REMARK SMILES IDX 69 76 65 77 66 78 68 79 70 80 67 81 51 82 52 83 57 84 53 85
REMARK SMILES IDX 54 86 56 87 58 88 55 89
REMARK H PARENT 8 18 75 51 49 62
REMARK Flexibility Score: inf
ROOT
ATOM      1  C   UNL     1       1.652   9.300   4.184  1.00  0.00     0.188 C 
ENDROOT
BRANCH   1   2
ATOM      2  O   UNL     1       1.573   9.803   5.506  1.00  0.00    -0.376 OA
BRANCH   2   3
ATOM      3  C   UNL     1       2.159   9.084   6.580  1.00  0.00     0.202 C 
BRANCH   3   4
ATOM      4  C   UNL     1       1.968   7.569   6.738  1.00  0.00     0.261 C 
BRANCH   4   5
ATOM      5  O   UNL     1       2.179   6.801   5.546  1.00  0.00    -0.460 OA
BRANCH   5   6
ATOM      6  C   UNL     1       1.080   6.162   5.064  1.00  0.00     0.338 C 
ATOM      7  O   UNL     1      -0.033   6.151   5.553  1.00  0.00    -0.246 OA
BRANCH   6   8
ATOM      8  C   UNL     1       1.370   5.617   3.716  1.00  0.00     0.060 A 
ATOM      9  C   UNL     1       1.823   4.630   1.119  1.00  0.00    -0.029 A 
ATOM     10  C   UNL     1       0.625   5.288   1.431  1.00  0.00     0.006 A 
ATOM     11  C   UNL     1       2.809   4.520   2.119  1.00  0.00     0.006 A 
ATOM     12  C   UNL     1       0.394   5.765   2.724  1.00  0.00     0.016 A 
ATOM     13  C   UNL     1       2.586   5.006   3.411  1.00  0.00     0.016 A 
BRANCH   9  14
ATOM     14  C   UNL     1       2.041   4.103  -0.284  1.00  0.00     0.152 C 
BRANCH  14  15
ATOM     15  N   UNL     1       3.004   3.023  -0.321  1.00  0.00    -0.348 N 
ATOM     16  C   UNL     1       2.940   1.684  -0.133  1.00  0.00     0.251 C 
ATOM     17  O   UNL     1       4.026   1.094  -0.117  1.00  0.00    -0.269 OA
ATOM     18  H   UNL     1       3.915   3.333  -0.530  1.00  0.00     0.164 HD
BRANCH  16  19
ATOM     19  C   UNL     1       1.670   0.885  -0.017  1.00  0.00     0.046 A 
ATOM     20  C   UNL     1      -1.670  -1.761   0.023  1.00  0.00     0.153 C 
ATOM     21  N   UNL     1      -0.538  -0.848   0.048  1.00  0.00    -0.319 N 
ATOM     22  C   UNL     1       0.724  -1.358  -0.177  1.00  0.00     0.089 A 
ATOM     23  C   UNL     1      -0.748   0.501   0.308  1.00  0.00     0.251 A 
ATOM     24  C   UNL     1       1.792  -0.556  -0.215  1.00  0.00     0.032 A 
ATOM     25  C   UNL     1       0.461   1.373   0.299  1.00  0.00     0.085 A 
ATOM     26  O   UNL     1      -1.843   1.014   0.526  1.00  0.00    -0.269 OA
ENDBRANCH  16  19
ENDBRANCH  14  15
ENDBRANCH   9  14
ENDBRANCH   6   8
ENDBRANCH   5   6
ENDBRANCH   4   5
ENDBRANCH   3   4
ENDBRANCH   2   3
ENDBRANCH   1   2
BRANCH   1  27
ATOM     27  C   UNL     1       3.011   8.906   3.570  1.00  0.00     0.188 C 
BRANCH  27  28
ATOM     28  O   UNL     1       4.151   8.960   4.391  1.00  0.00    -0.376 OA
BRANCH  28  29
ATOM     29  C   UNL     1       4.809  10.187   4.654  1.00  0.00     0.202 C 
BRANCH  29  30
ATOM     30  C   UNL     1       4.468  11.560   4.043  1.00  0.00     0.261 C 
BRANCH  30  31
ATOM     31  O   UNL     1       3.230  11.707   3.348  1.00  0.00    -0.460 OA
BRANCH  31  32
ATOM     32  C   UNL     1       3.322  11.779   2.001  1.00  0.00     0.338 C 
ATOM     33  O   UNL     1       4.332  11.678   1.314  1.00  0.00    -0.246 OA
BRANCH  32  34
ATOM     34  C   UNL     1       1.966  11.836   1.434  1.00  0.00     0.060 A 
ATOM     35  C   UNL     1       1.499  10.743   0.692  1.00  0.00     0.016 A 
ATOM     36  C   UNL     1       1.177  12.974   1.602  1.00  0.00     0.016 A 
ATOM     37  C   UNL     1       0.238  10.793   0.100  1.00  0.00     0.010 A 
ATOM     38  C   UNL     1      -0.079  13.029   0.990  1.00  0.00     0.010 A 
ATOM     39  C   UNL     1      -0.543  11.950   0.217  1.00  0.00    -0.014 A 
BRANCH  39  40
ATOM     40  C   UNL     1      -1.778  12.096  -0.591  1.00  0.00     0.031 A 
ATOM     41  C   UNL     1      -1.712  12.881  -1.872  1.00  0.00     0.074 A 
ATOM     42  C   UNL     1      -2.938  11.545  -0.194  1.00  0.00     0.049 A 
ATOM     43  N   UNL     1      -2.675  13.207  -2.696  1.00  0.00    -0.248 NA
ATOM     44  C   UNL     1      -0.382  13.366  -2.276  1.00  0.00     0.031 C 
ATOM     45  C   UNL     1      -3.123  10.736   1.009  1.00  0.00     0.029 A 
ATOM     46  N   UNL     1      -4.189  11.603  -0.757  1.00  0.00    -0.354 N 
ATOM     47  C   UNL     1      -2.072  13.947  -3.705  1.00  0.00     0.074 A 
ATOM     48  C   UNL     1      -0.664  14.037  -3.384  1.00  0.00     0.031 C 
ATOM     49  C   UNL     1      -4.421  10.395   1.108  1.00  0.00     0.029 A 
ATOM     50  C   UNL     1      -5.160  10.990  -0.004  1.00  0.00     0.049 A 
ATOM     51  H   UNL     1      -4.372  12.043  -1.619  1.00  0.00     0.167 HD
ATOM     52  C   UNL     1      -2.642  14.500  -4.801  1.00  0.00     0.037 A 
ATOM     53  C   UNL     1      -6.496  10.945  -0.176  1.00  0.00     0.037 A 
ATOM     54  C   UNL     1      -4.041  14.405  -5.123  1.00  0.00     0.049 A 
ATOM     55  C   UNL     1      -7.112  11.622  -1.375  1.00  0.00     0.074 A 
ATOM     56  C   UNL     1      -4.703  14.900  -6.233  1.00  0.00     0.029 A 
ATOM     57  N   UNL     1      -4.993  13.783  -4.332  1.00  0.00    -0.354 N 
ATOM     58  N   UNL     1      -6.528  12.282  -2.346  1.00  0.00    -0.248 NA
ATOM     59  C   UNL     1      -8.576  11.547  -1.501  1.00  0.00     0.031 C 
ATOM     60  C   UNL     1      -6.066  14.627  -6.085  1.00  0.00     0.029 A 
ATOM     61  C   UNL     1      -6.243  13.909  -4.914  1.00  0.00     0.049 A 
ATOM     62  H   UNL     1      -4.809  13.320  -3.482  1.00  0.00     0.167 HD
ATOM     63  C   UNL     1      -7.546  12.670  -3.211  1.00  0.00     0.074 A 
ATOM     64  C   UNL     1      -8.782  12.161  -2.658  1.00  0.00     0.031 C 
ATOM     65  C   UNL     1      -7.465  13.384  -4.360  1.00  0.00     0.037 A 
BRANCH  52  66
ATOM     66  C   UNL     1      -1.760  15.284  -5.726  1.00  0.00     0.057 A 
ATOM     67  C   UNL     1      -0.834  14.663  -6.573  1.00  0.00     0.134 A 
ATOM     68  C   UNL     1      -1.888  16.676  -5.816  1.00  0.00     0.134 A 
ATOM     69  F   UNL     1      -0.653  13.334  -6.526  1.00  0.00    -0.206 F 
ATOM     70  C   UNL     1      -0.058  15.400  -7.469  1.00  0.00     0.040 A 
ATOM     71  C   UNL     1      -1.136  17.421  -6.725  1.00  0.00     0.040 A 
ATOM     72  F   UNL     1      -2.759  17.332  -5.035  1.00  0.00    -0.206 F 
ATOM     73  C   UNL     1      -0.216  16.782  -7.554  1.00  0.00     0.006 A 
ENDBRANCH  52  66
BRANCH  53  74
ATOM     74  C   UNL     1      -7.360  10.268   0.825  1.00  0.00     0.057 A 
ATOM     75  C   UNL     1      -8.080   9.111   0.505  1.00  0.00     0.134 A 
ATOM     76  C   UNL     1      -7.530  10.795   2.111  1.00  0.00     0.134 A 
ATOM     77  F   UNL     1      -7.981   8.573  -0.720  1.00  0.00    -0.206 F 
ATOM     78  C   UNL     1      -8.958   8.519   1.415  1.00  0.00     0.040 A 
ATOM     79  C   UNL     1      -8.382  10.197   3.042  1.00  0.00     0.040 A 
ATOM     80  F   UNL     1      -6.872  11.904   2.482  1.00  0.00    -0.206 F 
ATOM     81  C   UNL     1      -9.108   9.062   2.690  1.00  0.00     0.006 A 
ENDBRANCH  53  74
BRANCH  65  82
ATOM     82  C   UNL     1      -8.736  13.619  -5.124  1.00  0.00     0.057 A 
ATOM     83  C   UNL     1      -9.723  14.503  -4.670  1.00  0.00     0.134 A 
ATOM     84  C   UNL     1      -8.952  12.989  -6.357  1.00  0.00     0.134 A 
ATOM     85  F   UNL     1      -9.584  15.131  -3.492  1.00  0.00    -0.206 F 
ATOM     86  C   UNL     1     -10.889  14.734  -5.403  1.00  0.00     0.040 A 
ATOM     87  C   UNL     1     -10.099  13.235  -7.113  1.00  0.00     0.040 A 
ATOM     88  F   UNL     1      -8.041  12.140  -6.857  1.00  0.00    -0.206 F 
ATOM     89  C   UNL     1     -11.075  14.105  -6.633  1.00  0.00     0.006 A 
ENDBRANCH  65  82
ENDBRANCH  39  40
ENDBRANCH  32  34
ENDBRANCH  31  32
ENDBRANCH  30  31
ENDBRANCH  29  30
ENDBRANCH  28  29
ENDBRANCH  27  28
ENDBRANCH   1  27
TORSDOF 20
