REMARK SMILES C=CC[NH+](CC(=O)OCCOCCOCCOC(=O)c1ccc(-c2c3nc(c(-c4c(F)cccc4F)c4ccc([nH]4)c(-c4c(F)cccc4F)c4nc(c(-c5c(F)cccc5F)c5ccc2[nH]5)C=C4)C=C3)cc1)Cc1cccc2ccccc12
REMARK SMILES IDX 12 1 11 2 10 3 9 4 8 5 6 6 7 7 5 8 4 9 3 11 2 12 1 13 74 14
REMARK SMILES IDX 75 15 76 16 84 17 77 18 79 19 83 20 78 21 80 22 82 23 81 24
REMARK SMILES IDX 13 25 14 26 15 27 16 28 17 29 18 30 19 31 20 32 21 33 73 34
REMARK SMILES IDX 22 35 72 36 23 37 24 38 25 39 66 40 26 41 71 42 65 43 67 44
REMARK SMILES IDX 27 45 70 46 64 47 63 48 28 50 54 51 37 52 53 53 38 54 41 55
REMARK SMILES IDX 52 56 68 57 39 58 40 59 51 61 69 62 42 63 29 64 30 65 35 66
REMARK SMILES IDX 31 67 32 68 34 69 36 70 33 71 55 72 56 73 61 74 57 75 58 76
REMARK SMILES IDX 60 77 62 78 59 79 43 80 44 81 49 82 45 83 46 84 48 85 50 86
REMARK SMILES IDX 47 87
REMARK H PARENT 4 10 67 49 41 60
REMARK Flexibility Score: inf
ROOT
ATOM      1  C   UNL     1      -3.472   2.497  -0.568  1.00  0.00     0.188 C 
ENDROOT
BRANCH   1   2
ATOM      2  O   UNL     1      -4.623   3.085   0.248  1.00  0.00    -0.376 OA
BRANCH   2   3
ATOM      3  C   UNL     1      -5.396   2.143   1.020  1.00  0.00     0.202 C 
BRANCH   3   4
ATOM      4  C   UNL     1      -5.893   0.771   0.461  1.00  0.00     0.261 C 
BRANCH   4   5
ATOM      5  O   UNL     1      -4.912  -0.275   0.189  1.00  0.00    -0.459 OA
BRANCH   5   6
ATOM      6  C   UNL     1      -4.723  -0.635  -1.122  1.00  0.00     0.361 C 
ATOM      7  O   UNL     1      -5.284  -0.094  -2.071  1.00  0.00    -0.245 OA
BRANCH   6   8
ATOM      8  C   UNL     1      -3.709  -1.788  -1.301  1.00  0.00     0.387 C 
BRANCH   8   9
ATOM      9  N   UNL     1      -2.299  -1.388  -1.315  1.00  0.00    -0.319 N 
ATOM     10  H   UNL     1      -1.896  -1.277  -0.385  1.00  0.00     0.349 HD
BRANCH   9  11
ATOM     11  C   UNL     1      -1.298  -2.176  -0.621  1.00  0.00     0.291 C 
BRANCH  11  12
ATOM     12  C   UNL     1       0.142  -1.784  -0.849  1.00  0.00     0.025 C 
ATOM     13  C   UNL     1       0.836  -0.886  -0.132  1.00  0.00     0.010 C 
ENDBRANCH  11  12
ENDBRANCH   9  11
BRANCH   9  14
ATOM     14  C   UNL     1      -1.932  -0.225  -2.067  1.00  0.00     0.300 C 
BRANCH  14  15
ATOM     15  C   UNL     1      -2.134   1.072  -1.329  1.00  0.00     0.014 A 
ATOM     16  C   UNL     1      -2.422   2.461  -2.421  1.00  0.00     0.010 A 
ATOM     17  C   UNL     1      -2.135   1.289   0.508  1.00  0.00    -0.010 A 
ATOM     18  C   UNL     1      -2.742   4.089  -1.730  1.00  0.00     0.001 A 
ATOM     19  C   UNL     1      -2.384   2.933   1.178  1.00  0.00    -0.018 A 
ATOM     20  C   UNL     1      -2.240   0.317   1.516  1.00  0.00     0.009 A 
ATOM     21  C   UNL     1      -2.683   4.320   0.036  1.00  0.00     0.009 A 
ATOM     22  C   UNL     1      -2.376   3.067   2.566  1.00  0.00     0.009 A 
ATOM     23  C   UNL     1      -2.441   0.630   2.875  1.00  0.00     0.001 A 
ATOM     24  C   UNL     1      -2.434   1.939   3.385  1.00  0.00     0.001 A 
ENDBRANCH  14  15
ENDBRANCH   9  14
ENDBRANCH   8   9
ENDBRANCH   6   8
ENDBRANCH   5   6
ENDBRANCH   4   5
ENDBRANCH   3   4
ENDBRANCH   2   3
ENDBRANCH   1   2
BRANCH   1  25
ATOM     25  C   UNL     1      -1.331   2.911  -0.647  1.00  0.00     0.188 C 
BRANCH  25  26
ATOM     26  O   UNL     1      -0.311   3.484   0.358  1.00  0.00    -0.376 OA
BRANCH  26  27
ATOM     27  C   UNL     1       0.088   4.857   0.325  1.00  0.00     0.202 C 
BRANCH  27  28
ATOM     28  C   UNL     1       0.591   5.577  -0.948  1.00  0.00     0.261 C 
BRANCH  28  29
ATOM     29  O   UNL     1      -0.272   5.589  -2.102  1.00  0.00    -0.460 OA
BRANCH  29  30
ATOM     30  C   UNL     1       0.188   4.908  -3.188  1.00  0.00     0.338 C 
ATOM     31  O   UNL     1       1.234   4.283  -3.264  1.00  0.00    -0.246 OA
BRANCH  30  32
ATOM     32  C   UNL     1      -0.820   4.891  -4.283  1.00  0.00     0.060 A 
ATOM     33  C   UNL     1      -0.978   3.700  -5.010  1.00  0.00     0.016 A 
ATOM     34  C   UNL     1      -1.606   6.002  -4.605  1.00  0.00     0.016 A 
ATOM     35  C   UNL     1      -1.929   3.604  -6.032  1.00  0.00     0.010 A 
ATOM     36  C   UNL     1      -2.525   5.923  -5.664  1.00  0.00     0.010 A 
ATOM     37  C   UNL     1      -2.676   4.730  -6.398  1.00  0.00    -0.014 A 
BRANCH  37  38
ATOM     38  C   UNL     1      -3.340   4.754  -7.730  1.00  0.00     0.031 A 
ATOM     39  C   UNL     1      -2.504   5.230  -8.890  1.00  0.00     0.074 A 
ATOM     40  C   UNL     1      -4.605   4.344  -7.937  1.00  0.00     0.049 A 
ATOM     41  N   UNL     1      -2.841   5.458 -10.132  1.00  0.00    -0.248 NA
ATOM     42  C   UNL     1      -1.081   5.480  -8.598  1.00  0.00     0.031 C 
ATOM     43  C   UNL     1      -5.489   3.765  -6.928  1.00  0.00     0.029 A 
ATOM     44  N   UNL     1      -5.370   4.359  -9.082  1.00  0.00    -0.354 N 
ATOM     45  C   UNL     1      -1.679   5.892 -10.760  1.00  0.00     0.074 A 
ATOM     46  C   UNL     1      -0.632   5.908  -9.765  1.00  0.00     0.031 C 
ATOM     47  C   UNL     1      -6.682   3.500  -7.493  1.00  0.00     0.029 A 
ATOM     48  C   UNL     1      -6.664   3.934  -8.890  1.00  0.00     0.049 A 
ATOM     49  H   UNL     1      -5.022   4.646  -9.956  1.00  0.00     0.167 HD
ATOM     50  C   UNL     1      -1.498   6.254 -12.051  1.00  0.00     0.037 A 
ATOM     51  C   UNL     1      -7.716   3.936  -9.738  1.00  0.00     0.037 A 
ATOM     52  C   UNL     1      -2.547   6.253 -13.033  1.00  0.00     0.049 A 
ATOM     53  C   UNL     1      -7.522   4.452 -11.146  1.00  0.00     0.074 A 
ATOM     54  C   UNL     1      -2.482   6.623 -14.363  1.00  0.00     0.029 A 
ATOM     55  N   UNL     1      -3.856   5.871 -12.782  1.00  0.00    -0.354 N 
ATOM     56  N   UNL     1      -6.428   4.884 -11.728  1.00  0.00    -0.248 NA
ATOM     57  C   UNL     1      -8.710   4.493 -12.013  1.00  0.00     0.031 C 
ATOM     58  C   UNL     1      -3.769   6.528 -14.900  1.00  0.00     0.029 A 
ATOM     59  C   UNL     1      -4.618   6.026 -13.926  1.00  0.00     0.049 A 
ATOM     60  H   UNL     1      -4.193   5.538 -11.918  1.00  0.00     0.167 HD
ATOM     61  C   UNL     1      -6.787   5.215 -13.031  1.00  0.00     0.074 A 
ATOM     62  C   UNL     1      -8.199   4.922 -13.159  1.00  0.00     0.031 C 
ATOM     63  C   UNL     1      -6.021   5.715 -14.032  1.00  0.00     0.037 A 
BRANCH  50  64
ATOM     64  C   UNL     1      -0.135   6.745 -12.444  1.00  0.00     0.057 A 
ATOM     65  C   UNL     1       0.979   5.896 -12.505  1.00  0.00     0.134 A 
ATOM     66  C   UNL     1       0.067   8.096 -12.755  1.00  0.00     0.134 A 
ATOM     67  F   UNL     1       0.862   4.596 -12.194  1.00  0.00    -0.206 F 
ATOM     68  C   UNL     1       2.248   6.380 -12.833  1.00  0.00     0.040 A 
ATOM     69  C   UNL     1       1.323   8.584 -13.116  1.00  0.00     0.040 A 
ATOM     70  F   UNL     1      -0.954   8.965 -12.712  1.00  0.00    -0.206 F 
ATOM     71  C   UNL     1       2.420   7.726 -13.147  1.00  0.00     0.006 A 
ENDBRANCH  50  64
BRANCH  51  72
ATOM     72  C   UNL     1      -9.064   3.490  -9.280  1.00  0.00     0.057 A 
ATOM     73  C   UNL     1      -9.700   2.373  -9.839  1.00  0.00     0.134 A 
ATOM     74  C   UNL     1      -9.775   4.204  -8.307  1.00  0.00     0.134 A 
ATOM     75  F   UNL     1      -9.095   1.663 -10.803  1.00  0.00    -0.206 F 
ATOM     76  C   UNL     1     -10.991   1.994  -9.460  1.00  0.00     0.040 A 
ATOM     77  C   UNL     1     -11.053   3.818  -7.895  1.00  0.00     0.040 A 
ATOM     78  F   UNL     1      -9.238   5.293  -7.739  1.00  0.00    -0.206 F 
ATOM     79  C   UNL     1     -11.669   2.714  -8.479  1.00  0.00     0.006 A 
ENDBRANCH  51  72
BRANCH  63  80
ATOM     80  C   UNL     1      -6.674   5.934 -15.368  1.00  0.00     0.057 A 
ATOM     81  C   UNL     1      -7.599   6.962 -15.586  1.00  0.00     0.134 A 
ATOM     82  C   UNL     1      -6.313   5.144 -16.469  1.00  0.00     0.134 A 
ATOM     83  F   UNL     1      -7.993   7.750 -14.574  1.00  0.00    -0.206 F 
ATOM     84  C   UNL     1      -8.159   7.183 -16.846  1.00  0.00     0.040 A 
ATOM     85  C   UNL     1      -6.841   5.377 -17.740  1.00  0.00     0.040 A 
ATOM     86  F   UNL     1      -5.420   4.153 -16.334  1.00  0.00    -0.206 F 
ATOM     87  C   UNL     1      -7.772   6.395 -17.929  1.00  0.00     0.006 A 
ENDBRANCH  63  80
ENDBRANCH  37  38
ENDBRANCH  30  32
ENDBRANCH  29  30
ENDBRANCH  28  29
ENDBRANCH  27  28
ENDBRANCH  26  27
ENDBRANCH  25  26
ENDBRANCH   1  25
TORSDOF 22
