REMARK SMILES O=C(OCCOCCOCCOC(=O)[C@H]1C[C@](O)(c2ccc(F)cc2)[C@@H](c2ccc(F)cc2)O1)c1ccc(-c2c3nc(c(-c4c(F)cccc4F)c4ccc([nH]4)c(-c4c(F)cccc4F)c4nc(c(-c5c(F)cccc5F)c5ccc2[nH]5)C=C4)C=C3)cc1
REMARK SMILES IDX 7 1 6 2 5 3 4 4 3 5 2 6 1 7 35 8 36 9 88 10 37 11 87 12
REMARK SMILES IDX 38 13 39 14 40 15 81 16 41 17 86 18 80 19 82 20 42 21 85 22
REMARK SMILES IDX 79 23 78 24 43 26 69 27 52 28 68 29 53 30 56 31 67 32 83 33
REMARK SMILES IDX 54 34 55 35 66 37 84 38 57 39 44 40 45 41 50 42 46 43 47 44
REMARK SMILES IDX 49 45 51 46 48 47 70 48 71 49 76 50 72 51 73 52 75 53 77 54
REMARK SMILES IDX 74 55 58 56 59 57 64 58 60 59 61 60 63 61 65 62 62 63 8 64
REMARK SMILES IDX 9 65 10 66 11 67 12 68 13 69 14 70 15 71 16 72 34 73 17 74
REMARK SMILES IDX 26 75 19 76 20 77 25 78 21 79 24 80 22 81 23 82 18 83 27 85
REMARK SMILES IDX 28 86 33 87 29 88 32 89 30 90 31 91
REMARK H PARENT 82 25 56 36 18 84
REMARK Flexibility Score: inf
ROOT
ATOM      1  C   UNL     1      -1.910   0.314   3.188  1.00  0.00     0.188 C 
ENDROOT
BRANCH   1   2
ATOM      2  O   UNL     1      -1.523   1.663   2.905  1.00  0.00    -0.376 OA
BRANCH   2   3
ATOM      3  C   UNL     1      -2.425   2.339   2.026  1.00  0.00     0.202 C 
BRANCH   3   4
ATOM      4  C   UNL     1      -2.263   1.999   0.534  1.00  0.00     0.261 C 
BRANCH   4   5
ATOM      5  O   UNL     1      -1.793   0.658   0.304  1.00  0.00    -0.460 OA
BRANCH   5   6
ATOM      6  C   UNL     1      -0.544   0.265  -0.054  1.00  0.00     0.338 C 
ATOM      7  O   UNL     1      -0.370  -0.889  -0.443  1.00  0.00    -0.246 OA
BRANCH   6   8
ATOM      8  C   UNL     1       0.640   1.177  -0.020  1.00  0.00     0.060 A 
ATOM      9  C   UNL     1       0.742   2.295   0.802  1.00  0.00     0.016 A 
ATOM     10  C   UNL     1       1.748   0.854  -0.826  1.00  0.00     0.016 A 
ATOM     11  C   UNL     1       1.831   3.150   0.730  1.00  0.00     0.010 A 
ATOM     12  C   UNL     1       2.889   1.669  -0.847  1.00  0.00     0.010 A 
ATOM     13  C   UNL     1       2.913   2.848  -0.097  1.00  0.00    -0.014 A 
BRANCH  13  14
ATOM     14  C   UNL     1       3.989   3.857  -0.203  1.00  0.00     0.031 A 
ATOM     15  C   UNL     1       4.072   4.699  -1.442  1.00  0.00     0.074 A 
ATOM     16  C   UNL     1       4.733   4.143   0.884  1.00  0.00     0.049 A 
ATOM     17  N   UNL     1       4.863   5.705  -1.705  1.00  0.00    -0.248 NA
ATOM     18  C   UNL     1       3.120   4.385  -2.522  1.00  0.00     0.031 C 
ATOM     19  C   UNL     1       4.640   3.447   2.171  1.00  0.00     0.029 A 
ATOM     20  N   UNL     1       5.658   5.129   1.107  1.00  0.00    -0.354 N 
ATOM     21  C   UNL     1       4.512   6.136  -2.977  1.00  0.00     0.074 A 
ATOM     22  C   UNL     1       3.446   5.279  -3.443  1.00  0.00     0.031 C 
ATOM     23  C   UNL     1       5.419   4.074   3.066  1.00  0.00     0.029 A 
ATOM     24  C   UNL     1       6.119   5.168   2.402  1.00  0.00     0.049 A 
ATOM     25  H   UNL     1       5.963   5.750   0.406  1.00  0.00     0.167 HD
ATOM     26  C   UNL     1       5.033   7.161  -3.688  1.00  0.00     0.037 A 
ATOM     27  C   UNL     1       7.014   5.994   2.978  1.00  0.00     0.037 A 
ATOM     28  C   UNL     1       6.092   8.005  -3.209  1.00  0.00     0.049 A 
ATOM     29  C   UNL     1       7.648   7.061   2.128  1.00  0.00     0.074 A 
ATOM     30  C   UNL     1       6.763   9.013  -3.876  1.00  0.00     0.029 A 
ATOM     31  N   UNL     1       6.625   7.940  -1.931  1.00  0.00    -0.354 N 
ATOM     32  N   UNL     1       7.369   7.404   0.893  1.00  0.00    -0.248 NA
ATOM     33  C   UNL     1       8.738   7.834   2.738  1.00  0.00     0.031 C 
ATOM     34  C   UNL     1       7.726   9.538  -3.009  1.00  0.00     0.029 A 
ATOM     35  C   UNL     1       7.629   8.881  -1.791  1.00  0.00     0.049 A 
ATOM     36  H   UNL     1       6.333   7.316  -1.227  1.00  0.00     0.167 HD
ATOM     37  C   UNL     1       8.249   8.429   0.575  1.00  0.00     0.074 A 
ATOM     38  C   UNL     1       9.048   8.675   1.760  1.00  0.00     0.031 C 
ATOM     39  C   UNL     1       8.400   9.097  -0.594  1.00  0.00     0.037 A 
BRANCH  26  40
ATOM     40  C   UNL     1       4.495   7.384  -5.067  1.00  0.00     0.057 A 
ATOM     41  C   UNL     1       5.230   6.983  -6.189  1.00  0.00     0.134 A 
ATOM     42  C   UNL     1       3.258   8.002  -5.287  1.00  0.00     0.134 A 
ATOM     43  F   UNL     1       6.418   6.378  -6.044  1.00  0.00    -0.206 F 
ATOM     44  C   UNL     1       4.756   7.195  -7.485  1.00  0.00     0.040 A 
ATOM     45  C   UNL     1       2.766   8.205  -6.578  1.00  0.00     0.040 A 
ATOM     46  F   UNL     1       2.496   8.384  -4.252  1.00  0.00    -0.206 F 
ATOM     47  C   UNL     1       3.519   7.806  -7.681  1.00  0.00     0.006 A 
ENDBRANCH  26  40
BRANCH  27  48
ATOM     48  C   UNL     1       7.391   5.823   4.406  1.00  0.00     0.057 A 
ATOM     49  C   UNL     1       8.057   4.673   4.852  1.00  0.00     0.134 A 
ATOM     50  C   UNL     1       7.114   6.811   5.359  1.00  0.00     0.134 A 
ATOM     51  F   UNL     1       8.356   3.687   3.993  1.00  0.00    -0.206 F 
ATOM     52  C   UNL     1       8.417   4.503   6.190  1.00  0.00     0.040 A 
ATOM     53  C   UNL     1       7.493   6.667   6.696  1.00  0.00     0.040 A 
ATOM     54  F   UNL     1       6.500   7.946   4.995  1.00  0.00    -0.206 F 
ATOM     55  C   UNL     1       8.141   5.506   7.116  1.00  0.00     0.006 A 
ENDBRANCH  27  48
BRANCH  39  56
ATOM     56  C   UNL     1       9.466  10.147  -0.647  1.00  0.00     0.057 A 
ATOM     57  C   UNL     1       9.131  11.506  -0.667  1.00  0.00     0.134 A 
ATOM     58  C   UNL     1      10.819   9.804  -0.749  1.00  0.00     0.134 A 
ATOM     59  F   UNL     1       7.850  11.894  -0.583  1.00  0.00    -0.206 F 
ATOM     60  C   UNL     1      10.109  12.491  -0.799  1.00  0.00     0.040 A 
ATOM     61  C   UNL     1      11.808  10.781  -0.860  1.00  0.00     0.040 A 
ATOM     62  F   UNL     1      11.198   8.518  -0.724  1.00  0.00    -0.206 F 
ATOM     63  C   UNL     1      11.452  12.129  -0.894  1.00  0.00     0.006 A 
ENDBRANCH  39  56
ENDBRANCH  13  14
ENDBRANCH   6   8
ENDBRANCH   5   6
ENDBRANCH   4   5
ENDBRANCH   3   4
ENDBRANCH   2   3
ENDBRANCH   1   2
BRANCH   1  64
ATOM     64  C   UNL     1      -1.565  -0.088   4.621  1.00  0.00     0.188 C 
BRANCH  64  65
ATOM     65  O   UNL     1      -2.310   0.584   5.640  1.00  0.00    -0.376 OA
BRANCH  65  66
ATOM     66  C   UNL     1      -2.026   1.972   5.834  1.00  0.00     0.202 C 
BRANCH  66  67
ATOM     67  C   UNL     1      -0.657   2.285   6.454  1.00  0.00     0.261 C 
BRANCH  67  68
ATOM     68  O   UNL     1       0.412   1.913   5.574  1.00  0.00    -0.461 OA
BRANCH  68  69
ATOM     69  C   UNL     1       1.617   1.691   6.182  1.00  0.00     0.335 C 
ATOM     70  O   UNL     1       1.889   2.026   7.320  1.00  0.00    -0.249 OA
BRANCH  69  71
ATOM     71  C   UNL     1       2.561   0.965   5.208  1.00  0.00     0.232 C 
ATOM     72  C   UNL     1       3.885   0.547   5.817  1.00  0.00     0.087 C 
ATOM     73  O   UNL     1       1.985  -0.211   4.644  1.00  0.00    -0.355 OA
ATOM     74  C   UNL     1       3.730  -0.935   6.186  1.00  0.00     0.123 C 
ATOM     75  C   UNL     1       2.511  -1.380   5.314  1.00  0.00     0.186 C 
BRANCH  74  76
ATOM     76  C   UNL     1       5.084  -1.633   5.985  1.00  0.00    -0.013 A 
ATOM     77  C   UNL     1       6.181  -1.205   6.769  1.00  0.00     0.010 A 
ATOM     78  C   UNL     1       5.327  -2.629   5.023  1.00  0.00     0.010 A 
ATOM     79  C   UNL     1       7.466  -1.718   6.574  1.00  0.00     0.039 A 
ATOM     80  C   UNL     1       6.616  -3.142   4.827  1.00  0.00     0.039 A 
ATOM     81  C   UNL     1       7.673  -2.678   5.597  1.00  0.00     0.123 A 
ATOM     82  F   UNL     1       8.905  -3.159   5.390  1.00  0.00    -0.207 F 
ENDBRANCH  74  76
BRANCH  74  83
ATOM     83  O   UNL     1       3.447  -1.000   7.589  1.00  0.00    -0.382 OA
ATOM     84  H   UNL     1       2.597  -0.569   7.767  1.00  0.00     0.212 HD
ENDBRANCH  74  83
BRANCH  75  85
ATOM     85  C   UNL     1       1.334  -2.086   5.980  1.00  0.00    -0.016 A 
ATOM     86  C   UNL     1       0.616  -1.504   7.042  1.00  0.00     0.009 A 
ATOM     87  C   UNL     1       0.863  -3.305   5.458  1.00  0.00     0.009 A 
ATOM     88  C   UNL     1      -0.552  -2.091   7.535  1.00  0.00     0.039 A 
ATOM     89  C   UNL     1      -0.300  -3.899   5.960  1.00  0.00     0.039 A 
ATOM     90  C   UNL     1      -1.004  -3.280   6.984  1.00  0.00     0.123 A 
ATOM     91  F   UNL     1      -2.141  -3.828   7.432  1.00  0.00    -0.207 F 
ENDBRANCH  75  85
ENDBRANCH  69  71
ENDBRANCH  68  69
ENDBRANCH  67  68
ENDBRANCH  66  67
ENDBRANCH  65  66
ENDBRANCH  64  65
ENDBRANCH   1  64
TORSDOF 20
