REMARK SMILES O=C(OCCOCCOCCOC(=O)c1ccccc1/C=C1/SC(=S)N(C2CCCCC2)C1=O)c1ccc(-c2c3nc(c(-c4c(F)cccc4F)c4ccc([nH]4)c(-c4c(F)cccc4F)c4nc(c(-c5c(F)cccc5F)c5ccc2[nH]5)C=C4)C=C3)cc1
REMARK SMILES IDX 7 1 6 2 5 3 4 4 3 5 2 6 1 7 35 8 36 9 88 10 37 11 87 12
REMARK SMILES IDX 38 13 39 14 40 15 81 16 41 17 86 18 80 19 82 20 42 21 85 22
REMARK SMILES IDX 79 23 78 24 43 26 69 27 52 28 68 29 53 30 56 31 67 32 83 33
REMARK SMILES IDX 54 34 55 35 66 37 84 38 57 39 44 40 45 41 50 42 46 43 47 44
REMARK SMILES IDX 49 45 51 46 48 47 70 48 71 49 76 50 72 51 73 52 75 53 77 54
REMARK SMILES IDX 74 55 58 56 59 57 64 58 60 59 61 60 63 61 65 62 62 63 8 64
REMARK SMILES IDX 9 65 10 66 11 67 12 68 13 69 14 70 15 71 16 72 20 73 17 74
REMARK SMILES IDX 19 75 18 76 21 77 22 78 23 79 33 80 24 81 26 82 34 83 25 84
REMARK SMILES IDX 27 85 28 86 32 87 29 88 31 89 30 90
REMARK H PARENT 82 25 56 36
REMARK Flexibility Score: inf
ROOT
ATOM      1  C   UNL     1       2.643   1.830   1.440  1.00  0.00     0.188 C 
ENDROOT
BRANCH   1   2
ATOM      2  O   UNL     1       3.830   1.083   1.134  1.00  0.00    -0.376 OA
BRANCH   2   3
ATOM      3  C   UNL     1       4.704   1.749   0.222  1.00  0.00     0.202 C 
BRANCH   3   4
ATOM      4  C   UNL     1       4.502   1.313  -1.231  1.00  0.00     0.261 C 
BRANCH   4   5
ATOM      5  O   UNL     1       3.116   1.054  -1.515  1.00  0.00    -0.460 OA
BRANCH   5   6
ATOM      6  C   UNL     1       2.466  -0.134  -1.439  1.00  0.00     0.338 C 
ATOM      7  O   UNL     1       1.251  -0.164  -1.629  1.00  0.00    -0.246 OA
BRANCH   6   8
ATOM      8  C   UNL     1       3.169  -1.438  -1.243  1.00  0.00     0.060 A 
ATOM      9  C   UNL     1       4.276  -1.635  -0.415  1.00  0.00     0.016 A 
ATOM     10  C   UNL     1       2.632  -2.554  -1.906  1.00  0.00     0.016 A 
ATOM     11  C   UNL     1       4.923  -2.868  -0.364  1.00  0.00     0.010 A 
ATOM     12  C   UNL     1       3.236  -3.812  -1.804  1.00  0.00     0.010 A 
ATOM     13  C   UNL     1       4.419  -3.962  -1.071  1.00  0.00    -0.014 A 
BRANCH  13  14
ATOM     14  C   UNL     1       5.195  -5.222  -1.108  1.00  0.00     0.031 A 
ATOM     15  C   UNL     1       5.909  -5.602  -2.371  1.00  0.00     0.074 A 
ATOM     16  C   UNL     1       5.338  -5.966   0.003  1.00  0.00     0.049 A 
ATOM     17  N   UNL     1       6.625  -6.665  -2.627  1.00  0.00    -0.248 NA
ATOM     18  C   UNL     1       5.821  -4.649  -3.490  1.00  0.00     0.031 C 
ATOM     19  C   UNL     1       4.767  -5.642   1.309  1.00  0.00     0.029 A 
ATOM     20  N   UNL     1       6.024  -7.134   0.219  1.00  0.00    -0.354 N 
ATOM     21  C   UNL     1       7.065  -6.514  -3.935  1.00  0.00     0.074 A 
ATOM     22  C   UNL     1       6.519  -5.269  -4.429  1.00  0.00     0.031 C 
ATOM     23  C   UNL     1       5.141  -6.580   2.193  1.00  0.00     0.029 A 
ATOM     24  C   UNL     1       5.921  -7.600   1.507  1.00  0.00     0.049 A 
ATOM     25  H   UNL     1       6.540  -7.594  -0.482  1.00  0.00     0.167 HD
ATOM     26  C   UNL     1       7.859  -7.338  -4.656  1.00  0.00     0.037 A 
ATOM     27  C   UNL     1       6.379  -8.734   2.067  1.00  0.00     0.037 A 
ATOM     28  C   UNL     1       8.399  -8.573  -4.160  1.00  0.00     0.049 A 
ATOM     29  C   UNL     1       7.179  -9.680   1.220  1.00  0.00     0.074 A 
ATOM     30  C   UNL     1       9.174  -9.508  -4.821  1.00  0.00     0.029 A 
ATOM     31  N   UNL     1       8.217  -9.043  -2.867  1.00  0.00    -0.354 N 
ATOM     32  N   UNL     1       7.552  -9.547  -0.030  1.00  0.00    -0.248 NA
ATOM     33  C   UNL     1       7.619 -10.930   1.852  1.00  0.00     0.031 C 
ATOM     34  C   UNL     1       9.440 -10.558  -3.934  1.00  0.00     0.029 A 
ATOM     35  C   UNL     1       8.855 -10.261  -2.713  1.00  0.00     0.049 A 
ATOM     36  H   UNL     1       7.709  -8.578  -2.163  1.00  0.00     0.167 HD
ATOM     37  C   UNL     1       8.283 -10.686  -0.331  1.00  0.00     0.074 A 
ATOM     38  C   UNL     1       8.313 -11.493   0.873  1.00  0.00     0.031 C 
ATOM     39  C   UNL     1       8.873 -11.036  -1.499  1.00  0.00     0.037 A 
BRANCH  26  40
ATOM     40  C   UNL     1       8.148  -6.931  -6.068  1.00  0.00     0.057 A 
ATOM     41  C   UNL     1       9.058  -5.910  -6.371  1.00  0.00     0.134 A 
ATOM     42  C   UNL     1       7.488  -7.551  -7.136  1.00  0.00     0.134 A 
ATOM     43  F   UNL     1       9.700  -5.259  -5.389  1.00  0.00    -0.206 F 
ATOM     44  C   UNL     1       9.286  -5.505  -7.687  1.00  0.00     0.040 A 
ATOM     45  C   UNL     1       7.721  -7.166  -8.457  1.00  0.00     0.040 A 
ATOM     46  F   UNL     1       6.599  -8.530  -6.910  1.00  0.00    -0.206 F 
ATOM     47  C   UNL     1       8.617  -6.136  -8.735  1.00  0.00     0.006 A 
ENDBRANCH  26  40
BRANCH  27  48
ATOM     48  C   UNL     1       6.066  -9.046   3.486  1.00  0.00     0.057 A 
ATOM     49  C   UNL     1       7.060  -9.052   4.469  1.00  0.00     0.134 A 
ATOM     50  C   UNL     1       4.758  -9.348   3.891  1.00  0.00     0.134 A 
ATOM     51  F   UNL     1       8.333  -8.786   4.143  1.00  0.00    -0.206 F 
ATOM     52  C   UNL     1       6.771  -9.359   5.801  1.00  0.00     0.040 A 
ATOM     53  C   UNL     1       4.450  -9.635   5.221  1.00  0.00     0.040 A 
ATOM     54  F   UNL     1       3.756  -9.351   2.999  1.00  0.00    -0.206 F 
ATOM     55  C   UNL     1       5.460  -9.647   6.180  1.00  0.00     0.006 A 
ENDBRANCH  27  48
BRANCH  39  56
ATOM     56  C   UNL     1       9.616 -12.334  -1.515  1.00  0.00     0.057 A 
ATOM     57  C   UNL     1       8.945 -13.560  -1.593  1.00  0.00     0.134 A 
ATOM     58  C   UNL     1      11.015 -12.354  -1.490  1.00  0.00     0.134 A 
ATOM     59  F   UNL     1       7.604 -13.601  -1.604  1.00  0.00    -0.206 F 
ATOM     60  C   UNL     1       9.643 -14.767  -1.630  1.00  0.00     0.040 A 
ATOM     61  C   UNL     1      11.725 -13.553  -1.545  1.00  0.00     0.040 A 
ATOM     62  F   UNL     1      11.712 -11.210  -1.419  1.00  0.00    -0.206 F 
ATOM     63  C   UNL     1      11.037 -14.764  -1.612  1.00  0.00     0.006 A 
ENDBRANCH  39  56
ENDBRANCH  13  14
ENDBRANCH   6   8
ENDBRANCH   5   6
ENDBRANCH   4   5
ENDBRANCH   3   4
ENDBRANCH   2   3
ENDBRANCH   1   2
BRANCH   1  64
ATOM     64  C   UNL     1       2.105   1.396   2.803  1.00  0.00     0.188 C 
BRANCH  64  65
ATOM     65  O   UNL     1       2.855   1.877   3.924  1.00  0.00    -0.376 OA
BRANCH  65  66
ATOM     66  C   UNL     1       4.227   1.507   4.004  1.00  0.00     0.202 C 
BRANCH  66  67
ATOM     67  C   UNL     1       4.548   0.115   4.557  1.00  0.00     0.261 C 
BRANCH  67  68
ATOM     68  O   UNL     1       4.004  -1.017   3.853  1.00  0.00    -0.460 OA
BRANCH  68  69
ATOM     69  C   UNL     1       2.815  -1.441   4.342  1.00  0.00     0.338 C 
ATOM     70  O   UNL     1       2.075  -0.832   5.094  1.00  0.00    -0.246 OA
BRANCH  69  71
ATOM     71  C   UNL     1       2.530  -2.825   3.928  1.00  0.00     0.067 A 
ATOM     72  C   UNL     1       1.523  -3.021   2.974  1.00  0.00     0.016 A 
ATOM     73  C   UNL     1       3.126  -3.920   4.592  1.00  0.00    -0.010 A 
ATOM     74  C   UNL     1       1.104  -4.315   2.670  1.00  0.00     0.001 A 
ATOM     75  C   UNL     1       2.664  -5.207   4.295  1.00  0.00     0.009 A 
ATOM     76  C   UNL     1       1.663  -5.403   3.339  1.00  0.00     0.001 A 
BRANCH  73  77
ATOM     77  C   UNL     1       4.247  -3.780   5.537  1.00  0.00     0.030 C 
ATOM     78  C   UNL     1       4.204  -3.120   6.702  1.00  0.00     0.081 C 
ATOM     79  S   UNL     1       5.593  -2.665   7.599  1.00  0.00    -0.054 SA
ATOM     80  C   UNL     1       3.009  -2.490   7.313  1.00  0.00     0.266 C 
ATOM     81  C   UNL     1       4.732  -1.321   8.370  1.00  0.00     0.148 C 
ATOM     82  N   UNL     1       3.394  -1.362   8.026  1.00  0.00    -0.290 N 
ATOM     83  O   UNL     1       1.885  -2.962   7.226  1.00  0.00    -0.268 OA
ATOM     84  S   UNL     1       5.561  -0.238   9.330  1.00  0.00    -0.052 S 
BRANCH  82  85
ATOM     85  C   UNL     1       2.325  -0.406   8.386  1.00  0.00     0.092 C 
ATOM     86  C   UNL     1       1.924  -0.502   9.861  1.00  0.00     0.025 C 
ATOM     87  C   UNL     1       2.593   1.045   7.941  1.00  0.00     0.025 C 
ATOM     88  C   UNL     1       0.758   0.435  10.175  1.00  0.00     0.002 C 
ATOM     89  C   UNL     1       1.428   1.969   8.290  1.00  0.00     0.002 C 
ATOM     90  C   UNL     1       1.066   1.873   9.768  1.00  0.00     0.000 C 
ENDBRANCH  82  85
ENDBRANCH  73  77
ENDBRANCH  69  71
ENDBRANCH  68  69
ENDBRANCH  67  68
ENDBRANCH  66  67
ENDBRANCH  65  66
ENDBRANCH  64  65
ENDBRANCH   1  64
TORSDOF 19
