REMARK SMILES CC[C@@H]([NH3+])C(=O)N1CC[C@H](C(=O)OCCOCCOCCOC(=O)c2ccc(-c3c4nc(c(-c5c(F)cccc5F)c5ccc([nH]5)c(-c5c(F)cccc5F)c5nc(c(-c6c(F)cccc6F)c6ccc3[nH]6)C=C5)C=C4)cc2)[C@@H]1C
REMARK SMILES IDX 17 1 16 2 15 3 14 4 13 5 11 6 12 7 10 8 7 9 8 10 79 11 9 12
REMARK SMILES IDX 80 13 5 14 6 15 3 16 2 17 1 18 4 19 18 23 19 24 20 25 21 26
REMARK SMILES IDX 22 27 23 28 24 29 25 30 26 31 78 32 27 33 77 34 28 35 29 36
REMARK SMILES IDX 30 37 71 38 31 39 76 40 70 41 72 42 32 43 75 44 69 45 68 46
REMARK SMILES IDX 33 48 59 49 42 50 58 51 43 52 46 53 57 54 73 55 44 56 45 57
REMARK SMILES IDX 56 59 74 60 47 61 34 62 35 63 40 64 36 65 37 66 39 67 41 68
REMARK SMILES IDX 38 69 60 70 61 71 66 72 62 73 63 74 65 75 67 76 64 77 48 78
REMARK SMILES IDX 49 79 54 80 50 81 51 82 53 83 55 84 52 85
REMARK H PARENT 4 20 4 21 4 22 72 47 46 58
REMARK Flexibility Score: inf
ROOT
ATOM      1  C   UNL     1      -5.577  -0.507   3.922  1.00  0.00     0.188 C 
ENDROOT
BRANCH   1   2
ATOM      2  O   UNL     1      -6.321  -0.819   5.085  1.00  0.00    -0.376 OA
BRANCH   2   3
ATOM      3  C   UNL     1      -5.755  -0.475   6.343  1.00  0.00     0.202 C 
BRANCH   3   4
ATOM      4  C   UNL     1      -5.266   0.964   6.587  1.00  0.00     0.261 C 
BRANCH   4   5
ATOM      5  O   UNL     1      -4.619   1.562   5.452  1.00  0.00    -0.463 OA
BRANCH   5   6
ATOM      6  C   UNL     1      -3.265   1.667   5.441  1.00  0.00     0.311 C 
ATOM      7  O   UNL     1      -2.536   1.370   6.375  1.00  0.00    -0.252 OA
BRANCH   6   8
ATOM      8  C   UNL     1      -2.817   2.227   4.095  1.00  0.00     0.123 C 
ATOM      9  N   UNL     1      -0.481   2.308   3.635  1.00  0.00    -0.334 N 
ATOM     10  C   UNL     1      -0.808   3.408   4.529  1.00  0.00     0.121 C 
ATOM     11  C   UNL     1      -1.666   1.489   3.371  1.00  0.00     0.096 C 
ATOM     12  C   UNL     1      -2.288   3.642   4.283  1.00  0.00     0.039 C 
ATOM     13  C   UNL     1      -1.500   0.030   3.795  1.00  0.00     0.032 C 
BRANCH   9  14
ATOM     14  C   UNL     1       0.766   2.297   3.046  1.00  0.00     0.280 C 
ATOM     15  O   UNL     1       1.719   2.853   3.610  1.00  0.00    -0.268 OA
BRANCH  14  16
ATOM     16  C   UNL     1       0.959   1.831   1.573  1.00  0.00     0.270 C 
BRANCH  16  17
ATOM     17  C   UNL     1       0.614   0.389   1.208  1.00  0.00     0.072 C 
ATOM     18  C   UNL     1       1.168  -0.037  -0.150  1.00  0.00     0.011 C 
ENDBRANCH  16  17
BRANCH  16  19
ATOM     19  N   UNL     1       0.269   2.798   0.686  1.00  0.00    -0.347 N 
ATOM     20  H   UNL     1      -0.735   2.764   0.863  1.00  0.00     0.345 HD
ATOM     21  H   UNL     1       0.451   2.555  -0.288  1.00  0.00     0.345 HD
ATOM     22  H   UNL     1       0.616   3.738   0.873  1.00  0.00     0.345 HD
ENDBRANCH  16  19
ENDBRANCH  14  16
ENDBRANCH   9  14
ENDBRANCH   6   8
ENDBRANCH   5   6
ENDBRANCH   4   5
ENDBRANCH   3   4
ENDBRANCH   2   3
ENDBRANCH   1   2
BRANCH   1  23
ATOM     23  C   UNL     1      -6.184   0.647   3.094  1.00  0.00     0.188 C 
BRANCH  23  24
ATOM     24  O   UNL     1      -7.297   1.366   3.605  1.00  0.00    -0.376 OA
BRANCH  24  25
ATOM     25  C   UNL     1      -8.433   0.627   4.045  1.00  0.00     0.202 C 
BRANCH  25  26
ATOM     26  C   UNL     1      -9.043  -0.442   3.119  1.00  0.00     0.261 C 
BRANCH  26  27
ATOM     27  O   UNL     1      -8.108  -1.409   2.599  1.00  0.00    -0.460 OA
BRANCH  27  28
ATOM     28  C   UNL     1      -7.978  -1.417   1.249  1.00  0.00     0.338 C 
ATOM     29  O   UNL     1      -8.606  -0.752   0.442  1.00  0.00    -0.246 OA
BRANCH  28  30
ATOM     30  C   UNL     1      -6.809  -2.224   0.841  1.00  0.00     0.060 A 
ATOM     31  C   UNL     1      -5.765  -1.571   0.169  1.00  0.00     0.016 A 
ATOM     32  C   UNL     1      -6.794  -3.611   0.988  1.00  0.00     0.016 A 
ATOM     33  C   UNL     1      -4.733  -2.306  -0.411  1.00  0.00     0.010 A 
ATOM     34  C   UNL     1      -5.770  -4.352   0.382  1.00  0.00     0.010 A 
ATOM     35  C   UNL     1      -4.766  -3.705  -0.363  1.00  0.00    -0.014 A 
BRANCH  35  36
ATOM     36  C   UNL     1      -3.909  -4.471  -1.305  1.00  0.00     0.031 A 
ATOM     37  C   UNL     1      -4.499  -4.876  -2.632  1.00  0.00     0.074 A 
ATOM     38  C   UNL     1      -2.622  -4.743  -1.032  1.00  0.00     0.049 A 
ATOM     39  N   UNL     1      -3.953  -5.539  -3.620  1.00  0.00    -0.248 NA
ATOM     40  C   UNL     1      -5.893  -4.473  -2.877  1.00  0.00     0.031 C 
ATOM     41  C   UNL     1      -1.912  -4.361   0.187  1.00  0.00     0.029 A 
ATOM     42  N   UNL     1      -1.680  -5.409  -1.776  1.00  0.00    -0.354 N 
ATOM     43  C   UNL     1      -4.933  -5.625  -4.602  1.00  0.00     0.074 A 
ATOM     44  C   UNL     1      -6.118  -4.984  -4.077  1.00  0.00     0.031 C 
ATOM     45  C   UNL     1      -0.645  -4.807   0.110  1.00  0.00     0.029 A 
ATOM     46  C   UNL     1      -0.463  -5.523  -1.153  1.00  0.00     0.049 A 
ATOM     47  H   UNL     1      -1.861  -5.772  -2.674  1.00  0.00     0.167 HD
ATOM     48  C   UNL     1      -4.854  -6.175  -5.837  1.00  0.00     0.037 A 
ATOM     49  C   UNL     1       0.663  -6.145  -1.554  1.00  0.00     0.037 A 
ATOM     50  C   UNL     1      -3.684  -6.827  -6.363  1.00  0.00     0.049 A 
ATOM     51  C   UNL     1       0.699  -6.826  -2.899  1.00  0.00     0.074 A 
ATOM     52  C   UNL     1      -3.514  -7.437  -7.593  1.00  0.00     0.029 A 
ATOM     53  N   UNL     1      -2.482  -6.952  -5.684  1.00  0.00    -0.354 N 
ATOM     54  N   UNL     1      -0.231  -6.897  -3.821  1.00  0.00    -0.248 NA
ATOM     55  C   UNL     1       1.952  -7.506  -3.261  1.00  0.00     0.031 C 
ATOM     56  C   UNL     1      -2.218  -7.963  -7.645  1.00  0.00     0.029 A 
ATOM     57  C   UNL     1      -1.568  -7.638  -6.466  1.00  0.00     0.049 A 
ATOM     58  H   UNL     1      -2.305  -6.606  -4.779  1.00  0.00     0.167 HD
ATOM     59  C   UNL     1       0.338  -7.590  -4.884  1.00  0.00     0.074 A 
ATOM     60  C   UNL     1       1.696  -7.909  -4.497  1.00  0.00     0.031 C 
ATOM     61  C   UNL     1      -0.212  -7.929  -6.076  1.00  0.00     0.037 A 
BRANCH  48  62
ATOM     62  C   UNL     1      -6.081  -6.106  -6.697  1.00  0.00     0.057 A 
ATOM     63  C   UNL     1      -6.510  -4.902  -7.272  1.00  0.00     0.134 A 
ATOM     64  C   UNL     1      -6.835  -7.255  -6.964  1.00  0.00     0.134 A 
ATOM     65  F   UNL     1      -5.843  -3.762  -7.039  1.00  0.00    -0.206 F 
ATOM     66  C   UNL     1      -7.657  -4.841  -8.065  1.00  0.00     0.040 A 
ATOM     67  C   UNL     1      -7.970  -7.211  -7.776  1.00  0.00     0.040 A 
ATOM     68  F   UNL     1      -6.479  -8.440  -6.445  1.00  0.00    -0.206 F 
ATOM     69  C   UNL     1      -8.387  -5.999  -8.324  1.00  0.00     0.006 A 
ENDBRANCH  48  62
BRANCH  49  70
ATOM     70  C   UNL     1       1.865  -6.166  -0.680  1.00  0.00     0.057 A 
ATOM     71  C   UNL     1       3.032  -5.480  -1.037  1.00  0.00     0.134 A 
ATOM     72  C   UNL     1       1.895  -6.922   0.497  1.00  0.00     0.134 A 
ATOM     73  F   UNL     1       3.073  -4.761  -2.168  1.00  0.00    -0.206 F 
ATOM     74  C   UNL     1       4.196  -5.569  -0.271  1.00  0.00     0.040 A 
ATOM     75  C   UNL     1       3.044  -6.998   1.287  1.00  0.00     0.040 A 
ATOM     76  F   UNL     1       0.810  -7.604   0.893  1.00  0.00    -0.206 F 
ATOM     77  C   UNL     1       4.202  -6.329   0.897  1.00  0.00     0.006 A 
ENDBRANCH  49  70
BRANCH  61  78
ATOM     78  C   UNL     1       0.673  -8.626  -7.069  1.00  0.00     0.057 A 
ATOM     79  C   UNL     1       1.091  -9.952  -6.895  1.00  0.00     0.134 A 
ATOM     80  C   UNL     1       1.100  -7.962  -8.227  1.00  0.00     0.134 A 
ATOM     81  F   UNL     1       0.727 -10.641  -5.803  1.00  0.00    -0.206 F 
ATOM     82  C   UNL     1       1.931 -10.579  -7.818  1.00  0.00     0.040 A 
ATOM     83  C   UNL     1       1.916  -8.588  -9.171  1.00  0.00     0.040 A 
ATOM     84  F   UNL     1       0.727  -6.695  -8.463  1.00  0.00    -0.206 F 
ATOM     85  C   UNL     1       2.341  -9.898  -8.962  1.00  0.00     0.006 A 
ENDBRANCH  61  78
ENDBRANCH  35  36
ENDBRANCH  28  30
ENDBRANCH  27  28
ENDBRANCH  26  27
ENDBRANCH  25  26
ENDBRANCH  24  25
ENDBRANCH  23  24
ENDBRANCH   1  23
TORSDOF 21
