REMARK SMILES O=C(OCCOCCOCCOC(=O)c1cc(NC(=S)NC(=O)c2ccccc2F)ccc1Cl)c1ccc(-c2c3nc(c(-c4c(F)cccc4F)c4ccc([nH]4)c(-c4c(F)cccc4F)c4nc(c(-c5c(F)cccc5F)c5ccc2[nH]5)C=C4)C=C3)cc1
REMARK SMILES IDX 8 1 7 2 6 3 5 4 4 5 3 6 2 7 1 8 35 9 36 10 88 11 37 12 87 13
REMARK SMILES IDX 38 14 39 15 40 16 81 17 41 18 86 19 80 20 82 21 42 22 85 23
REMARK SMILES IDX 79 24 78 25 43 27 69 28 52 29 68 30 53 31 56 32 67 33 83 34
REMARK SMILES IDX 54 35 55 36 66 38 84 39 57 40 44 41 45 42 50 43 46 44 47 45
REMARK SMILES IDX 49 46 51 47 48 48 70 49 71 50 76 51 72 52 73 53 75 54 77 55
REMARK SMILES IDX 74 56 58 57 59 58 64 59 60 60 61 61 63 62 65 63 62 64 9 65
REMARK SMILES IDX 10 66 11 67 12 68 13 69 14 70 15 71 16 72 33 73 17 74 32 75
REMARK SMILES IDX 34 76 31 77 18 78 19 80 20 81 21 82 22 83 23 85 24 86 25 87
REMARK SMILES IDX 29 88 26 89 28 90 30 91 27 92
REMARK H PARENT 82 26 56 37 18 79 21 84
REMARK Flexibility Score: inf
ROOT
ATOM      1  C   UNL     1       2.247  -2.174  -2.469  1.00  0.00     0.188 C 
ENDROOT
BRANCH   1   2
ATOM      2  C   UNL     1       2.669  -1.862  -1.033  1.00  0.00     0.188 C 
BRANCH   2   3
ATOM      3  O   UNL     1       3.925  -1.176  -0.977  1.00  0.00    -0.376 OA
BRANCH   3   4
ATOM      4  C   UNL     1       4.767  -1.630   0.088  1.00  0.00     0.202 C 
BRANCH   4   5
ATOM      5  C   UNL     1       4.437  -1.015   1.456  1.00  0.00     0.261 C 
BRANCH   5   6
ATOM      6  O   UNL     1       3.066  -0.597   1.570  1.00  0.00    -0.460 OA
BRANCH   6   7
ATOM      7  C   UNL     1       2.544   0.628   1.309  1.00  0.00     0.338 C 
ATOM      8  O   UNL     1       1.348   0.821   1.525  1.00  0.00    -0.246 OA
BRANCH   7   9
ATOM      9  C   UNL     1       3.354   1.782   0.811  1.00  0.00     0.060 A 
ATOM     10  C   UNL     1       4.519   1.675   0.048  1.00  0.00     0.016 A 
ATOM     11  C   UNL     1       2.856   3.070   1.056  1.00  0.00     0.016 A 
ATOM     12  C   UNL     1       5.234   2.790  -0.376  1.00  0.00     0.010 A 
ATOM     13  C   UNL     1       3.519   4.197   0.555  1.00  0.00     0.010 A 
ATOM     14  C   UNL     1       4.735   4.063  -0.143  1.00  0.00    -0.014 A 
BRANCH  14  15
ATOM     15  C   UNL     1       5.532   5.256  -0.504  1.00  0.00     0.031 A 
ATOM     16  C   UNL     1       5.984   6.137   0.615  1.00  0.00     0.074 A 
ATOM     17  C   UNL     1       5.915   5.531  -1.767  1.00  0.00     0.049 A 
ATOM     18  N   UNL     1       6.551   7.310   0.564  1.00  0.00    -0.248 NA
ATOM     19  C   UNL     1       5.824   5.596   1.977  1.00  0.00     0.031 C 
ATOM     20  C   UNL     1       5.782   4.646  -2.920  1.00  0.00     0.029 A 
ATOM     21  N   UNL     1       6.448   6.678  -2.306  1.00  0.00    -0.354 N 
ATOM     22  C   UNL     1       6.872   7.612   1.877  1.00  0.00     0.074 A 
ATOM     23  C   UNL     1       6.326   6.571   2.715  1.00  0.00     0.031 C 
ATOM     24  C   UNL     1       6.069   5.328  -4.043  1.00  0.00     0.029 A 
ATOM     25  C   UNL     1       6.391   6.695  -3.682  1.00  0.00     0.049 A 
ATOM     26  H   UNL     1       6.830   7.408  -1.767  1.00  0.00     0.167 HD
ATOM     27  C   UNL     1       7.635   8.629   2.329  1.00  0.00     0.037 A 
ATOM     28  C   UNL     1       6.522   7.717  -4.547  1.00  0.00     0.037 A 
ATOM     29  C   UNL     1       8.167   9.652   1.478  1.00  0.00     0.049 A 
ATOM     30  C   UNL     1       7.053   9.009  -4.010  1.00  0.00     0.074 A 
ATOM     31  C   UNL     1       8.938  10.745   1.819  1.00  0.00     0.029 A 
ATOM     32  N   UNL     1       7.966   9.707   0.105  1.00  0.00    -0.354 N 
ATOM     33  N   UNL     1       7.343   9.310  -2.768  1.00  0.00    -0.248 NA
ATOM     34  C   UNL     1       7.362  10.065  -4.980  1.00  0.00     0.031 C 
ATOM     35  C   UNL     1       9.157  11.493   0.658  1.00  0.00     0.029 A 
ATOM     36  C   UNL     1       8.567  10.838  -0.414  1.00  0.00     0.049 A 
ATOM     37  H   UNL     1       7.470   9.039  -0.421  1.00  0.00     0.167 HD
ATOM     38  C   UNL     1       7.968  10.544  -2.814  1.00  0.00     0.074 A 
ATOM     39  C   UNL     1       7.954  10.964  -4.203  1.00  0.00     0.031 C 
ATOM     40  C   UNL     1       8.550  11.231  -1.802  1.00  0.00     0.037 A 
BRANCH  27  41
ATOM     41  C   UNL     1       7.924   8.644   3.797  1.00  0.00     0.057 A 
ATOM     42  C   UNL     1       7.308   9.576   4.637  1.00  0.00     0.134 A 
ATOM     43  C   UNL     1       8.775   7.697   4.386  1.00  0.00     0.134 A 
ATOM     44  F   UNL     1       6.471  10.496   4.136  1.00  0.00    -0.206 F 
ATOM     45  C   UNL     1       7.527   9.565   6.015  1.00  0.00     0.040 A 
ATOM     46  C   UNL     1       8.982   7.662   5.765  1.00  0.00     0.040 A 
ATOM     47  F   UNL     1       9.367   6.754   3.636  1.00  0.00    -0.206 F 
ATOM     48  C   UNL     1       8.359   8.601   6.583  1.00  0.00     0.006 A 
ENDBRANCH  27  41
BRANCH  28  49
ATOM     49  C   UNL     1       6.157   7.550  -5.976  1.00  0.00     0.057 A 
ATOM     50  C   UNL     1       4.813   7.546  -6.378  1.00  0.00     0.134 A 
ATOM     51  C   UNL     1       7.123   7.389  -6.972  1.00  0.00     0.134 A 
ATOM     52  F   UNL     1       3.833   7.682  -5.472  1.00  0.00    -0.206 F 
ATOM     53  C   UNL     1       4.446   7.396  -7.718  1.00  0.00     0.040 A 
ATOM     54  C   UNL     1       6.771   7.240  -8.316  1.00  0.00     0.040 A 
ATOM     55  F   UNL     1       8.425   7.397  -6.653  1.00  0.00    -0.206 F 
ATOM     56  C   UNL     1       5.429   7.242  -8.693  1.00  0.00     0.006 A 
ENDBRANCH  28  49
BRANCH  40  57
ATOM     57  C   UNL     1       9.289  12.479  -2.161  1.00  0.00     0.057 A 
ATOM     58  C   UNL     1      10.688  12.508  -2.088  1.00  0.00     0.134 A 
ATOM     59  C   UNL     1       8.624  13.666  -2.479  1.00  0.00     0.134 A 
ATOM     60  F   UNL     1      11.378  11.399  -1.783  1.00  0.00    -0.206 F 
ATOM     61  C   UNL     1      11.400  13.688  -2.289  1.00  0.00     0.040 A 
ATOM     62  C   UNL     1       9.328  14.847  -2.710  1.00  0.00     0.040 A 
ATOM     63  F   UNL     1       7.286  13.691  -2.582  1.00  0.00    -0.206 F 
ATOM     64  C   UNL     1      10.718  14.863  -2.600  1.00  0.00     0.006 A 
ENDBRANCH  40  57
ENDBRANCH  14  15
ENDBRANCH   7   9
ENDBRANCH   6   7
ENDBRANCH   5   6
ENDBRANCH   4   5
ENDBRANCH   3   4
ENDBRANCH   2   3
ENDBRANCH   1   2
BRANCH   1  65
ATOM     65  O   UNL     1       3.132  -2.989  -3.230  1.00  0.00    -0.376 OA
BRANCH  65  66
ATOM     66  C   UNL     1       4.451  -2.498  -3.434  1.00  0.00     0.202 C 
BRANCH  66  67
ATOM     67  C   UNL     1       4.673  -1.216  -4.266  1.00  0.00     0.261 C 
BRANCH  67  68
ATOM     68  O   UNL     1       3.987   0.007  -3.893  1.00  0.00    -0.460 OA
BRANCH  68  69
ATOM     69  C   UNL     1       2.919   0.277  -4.697  1.00  0.00     0.339 C 
ATOM     70  O   UNL     1       2.414  -0.544  -5.454  1.00  0.00    -0.246 OA
BRANCH  69  71
ATOM     71  C   UNL     1       2.452   1.813  -4.655  1.00  0.00     0.080 A 
ATOM     72  C   UNL     1       0.961   3.030  -4.138  1.00  0.00     0.043 A 
ATOM     73  C   UNL     1       2.305   2.503  -5.523  1.00  0.00     0.055 A 
ATOM     74  C   UNL     1      -0.086   4.053  -4.141  1.00  0.00     0.041 A 
ATOM     75  C   UNL     1       1.036   4.036  -5.834  1.00  0.00     0.023 A 
ATOM     76  Cl  UNL     1       3.880   1.739  -6.816  1.00  0.00    -0.083 Cl
ATOM     77  C   UNL     1       0.001   4.726  -5.229  1.00  0.00     0.028 A 
BRANCH  74  78
ATOM     78  N   UNL     1      -1.076   4.111  -3.156  1.00  0.00    -0.332 N 
ATOM     79  H   UNL     1      -1.642   4.916  -3.183  1.00  0.00     0.169 HD
BRANCH  78  80
ATOM     80  C   UNL     1      -1.382   3.223  -2.162  1.00  0.00     0.177 C 
ATOM     81  S   UNL     1      -2.497   3.717  -1.011  1.00  0.00    -0.040 S 
BRANCH  80  82
ATOM     82  N   UNL     1      -0.877   1.919  -2.055  1.00  0.00    -0.299 N 
ATOM     83  C   UNL     1      -0.012   0.933  -2.631  1.00  0.00     0.260 C 
ATOM     84  H   UNL     1      -1.286   1.515  -1.256  1.00  0.00     0.172 HD
ATOM     85  O   UNL     1      -0.132  -0.246  -2.316  1.00  0.00    -0.269 OA
BRANCH  83  86
ATOM     86  C   UNL     1       1.063   1.297  -3.608  1.00  0.00     0.075 A 
ATOM     87  C   UNL     1       0.620   1.422  -5.565  1.00  0.00     0.017 A 
ATOM     88  C   UNL     1       2.479   2.654  -3.059  1.00  0.00     0.135 A 
ATOM     89  C   UNL     1       1.433   2.509  -7.038  1.00  0.00     0.001 A 
ATOM     90  C   UNL     1       3.151   3.876  -4.480  1.00  0.00     0.040 A 
ATOM     91  F   UNL     1       2.499   3.085  -1.793  1.00  0.00    -0.206 F 
ATOM     92  C   UNL     1       2.851   3.874  -6.458  1.00  0.00     0.003 A 
ENDBRANCH  83  86
ENDBRANCH  80  82
ENDBRANCH  78  80
ENDBRANCH  74  78
ENDBRANCH  69  71
ENDBRANCH  68  69
ENDBRANCH  67  68
ENDBRANCH  66  67
ENDBRANCH  65  66
ENDBRANCH   1  65
TORSDOF 21
