REMARK SMILES COc1ccc(CCN2C(=O)C[C@@H](C(=O)OCCOCCOCCOC(=O)c3ccc(-c4c5nc(c(-c6c(F)cccc6F)c6ccc([nH]6)c(-c6c(F)cccc6F)c6nc(c(-c7c(F)cccc7F)c7ccc4[nH]7)C=C6)C=C5)cc3)S/C2=[NH+]\c2ccc(F)cc2)cc1OC
REMARK SMILES IDX 20 1 19 2 18 3 17 4 16 5 14 6 15 7 13 8 9 9 10 10 83 11
REMARK SMILES IDX 11 12 12 13 82 14 84 15 8 17 7 18 6 19 3 20 4 21 93 22 5 23
REMARK SMILES IDX 92 24 2 25 1 26 94 27 95 28 85 29 86 30 91 31 87 32 90 33
REMARK SMILES IDX 88 34 89 35 21 36 22 37 23 38 24 39 25 40 26 41 27 42 28 43
REMARK SMILES IDX 29 44 81 45 30 46 80 47 31 48 32 49 33 50 74 51 34 52 79 53
REMARK SMILES IDX 73 54 75 55 35 56 78 57 72 58 71 59 36 61 62 62 45 63 61 64
REMARK SMILES IDX 46 65 49 66 60 67 76 68 47 69 48 70 59 72 77 73 50 74 37 75
REMARK SMILES IDX 38 76 43 77 39 78 40 79 42 80 44 81 41 82 63 83 64 84 69 85
REMARK SMILES IDX 65 86 66 87 68 88 70 89 67 90 51 91 52 92 57 93 53 94 54 95
REMARK SMILES IDX 56 96 58 97 55 98
REMARK H PARENT 84 16 75 60 49 71
REMARK Flexibility Score: inf
ROOT
ATOM      1  C   UNL     1      -5.303  -3.635   4.450  1.00  0.00     0.188 C 
ENDROOT
BRANCH   1   2
ATOM      2  O   UNL     1      -5.837  -2.642   3.580  1.00  0.00    -0.376 OA
BRANCH   2   3
ATOM      3  C   UNL     1      -5.069  -2.241   2.458  1.00  0.00     0.202 C 
BRANCH   3   4
ATOM      4  C   UNL     1      -3.676  -1.649   2.719  1.00  0.00     0.261 C 
BRANCH   4   5
ATOM      5  O   UNL     1      -2.909  -2.251   3.793  1.00  0.00    -0.462 OA
BRANCH   5   6
ATOM      6  C   UNL     1      -2.684  -1.469   4.885  1.00  0.00     0.320 C 
ATOM      7  O   UNL     1      -3.033  -0.292   4.952  1.00  0.00    -0.251 OA
BRANCH   6   8
ATOM      8  C   UNL     1      -1.893  -2.105   6.037  1.00  0.00     0.180 C 
ATOM      9  N   UNL     1       0.668  -3.586   6.298  1.00  0.00    -0.191 N 
ATOM     10  C   UNL     1       0.603  -2.250   6.632  1.00  0.00     0.311 C 
ATOM     11  C   UNL     1      -0.382  -4.454   6.535  1.00  0.00     0.319 C 
ATOM     12  O   UNL     1       1.480  -1.683   7.286  1.00  0.00    -0.247 OA
ATOM     13  C   UNL     1      -0.535  -1.456   6.076  1.00  0.00     0.155 C 
ATOM     14  S   UNL     1      -1.981  -3.885   6.157  1.00  0.00    -0.022 SA
ATOM     15  N   UNL     1      -0.140  -5.662   6.947  1.00  0.00    -0.235 N 
ATOM     16  H   UNL     1       0.793  -5.930   7.117  1.00  0.00     0.313 HD
BRANCH   9  17
ATOM     17  C   UNL     1       2.007  -4.117   6.002  1.00  0.00     0.251 C 
BRANCH  17  18
ATOM     18  C   UNL     1       2.144  -4.529   4.514  1.00  0.00     0.082 C 
BRANCH  18  19
ATOM     19  C   UNL     1       1.895  -3.413   3.514  1.00  0.00    -0.040 A 
ATOM     20  C   UNL     1       1.405  -1.213   1.808  1.00  0.00     0.160 A 
ATOM     21  C   UNL     1       0.346  -1.978   2.299  1.00  0.00     0.051 A 
ATOM     22  C   UNL     1       2.721  -1.594   2.097  1.00  0.00     0.160 A 
ATOM     23  C   UNL     1       0.591  -3.090   3.114  1.00  0.00     0.008 A 
ATOM     24  C   UNL     1       2.954  -2.667   2.975  1.00  0.00     0.054 A 
BRANCH  20  25
ATOM     25  O   UNL     1       1.175  -0.019   1.179  1.00  0.00    -0.493 OA
ATOM     26  C   UNL     1       0.301  -0.083   0.059  1.00  0.00     0.278 C 
ENDBRANCH  20  25
BRANCH  22  27
ATOM     27  O   UNL     1       3.858  -0.994   1.615  1.00  0.00    -0.493 OA
ATOM     28  C   UNL     1       3.749  -0.401   0.322  1.00  0.00     0.278 C 
ENDBRANCH  22  27
ENDBRANCH  18  19
ENDBRANCH  17  18
ENDBRANCH   9  17
BRANCH  15  29
ATOM     29  C   UNL     1      -1.167  -6.601   7.160  1.00  0.00     0.125 A 
ATOM     30  C   UNL     1      -1.821  -6.723   8.396  1.00  0.00     0.055 A 
ATOM     31  C   UNL     1      -1.513  -7.476   6.124  1.00  0.00     0.055 A 
ATOM     32  C   UNL     1      -2.824  -7.685   8.578  1.00  0.00     0.043 A 
ATOM     33  C   UNL     1      -2.518  -8.431   6.299  1.00  0.00     0.043 A 
ATOM     34  C   UNL     1      -3.162  -8.530   7.526  1.00  0.00     0.123 A 
ATOM     35  F   UNL     1      -4.149  -9.422   7.686  1.00  0.00    -0.207 F 
ENDBRANCH  15  29
ENDBRANCH   6   8
ENDBRANCH   5   6
ENDBRANCH   4   5
ENDBRANCH   3   4
ENDBRANCH   2   3
ENDBRANCH   1   2
BRANCH   1  36
ATOM     36  C   UNL     1      -4.421  -4.761   3.874  1.00  0.00     0.188 C 
BRANCH  36  37
ATOM     37  O   UNL     1      -4.557  -4.928   2.477  1.00  0.00    -0.376 OA
BRANCH  37  38
ATOM     38  C   UNL     1      -4.723  -6.261   2.037  1.00  0.00     0.202 C 
BRANCH  38  39
ATOM     39  C   UNL     1      -6.151  -6.779   2.255  1.00  0.00     0.261 C 
BRANCH  39  40
ATOM     40  O   UNL     1      -6.694  -6.564   3.577  1.00  0.00    -0.460 OA
BRANCH  40  41
ATOM     41  C   UNL     1      -6.260  -7.393   4.560  1.00  0.00     0.338 C 
ATOM     42  O   UNL     1      -5.481  -8.314   4.434  1.00  0.00    -0.246 OA
BRANCH  41  43
ATOM     43  C   UNL     1      -6.718  -6.849   5.867  1.00  0.00     0.060 A 
ATOM     44  C   UNL     1      -5.761  -6.407   6.791  1.00  0.00     0.016 A 
ATOM     45  C   UNL     1      -8.071  -6.788   6.197  1.00  0.00     0.016 A 
ATOM     46  C   UNL     1      -6.140  -5.956   8.060  1.00  0.00     0.010 A 
ATOM     47  C   UNL     1      -8.452  -6.343   7.473  1.00  0.00     0.010 A 
ATOM     48  C   UNL     1      -7.489  -5.959   8.427  1.00  0.00    -0.014 A 
BRANCH  48  49
ATOM     49  C   UNL     1      -7.891  -5.740   9.843  1.00  0.00     0.031 A 
ATOM     50  C   UNL     1      -8.268  -6.937  10.677  1.00  0.00     0.074 A 
ATOM     51  C   UNL     1      -7.930  -4.513  10.396  1.00  0.00     0.049 A 
ATOM     52  N   UNL     1      -8.787  -6.990  11.877  1.00  0.00    -0.248 NA
ATOM     53  C   UNL     1      -8.029  -8.254  10.065  1.00  0.00     0.031 C 
ATOM     54  C   UNL     1      -7.528  -3.272   9.740  1.00  0.00     0.029 A 
ATOM     55  N   UNL     1      -8.352  -4.113  11.643  1.00  0.00    -0.354 N 
ATOM     56  C   UNL     1      -8.963  -8.341  12.153  1.00  0.00     0.074 A 
ATOM     57  C   UNL     1      -8.514  -9.072  10.988  1.00  0.00     0.031 C 
ATOM     58  C   UNL     1      -7.742  -2.244  10.583  1.00  0.00     0.029 A 
ATOM     59  C   UNL     1      -8.338  -2.749  11.819  1.00  0.00     0.049 A 
ATOM     60  H   UNL     1      -8.636  -4.743  12.344  1.00  0.00     0.167 HD
ATOM     61  C   UNL     1      -9.452  -8.922  13.275  1.00  0.00     0.037 A 
ATOM     62  C   UNL     1      -8.788  -1.994  12.842  1.00  0.00     0.037 A 
ATOM     63  C   UNL     1      -9.892  -8.200  14.441  1.00  0.00     0.049 A 
ATOM     64  C   UNL     1      -9.416  -2.658  14.044  1.00  0.00     0.074 A 
ATOM     65  C   UNL     1     -10.390  -8.705  15.630  1.00  0.00     0.029 A 
ATOM     66  N   UNL     1      -9.893  -6.819  14.563  1.00  0.00    -0.354 N 
ATOM     67  N   UNL     1      -9.581  -3.934  14.296  1.00  0.00    -0.248 NA
ATOM     68  C   UNL     1      -9.922  -1.772  15.104  1.00  0.00     0.031 C 
ATOM     69  C   UNL     1     -10.747  -7.629  16.448  1.00  0.00     0.029 A 
ATOM     70  C   UNL     1     -10.409  -6.455  15.797  1.00  0.00     0.049 A 
ATOM     71  H   UNL     1      -9.575  -6.190  13.875  1.00  0.00     0.167 HD
ATOM     72  C   UNL     1     -10.172  -4.003  15.554  1.00  0.00     0.074 A 
ATOM     73  C   UNL     1     -10.329  -2.642  16.018  1.00  0.00     0.031 C 
ATOM     74  C   UNL     1     -10.549  -5.098  16.261  1.00  0.00     0.037 A 
BRANCH  61  75
ATOM     75  C   UNL     1      -9.572 -10.419  13.285  1.00  0.00     0.057 A 
ATOM     76  C   UNL     1      -8.450 -11.256  13.340  1.00  0.00     0.134 A 
ATOM     77  C   UNL     1     -10.833 -11.030  13.278  1.00  0.00     0.134 A 
ATOM     78  F   UNL     1      -7.213 -10.736  13.336  1.00  0.00    -0.206 F 
ATOM     79  C   UNL     1      -8.577 -12.646  13.364  1.00  0.00     0.040 A 
ATOM     80  C   UNL     1     -10.973 -12.417  13.333  1.00  0.00     0.040 A 
ATOM     81  F   UNL     1     -11.950 -10.288  13.232  1.00  0.00    -0.206 F 
ATOM     82  C   UNL     1      -9.842 -13.230  13.369  1.00  0.00     0.006 A 
ENDBRANCH  61  75
BRANCH  62  83
ATOM     83  C   UNL     1      -8.690  -0.511  12.781  1.00  0.00     0.057 A 
ATOM     84  C   UNL     1      -7.859   0.196  13.659  1.00  0.00     0.134 A 
ATOM     85  C   UNL     1      -9.457   0.238  11.880  1.00  0.00     0.134 A 
ATOM     86  F   UNL     1      -7.125  -0.461  14.569  1.00  0.00    -0.206 F 
ATOM     87  C   UNL     1      -7.807   1.592  13.655  1.00  0.00     0.040 A 
ATOM     88  C   UNL     1      -9.392   1.632  11.844  1.00  0.00     0.040 A 
ATOM     89  F   UNL     1     -10.280  -0.376  11.017  1.00  0.00    -0.206 F 
ATOM     90  C   UNL     1      -8.571   2.313  12.741  1.00  0.00     0.006 A 
ENDBRANCH  62  83
BRANCH  74  91
ATOM     91  C   UNL     1     -11.114  -4.880  17.637  1.00  0.00     0.057 A 
ATOM     92  C   UNL     1     -12.380  -4.317  17.845  1.00  0.00     0.134 A 
ATOM     93  C   UNL     1     -10.395  -5.282  18.772  1.00  0.00     0.134 A 
ATOM     94  F   UNL     1     -13.119  -3.902  16.805  1.00  0.00    -0.206 F 
ATOM     95  C   UNL     1     -12.898  -4.138  19.130  1.00  0.00     0.040 A 
ATOM     96  C   UNL     1     -10.916  -5.136  20.059  1.00  0.00     0.040 A 
ATOM     97  F   UNL     1      -9.181  -5.839  18.648  1.00  0.00    -0.206 F 
ATOM     98  C   UNL     1     -12.168  -4.555  20.241  1.00  0.00     0.006 A 
ENDBRANCH  74  91
ENDBRANCH  48  49
ENDBRANCH  41  43
ENDBRANCH  40  41
ENDBRANCH  39  40
ENDBRANCH  38  39
ENDBRANCH  37  38
ENDBRANCH  36  37
ENDBRANCH   1  36
TORSDOF 23
