REMARK SMILES O=C(CNc1ccccc1C(=O)N1CCCC1)OCCOCCOCCOC(=O)c1ccc(-c2c3nc(c(-c4c(F)cccc4F)c4ccc([nH]4)c(-c4c(F)cccc4F)c4nc(c(-c5c(F)cccc5F)c5ccc2[nH]5)C=C4)C=C3)cc1
REMARK SMILES IDX 22 1 21 2 20 3 19 4 18 5 2 6 1 7 3 8 4 9 5 11 6 12 10 13
REMARK SMILES IDX 7 14 9 15 8 16 11 17 12 18 13 19 14 20 17 21 15 22 16 23
REMARK SMILES IDX 23 24 24 25 25 26 26 27 27 28 28 29 29 30 30 31 31 32 83 33
REMARK SMILES IDX 32 34 82 35 33 36 34 37 35 38 76 39 36 40 81 41 75 42 77 43
REMARK SMILES IDX 37 44 80 45 74 46 73 47 38 49 64 50 47 51 63 52 48 53 51 54
REMARK SMILES IDX 62 55 78 56 49 57 50 58 61 60 79 61 52 62 39 63 40 64 45 65
REMARK SMILES IDX 41 66 42 67 44 68 46 69 43 70 65 71 66 72 71 73 67 74 68 75
REMARK SMILES IDX 70 76 72 77 69 78 53 79 54 80 59 81 55 82 56 83 58 84 60 85
REMARK SMILES IDX 57 86
REMARK H PARENT 4 10 77 48 51 59
REMARK Flexibility Score: inf
ROOT
ATOM      1  C   UNL     1       2.746   0.025  -2.000  1.00  0.00     0.188 C 
ENDROOT
BRANCH   1   2
ATOM      2  O   UNL     1       3.860   0.682  -1.399  1.00  0.00    -0.376 OA
BRANCH   2   3
ATOM      3  C   UNL     1       5.025  -0.087  -1.121  1.00  0.00     0.202 C 
BRANCH   3   4
ATOM      4  C   UNL     1       4.888  -1.514  -0.571  1.00  0.00     0.261 C 
BRANCH   4   5
ATOM      5  O   UNL     1       3.575  -1.980  -0.229  1.00  0.00    -0.462 OA
BRANCH   5   6
ATOM      6  C   UNL     1       3.004  -1.719   0.969  1.00  0.00     0.325 C 
ATOM      7  O   UNL     1       2.275  -2.550   1.509  1.00  0.00    -0.250 OA
BRANCH   6   8
ATOM      8  C   UNL     1       3.200  -0.339   1.559  1.00  0.00     0.236 C 
BRANCH   8   9
ATOM      9  N   UNL     1       4.044  -0.349   2.745  1.00  0.00    -0.374 N 
ATOM     10  H   UNL     1       3.730  -0.795   3.564  1.00  0.00     0.161 HD
BRANCH   9  11
ATOM     11  C   UNL     1       5.292   0.268   2.730  1.00  0.00     0.047 A 
ATOM     12  C   UNL     1       6.379  -0.603   2.978  1.00  0.00     0.026 A 
ATOM     13  C   UNL     1       5.586   1.604   2.361  1.00  0.00     0.063 A 
ATOM     14  C   UNL     1       7.708  -0.201   2.849  1.00  0.00     0.002 A 
ATOM     15  C   UNL     1       6.946   1.999   2.284  1.00  0.00     0.016 A 
ATOM     16  C   UNL     1       7.994   1.108   2.508  1.00  0.00     0.001 A 
BRANCH  13  17
ATOM     17  C   UNL     1       4.639   2.665   1.863  1.00  0.00     0.255 C 
ATOM     18  O   UNL     1       5.106   3.587   1.188  1.00  0.00    -0.269 OA
ATOM     19  N   UNL     1       3.270   2.561   2.012  1.00  0.00    -0.339 N 
ATOM     20  C   UNL     1       2.542   2.440   3.258  1.00  0.00     0.120 C 
ATOM     21  C   UNL     1       2.428   3.144   0.998  1.00  0.00     0.120 C 
ATOM     22  C   UNL     1       1.079   2.301   2.835  1.00  0.00     0.023 C 
ATOM     23  C   UNL     1       1.023   2.697   1.356  1.00  0.00     0.023 C 
ENDBRANCH  13  17
ENDBRANCH   9  11
ENDBRANCH   8   9
ENDBRANCH   6   8
ENDBRANCH   5   6
ENDBRANCH   4   5
ENDBRANCH   3   4
ENDBRANCH   2   3
ENDBRANCH   1   2
BRANCH   1  24
ATOM     24  C   UNL     1       2.034   0.975  -2.964  1.00  0.00     0.188 C 
BRANCH  24  25
ATOM     25  O   UNL     1       2.585   1.020  -4.282  1.00  0.00    -0.376 OA
BRANCH  25  26
ATOM     26  C   UNL     1       3.983   1.264  -4.379  1.00  0.00     0.202 C 
BRANCH  26  27
ATOM     27  C   UNL     1       4.450   2.718  -4.230  1.00  0.00     0.261 C 
BRANCH  27  28
ATOM     28  O   UNL     1       3.889   3.441  -3.122  1.00  0.00    -0.460 OA
BRANCH  28  29
ATOM     29  C   UNL     1       2.867   4.265  -3.450  1.00  0.00     0.338 C 
ATOM     30  O   UNL     1       2.351   4.401  -4.556  1.00  0.00    -0.246 OA
BRANCH  29  31
ATOM     31  C   UNL     1       2.357   4.987  -2.270  1.00  0.00     0.060 A 
ATOM     32  C   UNL     1       1.002   4.855  -1.946  1.00  0.00     0.016 A 
ATOM     33  C   UNL     1       3.156   5.904  -1.579  1.00  0.00     0.016 A 
ATOM     34  C   UNL     1       0.435   5.662  -0.955  1.00  0.00     0.010 A 
ATOM     35  C   UNL     1       2.581   6.723  -0.593  1.00  0.00     0.010 A 
ATOM     36  C   UNL     1       1.210   6.627  -0.293  1.00  0.00    -0.014 A 
BRANCH  36  37
ATOM     37  C   UNL     1       0.541   7.615   0.598  1.00  0.00     0.031 A 
ATOM     38  C   UNL     1       0.058   8.913   0.016  1.00  0.00     0.074 A 
ATOM     39  C   UNL     1       0.315   7.358   1.900  1.00  0.00     0.049 A 
ATOM     40  N   UNL     1      -0.620   9.875   0.590  1.00  0.00    -0.248 NA
ATOM     41  C   UNL     1       0.385   9.162  -1.396  1.00  0.00     0.031 C 
ATOM     42  C   UNL     1       0.740   6.158   2.602  1.00  0.00     0.029 A 
ATOM     43  N   UNL     1      -0.330   8.091   2.868  1.00  0.00    -0.354 N 
ATOM     44  C   UNL     1      -0.828  10.829  -0.396  1.00  0.00     0.074 A 
ATOM     45  C   UNL     1      -0.161  10.354  -1.591  1.00  0.00     0.031 C 
ATOM     46  C   UNL     1       0.345   6.218   3.882  1.00  0.00     0.029 A 
ATOM     47  C   UNL     1      -0.341   7.485   4.102  1.00  0.00     0.049 A 
ATOM     48  H   UNL     1      -0.744   8.967   2.693  1.00  0.00     0.167 HD
ATOM     49  C   UNL     1      -1.524  11.988  -0.319  1.00  0.00     0.037 A 
ATOM     50  C   UNL     1      -0.833   7.904   5.284  1.00  0.00     0.037 A 
ATOM     51  C   UNL     1      -2.155  12.487   0.876  1.00  0.00     0.049 A 
ATOM     52  C   UNL     1      -1.544   9.224   5.359  1.00  0.00     0.074 A 
ATOM     53  C   UNL     1      -2.879  13.655   1.045  1.00  0.00     0.029 A 
ATOM     54  N   UNL     1      -2.122  11.858   2.111  1.00  0.00    -0.354 N 
ATOM     55  N   UNL     1      -1.784  10.088   4.403  1.00  0.00    -0.248 NA
ATOM     56  C   UNL     1      -2.065   9.623   6.674  1.00  0.00     0.031 C 
ATOM     57  C   UNL     1      -3.248  13.754   2.391  1.00  0.00     0.029 A 
ATOM     58  C   UNL     1      -2.797  12.623   3.051  1.00  0.00     0.049 A 
ATOM     59  H   UNL     1      -1.685  10.995   2.294  1.00  0.00     0.167 HD
ATOM     60  C   UNL     1      -2.501  11.120   4.995  1.00  0.00     0.074 A 
ATOM     61  C   UNL     1      -2.679  10.761   6.386  1.00  0.00     0.031 C 
ATOM     62  C   UNL     1      -2.966  12.263   4.435  1.00  0.00     0.037 A 
BRANCH  49  63
ATOM     63  C   UNL     1      -1.636  12.800  -1.574  1.00  0.00     0.057 A 
ATOM     64  C   UNL     1      -2.451  12.392  -2.638  1.00  0.00     0.134 A 
ATOM     65  C   UNL     1      -0.956  14.016  -1.708  1.00  0.00     0.134 A 
ATOM     66  F   UNL     1      -3.119  11.229  -2.576  1.00  0.00    -0.206 F 
ATOM     67  C   UNL     1      -2.572  13.156  -3.799  1.00  0.00     0.040 A 
ATOM     68  C   UNL     1      -1.086  14.800  -2.856  1.00  0.00     0.040 A 
ATOM     69  F   UNL     1      -0.161  14.465  -0.725  1.00  0.00    -0.206 F 
ATOM     70  C   UNL     1      -1.893  14.368  -3.907  1.00  0.00     0.006 A 
ENDBRANCH  49  63
BRANCH  50  71
ATOM     71  C   UNL     1      -0.661   7.072   6.504  1.00  0.00     0.057 A 
ATOM     72  C   UNL     1      -1.753   6.466   7.135  1.00  0.00     0.134 A 
ATOM     73  C   UNL     1       0.600   6.899   7.090  1.00  0.00     0.134 A 
ATOM     74  F   UNL     1      -2.989   6.613   6.636  1.00  0.00    -0.206 F 
ATOM     75  C   UNL     1      -1.603   5.742   8.320  1.00  0.00     0.040 A 
ATOM     76  C   UNL     1       0.768   6.154   8.258  1.00  0.00     0.040 A 
ATOM     77  F   UNL     1       1.688   7.449   6.532  1.00  0.00    -0.206 F 
ATOM     78  C   UNL     1      -0.339   5.582   8.882  1.00  0.00     0.006 A 
ENDBRANCH  50  71
BRANCH  62  79
ATOM     79  C   UNL     1      -3.735  13.193   5.328  1.00  0.00     0.057 A 
ATOM     80  C   UNL     1      -3.113  13.925   6.348  1.00  0.00     0.134 A 
ATOM     81  C   UNL     1      -5.117  13.357   5.167  1.00  0.00     0.134 A 
ATOM     82  F   UNL     1      -1.795  13.802   6.566  1.00  0.00    -0.206 F 
ATOM     83  C   UNL     1      -3.842  14.758   7.198  1.00  0.00     0.040 A 
ATOM     84  C   UNL     1      -5.852  14.209   5.992  1.00  0.00     0.040 A 
ATOM     85  F   UNL     1      -5.775  12.691   4.206  1.00  0.00    -0.206 F 
ATOM     86  C   UNL     1      -5.216  14.905   7.018  1.00  0.00     0.006 A 
ENDBRANCH  62  79
ENDBRANCH  36  37
ENDBRANCH  29  31
ENDBRANCH  28  29
ENDBRANCH  27  28
ENDBRANCH  26  27
ENDBRANCH  25  26
ENDBRANCH  24  25
ENDBRANCH   1  24
TORSDOF 20
