REMARK SMILES COc1c[nH]c(C[N@H+]2CCC[C@@H](c3ccc(C(=O)OCCOCCOCCOC(=O)c4ccc(-c5c6nc(c(-c7c(F)cccc7F)c7ccc([nH]7)c(-c7c(F)cccc7F)c7nc(c(-c8c(F)cccc8F)c8ccc5[nH]8)C=C7)C=C6)cc4)cc3)C2)cc1=O
REMARK SMILES IDX 23 1 22 2 21 3 20 4 19 5 17 6 18 7 16 8 13 9 14 10 86 11
REMARK SMILES IDX 15 12 85 13 12 14 8 15 9 16 87 17 10 19 11 20 7 21 6 22 3 23
REMARK SMILES IDX 4 24 89 25 5 26 88 27 90 28 2 30 1 31 24 32 25 33 26 34
REMARK SMILES IDX 27 35 28 36 29 37 30 38 31 39 32 40 84 41 33 42 83 43 34 44
REMARK SMILES IDX 35 45 36 46 77 47 37 48 82 49 76 50 78 51 38 52 81 53 75 54
REMARK SMILES IDX 74 55 39 57 65 58 48 59 64 60 49 61 52 62 63 63 79 64 50 65
REMARK SMILES IDX 51 66 62 68 80 69 53 70 40 71 41 72 46 73 42 74 43 75 45 76
REMARK SMILES IDX 47 77 44 78 66 79 67 80 72 81 68 82 69 83 71 84 73 85 70 86
REMARK SMILES IDX 54 87 55 88 60 89 56 90 57 91 59 92 61 93 58 94
REMARK H PARENT 8 18 5 29 78 56 52 67
REMARK Flexibility Score: inf
ROOT
ATOM      1  C   UNL     1      -6.786   1.961  -8.316  1.00  0.00     0.188 C 
ENDROOT
BRANCH   1   2
ATOM      2  O   UNL     1      -8.178   1.978  -8.040  1.00  0.00    -0.376 OA
BRANCH   2   3
ATOM      3  C   UNL     1      -8.849   3.220  -7.868  1.00  0.00     0.202 C 
BRANCH   3   4
ATOM      4  C   UNL     1      -8.302   4.256  -6.879  1.00  0.00     0.261 C 
BRANCH   4   5
ATOM      5  O   UNL     1      -6.932   4.612  -7.117  1.00  0.00    -0.460 OA
BRANCH   5   6
ATOM      6  C   UNL     1      -6.092   4.372  -6.083  1.00  0.00     0.338 C 
ATOM      7  O   UNL     1      -6.389   3.983  -4.965  1.00  0.00    -0.246 OA
BRANCH   6   8
ATOM      8  C   UNL     1      -4.690   4.451  -6.538  1.00  0.00     0.060 A 
ATOM      9  C   UNL     1      -1.952   4.583  -7.120  1.00  0.00    -0.039 A 
ATOM     10  C   UNL     1      -2.497   3.441  -6.508  1.00  0.00     0.005 A 
ATOM     11  C   UNL     1      -2.820   5.607  -7.537  1.00  0.00     0.005 A 
ATOM     12  C   UNL     1      -3.850   3.390  -6.191  1.00  0.00     0.016 A 
ATOM     13  C   UNL     1      -4.191   5.538  -7.258  1.00  0.00     0.016 A 
BRANCH   9  14
ATOM     14  C   UNL     1      -0.441   4.805  -7.130  1.00  0.00     0.074 C 
ATOM     15  N   UNL     1       1.468   4.988  -5.461  1.00  0.00    -0.329 N 
ATOM     16  C   UNL     1       2.204   3.941  -6.180  1.00  0.00     0.262 C 
ATOM     17  C   UNL     1       0.023   4.856  -5.655  1.00  0.00     0.270 C 
ATOM     18  H   UNL     1       1.748   5.881  -5.868  1.00  0.00     0.348 HD
ATOM     19  C   UNL     1       1.850   3.929  -7.672  1.00  0.00     0.062 C 
ATOM     20  C   UNL     1       0.348   3.735  -7.896  1.00  0.00     0.020 C 
BRANCH  15  21
ATOM     21  C   UNL     1       1.833   5.054  -4.027  1.00  0.00     0.317 C 
BRANCH  21  22
ATOM     22  C   UNL     1       1.583   3.805  -3.181  1.00  0.00     0.074 A 
ATOM     23  C   UNL     1       0.875   1.399  -1.802  1.00  0.00     0.182 A 
ATOM     24  C   UNL     1      -0.035   2.270  -2.259  1.00  0.00     0.133 A 
ATOM     25  C   UNL     1       2.318   1.793  -1.980  1.00  0.00     0.223 A 
ATOM     26  N   UNL     1       0.281   3.458  -2.859  1.00  0.00    -0.357 N 
ATOM     27  C   UNL     1       2.604   3.043  -2.745  1.00  0.00     0.083 A 
ATOM     28  O   UNL     1       3.253   1.128  -1.544  1.00  0.00    -0.286 OA
ATOM     29  H   UNL     1      -0.443   4.090  -3.070  1.00  0.00     0.166 HD
BRANCH  23  30
ATOM     30  O   UNL     1       0.484   0.184  -1.274  1.00  0.00    -0.491 OA
ATOM     31  C   UNL     1       0.988  -0.034   0.039  1.00  0.00     0.278 C 
ENDBRANCH  23  30
ENDBRANCH  21  22
ENDBRANCH  15  21
ENDBRANCH   9  14
ENDBRANCH   6   8
ENDBRANCH   5   6
ENDBRANCH   4   5
ENDBRANCH   3   4
ENDBRANCH   2   3
ENDBRANCH   1   2
BRANCH   1  32
ATOM     32  C   UNL     1      -6.201   2.833  -9.448  1.00  0.00     0.188 C 
BRANCH  32  33
ATOM     33  O   UNL     1      -7.090   3.676 -10.136  1.00  0.00    -0.376 OA
BRANCH  33  34
ATOM     34  C   UNL     1      -7.864   3.206 -11.225  1.00  0.00     0.202 C 
BRANCH  34  35
ATOM     35  C   UNL     1      -7.927   1.760 -11.752  1.00  0.00     0.261 C 
BRANCH  35  36
ATOM     36  O   UNL     1      -7.236   0.743 -11.031  1.00  0.00    -0.460 OA
BRANCH  36  37
ATOM     37  C   UNL     1      -6.072   0.326 -11.586  1.00  0.00     0.338 C 
ATOM     38  O   UNL     1      -5.527   0.757 -12.585  1.00  0.00    -0.246 OA
BRANCH  37  39
ATOM     39  C   UNL     1      -5.454  -0.663 -10.685  1.00  0.00     0.060 A 
ATOM     40  C   UNL     1      -4.229  -0.346 -10.086  1.00  0.00     0.016 A 
ATOM     41  C   UNL     1      -6.055  -1.905 -10.473  1.00  0.00     0.016 A 
ATOM     42  C   UNL     1      -3.582  -1.290  -9.290  1.00  0.00     0.010 A 
ATOM     43  C   UNL     1      -5.397  -2.856  -9.689  1.00  0.00     0.010 A 
ATOM     44  C   UNL     1      -4.144  -2.563  -9.120  1.00  0.00    -0.014 A 
BRANCH  44  45
ATOM     45  C   UNL     1      -3.345  -3.641  -8.492  1.00  0.00     0.031 A 
ATOM     46  C   UNL     1      -2.595  -4.594  -9.380  1.00  0.00     0.074 A 
ATOM     47  C   UNL     1      -3.273  -3.764  -7.155  1.00  0.00     0.049 A 
ATOM     48  N   UNL     1      -1.865  -5.630  -9.059  1.00  0.00    -0.248 NA
ATOM     49  C   UNL     1      -2.683  -4.343 -10.828  1.00  0.00     0.031 C 
ATOM     50  C   UNL     1      -3.925  -2.885  -6.187  1.00  0.00     0.029 A 
ATOM     51  N   UNL     1      -2.620  -4.692  -6.384  1.00  0.00    -0.354 N 
ATOM     52  C   UNL     1      -1.409  -6.156 -10.261  1.00  0.00     0.074 A 
ATOM     53  C   UNL     1      -1.967  -5.343 -11.319  1.00  0.00     0.031 C 
ATOM     54  C   UNL     1      -3.648  -3.324  -4.947  1.00  0.00     0.029 A 
ATOM     55  C   UNL     1      -2.826  -4.529  -5.036  1.00  0.00     0.049 A 
ATOM     56  H   UNL     1      -2.058  -5.407  -6.761  1.00  0.00     0.167 HD
ATOM     57  C   UNL     1      -0.590  -7.215 -10.464  1.00  0.00     0.037 A 
ATOM     58  C   UNL     1      -2.413  -5.282  -3.998  1.00  0.00     0.037 A 
ATOM     59  C   UNL     1      -0.041  -8.029  -9.413  1.00  0.00     0.049 A 
ATOM     60  C   UNL     1      -1.565  -6.501  -4.255  1.00  0.00     0.074 A 
ATOM     61  C   UNL     1       0.810  -9.115  -9.519  1.00  0.00     0.029 A 
ATOM     62  N   UNL     1      -0.296  -7.850  -8.062  1.00  0.00    -0.354 N 
ATOM     63  N   UNL     1      -1.117  -6.974  -5.392  1.00  0.00    -0.248 NA
ATOM     64  C   UNL     1      -1.166  -7.290  -3.080  1.00  0.00     0.031 C 
ATOM     65  C   UNL     1       1.031  -9.624  -8.235  1.00  0.00     0.029 A 
ATOM     66  C   UNL     1       0.360  -8.822  -7.325  1.00  0.00     0.049 A 
ATOM     67  H   UNL     1      -0.860  -7.138  -7.683  1.00  0.00     0.167 HD
ATOM     68  C   UNL     1      -0.358  -8.093  -5.068  1.00  0.00     0.074 A 
ATOM     69  C   UNL     1      -0.401  -8.224  -3.627  1.00  0.00     0.031 C 
ATOM     70  C   UNL     1       0.315  -8.936  -5.890  1.00  0.00     0.037 A 
BRANCH  57  71
ATOM     71  C   UNL     1      -0.263  -7.566 -11.885  1.00  0.00     0.057 A 
ATOM     72  C   UNL     1       0.592  -6.776 -12.664  1.00  0.00     0.134 A 
ATOM     73  C   UNL     1      -0.790  -8.723 -12.473  1.00  0.00     0.134 A 
ATOM     74  F   UNL     1       1.117  -5.646 -12.165  1.00  0.00    -0.206 F 
ATOM     75  C   UNL     1       0.892  -7.111 -13.985  1.00  0.00     0.040 A 
ATOM     76  C   UNL     1      -0.477  -9.082 -13.785  1.00  0.00     0.040 A 
ATOM     77  F   UNL     1      -1.613  -9.524 -11.781  1.00  0.00    -0.206 F 
ATOM     78  C   UNL     1       0.362  -8.271 -14.547  1.00  0.00     0.006 A 
ENDBRANCH  57  71
BRANCH  58  79
ATOM     79  C   UNL     1      -2.803  -4.917  -2.613  1.00  0.00     0.057 A 
ATOM     80  C   UNL     1      -1.857  -4.457  -1.690  1.00  0.00     0.134 A 
ATOM     81  C   UNL     1      -4.124  -5.050  -2.170  1.00  0.00     0.134 A 
ATOM     82  F   UNL     1      -0.570  -4.338  -2.046  1.00  0.00    -0.206 F 
ATOM     83  C   UNL     1      -2.207  -4.157  -0.372  1.00  0.00     0.040 A 
ATOM     84  C   UNL     1      -4.493  -4.731  -0.862  1.00  0.00     0.040 A 
ATOM     85  F   UNL     1      -5.078  -5.489  -3.005  1.00  0.00    -0.206 F 
ATOM     86  C   UNL     1      -3.530  -4.291   0.044  1.00  0.00     0.006 A 
ENDBRANCH  58  79
BRANCH  70  87
ATOM     87  C   UNL     1       1.093 -10.049  -5.251  1.00  0.00     0.057 A 
ATOM     88  C   UNL     1       0.464 -11.162  -4.679  1.00  0.00     0.134 A 
ATOM     89  C   UNL     1       2.494 -10.027  -5.247  1.00  0.00     0.134 A 
ATOM     90  F   UNL     1      -0.875 -11.240  -4.641  1.00  0.00    -0.206 F 
ATOM     91  C   UNL     1       1.199 -12.202  -4.107  1.00  0.00     0.040 A 
ATOM     92  C   UNL     1       3.240 -11.073  -4.702  1.00  0.00     0.040 A 
ATOM     93  F   UNL     1       3.161  -8.996  -5.788  1.00  0.00    -0.206 F 
ATOM     94  C   UNL     1       2.592 -12.162  -4.124  1.00  0.00     0.006 A 
ENDBRANCH  70  87
ENDBRANCH  44  45
ENDBRANCH  37  39
ENDBRANCH  36  37
ENDBRANCH  35  36
ENDBRANCH  34  35
ENDBRANCH  33  34
ENDBRANCH  32  33
ENDBRANCH   1  32
TORSDOF 21
