REMARK SMILES COC[C@@H](C)CC(=O)N1CCSC[C@@H]1CC(=O)OCCOCCOCCOC(=O)c1ccc(-c2c3nc(c(-c4c(F)cccc4F)c4ccc([nH]4)c(-c4c(F)cccc4F)c4nc(c(-c5c(F)cccc5F)c5ccc2[nH]5)C=C4)C=C3)cc1
REMARK SMILES IDX 20 1 19 2 18 3 16 4 17 5 15 6 14 7 9 8 10 9 11 10 13 11
REMARK SMILES IDX 12 12 7 13 8 14 6 15 4 16 5 17 3 18 2 19 1 20 21 21 22 22
REMARK SMILES IDX 23 23 24 24 25 25 26 26 27 27 28 28 29 29 30 30 31 31 83 32
REMARK SMILES IDX 32 33 82 34 33 35 34 36 35 37 76 38 36 39 81 40 75 41 77 42
REMARK SMILES IDX 37 43 80 44 74 45 73 46 38 48 64 49 47 50 63 51 48 52 51 53
REMARK SMILES IDX 62 54 78 55 49 56 50 57 61 59 79 60 52 61 39 62 40 63 45 64
REMARK SMILES IDX 41 65 42 66 44 67 46 68 43 69 65 70 66 71 71 72 67 73 68 74
REMARK SMILES IDX 70 75 72 76 69 77 53 78 54 79 59 80 55 81 56 82 58 83 60 84
REMARK SMILES IDX 57 85
REMARK H PARENT 77 47 51 58
REMARK Flexibility Score: inf
ROOT
ATOM      1  C   UNL     1       5.424  -3.557   0.574  1.00  0.00     0.202 C 
ENDROOT
BRANCH   1   2
ATOM      2  C   UNL     1       5.189  -4.853   1.358  1.00  0.00     0.261 C 
BRANCH   2   3
ATOM      3  O   UNL     1       3.856  -4.939   1.900  1.00  0.00    -0.463 OA
BRANCH   3   4
ATOM      4  C   UNL     1       3.745  -5.744   2.990  1.00  0.00     0.307 C 
ATOM      5  O   UNL     1       4.659  -6.433   3.430  1.00  0.00    -0.252 OA
BRANCH   4   6
ATOM      6  C   UNL     1       2.429  -5.594   3.720  1.00  0.00     0.148 C 
BRANCH   6   7
ATOM      7  C   UNL     1       1.159  -6.055   2.969  1.00  0.00     0.106 C 
ATOM      8  N   UNL     1       0.469  -4.978   2.210  1.00  0.00    -0.337 N 
ATOM      9  C   UNL     1      -0.117  -3.902   3.003  1.00  0.00     0.130 C 
ATOM     10  C   UNL     1      -1.194  -4.358   3.992  1.00  0.00     0.091 C 
ATOM     11  C   UNL     1       0.181  -6.736   3.963  1.00  0.00     0.095 C 
ATOM     12  S   UNL     1      -0.518  -5.561   5.183  1.00  0.00    -0.158 SA
BRANCH   8  13
ATOM     13  C   UNL     1      -0.296  -5.345   1.098  1.00  0.00     0.223 C 
ATOM     14  O   UNL     1      -1.210  -6.161   1.168  1.00  0.00    -0.275 OA
BRANCH  13  15
ATOM     15  C   UNL     1       0.164  -4.736  -0.212  1.00  0.00     0.106 C 
BRANCH  15  16
ATOM     16  C   UNL     1      -0.914  -3.974  -1.010  1.00  0.00     0.021 C 
ATOM     17  C   UNL     1      -0.530  -3.984  -2.498  1.00  0.00     0.010 C 
BRANCH  16  18
ATOM     18  C   UNL     1      -1.069  -2.522  -0.526  1.00  0.00     0.163 C 
BRANCH  18  19
ATOM     19  O   UNL     1      -1.868  -1.778  -1.454  1.00  0.00    -0.384 OA
ATOM     20  C   UNL     1      -1.749  -0.373  -1.262  1.00  0.00     0.194 C 
ENDBRANCH  18  19
ENDBRANCH  16  18
ENDBRANCH  15  16
ENDBRANCH  13  15
ENDBRANCH   8  13
ENDBRANCH   6   7
ENDBRANCH   4   6
ENDBRANCH   3   4
ENDBRANCH   2   3
ENDBRANCH   1   2
BRANCH   1  21
ATOM     21  O   UNL     1       5.452  -2.313   1.266  1.00  0.00    -0.376 OA
BRANCH  21  22
ATOM     22  C   UNL     1       4.596  -2.102   2.369  1.00  0.00     0.188 C 
BRANCH  22  23
ATOM     23  C   UNL     1       3.079  -2.150   2.179  1.00  0.00     0.188 C 
BRANCH  23  24
ATOM     24  O   UNL     1       2.488  -2.233   0.899  1.00  0.00    -0.376 OA
BRANCH  24  25
ATOM     25  C   UNL     1       2.831  -1.272  -0.081  1.00  0.00     0.202 C 
BRANCH  25  26
ATOM     26  C   UNL     1       2.522   0.209   0.179  1.00  0.00     0.261 C 
BRANCH  26  27
ATOM     27  O   UNL     1       2.118   0.556   1.506  1.00  0.00    -0.460 OA
BRANCH  27  28
ATOM     28  C   UNL     1       0.810   0.338   1.761  1.00  0.00     0.338 C 
ATOM     29  O   UNL     1      -0.029  -0.137   1.025  1.00  0.00    -0.246 OA
BRANCH  28  30
ATOM     30  C   UNL     1       0.502   0.677   3.146  1.00  0.00     0.060 A 
ATOM     31  C   UNL     1       0.347  -0.370   4.055  1.00  0.00     0.016 A 
ATOM     32  C   UNL     1       0.258   1.997   3.510  1.00  0.00     0.016 A 
ATOM     33  C   UNL     1      -0.043  -0.106   5.356  1.00  0.00     0.010 A 
ATOM     34  C   UNL     1      -0.113   2.268   4.824  1.00  0.00     0.010 A 
ATOM     35  C   UNL     1      -0.256   1.219   5.748  1.00  0.00    -0.014 A 
BRANCH  35  36
ATOM     36  C   UNL     1      -0.572   1.512   7.156  1.00  0.00     0.031 A 
ATOM     37  C   UNL     1      -1.942   1.964   7.538  1.00  0.00     0.074 A 
ATOM     38  C   UNL     1       0.412   1.385   8.063  1.00  0.00     0.049 A 
ATOM     39  N   UNL     1      -2.364   2.428   8.682  1.00  0.00    -0.248 NA
ATOM     40  C   UNL     1      -2.971   1.900   6.489  1.00  0.00     0.031 C 
ATOM     41  C   UNL     1       1.772   0.923   7.768  1.00  0.00     0.029 A 
ATOM     42  N   UNL     1       0.428   1.636   9.406  1.00  0.00    -0.354 N 
ATOM     43  C   UNL     1      -3.696   2.764   8.481  1.00  0.00     0.074 A 
ATOM     44  C   UNL     1      -4.016   2.433   7.109  1.00  0.00     0.031 C 
ATOM     45  C   UNL     1       2.488   0.917   8.900  1.00  0.00     0.029 A 
ATOM     46  C   UNL     1       1.658   1.434   9.980  1.00  0.00     0.049 A 
ATOM     47  H   UNL     1      -0.364   1.933   9.911  1.00  0.00     0.167 HD
ATOM     48  C   UNL     1      -4.554   3.320   9.368  1.00  0.00     0.037 A 
ATOM     49  C   UNL     1       2.076   1.680  11.234  1.00  0.00     0.037 A 
ATOM     50  C   UNL     1      -4.203   3.617  10.733  1.00  0.00     0.049 A 
ATOM     51  C   UNL     1       1.094   2.256  12.207  1.00  0.00     0.074 A 
ATOM     52  C   UNL     1      -4.983   4.179  11.728  1.00  0.00     0.029 A 
ATOM     53  N   UNL     1      -2.958   3.363  11.296  1.00  0.00    -0.354 N 
ATOM     54  N   UNL     1      -0.152   2.612  12.001  1.00  0.00    -0.248 NA
ATOM     55  C   UNL     1       1.569   2.469  13.577  1.00  0.00     0.031 C 
ATOM     56  C   UNL     1      -4.200   4.288  12.885  1.00  0.00     0.029 A 
ATOM     57  C   UNL     1      -2.945   3.760  12.622  1.00  0.00     0.049 A 
ATOM     58  H   UNL     1      -2.196   2.959  10.821  1.00  0.00     0.167 HD
ATOM     59  C   UNL     1      -0.614   3.098  13.213  1.00  0.00     0.074 A 
ATOM     60  C   UNL     1       0.482   2.960  14.157  1.00  0.00     0.031 C 
ATOM     61  C   UNL     1      -1.827   3.620  13.522  1.00  0.00     0.037 A 
BRANCH  48  62
ATOM     62  C   UNL     1      -5.918   3.690   8.865  1.00  0.00     0.057 A 
ATOM     63  C   UNL     1      -6.896   2.731   8.572  1.00  0.00     0.134 A 
ATOM     64  C   UNL     1      -6.253   5.035   8.659  1.00  0.00     0.134 A 
ATOM     65  F   UNL     1      -6.633   1.425   8.724  1.00  0.00    -0.206 F 
ATOM     66  C   UNL     1      -8.149   3.094   8.071  1.00  0.00     0.040 A 
ATOM     67  C   UNL     1      -7.509   5.412   8.180  1.00  0.00     0.040 A 
ATOM     68  F   UNL     1      -5.362   6.005   8.914  1.00  0.00    -0.206 F 
ATOM     69  C   UNL     1      -8.459   4.439   7.878  1.00  0.00     0.006 A 
ENDBRANCH  48  62
BRANCH  49  70
ATOM     70  C   UNL     1       3.483   1.393  11.599  1.00  0.00     0.057 A 
ATOM     71  C   UNL     1       3.813   0.299  12.404  1.00  0.00     0.134 A 
ATOM     72  C   UNL     1       4.538   2.155  11.080  1.00  0.00     0.134 A 
ATOM     73  F   UNL     1       2.846  -0.462  12.937  1.00  0.00    -0.206 F 
ATOM     74  C   UNL     1       5.141  -0.032  12.677  1.00  0.00     0.040 A 
ATOM     75  C   UNL     1       5.871   1.823  11.325  1.00  0.00     0.040 A 
ATOM     76  F   UNL     1       4.287   3.207  10.287  1.00  0.00    -0.206 F 
ATOM     77  C   UNL     1       6.175   0.725  12.127  1.00  0.00     0.006 A 
ENDBRANCH  49  70
BRANCH  61  78
ATOM     78  C   UNL     1      -2.009   4.069  14.938  1.00  0.00     0.057 A 
ATOM     79  C   UNL     1      -1.433   5.255  15.409  1.00  0.00     0.134 A 
ATOM     80  C   UNL     1      -2.762   3.305  15.836  1.00  0.00     0.134 A 
ATOM     81  F   UNL     1      -0.687   6.019  14.597  1.00  0.00    -0.206 F 
ATOM     82  C   UNL     1      -1.578   5.652  16.738  1.00  0.00     0.040 A 
ATOM     83  C   UNL     1      -2.930   3.703  17.162  1.00  0.00     0.040 A 
ATOM     84  F   UNL     1      -3.340   2.161  15.440  1.00  0.00    -0.206 F 
ATOM     85  C   UNL     1      -2.330   4.876  17.617  1.00  0.00     0.006 A 
ENDBRANCH  61  78
ENDBRANCH  35  36
ENDBRANCH  28  30
ENDBRANCH  27  28
ENDBRANCH  26  27
ENDBRANCH  25  26
ENDBRANCH  24  25
ENDBRANCH  23  24
ENDBRANCH  22  23
ENDBRANCH  21  22
ENDBRANCH   1  21
TORSDOF 23
