REMARK SMILES Cc1ccc2nc(CC3(CC(=O)OCCOCCOCCOC(=O)c4ccc(-c5c6nc(c(-c7c(F)cccc7F)c7ccc([nH]7)c(-c7c(F)cccc7F)c7nc(c(-c8c(F)cccc8F)c8ccc5[nH]8)C=C7)C=C6)cc4)CCCCC3)sc2c1
REMARK SMILES IDX 17 1 16 2 15 3 14 4 13 5 11 6 12 7 10 8 9 9 79 10 83 11
REMARK SMILES IDX 80 12 82 13 81 14 8 15 7 16 1 17 2 18 3 19 86 20 4 21 85 22
REMARK SMILES IDX 5 23 84 24 6 25 18 26 19 27 20 28 21 29 22 30 23 31 24 32
REMARK SMILES IDX 25 33 26 34 78 35 27 36 77 37 28 38 29 39 30 40 71 41 31 42
REMARK SMILES IDX 76 43 70 44 72 45 32 46 75 47 69 48 68 49 33 51 59 52 42 53
REMARK SMILES IDX 58 54 43 55 46 56 57 57 73 58 44 59 45 60 56 62 74 63 47 64
REMARK SMILES IDX 34 65 35 66 40 67 36 68 37 69 39 70 41 71 38 72 60 73 61 74
REMARK SMILES IDX 66 75 62 76 63 77 65 78 67 79 64 80 48 81 49 82 54 83 50 84
REMARK SMILES IDX 51 85 53 86 55 87 52 88
REMARK H PARENT 72 50 46 61
REMARK Flexibility Score: inf
ROOT
ATOM      1  C   UNL     1      -6.670  -2.041   2.338  1.00  0.00     0.188 C 
ENDROOT
BRANCH   1   2
ATOM      2  O   UNL     1      -7.395  -3.249   2.540  1.00  0.00    -0.376 OA
BRANCH   2   3
ATOM      3  C   UNL     1      -6.696  -4.455   2.244  1.00  0.00     0.202 C 
BRANCH   3   4
ATOM      4  C   UNL     1      -6.441  -4.741   0.758  1.00  0.00     0.261 C 
BRANCH   4   5
ATOM      5  O   UNL     1      -5.824  -3.654   0.036  1.00  0.00    -0.463 OA
BRANCH   5   6
ATOM      6  C   UNL     1      -6.550  -3.140  -0.985  1.00  0.00     0.306 C 
ATOM      7  O   UNL     1      -7.679  -3.515  -1.290  1.00  0.00    -0.252 OA
BRANCH   6   8
ATOM      8  C   UNL     1      -5.918  -1.952  -1.693  1.00  0.00     0.130 C 
BRANCH   8   9
ATOM      9  C   UNL     1      -4.370  -1.741  -1.816  1.00  0.00    -0.013 C 
ATOM     10  C   UNL     1      -4.109  -0.883  -3.098  1.00  0.00     0.008 C 
ATOM     11  C   UNL     1      -3.587  -3.067  -1.966  1.00  0.00     0.008 C 
ATOM     12  C   UNL     1      -4.358  -1.626  -4.415  1.00  0.00     0.001 C 
ATOM     13  C   UNL     1      -3.938  -3.826  -3.240  1.00  0.00     0.001 C 
ATOM     14  C   UNL     1      -3.643  -2.971  -4.468  1.00  0.00     0.000 C 
BRANCH   9  15
ATOM     15  C   UNL     1      -3.901  -0.920  -0.572  1.00  0.00     0.075 C 
BRANCH  15  16
ATOM     16  C   UNL     1      -2.418  -0.654  -0.475  1.00  0.00     0.094 A 
ATOM     17  C   UNL     1       3.524   1.032   0.030  1.00  0.00     0.044 C 
ATOM     18  C   UNL     1       2.208   0.311  -0.045  1.00  0.00    -0.050 A 
ATOM     19  C   UNL     1       2.156  -1.078   0.087  1.00  0.00     0.006 A 
ATOM     20  C   UNL     1       1.024   1.043  -0.239  1.00  0.00     0.024 A 
ATOM     21  C   UNL     1       0.934  -1.756   0.034  1.00  0.00     0.030 A 
ATOM     22  C   UNL     1      -0.196   0.345  -0.320  1.00  0.00     0.055 A 
ATOM     23  C   UNL     1      -0.259  -1.039  -0.169  1.00  0.00     0.082 A 
ATOM     24  S   UNL     1      -1.785   0.941  -0.617  1.00  0.00    -0.119 S 
ATOM     25  N   UNL     1      -1.526  -1.589  -0.236  1.00  0.00    -0.241 NA
ENDBRANCH  15  16
ENDBRANCH   9  15
ENDBRANCH   8   9
ENDBRANCH   6   8
ENDBRANCH   5   6
ENDBRANCH   4   5
ENDBRANCH   3   4
ENDBRANCH   2   3
ENDBRANCH   1   2
BRANCH   1  26
ATOM     26  C   UNL     1      -5.311  -1.944   3.037  1.00  0.00     0.188 C 
BRANCH  26  27
ATOM     27  O   UNL     1      -4.351  -2.862   2.535  1.00  0.00    -0.376 OA
BRANCH  27  28
ATOM     28  C   UNL     1      -2.996  -2.746   2.979  1.00  0.00     0.202 C 
BRANCH  28  29
ATOM     29  C   UNL     1      -2.666  -2.034   4.305  1.00  0.00     0.261 C 
BRANCH  29  30
ATOM     30  O   UNL     1      -3.273  -0.739   4.470  1.00  0.00    -0.460 OA
BRANCH  30  31
ATOM     31  C   UNL     1      -2.868   0.238   3.626  1.00  0.00     0.338 C 
ATOM     32  O   UNL     1      -1.907   0.207   2.880  1.00  0.00    -0.246 OA
BRANCH  31  33
ATOM     33  C   UNL     1      -3.937   1.270   3.574  1.00  0.00     0.060 A 
ATOM     34  C   UNL     1      -4.361   1.718   2.316  1.00  0.00     0.016 A 
ATOM     35  C   UNL     1      -4.576   1.735   4.726  1.00  0.00     0.016 A 
ATOM     36  C   UNL     1      -5.382   2.662   2.200  1.00  0.00     0.010 A 
ATOM     37  C   UNL     1      -5.591   2.693   4.613  1.00  0.00     0.010 A 
ATOM     38  C   UNL     1      -5.974   3.189   3.353  1.00  0.00    -0.014 A 
BRANCH  38  39
ATOM     39  C   UNL     1      -6.819   4.407   3.256  1.00  0.00     0.031 A 
ATOM     40  C   UNL     1      -6.180   5.733   3.570  1.00  0.00     0.074 A 
ATOM     41  C   UNL     1      -8.107   4.363   2.870  1.00  0.00     0.049 A 
ATOM     42  N   UNL     1      -6.718   6.923   3.646  1.00  0.00    -0.248 NA
ATOM     43  C   UNL     1      -4.732   5.709   3.836  1.00  0.00     0.031 C 
ATOM     44  C   UNL     1      -8.835   3.162   2.469  1.00  0.00     0.029 A 
ATOM     45  N   UNL     1      -9.034   5.372   2.764  1.00  0.00    -0.354 N 
ATOM     46  C   UNL     1      -5.682   7.782   3.987  1.00  0.00     0.074 A 
ATOM     47  C   UNL     1      -4.489   6.977   4.126  1.00  0.00     0.031 C 
ATOM     48  C   UNL     1     -10.104   3.501   2.176  1.00  0.00     0.029 A 
ATOM     49  C   UNL     1     -10.287   4.934   2.408  1.00  0.00     0.049 A 
ATOM     50  H   UNL     1      -8.821   6.319   2.927  1.00  0.00     0.167 HD
ATOM     51  C   UNL     1      -5.717   9.124   4.165  1.00  0.00     0.037 A 
ATOM     52  C   UNL     1     -11.452   5.607   2.313  1.00  0.00     0.037 A 
ATOM     53  C   UNL     1      -6.898   9.931   4.021  1.00  0.00     0.049 A 
ATOM     54  C   UNL     1     -11.486   7.088   2.602  1.00  0.00     0.074 A 
ATOM     55  C   UNL     1      -7.027  11.301   4.173  1.00  0.00     0.029 A 
ATOM     56  N   UNL     1      -8.154   9.443   3.698  1.00  0.00    -0.354 N 
ATOM     57  N   UNL     1     -10.503   7.894   2.924  1.00  0.00    -0.248 NA
ATOM     58  C   UNL     1     -12.796   7.752   2.517  1.00  0.00     0.031 C 
ATOM     59  C   UNL     1      -8.373  11.634   3.995  1.00  0.00     0.029 A 
ATOM     60  C   UNL     1      -9.071  10.481   3.673  1.00  0.00     0.049 A 
ATOM     61  H   UNL     1      -8.364   8.499   3.514  1.00  0.00     0.167 HD
ATOM     62  C   UNL     1     -11.068   9.159   3.047  1.00  0.00     0.074 A 
ATOM     63  C   UNL     1     -12.479   9.017   2.756  1.00  0.00     0.031 C 
ATOM     64  C   UNL     1     -10.471  10.333   3.369  1.00  0.00     0.037 A 
BRANCH  51  65
ATOM     65  C   UNL     1      -4.440   9.795   4.579  1.00  0.00     0.057 A 
ATOM     66  C   UNL     1      -3.360   9.946   3.700  1.00  0.00     0.134 A 
ATOM     67  C   UNL     1      -4.300  10.313   5.872  1.00  0.00     0.134 A 
ATOM     68  F   UNL     1      -3.422   9.454   2.454  1.00  0.00    -0.206 F 
ATOM     69  C   UNL     1      -2.176  10.568   4.102  1.00  0.00     0.040 A 
ATOM     70  C   UNL     1      -3.133  10.962   6.276  1.00  0.00     0.040 A 
ATOM     71  F   UNL     1      -5.298  10.203   6.762  1.00  0.00    -0.206 F 
ATOM     72  C   UNL     1      -2.064  11.084   5.392  1.00  0.00     0.006 A 
ENDBRANCH  51  65
BRANCH  52  73
ATOM     73  C   UNL     1     -12.704   4.888   1.959  1.00  0.00     0.057 A 
ATOM     74  C   UNL     1     -13.368   5.131   0.750  1.00  0.00     0.134 A 
ATOM     75  C   UNL     1     -13.290   3.971   2.841  1.00  0.00     0.134 A 
ATOM     76  F   UNL     1     -12.875   6.021  -0.123  1.00  0.00    -0.206 F 
ATOM     77  C   UNL     1     -14.575   4.503   0.439  1.00  0.00     0.040 A 
ATOM     78  C   UNL     1     -14.482   3.315   2.531  1.00  0.00     0.040 A 
ATOM     79  F   UNL     1     -12.710   3.700   4.019  1.00  0.00    -0.206 F 
ATOM     80  C   UNL     1     -15.133   3.587   1.329  1.00  0.00     0.006 A 
ENDBRANCH  52  73
BRANCH  64  81
ATOM     81  C   UNL     1     -11.324  11.570   3.380  1.00  0.00     0.057 A 
ATOM     82  C   UNL     1     -12.277  11.809   4.377  1.00  0.00     0.134 A 
ATOM     83  C   UNL     1     -11.148  12.562   2.405  1.00  0.00     0.134 A 
ATOM     84  F   UNL     1     -12.503  10.898   5.335  1.00  0.00    -0.206 F 
ATOM     85  C   UNL     1     -13.040  12.979   4.392  1.00  0.00     0.040 A 
ATOM     86  C   UNL     1     -11.884  13.748   2.425  1.00  0.00     0.040 A 
ATOM     87  F   UNL     1     -10.243  12.404   1.427  1.00  0.00    -0.206 F 
ATOM     88  C   UNL     1     -12.839  13.956   3.418  1.00  0.00     0.006 A 
ENDBRANCH  64  81
ENDBRANCH  38  39
ENDBRANCH  31  33
ENDBRANCH  30  31
ENDBRANCH  29  30
ENDBRANCH  28  29
ENDBRANCH  27  28
ENDBRANCH  26  27
ENDBRANCH   1  26
TORSDOF 20
