REMARK SMILES Cc1cc(F)cc(N[C@@](C)(C(=O)OCCOCCOCCOC(=O)c2ccc(-c3c4nc(c(-c5c(F)cccc5F)c5ccc([nH]5)c(-c5c(F)cccc5F)c5nc(c(-c6c(F)cccc6F)c6ccc3[nH]6)C=C5)C=C4)cc2)c2ccc(O)cc2)c1
REMARK SMILES IDX 17 1 16 2 15 3 14 4 13 5 11 6 12 7 9 8 10 9 8 10 7 12 1 13
REMARK SMILES IDX 2 14 3 15 86 16 4 17 5 18 6 19 79 20 80 21 85 22 81 23 84 24
REMARK SMILES IDX 82 25 83 26 18 28 19 29 20 30 21 31 22 32 23 33 24 34 25 35
REMARK SMILES IDX 26 36 78 37 27 38 77 39 28 40 29 41 30 42 71 43 31 44 76 45
REMARK SMILES IDX 70 46 72 47 32 48 75 49 69 50 68 51 33 53 59 54 42 55 58 56
REMARK SMILES IDX 43 57 46 58 57 59 73 60 44 61 45 62 56 64 74 65 47 66 34 67
REMARK SMILES IDX 35 68 40 69 36 70 37 71 39 72 41 73 38 74 60 75 61 76 66 77
REMARK SMILES IDX 62 78 63 79 65 80 67 81 64 82 48 83 49 84 54 85 50 86 51 87
REMARK SMILES IDX 53 88 55 89 52 90
REMARK H PARENT 8 11 83 27 72 52 46 63
REMARK Flexibility Score: inf
ROOT
ATOM      1  C   UNL     1      -0.842  -4.192   3.460  1.00  0.00     0.188 C 
ENDROOT
BRANCH   1   2
ATOM      2  O   UNL     1      -1.177  -5.526   3.847  1.00  0.00    -0.376 OA
BRANCH   2   3
ATOM      3  C   UNL     1      -0.365  -6.599   3.394  1.00  0.00     0.202 C 
BRANCH   3   4
ATOM      4  C   UNL     1      -0.448  -6.909   1.898  1.00  0.00     0.261 C 
BRANCH   4   5
ATOM      5  O   UNL     1      -0.331  -5.740   1.063  1.00  0.00    -0.461 OA
BRANCH   5   6
ATOM      6  C   UNL     1      -1.284  -5.599   0.097  1.00  0.00     0.336 C 
ATOM      7  O   UNL     1      -2.110  -6.471  -0.160  1.00  0.00    -0.249 OA
BRANCH   6   8
ATOM      8  C   UNL     1      -1.208  -4.223  -0.675  1.00  0.00     0.158 C 
ATOM      9  C   UNL     1      -0.860  -4.682  -2.113  1.00  0.00     0.053 C 
BRANCH   8  10
ATOM     10  N   UNL     1      -0.053  -3.372  -0.210  1.00  0.00    -0.366 N 
ATOM     11  H   UNL     1       0.744  -3.893   0.039  1.00  0.00     0.162 HD
BRANCH  10  12
ATOM     12  C   UNL     1       0.115  -2.004  -0.064  1.00  0.00     0.038 A 
ATOM     13  C   UNL     1       2.994   0.553  -0.350  1.00  0.00     0.044 C 
ATOM     14  C   UNL     1       1.629  -0.042  -0.167  1.00  0.00    -0.046 A 
ATOM     15  C   UNL     1       0.564   0.811   0.113  1.00  0.00     0.042 A 
ATOM     16  C   UNL     1       1.389  -1.432  -0.277  1.00  0.00     0.029 A 
ATOM     17  C   UNL     1      -0.685   0.268   0.333  1.00  0.00     0.125 A 
ATOM     18  F   UNL     1      -1.706   1.079   0.639  1.00  0.00    -0.207 F 
ATOM     19  C   UNL     1      -0.894  -1.112   0.292  1.00  0.00     0.065 A 
ENDBRANCH  10  12
ENDBRANCH   8  10
BRANCH   8  20
ATOM     20  C   UNL     1      -2.569  -3.502  -0.640  1.00  0.00    -0.011 A 
ATOM     21  C   UNL     1      -2.877  -2.497  -1.583  1.00  0.00     0.010 A 
ATOM     22  C   UNL     1      -3.514  -3.743   0.382  1.00  0.00     0.010 A 
ATOM     23  C   UNL     1      -4.027  -1.713  -1.453  1.00  0.00     0.046 A 
ATOM     24  C   UNL     1      -4.678  -2.975   0.494  1.00  0.00     0.046 A 
ATOM     25  C   UNL     1      -4.906  -1.945  -0.406  1.00  0.00     0.115 A 
BRANCH  25  26
ATOM     26  O   UNL     1      -5.980  -1.117  -0.281  1.00  0.00    -0.508 OA
ATOM     27  H   UNL     1      -6.115  -0.427  -0.900  1.00  0.00     0.293 HD
ENDBRANCH  25  26
ENDBRANCH   8  20
ENDBRANCH   6   8
ENDBRANCH   5   6
ENDBRANCH   4   5
ENDBRANCH   3   4
ENDBRANCH   2   3
ENDBRANCH   1   2
BRANCH   1  28
ATOM     28  C   UNL     1       0.609  -3.824   3.103  1.00  0.00     0.188 C 
BRANCH  28  29
ATOM     29  O   UNL     1       1.564  -4.539   3.872  1.00  0.00    -0.376 OA
BRANCH  29  30
ATOM     30  C   UNL     1       2.538  -3.733   4.513  1.00  0.00     0.202 C 
BRANCH  30  31
ATOM     31  C   UNL     1       2.026  -3.238   5.867  1.00  0.00     0.261 C 
BRANCH  31  32
ATOM     32  O   UNL     1       0.792  -2.498   5.796  1.00  0.00    -0.460 OA
BRANCH  32  33
ATOM     33  C   UNL     1       0.877  -1.240   5.309  1.00  0.00     0.338 C 
ATOM     34  O   UNL     1       1.879  -0.665   4.931  1.00  0.00    -0.246 OA
BRANCH  33  35
ATOM     35  C   UNL     1      -0.496  -0.716   5.153  1.00  0.00     0.060 A 
ATOM     36  C   UNL     1      -0.970  -0.458   3.865  1.00  0.00     0.016 A 
ATOM     37  C   UNL     1      -1.299  -0.447   6.262  1.00  0.00     0.016 A 
ATOM     38  C   UNL     1      -2.241   0.089   3.678  1.00  0.00     0.010 A 
ATOM     39  C   UNL     1      -2.563   0.128   6.075  1.00  0.00     0.010 A 
ATOM     40  C   UNL     1      -3.030   0.425   4.782  1.00  0.00    -0.014 A 
BRANCH  40  41
ATOM     41  C   UNL     1      -4.249   1.253   4.593  1.00  0.00     0.031 A 
ATOM     42  C   UNL     1      -4.157   2.734   4.847  1.00  0.00     0.074 A 
ATOM     43  C   UNL     1      -5.413   0.719   4.181  1.00  0.00     0.049 A 
ATOM     44  N   UNL     1      -5.105   3.634   4.890  1.00  0.00    -0.248 NA
ATOM     45  C   UNL     1      -2.807   3.266   5.095  1.00  0.00     0.031 C 
ATOM     46  C   UNL     1      -5.628  -0.683   3.830  1.00  0.00     0.029 A 
ATOM     47  N   UNL     1      -6.645   1.302   4.006  1.00  0.00    -0.354 N 
ATOM     48  C   UNL     1      -4.472   4.832   5.201  1.00  0.00     0.074 A 
ATOM     49  C   UNL     1      -3.061   4.542   5.341  1.00  0.00     0.031 C 
ATOM     50  C   UNL     1      -6.921  -0.857   3.504  1.00  0.00     0.029 A 
ATOM     51  C   UNL     1      -7.632   0.413   3.659  1.00  0.00     0.049 A 
ATOM     52  H   UNL     1      -6.805   2.267   4.120  1.00  0.00     0.167 HD
ATOM     53  C   UNL     1      -5.017   6.061   5.363  1.00  0.00     0.037 A 
ATOM     54  C   UNL     1      -8.960   0.597   3.520  1.00  0.00     0.037 A 
ATOM     55  C   UNL     1      -6.417   6.355   5.205  1.00  0.00     0.049 A 
ATOM     56  C   UNL     1      -9.556   1.962   3.761  1.00  0.00     0.074 A 
ATOM     57  C   UNL     1      -7.064   7.571   5.344  1.00  0.00     0.029 A 
ATOM     58  N   UNL     1      -7.385   5.422   4.868  1.00  0.00    -0.354 N 
ATOM     59  N   UNL     1      -8.956   3.082   4.083  1.00  0.00    -0.248 NA
ATOM     60  C   UNL     1     -11.016   2.083   3.631  1.00  0.00     0.031 C 
ATOM     61  C   UNL     1      -8.431   7.364   5.135  1.00  0.00     0.029 A 
ATOM     62  C   UNL     1      -8.628   6.030   4.817  1.00  0.00     0.049 A 
ATOM     63  H   UNL     1      -7.214   4.469   4.691  1.00  0.00     0.167 HD
ATOM     64  C   UNL     1      -9.959   4.041   4.175  1.00  0.00     0.074 A 
ATOM     65  C   UNL     1     -11.205   3.375   3.858  1.00  0.00     0.031 C 
ATOM     66  C   UNL     1      -9.859   5.355   4.495  1.00  0.00     0.037 A 
BRANCH  53  67
ATOM     67  C   UNL     1      -4.099   7.170   5.782  1.00  0.00     0.057 A 
ATOM     68  C   UNL     1      -3.170   7.742   4.904  1.00  0.00     0.134 A 
ATOM     69  C   UNL     1      -4.160   7.684   7.084  1.00  0.00     0.134 A 
ATOM     70  F   UNL     1      -3.049   7.285   3.649  1.00  0.00    -0.206 F 
ATOM     71  C   UNL     1      -2.317   8.768   5.314  1.00  0.00     0.040 A 
ATOM     72  C   UNL     1      -3.330   8.726   7.498  1.00  0.00     0.040 A 
ATOM     73  F   UNL     1      -5.030   7.182   7.973  1.00  0.00    -0.206 F 
ATOM     74  C   UNL     1      -2.400   9.267   6.613  1.00  0.00     0.006 A 
ENDBRANCH  53  67
BRANCH  54  75
ATOM     75  C   UNL     1      -9.837  -0.549   3.166  1.00  0.00     0.057 A 
ATOM     76  C   UNL     1     -10.482  -0.613   1.925  1.00  0.00     0.134 A 
ATOM     77  C   UNL     1     -10.072  -1.594   4.068  1.00  0.00     0.134 A 
ATOM     78  F   UNL     1     -10.320   0.373   1.030  1.00  0.00    -0.206 F 
ATOM     79  C   UNL     1     -11.338  -1.666   1.599  1.00  0.00     0.040 A 
ATOM     80  C   UNL     1     -10.904  -2.667   3.745  1.00  0.00     0.040 A 
ATOM     81  F   UNL     1      -9.486  -1.591   5.274  1.00  0.00    -0.206 F 
ATOM     82  C   UNL     1     -11.546  -2.701   2.509  1.00  0.00     0.006 A 
ENDBRANCH  54  75
BRANCH  66  83
ATOM     83  C   UNL     1     -11.121   6.168   4.492  1.00  0.00     0.057 A 
ATOM     84  C   UNL     1     -12.084   6.043   5.501  1.00  0.00     0.134 A 
ATOM     85  C   UNL     1     -11.351   7.125   3.494  1.00  0.00     0.134 A 
ATOM     86  F   UNL     1     -11.930   5.138   6.479  1.00  0.00    -0.206 F 
ATOM     87  C   UNL     1     -13.239   6.828   5.508  1.00  0.00     0.040 A 
ATOM     88  C   UNL     1     -12.489   7.933   3.505  1.00  0.00     0.040 A 
ATOM     89  F   UNL     1     -10.463   7.304   2.505  1.00  0.00    -0.206 F 
ATOM     90  C   UNL     1     -13.440   7.781   4.511  1.00  0.00     0.006 A 
ENDBRANCH  66  83
ENDBRANCH  40  41
ENDBRANCH  33  35
ENDBRANCH  32  33
ENDBRANCH  31  32
ENDBRANCH  30  31
ENDBRANCH  29  30
ENDBRANCH  28  29
ENDBRANCH   1  28
TORSDOF 21
