REMARK SMILES O=C(OCCOCCOCCOC(=O)c1ccc(-c2c3nc(c(-c4c(F)cccc4F)c4ccc([nH]4)c(-c4c(F)cccc4F)c4nc(c(-c5c(F)cccc5F)c5ccc2[nH]5)C=C4)C=C3)cc1)C1=Cc2c(ccc(Cl)c2-c2ccccc2)O[C@H]1C(F)(F)F
REMARK SMILES IDX 8 1 7 2 6 3 5 4 4 5 3 6 2 7 1 8 69 9 70 10 85 11 71 12 84 13
REMARK SMILES IDX 72 14 77 15 73 16 75 17 74 18 76 19 86 20 87 21 88 22 89 23
REMARK SMILES IDX 78 24 79 25 83 26 80 27 82 28 81 29 9 30 10 31 11 32 12 33
REMARK SMILES IDX 13 34 14 35 15 36 16 37 68 38 17 39 67 40 18 41 19 42 20 43
REMARK SMILES IDX 61 44 21 45 66 46 60 47 62 48 22 49 65 50 59 51 58 52 23 54
REMARK SMILES IDX 49 55 32 56 48 57 33 58 36 59 47 60 63 61 34 62 35 63 46 65
REMARK SMILES IDX 64 66 37 67 24 68 25 69 30 70 26 71 27 72 29 73 31 74 28 75
REMARK SMILES IDX 50 76 51 77 56 78 52 79 53 80 55 81 57 82 54 83 38 84 39 85
REMARK SMILES IDX 44 86 40 87 41 88 43 89 45 90 42 91
REMARK H PARENT 62 53 36 64
REMARK Flexibility Score: inf
ROOT
ATOM      1  C   UNL     1       1.728  -0.081   2.414  1.00  0.00     0.188 C 
ENDROOT
BRANCH   1   2
ATOM      2  C   UNL     1       0.408  -0.863   1.733  1.00  0.00     0.188 C 
BRANCH   2   3
ATOM      3  O   UNL     1       0.551  -1.696   0.582  1.00  0.00    -0.376 OA
BRANCH   3   4
ATOM      4  C   UNL     1       1.296  -1.253  -0.539  1.00  0.00     0.202 C 
BRANCH   4   5
ATOM      5  C   UNL     1       1.274   0.223  -0.954  1.00  0.00     0.261 C 
BRANCH   5   6
ATOM      6  O   UNL     1       1.727   0.387  -2.325  1.00  0.00    -0.460 OA
BRANCH   6   7
ATOM      7  C   UNL     1       2.974   0.315  -2.839  1.00  0.00     0.338 C 
ATOM      8  O   UNL     1       3.139   0.446  -4.050  1.00  0.00    -0.246 OA
BRANCH   7   9
ATOM      9  C   UNL     1       4.171   0.145  -1.989  1.00  0.00     0.087 C 
ATOM     10  C   UNL     1       4.165  -0.171  -0.690  1.00  0.00     0.028 C 
ATOM     11  C   UNL     1       5.460  -0.147  -2.733  1.00  0.00     0.316 C 
ATOM     12  C   UNL     1       5.327   0.237   0.092  1.00  0.00     0.027 A 
ATOM     13  O   UNL     1       6.651   0.219  -1.974  1.00  0.00    -0.475 OA
ATOM     14  C   UNL     1       6.517   0.453  -0.627  1.00  0.00     0.128 A 
ATOM     15  C   UNL     1       5.214   0.466   1.490  1.00  0.00     0.011 A 
ATOM     16  C   UNL     1       7.632   0.948   0.026  1.00  0.00     0.049 A 
ATOM     17  C   UNL     1       6.361   1.014   2.107  1.00  0.00     0.049 A 
ATOM     18  C   UNL     1       7.544   1.251   1.382  1.00  0.00     0.025 A 
ATOM     19  Cl  UNL     1       6.443   1.409   3.792  1.00  0.00    -0.084 Cl
BRANCH  11  20
ATOM     20  C   UNL     1       5.498  -1.643  -3.136  1.00  0.00     0.430 C 
ATOM     21  F   UNL     1       5.732  -2.440  -2.062  1.00  0.00    -0.167 F 
ATOM     22  F   UNL     1       4.321  -2.062  -3.663  1.00  0.00    -0.167 F 
ATOM     23  F   UNL     1       6.458  -1.902  -4.051  1.00  0.00    -0.167 F 
ENDBRANCH  11  20
BRANCH  15  24
ATOM     24  C   UNL     1       3.968   0.110   2.257  1.00  0.00    -0.016 A 
ATOM     25  C   UNL     1       3.254   1.270   3.445  1.00  0.00     0.009 A 
ATOM     26  C   UNL     1       3.233  -1.555   2.134  1.00  0.00     0.009 A 
ATOM     27  C   UNL     1       1.924   0.785   4.563  1.00  0.00     0.001 A 
ATOM     28  C   UNL     1       1.890  -2.052   3.277  1.00  0.00     0.001 A 
ATOM     29  C   UNL     1       1.231  -0.867   4.472  1.00  0.00     0.000 A 
ENDBRANCH  15  24
ENDBRANCH   7   9
ENDBRANCH   6   7
ENDBRANCH   5   6
ENDBRANCH   4   5
ENDBRANCH   3   4
ENDBRANCH   2   3
ENDBRANCH   1   2
BRANCH   1  30
ATOM     30  O   UNL     1       3.023  -0.617   3.829  1.00  0.00    -0.376 OA
BRANCH  30  31
ATOM     31  C   UNL     1       4.211  -1.442   4.339  1.00  0.00     0.202 C 
BRANCH  31  32
ATOM     32  C   UNL     1       4.169  -2.978   4.613  1.00  0.00     0.261 C 
BRANCH  32  33
ATOM     33  O   UNL     1       4.202  -3.783   3.404  1.00  0.00    -0.460 OA
BRANCH  33  34
ATOM     34  C   UNL     1       3.416  -4.881   3.414  1.00  0.00     0.338 C 
ATOM     35  O   UNL     1       2.840  -5.368   4.386  1.00  0.00    -0.246 OA
BRANCH  34  36
ATOM     36  C   UNL     1       3.191  -5.395   2.049  1.00  0.00     0.060 A 
ATOM     37  C   UNL     1       2.040  -5.013   1.338  1.00  0.00     0.016 A 
ATOM     38  C   UNL     1       3.996  -6.422   1.561  1.00  0.00     0.016 A 
ATOM     39  C   UNL     1       1.660  -5.682   0.175  1.00  0.00     0.010 A 
ATOM     40  C   UNL     1       3.612  -7.099   0.399  1.00  0.00     0.010 A 
ATOM     41  C   UNL     1       2.418  -6.764  -0.269  1.00  0.00    -0.014 A 
BRANCH  41  42
ATOM     42  C   UNL     1       1.877  -7.698  -1.284  1.00  0.00     0.031 A 
ATOM     43  C   UNL     1       1.258  -8.979  -0.807  1.00  0.00     0.074 A 
ATOM     44  C   UNL     1       1.971  -7.442  -2.598  1.00  0.00     0.049 A 
ATOM     45  N   UNL     1       0.981 -10.069  -1.473  1.00  0.00    -0.248 NA
ATOM     46  C   UNL     1       0.916  -9.037   0.623  1.00  0.00     0.031 C 
ATOM     47  C   UNL     1       2.450  -6.196  -3.187  1.00  0.00     0.029 A 
ATOM     48  N   UNL     1       1.704  -8.252  -3.673  1.00  0.00    -0.354 N 
ATOM     49  C   UNL     1       0.478 -10.962  -0.535  1.00  0.00     0.074 A 
ATOM     50  C   UNL     1       0.478 -10.281   0.742  1.00  0.00     0.031 C 
ATOM     51  C   UNL     1       2.495  -6.342  -4.523  1.00  0.00     0.029 A 
ATOM     52  C   UNL     1       2.108  -7.710  -4.867  1.00  0.00     0.049 A 
ATOM     53  H   UNL     1       1.267  -9.131  -3.596  1.00  0.00     0.167 HD
ATOM     54  C   UNL     1       0.076 -12.241  -0.722  1.00  0.00     0.037 A 
ATOM     55  C   UNL     1       2.220  -8.277  -6.084  1.00  0.00     0.037 A 
ATOM     56  C   UNL     1       0.083 -12.905  -1.998  1.00  0.00     0.049 A 
ATOM     57  C   UNL     1       1.853  -9.726  -6.265  1.00  0.00     0.074 A 
ATOM     58  C   UNL     1      -0.301 -14.199  -2.302  1.00  0.00     0.029 A 
ATOM     59  N   UNL     1       0.504 -12.322  -3.185  1.00  0.00    -0.354 N 
ATOM     60  N   UNL     1       1.418 -10.588  -5.376  1.00  0.00    -0.248 NA
ATOM     61  C   UNL     1       2.003 -10.287  -7.616  1.00  0.00     0.031 C 
ATOM     62  C   UNL     1      -0.062 -14.415  -3.664  1.00  0.00     0.029 A 
ATOM     63  C   UNL     1       0.415 -13.238  -4.219  1.00  0.00     0.049 A 
ATOM     64  H   UNL     1       0.820 -11.395  -3.278  1.00  0.00     0.167 HD
ATOM     65  C   UNL     1       1.217 -11.780  -6.062  1.00  0.00     0.074 A 
ATOM     66  C   UNL     1       1.578 -11.532  -7.443  1.00  0.00     0.031 C 
ATOM     67  C   UNL     1       0.768 -12.970  -5.592  1.00  0.00     0.037 A 
BRANCH  54  68
ATOM     68  C   UNL     1      -0.326 -13.016   0.498  1.00  0.00     0.057 A 
ATOM     69  C   UNL     1      -1.504 -12.746   1.205  1.00  0.00     0.134 A 
ATOM     70  C   UNL     1       0.499 -14.038   0.986  1.00  0.00     0.134 A 
ATOM     71  F   UNL     1      -2.330 -11.767   0.803  1.00  0.00    -0.206 F 
ATOM     72  C   UNL     1      -1.828 -13.437   2.375  1.00  0.00     0.040 A 
ATOM     73  C   UNL     1       0.172 -14.756   2.136  1.00  0.00     0.040 A 
ATOM     74  F   UNL     1       1.641 -14.352   0.355  1.00  0.00    -0.206 F 
ATOM     75  C   UNL     1      -0.989 -14.448   2.841  1.00  0.00     0.006 A 
ENDBRANCH  54  68
BRANCH  55  76
ATOM     76  C   UNL     1       2.759  -7.479  -7.213  1.00  0.00     0.057 A 
ATOM     77  C   UNL     1       1.938  -7.065  -8.266  1.00  0.00     0.134 A 
ATOM     78  C   UNL     1       4.105  -7.092  -7.252  1.00  0.00     0.134 A 
ATOM     79  F   UNL     1       0.647  -7.427  -8.297  1.00  0.00    -0.206 F 
ATOM     80  C   UNL     1       2.434  -6.294  -9.319  1.00  0.00     0.040 A 
ATOM     81  C   UNL     1       4.609  -6.301  -8.285  1.00  0.00     0.040 A 
ATOM     82  F   UNL     1       4.945  -7.460  -6.273  1.00  0.00    -0.206 F 
ATOM     83  C   UNL     1       3.772  -5.902  -9.325  1.00  0.00     0.006 A 
ENDBRANCH  55  76
BRANCH  67  84
ATOM     84  C   UNL     1       0.589 -14.087  -6.579  1.00  0.00     0.057 A 
ATOM     85  C   UNL     1       1.675 -14.791  -7.111  1.00  0.00     0.134 A 
ATOM     86  C   UNL     1      -0.697 -14.511  -6.941  1.00  0.00     0.134 A 
ATOM     87  F   UNL     1       2.932 -14.429  -6.813  1.00  0.00    -0.206 F 
ATOM     88  C   UNL     1       1.490 -15.872  -7.976  1.00  0.00     0.040 A 
ATOM     89  C   UNL     1      -0.896 -15.604  -7.785  1.00  0.00     0.040 A 
ATOM     90  F   UNL     1      -1.781 -13.886  -6.458  1.00  0.00    -0.206 F 
ATOM     91  C   UNL     1       0.201 -16.287  -8.307  1.00  0.00     0.006 A 
ENDBRANCH  67  84
ENDBRANCH  41  42
ENDBRANCH  34  36
ENDBRANCH  33  34
ENDBRANCH  32  33
ENDBRANCH  31  32
ENDBRANCH  30  31
ENDBRANCH   1  30
TORSDOF 19
