REMARK SMILES C=CCN(CC(=O)OCCOCCOCCOC(=O)c1ccc(-c2c3nc(c(-c4c(F)cccc4F)c4ccc([nH]4)c(-c4c(F)cccc4F)c4nc(c(-c5c(F)cccc5F)c5ccc2[nH]5)C=C4)C=C3)cc1)C(=O)c1ccc(C[NH3+])cc1
REMARK SMILES IDX 11 1 10 2 9 3 8 4 6 5 7 6 5 7 4 8 3 9 2 10 1 11 74 12 75 13
REMARK SMILES IDX 76 14 77 15 83 16 78 17 82 18 79 19 80 20 81 21 12 25 13 26
REMARK SMILES IDX 14 27 15 28 16 29 17 30 18 31 19 32 20 33 21 34 73 35 22 36
REMARK SMILES IDX 72 37 23 38 24 39 25 40 66 41 26 42 71 43 65 44 67 45 27 46
REMARK SMILES IDX 70 47 64 48 63 49 28 51 54 52 37 53 53 54 38 55 41 56 52 57
REMARK SMILES IDX 68 58 39 59 40 60 51 62 69 63 42 64 29 65 30 66 35 67 31 68
REMARK SMILES IDX 32 69 34 70 36 71 33 72 55 73 56 74 61 75 57 76 58 77 60 78
REMARK SMILES IDX 62 79 59 80 43 81 44 82 49 83 45 84 46 85 48 86 50 87 47 88
REMARK H PARENT 81 22 81 23 81 24 67 50 41 61
REMARK Flexibility Score: inf
ROOT
ATOM      1  O   UNL     1      -6.800  -1.377   3.312  1.00  0.00    -0.376 OA
ENDROOT
BRANCH   1   2
ATOM      2  C   UNL     1      -7.043  -0.672   2.103  1.00  0.00     0.202 C 
BRANCH   2   3
ATOM      3  C   UNL     1      -6.318   0.691   1.888  1.00  0.00     0.261 C 
BRANCH   3   4
ATOM      4  O   UNL     1      -4.849   0.677   1.757  1.00  0.00    -0.462 OA
BRANCH   4   5
ATOM      5  C   UNL     1      -4.097   1.442   2.596  1.00  0.00     0.325 C 
ATOM      6  O   UNL     1      -4.604   2.264   3.359  1.00  0.00    -0.250 OA
BRANCH   5   7
ATOM      7  C   UNL     1      -2.511   1.248   2.585  1.00  0.00     0.242 C 
BRANCH   7   8
ATOM      8  N   UNL     1      -1.631   0.229   1.909  1.00  0.00    -0.324 N 
BRANCH   8   9
ATOM      9  C   UNL     1      -1.183   0.611   0.564  1.00  0.00     0.147 C 
BRANCH   9  10
ATOM     10  C   UNL     1       0.291   0.952   0.566  1.00  0.00    -0.014 C 
ATOM     11  C   UNL     1       1.190   0.316  -0.203  1.00  0.00     0.006 C 
ENDBRANCH   9  10
ENDBRANCH   8   9
BRANCH   8  12
ATOM     12  C   UNL     1      -0.999  -0.955   2.408  1.00  0.00     0.254 C 
ATOM     13  O   UNL     1      -0.192  -1.601   1.736  1.00  0.00    -0.269 OA
BRANCH  12  14
ATOM     14  C   UNL     1      -1.223  -1.564   3.741  1.00  0.00     0.040 A 
ATOM     15  C   UNL     1      -0.011  -2.671   4.445  1.00  0.00     0.014 A 
ATOM     16  C   UNL     1      -2.714  -1.181   4.580  1.00  0.00     0.014 A 
ATOM     17  C   UNL     1      -0.353  -3.410   6.077  1.00  0.00     0.010 A 
ATOM     18  C   UNL     1      -3.218  -1.831   6.102  1.00  0.00     0.010 A 
ATOM     19  C   UNL     1      -2.130  -2.960   6.963  1.00  0.00     0.006 A 
BRANCH  19  20
ATOM     20  C   UNL     1      -3.072  -3.445   8.189  1.00  0.00     0.295 C 
BRANCH  20  21
ATOM     21  N   UNL     1      -4.054  -4.487   7.854  1.00  0.00    -0.354 N 
ATOM     22  H   UNL     1      -4.711  -4.125   7.163  1.00  0.00     0.344 HD
ATOM     23  H   UNL     1      -4.561  -4.760   8.696  1.00  0.00     0.344 HD
ATOM     24  H   UNL     1      -3.570  -5.299   7.471  1.00  0.00     0.344 HD
ENDBRANCH  20  21
ENDBRANCH  19  20
ENDBRANCH  12  14
ENDBRANCH   8  12
ENDBRANCH   7   8
ENDBRANCH   5   7
ENDBRANCH   4   5
ENDBRANCH   3   4
ENDBRANCH   2   3
ENDBRANCH   1   2
BRANCH   1  25
ATOM     25  C   UNL     1      -5.435  -1.597   3.606  1.00  0.00     0.188 C 
BRANCH  25  26
ATOM     26  C   UNL     1      -4.529  -1.989   2.421  1.00  0.00     0.188 C 
BRANCH  26  27
ATOM     27  O   UNL     1      -5.206  -2.817   1.521  1.00  0.00    -0.376 OA
BRANCH  27  28
ATOM     28  C   UNL     1      -4.799  -4.163   1.488  1.00  0.00     0.202 C 
BRANCH  28  29
ATOM     29  C   UNL     1      -4.424  -4.918   2.784  1.00  0.00     0.261 C 
BRANCH  29  30
ATOM     30  O   UNL     1      -3.789  -4.212   3.878  1.00  0.00    -0.460 OA
BRANCH  30  31
ATOM     31  C   UNL     1      -2.461  -3.933   3.761  1.00  0.00     0.338 C 
ATOM     32  O   UNL     1      -1.770  -4.253   2.810  1.00  0.00    -0.246 OA
BRANCH  31  33
ATOM     33  C   UNL     1      -1.963  -3.358   5.100  1.00  0.00     0.060 A 
ATOM     34  C   UNL     1      -1.116  -1.709   5.930  1.00  0.00     0.016 A 
ATOM     35  C   UNL     1      -1.830  -4.893   6.067  1.00  0.00     0.016 A 
ATOM     36  C   UNL     1      -0.332  -1.798   7.486  1.00  0.00     0.010 A 
ATOM     37  C   UNL     1      -1.031  -4.822   7.649  1.00  0.00     0.010 A 
ATOM     38  C   UNL     1      -0.354  -3.310   8.323  1.00  0.00    -0.014 A 
BRANCH  38  39
ATOM     39  C   UNL     1       0.171  -3.144   9.689  1.00  0.00     0.031 A 
ATOM     40  C   UNL     1       1.358  -3.946  10.054  1.00  0.00     0.074 A 
ATOM     41  C   UNL     1      -0.280  -2.101  10.430  1.00  0.00     0.049 A 
ATOM     42  N   UNL     1       2.106  -3.854  11.113  1.00  0.00    -0.248 NA
ATOM     43  C   UNL     1       1.781  -4.973   9.092  1.00  0.00     0.031 C 
ATOM     44  C   UNL     1      -1.391  -1.202  10.072  1.00  0.00     0.029 A 
ATOM     45  N   UNL     1       0.194  -1.538  11.587  1.00  0.00    -0.354 N 
ATOM     46  C   UNL     1       3.078  -4.825  10.950  1.00  0.00     0.074 A 
ATOM     47  C   UNL     1       2.814  -5.512   9.711  1.00  0.00     0.031 C 
ATOM     48  C   UNL     1      -1.432  -0.156  10.905  1.00  0.00     0.029 A 
ATOM     49  C   UNL     1      -0.438  -0.361  11.936  1.00  0.00     0.049 A 
ATOM     50  H   UNL     1       0.920  -1.937  12.120  1.00  0.00     0.167 HD
ATOM     51  C   UNL     1       4.103  -5.103  11.779  1.00  0.00     0.037 A 
ATOM     52  C   UNL     1      -0.248   0.454  12.989  1.00  0.00     0.037 A 
ATOM     53  C   UNL     1       4.311  -4.394  13.006  1.00  0.00     0.049 A 
ATOM     54  C   UNL     1       0.826   0.040  13.950  1.00  0.00     0.074 A 
ATOM     55  C   UNL     1       5.239  -4.637  13.996  1.00  0.00     0.029 A 
ATOM     56  N   UNL     1       3.558  -3.295  13.410  1.00  0.00    -0.354 N 
ATOM     57  N   UNL     1       1.693  -0.940  13.835  1.00  0.00    -0.248 NA
ATOM     58  C   UNL     1       0.933   0.806  15.192  1.00  0.00     0.031 C 
ATOM     59  C   UNL     1       5.002  -3.728  15.031  1.00  0.00     0.029 A 
ATOM     60  C   UNL     1       3.983  -2.864  14.651  1.00  0.00     0.049 A 
ATOM     61  H   UNL     1       2.830  -2.887  12.889  1.00  0.00     0.167 HD
ATOM     62  C   UNL     1       2.457  -0.907  14.987  1.00  0.00     0.074 A 
ATOM     63  C   UNL     1       1.970   0.216  15.769  1.00  0.00     0.031 C 
ATOM     64  C   UNL     1       3.461  -1.731  15.376  1.00  0.00     0.037 A 
BRANCH  51  65
ATOM     65  C   UNL     1       4.949  -6.281  11.412  1.00  0.00     0.057 A 
ATOM     66  C   UNL     1       5.796  -6.283  10.295  1.00  0.00     0.134 A 
ATOM     67  C   UNL     1       4.822  -7.474  12.131  1.00  0.00     0.134 A 
ATOM     68  F   UNL     1       5.913  -5.189   9.526  1.00  0.00    -0.206 F 
ATOM     69  C   UNL     1       6.463  -7.441   9.890  1.00  0.00     0.040 A 
ATOM     70  C   UNL     1       5.510  -8.627  11.757  1.00  0.00     0.040 A 
ATOM     71  F   UNL     1       4.000  -7.548  13.189  1.00  0.00    -0.206 F 
ATOM     72  C   UNL     1       6.325  -8.616  10.627  1.00  0.00     0.006 A 
ENDBRANCH  51  65
BRANCH  52  73
ATOM     73  C   UNL     1      -1.116   1.644  13.233  1.00  0.00     0.057 A 
ATOM     74  C   UNL     1      -0.592   2.939  13.343  1.00  0.00     0.134 A 
ATOM     75  C   UNL     1      -2.502   1.510  13.412  1.00  0.00     0.134 A 
ATOM     76  F   UNL     1       0.724   3.151  13.200  1.00  0.00    -0.206 F 
ATOM     77  C   UNL     1      -1.402   4.040  13.648  1.00  0.00     0.040 A 
ATOM     78  C   UNL     1      -3.327   2.605  13.679  1.00  0.00     0.040 A 
ATOM     79  F   UNL     1      -3.084   0.305  13.323  1.00  0.00    -0.206 F 
ATOM     80  C   UNL     1      -2.775   3.874  13.814  1.00  0.00     0.006 A 
ENDBRANCH  52  73
BRANCH  64  81
ATOM     81  C   UNL     1       4.120  -1.403  16.679  1.00  0.00     0.057 A 
ATOM     82  C   UNL     1       3.472  -1.586  17.906  1.00  0.00     0.134 A 
ATOM     83  C   UNL     1       5.443  -0.945  16.696  1.00  0.00     0.134 A 
ATOM     84  F   UNL     1       2.200  -2.009  17.949  1.00  0.00    -0.206 F 
ATOM     85  C   UNL     1       4.112  -1.296  19.109  1.00  0.00     0.040 A 
ATOM     86  C   UNL     1       6.105  -0.692  17.893  1.00  0.00     0.040 A 
ATOM     87  F   UNL     1       6.117  -0.764  15.550  1.00  0.00    -0.206 F 
ATOM     88  C   UNL     1       5.436  -0.858  19.103  1.00  0.00     0.006 A 
ENDBRANCH  64  81
ENDBRANCH  38  39
ENDBRANCH  31  33
ENDBRANCH  30  31
ENDBRANCH  29  30
ENDBRANCH  28  29
ENDBRANCH  27  28
ENDBRANCH  26  27
ENDBRANCH  25  26
ENDBRANCH   1  25
TORSDOF 24
