REMARK SMILES O=C(OCCOCCOCCOC(=O)C(F)(F)[C@H](O)c1ccccc1C1CC1)c1ccc(-c2c3nc(c(-c4c(F)cccc4F)c4ccc([nH]4)c(-c4c(F)cccc4F)c4nc(c(-c5c(F)cccc5F)c5ccc2[nH]5)C=C4)C=C3)cc1
REMARK SMILES IDX 8 1 7 2 6 3 5 4 4 5 3 6 2 7 1 8 29 9 30 10 82 11 31 12 81 13
REMARK SMILES IDX 32 14 33 15 34 16 75 17 35 18 80 19 74 20 76 21 36 22 79 23
REMARK SMILES IDX 73 24 72 25 37 27 63 28 46 29 62 30 47 31 50 32 61 33 77 34
REMARK SMILES IDX 48 35 49 36 60 38 78 39 51 40 38 41 39 42 44 43 40 44 41 45
REMARK SMILES IDX 43 46 45 47 42 48 64 49 65 50 70 51 66 52 67 53 69 54 71 55
REMARK SMILES IDX 68 56 52 57 53 58 58 59 54 60 55 61 57 62 59 63 56 64 9 65
REMARK SMILES IDX 10 66 11 67 12 68 13 69 14 70 15 71 16 72 17 73 18 74 20 75
REMARK SMILES IDX 21 76 25 77 22 78 24 79 23 80 26 81 27 82 28 83 19 84
REMARK H PARENT 76 26 50 37 19 85
REMARK Flexibility Score: inf
ROOT
ATOM      1  C   UNL     1       5.166  -6.079  -0.393  1.00  0.00     0.188 C 
ENDROOT
BRANCH   1   2
ATOM      2  C   UNL     1       4.779  -7.476  -0.862  1.00  0.00     0.188 C 
BRANCH   2   3
ATOM      3  O   UNL     1       3.915  -8.176   0.035  1.00  0.00    -0.376 OA
BRANCH   3   4
ATOM      4  C   UNL     1       4.182  -9.579   0.145  1.00  0.00     0.202 C 
BRANCH   4   5
ATOM      5  C   UNL     1       4.168 -10.412  -1.154  1.00  0.00     0.261 C 
BRANCH   5   6
ATOM      6  O   UNL     1       4.160  -9.660  -2.385  1.00  0.00    -0.460 OA
BRANCH   6   7
ATOM      7  C   UNL     1       3.127  -9.187  -3.117  1.00  0.00     0.338 C 
ATOM      8  O   UNL     1       3.364  -8.662  -4.212  1.00  0.00    -0.246 OA
BRANCH   7   9
ATOM      9  C   UNL     1       1.711  -9.269  -2.680  1.00  0.00     0.060 A 
ATOM     10  C   UNL     1       1.308  -9.287  -1.349  1.00  0.00     0.016 A 
ATOM     11  C   UNL     1       0.715  -9.248  -3.668  1.00  0.00     0.016 A 
ATOM     12  C   UNL     1      -0.021  -9.445  -0.993  1.00  0.00     0.010 A 
ATOM     13  C   UNL     1      -0.637  -9.316  -3.317  1.00  0.00     0.010 A 
ATOM     14  C   UNL     1      -1.005  -9.463  -1.973  1.00  0.00    -0.014 A 
BRANCH  14  15
ATOM     15  C   UNL     1      -2.395  -9.756  -1.578  1.00  0.00     0.031 A 
ATOM     16  C   UNL     1      -2.986 -11.069  -1.976  1.00  0.00     0.074 A 
ATOM     17  C   UNL     1      -3.073  -8.930  -0.762  1.00  0.00     0.049 A 
ATOM     18  N   UNL     1      -4.205 -11.505  -1.815  1.00  0.00    -0.248 NA
ATOM     19  C   UNL     1      -2.070 -12.039  -2.599  1.00  0.00     0.031 C 
ATOM     20  C   UNL     1      -2.519  -7.738  -0.123  1.00  0.00     0.029 A 
ATOM     21  N   UNL     1      -4.370  -8.974  -0.315  1.00  0.00    -0.354 N 
ATOM     22  C   UNL     1      -4.204 -12.796  -2.317  1.00  0.00     0.074 A 
ATOM     23  C   UNL     1      -2.875 -13.067  -2.817  1.00  0.00     0.031 C 
ATOM     24  C   UNL     1      -3.479  -7.162   0.614  1.00  0.00     0.029 A 
ATOM     25  C   UNL     1      -4.727  -7.858   0.399  1.00  0.00     0.049 A 
ATOM     26  H   UNL     1      -4.979  -9.728  -0.489  1.00  0.00     0.167 HD
ATOM     27  C   UNL     1      -5.229 -13.676  -2.341  1.00  0.00     0.037 A 
ATOM     28  C   UNL     1      -5.932  -7.397   0.776  1.00  0.00     0.037 A 
ATOM     29  C   UNL     1      -6.542 -13.375  -1.837  1.00  0.00     0.049 A 
ATOM     30  C   UNL     1      -7.109  -8.280   0.529  1.00  0.00     0.074 A 
ATOM     31  C   UNL     1      -7.670 -14.171  -1.836  1.00  0.00     0.029 A 
ATOM     32  N   UNL     1      -6.899 -12.166  -1.251  1.00  0.00    -0.354 N 
ATOM     33  N   UNL     1      -7.125  -9.480   0.002  1.00  0.00    -0.248 NA
ATOM     34  C   UNL     1      -8.421  -7.776   0.945  1.00  0.00     0.031 C 
ATOM     35  C   UNL     1      -8.727 -13.421  -1.307  1.00  0.00     0.029 A 
ATOM     36  C   UNL     1      -8.245 -12.178  -0.927  1.00  0.00     0.049 A 
ATOM     37  H   UNL     1      -6.286 -11.413  -1.091  1.00  0.00     0.167 HD
ATOM     38  C   UNL     1      -8.440  -9.901   0.068  1.00  0.00     0.074 A 
ATOM     39  C   UNL     1      -9.193  -8.820   0.677  1.00  0.00     0.031 C 
ATOM     40  C   UNL     1      -8.968 -11.086  -0.323  1.00  0.00     0.037 A 
BRANCH  27  41
ATOM     41  C   UNL     1      -4.971 -14.995  -2.999  1.00  0.00     0.057 A 
ATOM     42  C   UNL     1      -4.160 -15.979  -2.418  1.00  0.00     0.134 A 
ATOM     43  C   UNL     1      -5.511 -15.265  -4.263  1.00  0.00     0.134 A 
ATOM     44  F   UNL     1      -3.583 -15.768  -1.225  1.00  0.00    -0.206 F 
ATOM     45  C   UNL     1      -3.875 -17.174  -3.082  1.00  0.00     0.040 A 
ATOM     46  C   UNL     1      -5.253 -16.465  -4.925  1.00  0.00     0.040 A 
ATOM     47  F   UNL     1      -6.284 -14.359  -4.879  1.00  0.00    -0.206 F 
ATOM     48  C   UNL     1      -4.426 -17.421  -4.338  1.00  0.00     0.006 A 
ENDBRANCH  27  41
BRANCH  28  49
ATOM     49  C   UNL     1      -6.077  -6.026   1.334  1.00  0.00     0.057 A 
ATOM     50  C   UNL     1      -6.438  -5.798   2.664  1.00  0.00     0.134 A 
ATOM     51  C   UNL     1      -5.865  -4.899   0.525  1.00  0.00     0.134 A 
ATOM     52  F   UNL     1      -6.674  -6.831   3.485  1.00  0.00    -0.206 F 
ATOM     53  C   UNL     1      -6.595  -4.503   3.168  1.00  0.00     0.040 A 
ATOM     54  C   UNL     1      -5.994  -3.600   1.021  1.00  0.00     0.040 A 
ATOM     55  F   UNL     1      -5.520  -5.045  -0.763  1.00  0.00    -0.206 F 
ATOM     56  C   UNL     1      -6.368  -3.399   2.347  1.00  0.00     0.006 A 
ENDBRANCH  28  49
BRANCH  40  57
ATOM     57  C   UNL     1     -10.425 -11.281  -0.057  1.00  0.00     0.057 A 
ATOM     58  C   UNL     1     -11.406 -10.624  -0.807  1.00  0.00     0.134 A 
ATOM     59  C   UNL     1     -10.846 -12.166   0.943  1.00  0.00     0.134 A 
ATOM     60  F   UNL     1     -11.059  -9.745  -1.760  1.00  0.00    -0.206 F 
ATOM     61  C   UNL     1     -12.762 -10.829  -0.560  1.00  0.00     0.040 A 
ATOM     62  C   UNL     1     -12.198 -12.403   1.178  1.00  0.00     0.040 A 
ATOM     63  F   UNL     1      -9.949 -12.824   1.694  1.00  0.00    -0.206 F 
ATOM     64  C   UNL     1     -13.160 -11.729   0.428  1.00  0.00     0.006 A 
ENDBRANCH  40  57
ENDBRANCH  14  15
ENDBRANCH   7   9
ENDBRANCH   6   7
ENDBRANCH   5   6
ENDBRANCH   4   5
ENDBRANCH   3   4
ENDBRANCH   2   3
ENDBRANCH   1   2
BRANCH   1  65
ATOM     65  O   UNL     1       5.933  -5.976   0.802  1.00  0.00    -0.376 OA
BRANCH  65  66
ATOM     66  C   UNL     1       5.451  -6.647   1.958  1.00  0.00     0.202 C 
BRANCH  66  67
ATOM     67  C   UNL     1       4.182  -6.106   2.625  1.00  0.00     0.261 C 
BRANCH  67  68
ATOM     68  O   UNL     1       3.052  -5.921   1.767  1.00  0.00    -0.459 OA
BRANCH  68  69
ATOM     69  C   UNL     1       2.823  -4.644   1.342  1.00  0.00     0.380 C 
ATOM     70  O   UNL     1       3.628  -3.712   1.454  1.00  0.00    -0.245 OA
BRANCH  69  71
ATOM     71  C   UNL     1       1.401  -4.475   0.837  1.00  0.00     0.372 C 
ATOM     72  F   UNL     1       0.743  -5.681   0.789  1.00  0.00    -0.190 F 
ATOM     73  F   UNL     1       0.756  -3.735   1.785  1.00  0.00    -0.190 F 
BRANCH  71  74
ATOM     74  C   UNL     1       1.272  -3.816  -0.573  1.00  0.00     0.227 C 
BRANCH  74  75
ATOM     75  C   UNL     1       0.595  -2.436  -0.589  1.00  0.00    -0.009 A 
ATOM     76  C   UNL     1       1.258  -1.386  -1.278  1.00  0.00     0.007 A 
ATOM     77  C   UNL     1      -0.636  -2.133   0.056  1.00  0.00    -0.039 A 
ATOM     78  C   UNL     1       0.870  -0.054  -1.154  1.00  0.00     0.000 A 
ATOM     79  C   UNL     1      -0.914  -0.757   0.264  1.00  0.00     0.004 A 
ATOM     80  C   UNL     1      -0.175   0.269  -0.315  1.00  0.00     0.000 A 
BRANCH  77  81
ATOM     81  C   UNL     1      -1.814  -3.035   0.406  1.00  0.00     0.019 C 
ATOM     82  C   UNL     1      -2.031  -4.387  -0.195  1.00  0.00     0.009 C 
ATOM     83  C   UNL     1      -1.878  -4.230   1.298  1.00  0.00     0.009 C 
ENDBRANCH  77  81
ENDBRANCH  74  75
BRANCH  74  84
ATOM     84  O   UNL     1       2.553  -3.773  -1.249  1.00  0.00    -0.381 OA
ATOM     85  H   UNL     1       3.157  -3.192  -0.761  1.00  0.00     0.211 HD
ENDBRANCH  74  84
ENDBRANCH  71  74
ENDBRANCH  69  71
ENDBRANCH  68  69
ENDBRANCH  67  68
ENDBRANCH  66  67
ENDBRANCH  65  66
ENDBRANCH   1  65
TORSDOF 21
