REMARK SMILES CCc1ccc2c(CC(=O)OCCOCCOCCOC(=O)c3ccc(-c4c5nc(c(-c6c(F)cccc6F)c6ccc([nH]6)c(-c6c(F)cccc6F)c6nc(c(-c7c(F)cccc7F)c7ccc4[nH]7)C=C6)C=C5)cc3)c(C(=O)c3cc(C)ccn3)[nH]c2c1
REMARK SMILES IDX 15 1 14 2 13 3 12 4 11 5 9 6 10 7 8 8 7 9 3 10 4 11 89 12
REMARK SMILES IDX 5 13 88 14 6 15 87 16 77 17 2 19 1 20 78 21 79 22 80 23
REMARK SMILES IDX 81 24 86 25 82 26 85 27 83 28 84 29 16 30 17 31 18 32 19 33
REMARK SMILES IDX 20 34 21 35 22 36 23 37 24 38 76 39 25 40 75 41 26 42 27 43
REMARK SMILES IDX 28 44 69 45 29 46 74 47 68 48 70 49 30 50 73 51 67 52 66 53
REMARK SMILES IDX 31 55 57 56 40 57 56 58 41 59 44 60 55 61 71 62 42 63 43 64
REMARK SMILES IDX 54 66 72 67 45 68 32 69 33 70 38 71 34 72 35 73 37 74 39 75
REMARK SMILES IDX 36 76 58 77 59 78 64 79 60 80 61 81 63 82 65 83 62 84 46 85
REMARK SMILES IDX 47 86 52 87 48 88 49 89 51 90 53 91 50 92
REMARK H PARENT 87 18 70 54 44 65
REMARK Flexibility Score: inf
ROOT
ATOM      1  C   UNL     1       0.653  -7.652   6.401  1.00  0.00     0.188 C 
ENDROOT
BRANCH   1   2
ATOM      2  O   UNL     1       0.381  -7.189   7.722  1.00  0.00    -0.376 OA
BRANCH   2   3
ATOM      3  C   UNL     1      -0.181  -5.893   7.878  1.00  0.00     0.202 C 
BRANCH   3   4
ATOM      4  C   UNL     1       0.701  -4.726   7.418  1.00  0.00     0.261 C 
BRANCH   4   5
ATOM      5  O   UNL     1       1.089  -4.843   6.031  1.00  0.00    -0.463 OA
BRANCH   5   6
ATOM      6  C   UNL     1       2.396  -4.624   5.734  1.00  0.00     0.310 C 
ATOM      7  O   UNL     1       3.200  -4.150   6.534  1.00  0.00    -0.252 OA
BRANCH   6   8
ATOM      8  C   UNL     1       2.840  -5.186   4.389  1.00  0.00     0.161 C 
BRANCH   8   9
ATOM      9  C   UNL     1       1.913  -5.072   3.201  1.00  0.00     0.000 A 
ATOM     10  C   UNL     1       0.678  -1.881   0.712  1.00  0.00    -0.046 A 
ATOM     11  C   UNL     1       1.373  -1.522   1.873  1.00  0.00     0.004 A 
ATOM     12  C   UNL     1       0.315  -3.224   0.520  1.00  0.00     0.030 A 
ATOM     13  C   UNL     1       1.770  -2.482   2.821  1.00  0.00     0.011 A 
ATOM     14  C   UNL     1       0.757  -4.167   1.452  1.00  0.00     0.046 A 
ATOM     15  C   UNL     1       1.499  -3.842   2.582  1.00  0.00     0.004 A 
ATOM     16  N   UNL     1       0.615  -5.529   1.447  1.00  0.00    -0.352 N 
ATOM     17  C   UNL     1       1.527  -6.091   2.314  1.00  0.00     0.093 A 
ATOM     18  H   UNL     1      -0.038  -6.030   0.908  1.00  0.00     0.167 HD
BRANCH  10  19
ATOM     19  C   UNL     1       0.310  -0.906  -0.385  1.00  0.00     0.032 C 
ATOM     20  C   UNL     1       0.820   0.520  -0.240  1.00  0.00     0.009 C 
ENDBRANCH  10  19
BRANCH  17  21
ATOM     21  C   UNL     1       2.001  -7.461   2.182  1.00  0.00     0.227 C 
ATOM     22  O   UNL     1       3.013  -7.881   2.736  1.00  0.00    -0.285 OA
BRANCH  21  23
ATOM     23  C   UNL     1       1.257  -8.392   1.281  1.00  0.00     0.113 A 
ATOM     24  C   UNL     1       1.736  -8.678   0.006  1.00  0.00     0.036 A 
ATOM     25  N   UNL     1       0.123  -8.928   1.802  1.00  0.00    -0.253 NA
ATOM     26  C   UNL     1       1.026  -9.595  -0.777  1.00  0.00    -0.047 A 
ATOM     27  C   UNL     1      -0.504  -9.856   1.047  1.00  0.00     0.112 A 
ATOM     28  C   UNL     1       1.431  -9.921  -2.185  1.00  0.00     0.044 C 
ATOM     29  C   UNL     1      -0.095 -10.220  -0.225  1.00  0.00     0.023 A 
ENDBRANCH  21  23
ENDBRANCH  17  21
ENDBRANCH   8   9
ENDBRANCH   6   8
ENDBRANCH   5   6
ENDBRANCH   4   5
ENDBRANCH   3   4
ENDBRANCH   2   3
ENDBRANCH   1   2
BRANCH   1  30
ATOM     30  C   UNL     1      -0.299  -7.260   5.250  1.00  0.00     0.188 C 
BRANCH  30  31
ATOM     31  O   UNL     1      -1.654  -7.116   5.655  1.00  0.00    -0.376 OA
BRANCH  31  32
ATOM     32  C   UNL     1      -2.543  -8.060   5.076  1.00  0.00     0.202 C 
BRANCH  32  33
ATOM     33  C   UNL     1      -2.376  -9.444   5.701  1.00  0.00     0.261 C 
BRANCH  33  34
ATOM     34  O   UNL     1      -1.069  -9.994   5.423  1.00  0.00    -0.460 OA
BRANCH  34  35
ATOM     35  C   UNL     1      -0.972 -10.916   4.450  1.00  0.00     0.338 C 
ATOM     36  O   UNL     1      -1.899 -11.377   3.788  1.00  0.00    -0.246 OA
BRANCH  35  37
ATOM     37  C   UNL     1       0.432 -11.372   4.303  1.00  0.00     0.060 A 
ATOM     38  C   UNL     1       1.501 -10.480   4.180  1.00  0.00     0.016 A 
ATOM     39  C   UNL     1       0.676 -12.739   4.184  1.00  0.00     0.016 A 
ATOM     40  C   UNL     1       2.790 -10.940   3.881  1.00  0.00     0.010 A 
ATOM     41  C   UNL     1       1.977 -13.202   3.954  1.00  0.00     0.010 A 
ATOM     42  C   UNL     1       3.050 -12.309   3.775  1.00  0.00    -0.014 A 
BRANCH  42  43
ATOM     43  C   UNL     1       4.407 -12.836   3.453  1.00  0.00     0.031 A 
ATOM     44  C   UNL     1       4.605 -13.699   2.234  1.00  0.00     0.074 A 
ATOM     45  C   UNL     1       5.460 -12.604   4.263  1.00  0.00     0.049 A 
ATOM     46  N   UNL     1       5.591 -14.508   1.937  1.00  0.00    -0.248 NA
ATOM     47  C   UNL     1       3.542 -13.650   1.217  1.00  0.00     0.031 C 
ATOM     48  C   UNL     1       5.463 -11.725   5.431  1.00  0.00     0.029 A 
ATOM     49  N   UNL     1       6.736 -13.123   4.236  1.00  0.00    -0.354 N 
ATOM     50  C   UNL     1       5.241 -15.109   0.735  1.00  0.00     0.074 A 
ATOM     51  C   UNL     1       3.957 -14.563   0.348  1.00  0.00     0.031 C 
ATOM     52  C   UNL     1       6.670 -11.776   6.018  1.00  0.00     0.029 A 
ATOM     53  C   UNL     1       7.497 -12.756   5.321  1.00  0.00     0.049 A 
ATOM     54  H   UNL     1       7.069 -13.700   3.512  1.00  0.00     0.167 HD
ATOM     55  C   UNL     1       5.925 -16.040   0.027  1.00  0.00     0.037 A 
ATOM     56  C   UNL     1       8.693 -13.204   5.752  1.00  0.00     0.037 A 
ATOM     57  C   UNL     1       7.226 -16.547   0.385  1.00  0.00     0.049 A 
ATOM     58  C   UNL     1       9.401 -14.291   4.989  1.00  0.00     0.074 A 
ATOM     59  C   UNL     1       8.000 -17.481  -0.284  1.00  0.00     0.029 A 
ATOM     60  N   UNL     1       7.948 -16.157   1.501  1.00  0.00    -0.354 N 
ATOM     61  N   UNL     1       9.041 -14.898   3.884  1.00  0.00    -0.248 NA
ATOM     62  C   UNL     1      10.675 -14.769   5.546  1.00  0.00     0.031 C 
ATOM     63  C   UNL     1       9.171 -17.689   0.451  1.00  0.00     0.029 A 
ATOM     64  C   UNL     1       9.149 -16.847   1.550  1.00  0.00     0.049 A 
ATOM     65  H   UNL     1       7.653 -15.489   2.161  1.00  0.00     0.167 HD
ATOM     66  C   UNL     1      10.053 -15.807   3.603  1.00  0.00     0.074 A 
ATOM     67  C   UNL     1      11.050 -15.663   4.641  1.00  0.00     0.031 C 
ATOM     68  C   UNL     1      10.145 -16.687   2.576  1.00  0.00     0.037 A 
BRANCH  55  69
ATOM     69  C   UNL     1       5.271 -16.615  -1.195  1.00  0.00     0.057 A 
ATOM     70  C   UNL     1       5.172 -15.904  -2.396  1.00  0.00     0.134 A 
ATOM     71  C   UNL     1       4.811 -17.940  -1.187  1.00  0.00     0.134 A 
ATOM     72  F   UNL     1       5.583 -14.629  -2.468  1.00  0.00    -0.206 F 
ATOM     73  C   UNL     1       4.632 -16.488  -3.545  1.00  0.00     0.040 A 
ATOM     74  C   UNL     1       4.291 -18.541  -2.334  1.00  0.00     0.040 A 
ATOM     75  F   UNL     1       4.884 -18.679  -0.070  1.00  0.00    -0.206 F 
ATOM     76  C   UNL     1       4.199 -17.813  -3.518  1.00  0.00     0.006 A 
ENDBRANCH  55  69
BRANCH  56  77
ATOM     77  C   UNL     1       9.275 -12.682   7.017  1.00  0.00     0.057 A 
ATOM     78  C   UNL     1      10.457 -11.933   7.017  1.00  0.00     0.134 A 
ATOM     79  C   UNL     1       8.687 -12.958   8.258  1.00  0.00     0.134 A 
ATOM     80  F   UNL     1      11.086 -11.664   5.864  1.00  0.00    -0.206 F 
ATOM     81  C   UNL     1      11.044 -11.495   8.206  1.00  0.00     0.040 A 
ATOM     82  C   UNL     1       9.245 -12.498   9.451  1.00  0.00     0.040 A 
ATOM     83  F   UNL     1       7.557 -13.677   8.328  1.00  0.00    -0.206 F 
ATOM     84  C   UNL     1      10.433 -11.773   9.427  1.00  0.00     0.006 A 
ENDBRANCH  56  77
BRANCH  68  85
ATOM     85  C   UNL     1      11.387 -17.525   2.495  1.00  0.00     0.057 A 
ATOM     86  C   UNL     1      11.628 -18.583   3.382  1.00  0.00     0.134 A 
ATOM     87  C   UNL     1      12.342 -17.289   1.498  1.00  0.00     0.134 A 
ATOM     88  F   UNL     1      10.760 -18.854   4.369  1.00  0.00    -0.206 F 
ATOM     89  C   UNL     1      12.785 -19.359   3.294  1.00  0.00     0.040 A 
ATOM     90  C   UNL     1      13.490 -18.074   1.384  1.00  0.00     0.040 A 
ATOM     91  F   UNL     1      12.169 -16.297   0.611  1.00  0.00    -0.206 F 
ATOM     92  C   UNL     1      13.717 -19.109   2.289  1.00  0.00     0.006 A 
ENDBRANCH  68  85
ENDBRANCH  42  43
ENDBRANCH  35  37
ENDBRANCH  34  35
ENDBRANCH  33  34
ENDBRANCH  32  33
ENDBRANCH  31  32
ENDBRANCH  30  31
ENDBRANCH   1  30
TORSDOF 21
