REMARK SMILES CCN(C(=O)Cc1c(C(=O)OCCOCCOCCOC(=O)c2ccc(-c3c4nc(c(-c5c(F)cccc5F)c5ccc([nH]5)c(-c5c(F)cccc5F)c5nc(c(-c6c(F)cccc6F)c6ccc3[nH]6)C=C5)C=C4)cc2)[nH]c2ccccc12)c1cccc(C)c1
REMARK SMILES IDX 15 1 14 2 13 3 12 4 11 5 9 6 10 7 8 8 7 9 83 10 77 11 78 12
REMARK SMILES IDX 82 13 79 15 81 16 80 17 6 18 4 19 5 20 3 21 2 22 1 23 84 24
REMARK SMILES IDX 85 25 90 26 86 27 88 28 87 29 89 30 16 31 17 32 18 33 19 34
REMARK SMILES IDX 20 35 21 36 22 37 23 38 24 39 76 40 25 41 75 42 26 43 27 44
REMARK SMILES IDX 28 45 69 46 29 47 74 48 68 49 70 50 30 51 73 52 67 53 66 54
REMARK SMILES IDX 31 56 57 57 40 58 56 59 41 60 44 61 55 62 71 63 42 64 43 65
REMARK SMILES IDX 54 67 72 68 45 69 32 70 33 71 38 72 34 73 35 74 37 75 39 76
REMARK SMILES IDX 36 77 58 78 59 79 64 80 60 81 61 82 63 83 65 84 62 85 46 86
REMARK SMILES IDX 47 87 52 88 48 89 49 90 51 91 53 92 50 93
REMARK H PARENT 77 14 70 55 44 66
REMARK Flexibility Score: inf
ROOT
ATOM      1  C   UNL     1      -1.229  -3.148  -0.013  1.00  0.00     0.188 C 
ENDROOT
BRANCH   1   2
ATOM      2  O   UNL     1      -2.358  -3.879  -0.471  1.00  0.00    -0.376 OA
BRANCH   2   3
ATOM      3  C   UNL     1      -3.234  -3.268  -1.409  1.00  0.00     0.202 C 
BRANCH   3   4
ATOM      4  C   UNL     1      -4.212  -2.250  -0.822  1.00  0.00     0.261 C 
BRANCH   4   5
ATOM      5  O   UNL     1      -3.598  -0.978  -0.536  1.00  0.00    -0.459 OA
BRANCH   5   6
ATOM      6  C   UNL     1      -3.366  -0.712   0.779  1.00  0.00     0.355 C 
ATOM      7  O   UNL     1      -3.573  -1.486   1.703  1.00  0.00    -0.244 OA
BRANCH   6   8
ATOM      8  C   UNL     1      -2.787   0.605   0.925  1.00  0.00     0.129 A 
ATOM      9  C   UNL     1      -1.958   1.085   1.938  1.00  0.00     0.002 A 
ATOM     10  C   UNL     1      -1.857   2.499   1.769  1.00  0.00     0.004 A 
ATOM     11  N   UNL     1      -2.953   1.641   0.033  1.00  0.00    -0.349 N 
ATOM     12  C   UNL     1      -2.396   2.800   0.521  1.00  0.00     0.046 A 
ATOM     13  C   UNL     1      -1.272   3.536   2.524  1.00  0.00     0.010 A 
ATOM     14  H   UNL     1      -3.409   1.563  -0.836  1.00  0.00     0.167 HD
ATOM     15  C   UNL     1      -2.309   4.077  -0.045  1.00  0.00     0.027 A 
ATOM     16  C   UNL     1      -1.194   4.821   1.984  1.00  0.00     0.001 A 
ATOM     17  C   UNL     1      -1.687   5.079   0.709  1.00  0.00     0.002 A 
BRANCH   9  18
ATOM     18  C   UNL     1      -1.255   0.265   2.980  1.00  0.00     0.139 C 
BRANCH  18  19
ATOM     19  C   UNL     1       0.155   0.771   3.338  1.00  0.00     0.231 C 
ATOM     20  O   UNL     1       0.306   1.212   4.483  1.00  0.00    -0.274 OA
BRANCH  19  21
ATOM     21  N   UNL     1       1.201   0.661   2.386  1.00  0.00    -0.312 N 
BRANCH  21  22
ATOM     22  C   UNL     1       0.928   0.366   0.967  1.00  0.00     0.122 C 
ATOM     23  C   UNL     1       0.893   1.578   0.042  1.00  0.00     0.028 C 
ENDBRANCH  21  22
BRANCH  21  24
ATOM     24  C   UNL     1       2.603   0.820   2.762  1.00  0.00     0.044 A 
ATOM     25  C   UNL     1       3.040   0.789   4.094  1.00  0.00     0.026 A 
ATOM     26  C   UNL     1       3.611   0.932   1.783  1.00  0.00     0.029 A 
ATOM     27  C   UNL     1       4.400   0.863   4.428  1.00  0.00     0.002 A 
ATOM     28  C   UNL     1       4.979   1.004   2.099  1.00  0.00    -0.049 A 
ATOM     29  C   UNL     1       5.367   0.964   3.435  1.00  0.00     0.003 A 
ATOM     30  C   UNL     1       6.006   1.120   1.012  1.00  0.00     0.044 C 
ENDBRANCH  21  24
ENDBRANCH  19  21
ENDBRANCH  18  19
ENDBRANCH   9  18
ENDBRANCH   6   8
ENDBRANCH   5   6
ENDBRANCH   4   5
ENDBRANCH   3   4
ENDBRANCH   2   3
ENDBRANCH   1   2
BRANCH   1  31
ATOM     31  C   UNL     1      -0.501  -2.240  -1.017  1.00  0.00     0.188 C 
BRANCH  31  32
ATOM     32  O   UNL     1      -0.266  -2.771  -2.316  1.00  0.00    -0.376 OA
BRANCH  32  33
ATOM     33  C   UNL     1       0.384  -4.041  -2.375  1.00  0.00     0.202 C 
BRANCH  33  34
ATOM     34  C   UNL     1       1.798  -4.038  -1.794  1.00  0.00     0.261 C 
BRANCH  34  35
ATOM     35  O   UNL     1       1.738  -4.080  -0.354  1.00  0.00    -0.460 OA
BRANCH  35  36
ATOM     36  C   UNL     1       2.863  -3.662   0.266  1.00  0.00     0.338 C 
ATOM     37  O   UNL     1       3.895  -3.288  -0.264  1.00  0.00    -0.246 OA
BRANCH  36  38
ATOM     38  C   UNL     1       2.680  -3.691   1.729  1.00  0.00     0.060 A 
ATOM     39  C   UNL     1       1.806  -2.795   2.340  1.00  0.00     0.016 A 
ATOM     40  C   UNL     1       3.525  -4.478   2.509  1.00  0.00     0.016 A 
ATOM     41  C   UNL     1       1.881  -2.579   3.717  1.00  0.00     0.010 A 
ATOM     42  C   UNL     1       3.534  -4.319   3.901  1.00  0.00     0.010 A 
ATOM     43  C   UNL     1       2.769  -3.312   4.517  1.00  0.00    -0.014 A 
BRANCH  43  44
ATOM     44  C   UNL     1       2.993  -2.942   5.949  1.00  0.00     0.031 A 
ATOM     45  C   UNL     1       4.376  -2.541   6.415  1.00  0.00     0.074 A 
ATOM     46  C   UNL     1       1.979  -2.885   6.836  1.00  0.00     0.049 A 
ATOM     47  N   UNL     1       4.818  -2.334   7.632  1.00  0.00    -0.248 NA
ATOM     48  C   UNL     1       5.395  -2.343   5.372  1.00  0.00     0.031 C 
ATOM     49  C   UNL     1       0.570  -3.134   6.535  1.00  0.00     0.029 A 
ATOM     50  N   UNL     1       1.981  -2.583   8.178  1.00  0.00    -0.354 N 
ATOM     51  C   UNL     1       6.164  -2.013   7.501  1.00  0.00     0.074 A 
ATOM     52  C   UNL     1       6.475  -2.068   6.089  1.00  0.00     0.031 C 
ATOM     53  C   UNL     1      -0.158  -2.939   7.646  1.00  0.00     0.029 A 
ATOM     54  C   UNL     1       0.738  -2.649   8.761  1.00  0.00     0.049 A 
ATOM     55  H   UNL     1       2.796  -2.341   8.675  1.00  0.00     0.167 HD
ATOM     56  C   UNL     1       7.063  -1.692   8.462  1.00  0.00     0.037 A 
ATOM     57  C   UNL     1       0.359  -2.545  10.050  1.00  0.00     0.037 A 
ATOM     58  C   UNL     1       6.766  -1.605   9.868  1.00  0.00     0.049 A 
ATOM     59  C   UNL     1       1.397  -2.333  11.118  1.00  0.00     0.074 A 
ATOM     60  C   UNL     1       7.626  -1.318  10.915  1.00  0.00     0.029 A 
ATOM     61  N   UNL     1       5.511  -1.793  10.422  1.00  0.00    -0.354 N 
ATOM     62  N   UNL     1       2.684  -2.124  10.992  1.00  0.00    -0.248 NA
ATOM     63  C   UNL     1       0.931  -2.379  12.513  1.00  0.00     0.031 C 
ATOM     64  C   UNL     1       6.898  -1.375  12.109  1.00  0.00     0.029 A 
ATOM     65  C   UNL     1       5.578  -1.658  11.800  1.00  0.00     0.049 A 
ATOM     66  H   UNL     1       4.693  -1.994   9.913  1.00  0.00     0.167 HD
ATOM     67  C   UNL     1       3.179  -2.006  12.284  1.00  0.00     0.074 A 
ATOM     68  C   UNL     1       2.052  -2.147  13.182  1.00  0.00     0.031 C 
ATOM     69  C   UNL     1       4.456  -1.807  12.689  1.00  0.00     0.037 A 
BRANCH  56  70
ATOM     70  C   UNL     1       8.476  -1.446   8.027  1.00  0.00     0.057 A 
ATOM     71  C   UNL     1       8.863  -0.256   7.398  1.00  0.00     0.134 A 
ATOM     72  C   UNL     1       9.469  -2.404   8.271  1.00  0.00     0.134 A 
ATOM     73  F   UNL     1       7.955   0.692   7.119  1.00  0.00    -0.206 F 
ATOM     74  C   UNL     1      10.187  -0.034   7.015  1.00  0.00     0.040 A 
ATOM     75  C   UNL     1      10.799  -2.185   7.909  1.00  0.00     0.040 A 
ATOM     76  F   UNL     1       9.163  -3.563   8.872  1.00  0.00    -0.206 F 
ATOM     77  C   UNL     1      11.160  -0.997   7.275  1.00  0.00     0.006 A 
ENDBRANCH  56  70
BRANCH  57  78
ATOM     78  C   UNL     1      -1.069  -2.724  10.420  1.00  0.00     0.057 A 
ATOM     79  C   UNL     1      -1.825  -1.668  10.942  1.00  0.00     0.134 A 
ATOM     80  C   UNL     1      -1.706  -3.964  10.279  1.00  0.00     0.134 A 
ATOM     81  F   UNL     1      -1.262  -0.467  11.138  1.00  0.00    -0.206 F 
ATOM     82  C   UNL     1      -3.161  -1.839  11.311  1.00  0.00     0.040 A 
ATOM     83  C   UNL     1      -3.048  -4.141  10.616  1.00  0.00     0.040 A 
ATOM     84  F   UNL     1      -1.034  -5.020   9.797  1.00  0.00    -0.206 F 
ATOM     85  C   UNL     1      -3.778  -3.077  11.139  1.00  0.00     0.006 A 
ENDBRANCH  57  78
BRANCH  69  86
ATOM     86  C   UNL     1       4.704  -1.718  14.165  1.00  0.00     0.057 A 
ATOM     87  C   UNL     1       4.681  -2.856  14.982  1.00  0.00     0.134 A 
ATOM     88  C   UNL     1       5.000  -0.491  14.772  1.00  0.00     0.134 A 
ATOM     89  F   UNL     1       4.391  -4.059  14.464  1.00  0.00    -0.206 F 
ATOM     90  C   UNL     1       4.925  -2.772  16.354  1.00  0.00     0.040 A 
ATOM     91  C   UNL     1       5.266  -0.399  16.139  1.00  0.00     0.040 A 
ATOM     92  F   UNL     1       5.045   0.635  14.044  1.00  0.00    -0.206 F 
ATOM     93  C   UNL     1       5.224  -1.541  16.935  1.00  0.00     0.006 A 
ENDBRANCH  69  86
ENDBRANCH  43  44
ENDBRANCH  36  38
ENDBRANCH  35  36
ENDBRANCH  34  35
ENDBRANCH  33  34
ENDBRANCH  32  33
ENDBRANCH  31  32
ENDBRANCH   1  31
TORSDOF 22
