REMARK SMILES C[C@@H](C(=O)OCCOCCOCCOC(=O)c1ccc(-c2c3nc(c(-c4c(F)cccc4F)c4ccc([nH]4)c(-c4c(F)cccc4F)c4nc(c(-c5c(F)cccc5F)c5ccc2[nH]5)C=C4)C=C3)cc1)c1ccc(N[C@H]2CCC[C@@H]2O)cc1F
REMARK SMILES IDX 9 1 8 2 7 3 6 4 5 5 3 6 4 7 2 8 1 9 71 10 72 11 83 12 73 13
REMARK SMILES IDX 82 14 84 15 74 16 75 17 76 19 77 20 80 21 78 22 79 23 81 24
REMARK SMILES IDX 10 26 11 27 12 28 13 29 14 30 15 31 16 32 17 33 18 34 70 35
REMARK SMILES IDX 19 36 69 37 20 38 21 39 22 40 63 41 23 42 68 43 62 44 64 45
REMARK SMILES IDX 24 46 67 47 61 48 60 49 25 51 51 52 34 53 50 54 35 55 38 56
REMARK SMILES IDX 49 57 65 58 36 59 37 60 48 62 66 63 39 64 26 65 27 66 32 67
REMARK SMILES IDX 28 68 29 69 31 70 33 71 30 72 52 73 53 74 58 75 54 76 55 77
REMARK SMILES IDX 57 78 59 79 56 80 40 81 41 82 46 83 42 84 43 85 45 86 47 87
REMARK SMILES IDX 44 88
REMARK H PARENT 75 18 81 25 64 50 38 61
REMARK Flexibility Score: inf
ROOT
ATOM      1  C   UNL     1       0.518  -3.534   1.601  1.00  0.00     0.188 C 
ENDROOT
BRANCH   1   2
ATOM      2  O   UNL     1       1.280  -4.738   1.537  1.00  0.00    -0.376 OA
BRANCH   2   3
ATOM      3  C   UNL     1       2.490  -4.736   0.778  1.00  0.00     0.202 C 
BRANCH   3   4
ATOM      4  C   UNL     1       2.420  -4.218  -0.665  1.00  0.00     0.261 C 
BRANCH   4   5
ATOM      5  O   UNL     1       1.959  -2.857  -0.739  1.00  0.00    -0.463 OA
BRANCH   5   6
ATOM      6  C   UNL     1       1.464  -2.462  -1.941  1.00  0.00     0.313 C 
ATOM      7  O   UNL     1       1.525  -3.138  -2.963  1.00  0.00    -0.252 OA
BRANCH   6   8
ATOM      8  C   UNL     1       0.795  -1.083  -1.883  1.00  0.00     0.129 C 
ATOM      9  C   UNL     1       1.685  -0.056  -1.159  1.00  0.00     0.025 C 
BRANCH   8  10
ATOM     10  C   UNL     1      -0.673  -1.052  -1.450  1.00  0.00     0.002 A 
ATOM     11  C   UNL     1      -1.307   0.164  -1.143  1.00  0.00     0.010 A 
ATOM     12  C   UNL     1      -1.490  -2.184  -1.453  1.00  0.00     0.129 A 
ATOM     13  C   UNL     1      -2.687   0.233  -0.866  1.00  0.00     0.026 A 
ATOM     14  C   UNL     1      -2.862  -2.112  -1.178  1.00  0.00     0.065 A 
ATOM     15  F   UNL     1      -0.983  -3.393  -1.727  1.00  0.00    -0.207 F 
ATOM     16  C   UNL     1      -3.499  -0.898  -0.900  1.00  0.00     0.037 A 
BRANCH  16  17
ATOM     17  N   UNL     1      -4.863  -0.895  -0.719  1.00  0.00    -0.380 N 
ATOM     18  H   UNL     1      -5.264  -1.789  -0.623  1.00  0.00     0.160 HD
BRANCH  17  19
ATOM     19  C   UNL     1      -5.819   0.207  -0.644  1.00  0.00     0.107 C 
ATOM     20  C   UNL     1      -5.684   1.062   0.618  1.00  0.00     0.027 C 
ATOM     21  C   UNL     1      -5.799   1.185  -1.836  1.00  0.00     0.136 C 
ATOM     22  C   UNL     1      -5.790   2.515   0.155  1.00  0.00     0.005 C 
ATOM     23  C   UNL     1      -6.392   2.456  -1.240  1.00  0.00     0.034 C 
BRANCH  21  24
ATOM     24  O   UNL     1      -6.573   0.744  -2.947  1.00  0.00    -0.391 OA
ATOM     25  H   UNL     1      -7.493   0.613  -2.668  1.00  0.00     0.211 HD
ENDBRANCH  21  24
ENDBRANCH  17  19
ENDBRANCH  16  17
ENDBRANCH   8  10
ENDBRANCH   6   8
ENDBRANCH   5   6
ENDBRANCH   4   5
ENDBRANCH   3   4
ENDBRANCH   2   3
ENDBRANCH   1   2
BRANCH   1  26
ATOM     26  C   UNL     1       1.253  -2.222   1.933  1.00  0.00     0.188 C 
BRANCH  26  27
ATOM     27  O   UNL     1       2.600  -2.406   2.316  1.00  0.00    -0.376 OA
BRANCH  27  28
ATOM     28  C   UNL     1       2.946  -2.130   3.662  1.00  0.00     0.202 C 
BRANCH  28  29
ATOM     29  C   UNL     1       2.201  -2.895   4.767  1.00  0.00     0.261 C 
BRANCH  29  30
ATOM     30  O   UNL     1       0.766  -2.865   4.703  1.00  0.00    -0.460 OA
BRANCH  30  31
ATOM     31  C   UNL     1       0.153  -1.694   4.982  1.00  0.00     0.338 C 
ATOM     32  O   UNL     1       0.679  -0.642   5.303  1.00  0.00    -0.246 OA
BRANCH  31  33
ATOM     33  C   UNL     1      -1.273  -1.850   4.621  1.00  0.00     0.060 A 
ATOM     34  C   UNL     1      -1.821  -1.016   3.639  1.00  0.00     0.016 A 
ATOM     35  C   UNL     1      -2.056  -2.836   5.228  1.00  0.00     0.016 A 
ATOM     36  C   UNL     1      -3.162  -1.153   3.277  1.00  0.00     0.010 A 
ATOM     37  C   UNL     1      -3.406  -2.952   4.883  1.00  0.00     0.010 A 
ATOM     38  C   UNL     1      -3.973  -2.092   3.927  1.00  0.00    -0.014 A 
BRANCH  38  39
ATOM     39  C   UNL     1      -5.445  -2.050   3.749  1.00  0.00     0.031 A 
ATOM     40  C   UNL     1      -6.263  -1.292   4.758  1.00  0.00     0.074 A 
ATOM     41  C   UNL     1      -6.050  -2.668   2.720  1.00  0.00     0.049 A 
ATOM     42  N   UNL     1      -7.562  -1.169   4.853  1.00  0.00    -0.248 NA
ATOM     43  C   UNL     1      -5.511  -0.583   5.805  1.00  0.00     0.031 C 
ATOM     44  C   UNL     1      -5.373  -3.414   1.663  1.00  0.00     0.029 A 
ATOM     45  N   UNL     1      -7.383  -2.772   2.406  1.00  0.00    -0.354 N 
ATOM     46  C   UNL     1      -7.782  -0.390   5.983  1.00  0.00     0.074 A 
ATOM     47  C   UNL     1      -6.486  -0.077   6.544  1.00  0.00     0.031 C 
ATOM     48  C   UNL     1      -6.296  -3.903   0.815  1.00  0.00     0.029 A 
ATOM     49  C   UNL     1      -7.629  -3.531   1.289  1.00  0.00     0.049 A 
ATOM     50  H   UNL     1      -8.096  -2.341   2.932  1.00  0.00     0.167 HD
ATOM     51  C   UNL     1      -8.959   0.024   6.509  1.00  0.00     0.037 A 
ATOM     52  C   UNL     1      -8.798  -3.900   0.729  1.00  0.00     0.037 A 
ATOM     53  C   UNL     1     -10.249  -0.287   5.956  1.00  0.00     0.049 A 
ATOM     54  C   UNL     1     -10.096  -3.468   1.362  1.00  0.00     0.074 A 
ATOM     55  C   UNL     1     -11.497   0.103   6.408  1.00  0.00     0.029 A 
ATOM     56  N   UNL     1     -10.456  -1.076   4.836  1.00  0.00    -0.354 N 
ATOM     57  N   UNL     1     -10.294  -2.707   2.411  1.00  0.00    -0.248 NA
ATOM     58  C   UNL     1     -11.334  -3.958   0.737  1.00  0.00     0.031 C 
ATOM     59  C   UNL     1     -12.463  -0.486   5.585  1.00  0.00     0.029 A 
ATOM     60  C   UNL     1     -11.814  -1.202   4.592  1.00  0.00     0.049 A 
ATOM     61  H   UNL     1      -9.744  -1.486   4.293  1.00  0.00     0.167 HD
ATOM     62  C   UNL     1     -11.673  -2.612   2.559  1.00  0.00     0.074 A 
ATOM     63  C   UNL     1     -12.264  -3.376   1.481  1.00  0.00     0.031 C 
ATOM     64  C   UNL     1     -12.387  -1.955   3.506  1.00  0.00     0.037 A 
BRANCH  51  65
ATOM     65  C   UNL     1      -8.900   0.831   7.772  1.00  0.00     0.057 A 
ATOM     66  C   UNL     1      -8.458   2.160   7.782  1.00  0.00     0.134 A 
ATOM     67  C   UNL     1      -9.310   0.275   8.990  1.00  0.00     0.134 A 
ATOM     68  F   UNL     1      -8.035   2.745   6.651  1.00  0.00    -0.206 F 
ATOM     69  C   UNL     1      -8.405   2.901   8.964  1.00  0.00     0.040 A 
ATOM     70  C   UNL     1      -9.285   1.013  10.174  1.00  0.00     0.040 A 
ATOM     71  F   UNL     1      -9.744  -0.993   9.047  1.00  0.00    -0.206 F 
ATOM     72  C   UNL     1      -8.826   2.328  10.164  1.00  0.00     0.006 A 
ENDBRANCH  51  65
BRANCH  52  73
ATOM     73  C   UNL     1      -8.809  -4.733  -0.500  1.00  0.00     0.057 A 
ATOM     74  C   UNL     1      -9.251  -4.209  -1.721  1.00  0.00     0.134 A 
ATOM     75  C   UNL     1      -8.415  -6.076  -0.479  1.00  0.00     0.134 A 
ATOM     76  F   UNL     1      -9.662  -2.934  -1.797  1.00  0.00    -0.206 F 
ATOM     77  C   UNL     1      -9.318  -4.995  -2.873  1.00  0.00     0.040 A 
ATOM     78  C   UNL     1      -8.452  -6.866  -1.629  1.00  0.00     0.040 A 
ATOM     79  F   UNL     1      -7.985  -6.637   0.660  1.00  0.00    -0.206 F 
ATOM     80  C   UNL     1      -8.913  -6.327  -2.829  1.00  0.00     0.006 A 
ENDBRANCH  52  73
BRANCH  64  81
ATOM     81  C   UNL     1     -13.884  -1.996   3.400  1.00  0.00     0.057 A 
ATOM     82  C   UNL     1     -14.617  -3.150   3.705  1.00  0.00     0.134 A 
ATOM     83  C   UNL     1     -14.604  -0.851   3.035  1.00  0.00     0.134 A 
ATOM     84  F   UNL     1     -13.988  -4.283   4.050  1.00  0.00    -0.206 F 
ATOM     85  C   UNL     1     -16.011  -3.169   3.632  1.00  0.00     0.040 A 
ATOM     86  C   UNL     1     -15.998  -0.850   2.983  1.00  0.00     0.040 A 
ATOM     87  F   UNL     1     -13.963   0.290   2.739  1.00  0.00    -0.206 F 
ATOM     88  C   UNL     1     -16.706  -2.013   3.277  1.00  0.00     0.006 A 
ENDBRANCH  64  81
ENDBRANCH  38  39
ENDBRANCH  31  33
ENDBRANCH  30  31
ENDBRANCH  29  30
ENDBRANCH  28  29
ENDBRANCH  27  28
ENDBRANCH  26  27
ENDBRANCH   1  26
TORSDOF 21
