REMARK SMILES CCCc1cc(S(F)(F)(F)(F)F)cc2c1O[C@@H](C(F)(F)F)C(C(=O)OCCOCCOCCOC(=O)c1ccc(-c3c4nc(c(-c5c(F)cccc5F)c5ccc([nH]5)c(-c5c(F)cccc5F)c5nc(c(-c6c(F)cccc6F)c6ccc3[nH]6)C=C5)C=C4)cc1)=C2
REMARK SMILES IDX 29 1 28 2 27 3 26 4 25 5 23 6 24 7 22 8 4 9 5 10 15 11 6 12
REMARK SMILES IDX 14 13 16 14 13 15 91 16 17 17 3 18 2 19 1 20 7 21 8 22 9 23
REMARK SMILES IDX 10 24 11 25 12 26 18 27 19 28 20 29 21 30 30 31 31 32 32 33
REMARK SMILES IDX 33 34 34 35 35 36 36 37 37 38 38 39 90 40 39 41 89 42 40 43
REMARK SMILES IDX 41 44 42 45 83 46 43 47 88 48 82 49 84 50 44 51 87 52 81 53
REMARK SMILES IDX 80 54 45 56 71 57 54 58 70 59 55 60 58 61 69 62 85 63 56 64
REMARK SMILES IDX 57 65 68 67 86 68 59 69 46 70 47 71 52 72 48 73 49 74 51 75
REMARK SMILES IDX 53 76 50 77 72 78 73 79 78 80 74 81 75 82 77 83 79 84 76 85
REMARK SMILES IDX 60 86 61 87 66 88 62 89 63 90 65 91 67 92 64 93
REMARK H PARENT 84 55 58 66
REMARK Flexibility Score: inf
ROOT
ATOM      1  C   UNL     1       5.164  -5.358  -1.324  1.00  0.00     0.188 C 
ENDROOT
BRANCH   1   2
ATOM      2  O   UNL     1       5.911  -6.407  -0.726  1.00  0.00    -0.376 OA
BRANCH   2   3
ATOM      3  C   UNL     1       5.191  -7.625  -0.838  1.00  0.00     0.202 C 
BRANCH   3   4
ATOM      4  C   UNL     1       3.852  -7.490  -0.131  1.00  0.00     0.261 C 
BRANCH   4   5
ATOM      5  O   UNL     1       3.105  -6.441  -0.730  1.00  0.00    -0.460 OA
BRANCH   5   6
ATOM      6  C   UNL     1       3.622  -5.119  -0.743  1.00  0.00     0.338 C 
ATOM      7  O   UNL     1       4.753  -4.873  -0.218  1.00  0.00    -0.246 OA
BRANCH   6   8
ATOM      8  C   UNL     1       2.821  -3.996  -1.383  1.00  0.00     0.087 C 
ATOM      9  C   UNL     1       0.474  -0.789  -2.670  1.00  0.00    -0.004 A 
ATOM     10  C   UNL     1      -0.665  -1.025  -3.419  1.00  0.00     0.032 A 
ATOM     11  C   UNL     1       1.198  -1.865  -2.215  1.00  0.00     0.131 A 
ATOM     12  C   UNL     1      -1.071  -2.302  -3.700  1.00  0.00     0.108 A 
ATOM     13  C   UNL     1       0.828  -3.168  -2.495  1.00  0.00     0.019 A 
ATOM     14  O   UNL     1       2.260  -1.619  -1.380  1.00  0.00    -0.475 OA
ATOM     15  C   UNL     1      -0.324  -3.369  -3.246  1.00  0.00     0.036 A 
ATOM     16  C   UNL     1       1.638  -4.237  -1.935  1.00  0.00     0.027 C 
ATOM     17  C   UNL     1       3.360  -2.572  -1.407  1.00  0.00     0.316 C 
BRANCH   9  18
ATOM     18  C   UNL     1       0.981   0.610  -2.362  1.00  0.00     0.039 C 
BRANCH  18  19
ATOM     19  C   UNL     1       0.474   1.043  -0.996  1.00  0.00     0.001 C 
ATOM     20  C   UNL     1       0.981   0.076   0.062  1.00  0.00     0.004 C 
ENDBRANCH  18  19
ENDBRANCH   9  18
BRANCH  12  21
ATOM     21  S   UNL     1      -2.578  -2.589  -4.662  1.00  0.00     0.310 S 
ATOM     22  F   UNL     1      -3.484  -2.656  -3.361  1.00  0.00    -0.094 F 
ATOM     23  F   UNL     1      -2.350  -4.139  -4.499  1.00  0.00    -0.094 F 
ATOM     24  F   UNL     1      -3.866  -2.837  -5.496  1.00  0.00    -0.094 F 
ATOM     25  F   UNL     1      -2.867  -1.036  -4.694  1.00  0.00    -0.094 F 
ATOM     26  F   UNL     1      -1.336  -2.323  -3.720  1.00  0.00    -0.094 F 
ENDBRANCH  12  21
BRANCH  17  27
ATOM     27  C   UNL     1       4.236  -2.353  -0.184  1.00  0.00     0.430 C 
ATOM     28  F   UNL     1       5.246  -3.218  -0.202  1.00  0.00    -0.167 F 
ATOM     29  F   UNL     1       4.714  -1.112  -0.198  1.00  0.00    -0.167 F 
ATOM     30  F   UNL     1       3.514  -2.538   0.918  1.00  0.00    -0.167 F 
ENDBRANCH  17  27
ENDBRANCH   6   8
ENDBRANCH   5   6
ENDBRANCH   4   5
ENDBRANCH   3   4
ENDBRANCH   2   3
ENDBRANCH   1   2
BRANCH   1  31
ATOM     31  C   UNL     1       4.931  -5.676  -2.793  1.00  0.00     0.188 C 
BRANCH  31  32
ATOM     32  O   UNL     1       4.211  -6.895  -2.905  1.00  0.00    -0.376 OA
BRANCH  32  33
ATOM     33  C   UNL     1       4.959  -7.943  -2.306  1.00  0.00     0.202 C 
BRANCH  33  34
ATOM     34  C   UNL     1       6.297  -8.079  -3.013  1.00  0.00     0.261 C 
BRANCH  34  35
ATOM     35  O   UNL     1       7.018  -6.860  -2.901  1.00  0.00    -0.460 OA
BRANCH  35  36
ATOM     36  C   UNL     1       6.471  -5.661  -3.429  1.00  0.00     0.338 C 
ATOM     37  O   UNL     1       5.336  -5.678  -4.002  1.00  0.00    -0.246 OA
BRANCH  36  38
ATOM     38  C   UNL     1       7.242  -4.356  -3.309  1.00  0.00     0.060 A 
ATOM     39  C   UNL     1       6.571  -3.211  -2.911  1.00  0.00     0.016 A 
ATOM     40  C   UNL     1       8.540  -4.333  -3.584  1.00  0.00     0.016 A 
ATOM     41  C   UNL     1       7.304  -2.018  -3.113  1.00  0.00     0.010 A 
ATOM     42  C   UNL     1       9.224  -3.143  -3.631  1.00  0.00     0.010 A 
ATOM     43  C   UNL     1       8.610  -1.965  -3.308  1.00  0.00    -0.014 A 
BRANCH  43  44
ATOM     44  C   UNL     1       9.386  -0.665  -3.179  1.00  0.00     0.031 A 
ATOM     45  C   UNL     1      10.077  -0.209  -4.303  1.00  0.00     0.074 A 
ATOM     46  C   UNL     1       9.367  -0.006  -1.962  1.00  0.00     0.049 A 
ATOM     47  N   UNL     1      10.787   0.914  -4.422  1.00  0.00    -0.248 NA
ATOM     48  C   UNL     1      10.127  -0.925  -5.587  1.00  0.00     0.031 C 
ATOM     49  C   UNL     1       8.666  -0.455  -0.826  1.00  0.00     0.029 A 
ATOM     50  N   UNL     1      10.002   1.170  -1.628  1.00  0.00    -0.354 N 
ATOM     51  C   UNL     1      11.285   1.017  -5.656  1.00  0.00     0.074 A 
ATOM     52  C   UNL     1      10.872  -0.168  -6.421  1.00  0.00     0.031 C 
ATOM     53  C   UNL     1       8.884   0.431   0.181  1.00  0.00     0.029 A 
ATOM     54  C   UNL     1       9.724   1.449  -0.308  1.00  0.00     0.049 A 
ATOM     55  H   UNL     1      10.557   1.717  -2.229  1.00  0.00     0.167 HD
ATOM     56  C   UNL     1      12.065   2.052  -6.173  1.00  0.00     0.037 A 
ATOM     57  C   UNL     1      10.170   2.523   0.445  1.00  0.00     0.037 A 
ATOM     58  C   UNL     1      12.475   3.149  -5.433  1.00  0.00     0.049 A 
ATOM     59  C   UNL     1      10.999   3.530  -0.057  1.00  0.00     0.074 A 
ATOM     60  C   UNL     1      13.255   4.206  -5.941  1.00  0.00     0.029 A 
ATOM     61  N   UNL     1      12.218   3.415  -4.106  1.00  0.00    -0.354 N 
ATOM     62  N   UNL     1      11.463   3.653  -1.301  1.00  0.00    -0.248 NA
ATOM     63  C   UNL     1      11.504   4.656   0.740  1.00  0.00     0.031 C 
ATOM     64  C   UNL     1      13.473   5.092  -4.933  1.00  0.00     0.029 A 
ATOM     65  C   UNL     1      12.834   4.603  -3.778  1.00  0.00     0.049 A 
ATOM     66  H   UNL     1      11.686   2.853  -3.497  1.00  0.00     0.167 HD
ATOM     67  C   UNL     1      12.208   4.755  -1.407  1.00  0.00     0.074 A 
ATOM     68  C   UNL     1      12.252   5.412  -0.094  1.00  0.00     0.031 C 
ATOM     69  C   UNL     1      12.851   5.241  -2.547  1.00  0.00     0.037 A 
BRANCH  56  70
ATOM     70  C   UNL     1      12.487   1.972  -7.631  1.00  0.00     0.057 A 
ATOM     71  C   UNL     1      11.516   1.931  -8.618  1.00  0.00     0.134 A 
ATOM     72  C   UNL     1      13.780   1.950  -7.935  1.00  0.00     0.134 A 
ATOM     73  F   UNL     1      10.235   2.204  -8.387  1.00  0.00    -0.206 F 
ATOM     74  C   UNL     1      12.011   1.573  -9.894  1.00  0.00     0.040 A 
ATOM     75  C   UNL     1      14.191   1.729  -9.227  1.00  0.00     0.040 A 
ATOM     76  F   UNL     1      14.685   2.142  -6.979  1.00  0.00    -0.206 F 
ATOM     77  C   UNL     1      13.284   1.619 -10.245  1.00  0.00     0.006 A 
ENDBRANCH  56  70
BRANCH  57  78
ATOM     78  C   UNL     1       9.734   2.611   1.898  1.00  0.00     0.057 A 
ATOM     79  C   UNL     1       9.017   3.716   2.326  1.00  0.00     0.134 A 
ATOM     80  C   UNL     1      10.053   1.631   2.735  1.00  0.00     0.134 A 
ATOM     81  F   UNL     1       8.460   4.589   1.490  1.00  0.00    -0.206 F 
ATOM     82  C   UNL     1       8.929   3.833   3.733  1.00  0.00     0.040 A 
ATOM     83  C   UNL     1       9.815   1.756   4.082  1.00  0.00     0.040 A 
ATOM     84  F   UNL     1      10.608   0.518   2.264  1.00  0.00    -0.206 F 
ATOM     85  C   UNL     1       9.164   2.849   4.582  1.00  0.00     0.006 A 
ENDBRANCH  57  78
BRANCH  69  86
ATOM     86  C   UNL     1      13.616   6.550  -2.432  1.00  0.00     0.057 A 
ATOM     87  C   UNL     1      14.668   6.638  -1.536  1.00  0.00     0.134 A 
ATOM     88  C   UNL     1      13.267   7.583  -3.190  1.00  0.00     0.134 A 
ATOM     89  F   UNL     1      15.212   5.576  -0.949  1.00  0.00    -0.206 F 
ATOM     90  C   UNL     1      15.112   7.961  -1.302  1.00  0.00     0.040 A 
ATOM     91  C   UNL     1      13.841   8.817  -2.997  1.00  0.00     0.040 A 
ATOM     92  F   UNL     1      12.355   7.423  -4.144  1.00  0.00    -0.206 F 
ATOM     93  C   UNL     1      14.845   8.990  -2.086  1.00  0.00     0.006 A 
ENDBRANCH  69  86
ENDBRANCH  43  44
ENDBRANCH  36  38
ENDBRANCH  35  36
ENDBRANCH  34  35
ENDBRANCH  33  34
ENDBRANCH  32  33
ENDBRANCH  31  32
ENDBRANCH   1  31
TORSDOF 21
