REMARK SMILES O=C(OCCOCCOCCOC(=O)c1cc(NC(=O)c2ccccc2Cl)ccc1N1CCC[C@H](C[NH+]2CCCC2)C1)c1ccc(-c2c3nc(c(-c4c(F)cccc4F)c4ccc([nH]4)c(-c4c(F)cccc4F)c4nc(c(-c5c(F)cccc5F)c5ccc2[nH]5)C=C4)C=C3)cc1
REMARK SMILES IDX 8 1 7 2 6 3 5 4 4 5 3 6 2 7 1 8 43 9 44 10 96 11 45 12 95 13
REMARK SMILES IDX 46 14 47 15 48 16 89 17 49 18 94 19 88 20 90 21 50 22 93 23
REMARK SMILES IDX 87 24 86 25 51 27 77 28 60 29 76 30 61 31 64 32 75 33 91 34
REMARK SMILES IDX 62 35 63 36 74 38 92 39 65 40 52 41 53 42 58 43 54 44 55 45
REMARK SMILES IDX 57 46 59 47 56 48 78 49 79 50 84 51 80 52 81 53 83 54 85 55
REMARK SMILES IDX 82 56 66 57 67 58 72 59 68 60 69 61 71 62 73 63 70 64 9 65
REMARK SMILES IDX 10 66 11 67 12 68 13 69 14 70 15 71 16 72 30 73 17 74 29 75
REMARK SMILES IDX 28 76 31 77 32 78 42 79 33 80 35 81 34 82 36 83 37 84 38 85
REMARK SMILES IDX 41 86 39 88 40 89 18 90 19 91 20 93 21 94 22 95 26 96 23 97
REMARK SMILES IDX 25 98 27 99 24 100
REMARK H PARENT 90 26 64 37 37 87 18 92
REMARK Flexibility Score: inf
ROOT
ATOM      1  C   UNL     1       2.270   0.755  -2.861  1.00  0.00     0.188 C 
ENDROOT
BRANCH   1   2
ATOM      2  C   UNL     1       2.835   0.213  -1.544  1.00  0.00     0.188 C 
BRANCH   2   3
ATOM      3  O   UNL     1       4.232   0.406  -1.324  1.00  0.00    -0.376 OA
BRANCH   3   4
ATOM      4  C   UNL     1       5.002  -0.786  -1.515  1.00  0.00     0.202 C 
BRANCH   4   5
ATOM      5  C   UNL     1       5.072  -1.699  -0.283  1.00  0.00     0.261 C 
BRANCH   5   6
ATOM      6  O   UNL     1       3.785  -1.928   0.313  1.00  0.00    -0.460 OA
BRANCH   6   7
ATOM      7  C   UNL     1       3.172  -1.280   1.330  1.00  0.00     0.338 C 
ATOM      8  O   UNL     1       2.111  -1.753   1.741  1.00  0.00    -0.246 OA
BRANCH   7   9
ATOM      9  C   UNL     1       3.672  -0.029   1.998  1.00  0.00     0.060 A 
ATOM     10  C   UNL     1       4.789   0.720   1.629  1.00  0.00     0.016 A 
ATOM     11  C   UNL     1       2.935   0.424   3.112  1.00  0.00     0.016 A 
ATOM     12  C   UNL     1       5.245   1.779   2.413  1.00  0.00     0.010 A 
ATOM     13  C   UNL     1       3.351   1.522   3.875  1.00  0.00     0.010 A 
ATOM     14  C   UNL     1       4.562   2.143   3.573  1.00  0.00    -0.014 A 
BRANCH  14  15
ATOM     15  C   UNL     1       5.295   2.950   4.572  1.00  0.00     0.031 A 
ATOM     16  C   UNL     1       5.923   2.221   5.728  1.00  0.00     0.074 A 
ATOM     17  C   UNL     1       5.534   4.256   4.365  1.00  0.00     0.049 A 
ATOM     18  N   UNL     1       6.736   2.668   6.648  1.00  0.00    -0.248 NA
ATOM     19  C   UNL     1       5.591   0.792   5.864  1.00  0.00     0.031 C 
ATOM     20  C   UNL     1       4.987   5.044   3.264  1.00  0.00     0.029 A 
ATOM     21  N   UNL     1       6.337   5.136   5.045  1.00  0.00    -0.354 N 
ATOM     22  C   UNL     1       6.978   1.587   7.487  1.00  0.00     0.074 A 
ATOM     23  C   UNL     1       6.221   0.468   6.979  1.00  0.00     0.031 C 
ATOM     24  C   UNL     1       5.519   6.277   3.311  1.00  0.00     0.029 A 
ATOM     25  C   UNL     1       6.442   6.363   4.435  1.00  0.00     0.049 A 
ATOM     26  H   UNL     1       6.794   4.911   5.887  1.00  0.00     0.167 HD
ATOM     27  C   UNL     1       7.763   1.532   8.586  1.00  0.00     0.037 A 
ATOM     28  C   UNL     1       7.219   7.421   4.735  1.00  0.00     0.037 A 
ATOM     29  C   UNL     1       8.523   2.648   9.072  1.00  0.00     0.049 A 
ATOM     30  C   UNL     1       8.114   7.326   5.940  1.00  0.00     0.074 A 
ATOM     31  C   UNL     1       9.314   2.732  10.202  1.00  0.00     0.029 A 
ATOM     32  N   UNL     1       8.587   3.881   8.439  1.00  0.00    -0.354 N 
ATOM     33  N   UNL     1       8.319   6.306   6.739  1.00  0.00    -0.248 NA
ATOM     34  C   UNL     1       8.873   8.532   6.298  1.00  0.00     0.031 C 
ATOM     35  C   UNL     1       9.837   4.029  10.266  1.00  0.00     0.029 A 
ATOM     36  C   UNL     1       9.403   4.737   9.155  1.00  0.00     0.049 A 
ATOM     37  H   UNL     1       8.120   4.112   7.603  1.00  0.00     0.167 HD
ATOM     38  C   UNL     1       9.224   6.745   7.695  1.00  0.00     0.074 A 
ATOM     39  C   UNL     1       9.562   8.112   7.349  1.00  0.00     0.031 C 
ATOM     40  C   UNL     1       9.718   6.090   8.774  1.00  0.00     0.037 A 
BRANCH  27  41
ATOM     41  C   UNL     1       7.764   0.240   9.345  1.00  0.00     0.057 A 
ATOM     42  C   UNL     1       8.393  -0.912   8.856  1.00  0.00     0.134 A 
ATOM     43  C   UNL     1       7.057   0.131  10.549  1.00  0.00     0.134 A 
ATOM     44  F   UNL     1       9.054  -0.883   7.688  1.00  0.00    -0.206 F 
ATOM     45  C   UNL     1       8.290  -2.136   9.520  1.00  0.00     0.040 A 
ATOM     46  C   UNL     1       6.968  -1.082  11.234  1.00  0.00     0.040 A 
ATOM     47  F   UNL     1       6.423   1.194  11.065  1.00  0.00    -0.206 F 
ATOM     48  C   UNL     1       7.576  -2.222  10.714  1.00  0.00     0.006 A 
ENDBRANCH  27  41
BRANCH  28  49
ATOM     49  C   UNL     1       7.221   8.633   3.870  1.00  0.00     0.057 A 
ATOM     50  C   UNL     1       8.360   9.001   3.142  1.00  0.00     0.134 A 
ATOM     51  C   UNL     1       6.095   9.457   3.748  1.00  0.00     0.134 A 
ATOM     52  F   UNL     1       9.479   8.265   3.222  1.00  0.00    -0.206 F 
ATOM     53  C   UNL     1       8.386  10.146   2.342  1.00  0.00     0.040 A 
ATOM     54  C   UNL     1       6.096  10.588   2.929  1.00  0.00     0.040 A 
ATOM     55  F   UNL     1       4.966   9.162   4.410  1.00  0.00    -0.206 F 
ATOM     56  C   UNL     1       7.247  10.940   2.229  1.00  0.00     0.006 A 
ENDBRANCH  28  49
BRANCH  40  57
ATOM     57  C   UNL     1      10.676   6.844   9.643  1.00  0.00     0.057 A 
ATOM     58  C   UNL     1      10.240   7.858  10.505  1.00  0.00     0.134 A 
ATOM     59  C   UNL     1      12.038   6.524   9.647  1.00  0.00     0.134 A 
ATOM     60  F   UNL     1       8.947   8.216  10.535  1.00  0.00    -0.206 F 
ATOM     61  C   UNL     1      11.132   8.544  11.327  1.00  0.00     0.040 A 
ATOM     62  C   UNL     1      12.936   7.187  10.483  1.00  0.00     0.040 A 
ATOM     63  F   UNL     1      12.513   5.555   8.850  1.00  0.00    -0.206 F 
ATOM     64  C   UNL     1      12.484   8.204  11.322  1.00  0.00     0.006 A 
ENDBRANCH  40  57
ENDBRANCH  14  15
ENDBRANCH   7   9
ENDBRANCH   6   7
ENDBRANCH   5   6
ENDBRANCH   4   5
ENDBRANCH   3   4
ENDBRANCH   2   3
ENDBRANCH   1   2
BRANCH   1  65
ATOM     65  O   UNL     1       3.062   0.620  -4.030  1.00  0.00    -0.376 OA
BRANCH  65  66
ATOM     66  C   UNL     1       4.278   1.358  -4.092  1.00  0.00     0.202 C 
BRANCH  66  67
ATOM     67  C   UNL     1       4.231   2.877  -3.918  1.00  0.00     0.261 C 
BRANCH  67  68
ATOM     68  O   UNL     1       3.752   3.340  -2.641  1.00  0.00    -0.460 OA
BRANCH  68  69
ATOM     69  C   UNL     1       2.620   4.091  -2.704  1.00  0.00     0.340 C 
ATOM     70  O   UNL     1       1.876   4.195  -3.667  1.00  0.00    -0.246 OA
BRANCH  69  71
ATOM     71  C   UNL     1       2.343   4.803  -1.442  1.00  0.00     0.085 A 
ATOM     72  C   UNL     1       1.049   4.569  -0.917  1.00  0.00     0.044 A 
ATOM     73  C   UNL     1       3.217   5.757  -0.880  1.00  0.00     0.051 A 
ATOM     74  C   UNL     1       0.578   5.294   0.172  1.00  0.00     0.042 A 
ATOM     75  C   UNL     1       2.700   6.472   0.219  1.00  0.00     0.029 A 
ATOM     76  C   UNL     1       1.408   6.263   0.725  1.00  0.00     0.028 A 
BRANCH  73  77
ATOM     77  N   UNL     1       4.475   6.093  -1.354  1.00  0.00    -0.370 N 
ATOM     78  C   UNL     1       5.595   6.291  -0.433  1.00  0.00     0.116 C 
ATOM     79  C   UNL     1       4.846   6.072  -2.765  1.00  0.00     0.126 C 
ATOM     80  C   UNL     1       6.293   7.612  -0.749  1.00  0.00     0.022 C 
ATOM     81  C   UNL     1       5.498   7.401  -3.166  1.00  0.00     0.064 C 
ATOM     82  C   UNL     1       6.682   7.689  -2.226  1.00  0.00     0.013 C 
BRANCH  81  83
ATOM     83  C   UNL     1       4.407   8.499  -3.223  1.00  0.00     0.267 C 
BRANCH  83  84
ATOM     84  N   UNL     1       4.600   9.651  -4.106  1.00  0.00    -0.335 N 
ATOM     85  C   UNL     1       4.794   9.324  -5.517  1.00  0.00     0.262 C 
ATOM     86  C   UNL     1       5.640  10.595  -3.725  1.00  0.00     0.262 C 
ATOM     87  H   UNL     1       3.697  10.108  -3.979  1.00  0.00     0.348 HD
ATOM     88  C   UNL     1       6.285   9.448  -5.769  1.00  0.00     0.067 C 
ATOM     89  C   UNL     1       6.777  10.436  -4.726  1.00  0.00     0.067 C 
ENDBRANCH  83  84
ENDBRANCH  81  83
ENDBRANCH  73  77
BRANCH  74  90
ATOM     90  N   UNL     1      -0.724   5.187   0.692  1.00  0.00    -0.322 N 
ATOM     91  C   UNL     1      -1.662   4.184   0.605  1.00  0.00     0.257 C 
ATOM     92  H   UNL     1      -1.018   5.971   1.211  1.00  0.00     0.170 HD
ATOM     93  O   UNL     1      -2.840   4.400   0.882  1.00  0.00    -0.269 OA
BRANCH  91  94
ATOM     94  C   UNL     1      -1.266   2.805   0.282  1.00  0.00     0.058 A 
ATOM     95  C   UNL     1      -1.811   2.211  -0.865  1.00  0.00     0.015 A 
ATOM     96  C   UNL     1      -0.440   2.065   1.133  1.00  0.00     0.053 A 
ATOM     97  C   UNL     1      -1.476   0.897  -1.195  1.00  0.00     0.001 A 
ATOM     98  C   UNL     1      -0.127   0.746   0.803  1.00  0.00     0.021 A 
ATOM     99  Cl  UNL     1       0.173   2.696   2.619  1.00  0.00    -0.083 Cl
ATOM    100  C   UNL     1      -0.629   0.167  -0.363  1.00  0.00     0.002 A 
ENDBRANCH  91  94
ENDBRANCH  74  90
ENDBRANCH  69  71
ENDBRANCH  68  69
ENDBRANCH  67  68
ENDBRANCH  66  67
ENDBRANCH  65  66
ENDBRANCH   1  65
TORSDOF 22
