REMARK SMILES Cc1ccc(-c2c[nH]c(=O)cc2C(=O)OCCOCCOCCOC(=O)c2ccc(-c3c4nc(c(-c5c(F)cccc5F)c5ccc([nH]5)c(-c5c(F)cccc5F)c5nc(c(-c6c(F)cccc6F)c6ccc3[nH]6)C=C5)C=C4)cc2)cc1Cl
REMARK SMILES IDX 20 1 19 2 18 3 17 4 16 5 15 6 13 7 14 8 12 9 6 10 7 11 8 12
REMARK SMILES IDX 11 13 9 14 10 16 5 17 1 18 2 19 3 20 82 21 4 22 81 23 83 24
REMARK SMILES IDX 21 25 22 26 23 27 24 28 25 29 26 30 27 31 28 32 80 33 29 34
REMARK SMILES IDX 79 35 30 36 31 37 32 38 73 39 33 40 78 41 72 42 74 43 34 44
REMARK SMILES IDX 77 45 71 46 70 47 35 49 61 50 44 51 60 52 45 53 48 54 59 55
REMARK SMILES IDX 75 56 46 57 47 58 58 60 76 61 49 62 36 63 37 64 42 65 38 66
REMARK SMILES IDX 39 67 41 68 43 69 40 70 62 71 63 72 68 73 64 74 65 75 67 76
REMARK SMILES IDX 69 77 66 78 50 79 51 80 56 81 52 82 53 83 55 84 57 85 54 86
REMARK H PARENT 8 15 74 48 48 59
REMARK Flexibility Score: inf
ROOT
ATOM      1  C   UNL     1      -5.524  -0.637  -1.446  1.00  0.00     0.188 C 
ENDROOT
BRANCH   1   2
ATOM      2  C   UNL     1      -4.594   0.216  -2.333  1.00  0.00     0.188 C 
BRANCH   2   3
ATOM      3  O   UNL     1      -5.070   0.361  -3.656  1.00  0.00    -0.376 OA
BRANCH   3   4
ATOM      4  C   UNL     1      -4.280  -0.234  -4.668  1.00  0.00     0.202 C 
BRANCH   4   5
ATOM      5  C   UNL     1      -4.168  -1.768  -4.662  1.00  0.00     0.261 C 
BRANCH   5   6
ATOM      6  O   UNL     1      -4.084  -2.396  -3.370  1.00  0.00    -0.460 OA
BRANCH   6   7
ATOM      7  C   UNL     1      -2.862  -2.686  -2.856  1.00  0.00     0.339 C 
ATOM      8  O   UNL     1      -1.792  -2.406  -3.371  1.00  0.00    -0.246 OA
BRANCH   7   9
ATOM      9  C   UNL     1      -3.020  -3.331  -1.512  1.00  0.00     0.074 A 
ATOM     10  C   UNL     1      -2.239  -2.890  -0.346  1.00  0.00     0.013 A 
ATOM     11  C   UNL     1      -2.419  -3.530   0.825  1.00  0.00     0.095 A 
ATOM     12  N   UNL     1      -3.332  -4.549   0.935  1.00  0.00    -0.328 N 
ATOM     13  C   UNL     1      -3.938  -4.308  -1.394  1.00  0.00     0.087 A 
ATOM     14  C   UNL     1      -4.139  -4.976  -0.088  1.00  0.00     0.248 A 
ATOM     15  H   UNL     1      -3.412  -5.002   1.805  1.00  0.00     0.169 HD
ATOM     16  O   UNL     1      -4.978  -5.856   0.053  1.00  0.00    -0.270 OA
BRANCH  10  17
ATOM     17  C   UNL     1      -1.396  -1.682  -0.343  1.00  0.00    -0.015 A 
ATOM     18  C   UNL     1       0.786   2.010  -0.886  1.00  0.00     0.046 C 
ATOM     19  C   UNL     1       0.060   0.711  -0.672  1.00  0.00    -0.032 A 
ATOM     20  C   UNL     1      -1.328   0.739  -0.489  1.00  0.00     0.005 A 
ATOM     21  C   UNL     1       0.714  -0.531  -0.637  1.00  0.00     0.044 A 
ATOM     22  C   UNL     1      -2.030  -0.441  -0.260  1.00  0.00     0.009 A 
ATOM     23  C   UNL     1      -0.010  -1.724  -0.495  1.00  0.00     0.029 A 
ATOM     24  Cl  UNL     1       2.434  -0.638  -0.757  1.00  0.00    -0.084 Cl
ENDBRANCH  10  17
ENDBRANCH   7   9
ENDBRANCH   6   7
ENDBRANCH   5   6
ENDBRANCH   4   5
ENDBRANCH   3   4
ENDBRANCH   2   3
ENDBRANCH   1   2
BRANCH   1  25
ATOM     25  O   UNL     1      -6.896  -0.800  -1.770  1.00  0.00    -0.376 OA
BRANCH  25  26
ATOM     26  C   UNL     1      -7.575   0.231  -2.464  1.00  0.00     0.202 C 
BRANCH  26  27
ATOM     27  C   UNL     1      -7.685   1.613  -1.801  1.00  0.00     0.261 C 
BRANCH  27  28
ATOM     28  O   UNL     1      -6.570   2.023  -0.989  1.00  0.00    -0.460 OA
BRANCH  28  29
ATOM     29  C   UNL     1      -6.700   1.788   0.338  1.00  0.00     0.338 C 
ATOM     30  O   UNL     1      -7.661   1.284   0.904  1.00  0.00    -0.246 OA
BRANCH  29  31
ATOM     31  C   UNL     1      -5.434   2.095   1.045  1.00  0.00     0.060 A 
ATOM     32  C   UNL     1      -4.910   1.129   1.916  1.00  0.00     0.016 A 
ATOM     33  C   UNL     1      -4.803   3.335   0.924  1.00  0.00     0.016 A 
ATOM     34  C   UNL     1      -3.783   1.409   2.695  1.00  0.00     0.010 A 
ATOM     35  C   UNL     1      -3.684   3.622   1.721  1.00  0.00     0.010 A 
ATOM     36  C   UNL     1      -3.186   2.674   2.638  1.00  0.00    -0.014 A 
BRANCH  36  37
ATOM     37  C   UNL     1      -2.177   3.076   3.660  1.00  0.00     0.031 A 
ATOM     38  C   UNL     1      -2.631   3.858   4.856  1.00  0.00     0.074 A 
ATOM     39  C   UNL     1      -0.879   2.733   3.576  1.00  0.00     0.049 A 
ATOM     40  N   UNL     1      -1.925   4.312   5.859  1.00  0.00    -0.248 NA
ATOM     41  C   UNL     1      -4.073   4.127   4.954  1.00  0.00     0.031 C 
ATOM     42  C   UNL     1      -0.320   1.850   2.571  1.00  0.00     0.029 A 
ATOM     43  N   UNL     1       0.209   3.095   4.333  1.00  0.00    -0.354 N 
ATOM     44  C   UNL     1      -2.840   4.875   6.733  1.00  0.00     0.074 A 
ATOM     45  C   UNL     1      -4.143   4.774   6.108  1.00  0.00     0.031 C 
ATOM     46  C   UNL     1       1.016   1.810   2.695  1.00  0.00     0.029 A 
ATOM     47  C   UNL     1       1.406   2.661   3.811  1.00  0.00     0.049 A 
ATOM     48  H   UNL     1       0.140   3.613   5.168  1.00  0.00     0.167 HD
ATOM     49  C   UNL     1      -2.619   5.394   7.964  1.00  0.00     0.037 A 
ATOM     50  C   UNL     1       2.675   2.918   4.178  1.00  0.00     0.037 A 
ATOM     51  C   UNL     1      -1.320   5.530   8.569  1.00  0.00     0.049 A 
ATOM     52  C   UNL     1       2.920   3.683   5.445  1.00  0.00     0.074 A 
ATOM     53  C   UNL     1      -0.999   6.049   9.812  1.00  0.00     0.029 A 
ATOM     54  N   UNL     1      -0.122   5.169   7.968  1.00  0.00    -0.354 N 
ATOM     55  N   UNL     1       2.045   4.180   6.284  1.00  0.00    -0.248 NA
ATOM     56  C   UNL     1       4.319   3.877   5.847  1.00  0.00     0.031 C 
ATOM     57  C   UNL     1       0.395   6.063   9.935  1.00  0.00     0.029 A 
ATOM     58  C   UNL     1       0.942   5.491   8.798  1.00  0.00     0.049 A 
ATOM     59  H   UNL     1      -0.040   4.745   7.083  1.00  0.00     0.167 HD
ATOM     60  C   UNL     1       2.781   4.682   7.348  1.00  0.00     0.074 A 
ATOM     61  C   UNL     1       4.176   4.445   7.037  1.00  0.00     0.031 C 
ATOM     62  C   UNL     1       2.332   5.257   8.489  1.00  0.00     0.037 A 
BRANCH  49  63
ATOM     63  C   UNL     1      -3.824   5.875   8.715  1.00  0.00     0.057 A 
ATOM     64  C   UNL     1      -4.782   4.985   9.221  1.00  0.00     0.134 A 
ATOM     65  C   UNL     1      -4.034   7.242   8.927  1.00  0.00     0.134 A 
ATOM     66  F   UNL     1      -4.649   3.663   9.035  1.00  0.00    -0.206 F 
ATOM     67  C   UNL     1      -5.924   5.441   9.881  1.00  0.00     0.040 A 
ATOM     68  C   UNL     1      -5.157   7.709   9.610  1.00  0.00     0.040 A 
ATOM     69  F   UNL     1      -3.155   8.146   8.468  1.00  0.00    -0.206 F 
ATOM     70  C   UNL     1      -6.111   6.808  10.081  1.00  0.00     0.006 A 
ENDBRANCH  49  63
BRANCH  50  71
ATOM     71  C   UNL     1       3.808   2.431   3.349  1.00  0.00     0.057 A 
ATOM     72  C   UNL     1       4.653   1.407   3.788  1.00  0.00     0.134 A 
ATOM     73  C   UNL     1       4.087   3.005   2.102  1.00  0.00     0.134 A 
ATOM     74  F   UNL     1       4.449   0.829   4.981  1.00  0.00    -0.206 F 
ATOM     75  C   UNL     1       5.749   0.987   3.031  1.00  0.00     0.040 A 
ATOM     76  C   UNL     1       5.167   2.582   1.325  1.00  0.00     0.040 A 
ATOM     77  F   UNL     1       3.312   3.990   1.621  1.00  0.00    -0.206 F 
ATOM     78  C   UNL     1       6.007   1.575   1.794  1.00  0.00     0.006 A 
ENDBRANCH  50  71
BRANCH  62  79
ATOM     79  C   UNL     1       3.360   5.621   9.523  1.00  0.00     0.057 A 
ATOM     80  C   UNL     1       4.275   6.664   9.334  1.00  0.00     0.134 A 
ATOM     81  C   UNL     1       3.421   4.920  10.735  1.00  0.00     0.134 A 
ATOM     82  F   UNL     1       4.282   7.364   8.190  1.00  0.00    -0.206 F 
ATOM     83  C   UNL     1       5.233   6.977  10.300  1.00  0.00     0.040 A 
ATOM     84  C   UNL     1       4.353   5.245  11.722  1.00  0.00     0.040 A 
ATOM     85  F   UNL     1       2.571   3.913  10.985  1.00  0.00    -0.206 F 
ATOM     86  C   UNL     1       5.269   6.271  11.501  1.00  0.00     0.006 A 
ENDBRANCH  62  79
ENDBRANCH  36  37
ENDBRANCH  29  31
ENDBRANCH  28  29
ENDBRANCH  27  28
ENDBRANCH  26  27
ENDBRANCH  25  26
ENDBRANCH   1  25
TORSDOF 18
