REMARK SMILES C[C@@H](NC(=O)NCCC(=O)NC1CC1)C(=O)OCCOCCOCCOC(=O)c1ccc(-c2c3nc(c(-c4c(F)cccc4F)c4ccc([nH]4)c(-c4c(F)cccc4F)c4nc(c(-c5c(F)cccc5F)c5ccc2[nH]5)C=C4)C=C3)cc1
REMARK SMILES IDX 20 1 19 2 18 3 17 4 15 5 16 6 2 7 1 8 3 9 4 10 5 12 6 13
REMARK SMILES IDX 7 15 8 16 9 17 10 18 11 19 12 21 13 22 14 23 21 24 22 25
REMARK SMILES IDX 23 26 24 27 25 28 26 29 27 30 28 31 29 32 30 33 82 34 31 35
REMARK SMILES IDX 81 36 32 37 33 38 34 39 75 40 35 41 80 42 74 43 76 44 36 45
REMARK SMILES IDX 79 46 73 47 72 48 37 50 63 51 46 52 62 53 47 54 50 55 61 56
REMARK SMILES IDX 77 57 48 58 49 59 60 61 78 62 51 63 38 64 39 65 44 66 40 67
REMARK SMILES IDX 41 68 43 69 45 70 42 71 64 72 65 73 70 74 66 75 67 76 69 77
REMARK SMILES IDX 71 78 68 79 52 80 53 81 58 82 54 83 55 84 57 85 59 86 56 87
REMARK H PARENT 3 11 6 14 11 20 76 49 50 60
REMARK Flexibility Score: inf
ROOT
ATOM      1  O   UNL     1      -3.889   0.414  -0.915  1.00  0.00    -0.376 OA
ENDROOT
BRANCH   1   2
ATOM      2  C   UNL     1      -3.730  -0.236   0.336  1.00  0.00     0.202 C 
BRANCH   2   3
ATOM      3  C   UNL     1      -2.730   0.447   1.274  1.00  0.00     0.261 C 
BRANCH   3   4
ATOM      4  O   UNL     1      -1.305   0.162   1.291  1.00  0.00    -0.462 OA
BRANCH   4   5
ATOM      5  C   UNL     1      -0.580  -0.712   0.560  1.00  0.00     0.328 C 
ATOM      6  O   UNL     1      -0.922  -1.306  -0.457  1.00  0.00    -0.250 OA
BRANCH   5   7
ATOM      7  C   UNL     1       0.776  -0.967   1.184  1.00  0.00     0.190 C 
ATOM      8  C   UNL     1       1.601   0.312   1.001  1.00  0.00     0.043 C 
BRANCH   7   9
ATOM      9  N   UNL     1       0.656  -1.295   2.602  1.00  0.00    -0.325 N 
ATOM     10  C   UNL     1      -0.214  -2.014   3.319  1.00  0.00     0.315 C 
ATOM     11  H   UNL     1       1.373  -0.900   3.150  1.00  0.00     0.166 HD
ATOM     12  O   UNL     1      -0.061  -2.033   4.542  1.00  0.00    -0.249 OA
ATOM     13  N   UNL     1      -1.272  -2.667   2.820  1.00  0.00    -0.338 N 
ATOM     14  H   UNL     1      -1.919  -2.921   3.517  1.00  0.00     0.165 HD
BRANCH  13  15
ATOM     15  C   UNL     1      -1.693  -3.089   1.494  1.00  0.00     0.127 C 
BRANCH  15  16
ATOM     16  C   UNL     1      -2.698  -4.219   1.338  1.00  0.00     0.121 C 
BRANCH  16  17
ATOM     17  C   UNL     1      -3.779  -4.142   2.369  1.00  0.00     0.221 C 
ATOM     18  O   UNL     1      -4.836  -3.552   2.142  1.00  0.00    -0.275 OA
ATOM     19  N   UNL     1      -3.564  -4.686   3.602  1.00  0.00    -0.353 N 
ATOM     20  H   UNL     1      -4.326  -4.577   4.216  1.00  0.00     0.163 HD
BRANCH  19  21
ATOM     21  C   UNL     1      -2.458  -5.382   4.186  1.00  0.00     0.082 C 
ATOM     22  C   UNL     1      -1.943  -6.674   3.615  1.00  0.00     0.027 C 
ATOM     23  C   UNL     1      -1.035  -5.488   3.709  1.00  0.00     0.027 C 
ENDBRANCH  19  21
ENDBRANCH  16  17
ENDBRANCH  15  16
ENDBRANCH  13  15
ENDBRANCH   7   9
ENDBRANCH   5   7
ENDBRANCH   4   5
ENDBRANCH   3   4
ENDBRANCH   2   3
ENDBRANCH   1   2
BRANCH   1  24
ATOM     24  C   UNL     1      -2.888   0.099  -1.867  1.00  0.00     0.188 C 
BRANCH  24  25
ATOM     25  C   UNL     1      -1.674   1.044  -1.820  1.00  0.00     0.188 C 
BRANCH  25  26
ATOM     26  O   UNL     1      -1.824   2.402  -1.456  1.00  0.00    -0.376 OA
BRANCH  26  27
ATOM     27  C   UNL     1      -3.007   3.064  -1.839  1.00  0.00     0.202 C 
BRANCH  27  28
ATOM     28  C   UNL     1      -3.426   3.068  -3.323  1.00  0.00     0.261 C 
BRANCH  28  29
ATOM     29  O   UNL     1      -2.983   1.980  -4.156  1.00  0.00    -0.460 OA
BRANCH  29  30
ATOM     30  C   UNL     1      -1.763   2.100  -4.756  1.00  0.00     0.338 C 
ATOM     31  O   UNL     1      -1.024   3.047  -4.718  1.00  0.00    -0.246 OA
BRANCH  30  32
ATOM     32  C   UNL     1      -1.386   0.751  -5.290  1.00  0.00     0.060 A 
ATOM     33  C   UNL     1      -0.200   0.140  -4.843  1.00  0.00     0.016 A 
ATOM     34  C   UNL     1      -2.211   0.076  -6.187  1.00  0.00     0.016 A 
ATOM     35  C   UNL     1       0.152  -1.145  -5.273  1.00  0.00     0.010 A 
ATOM     36  C   UNL     1      -1.829  -1.185  -6.664  1.00  0.00     0.010 A 
ATOM     37  C   UNL     1      -0.640  -1.797  -6.223  1.00  0.00    -0.014 A 
BRANCH  37  38
ATOM     38  C   UNL     1      -0.137  -2.999  -6.937  1.00  0.00     0.031 A 
ATOM     39  C   UNL     1       0.575  -2.784  -8.246  1.00  0.00     0.074 A 
ATOM     40  C   UNL     1      -0.343  -4.249  -6.485  1.00  0.00     0.049 A 
ATOM     41  N   UNL     1       0.911  -3.652  -9.163  1.00  0.00    -0.248 NA
ATOM     42  C   UNL     1       0.947  -1.395  -8.564  1.00  0.00     0.031 C 
ATOM     43  C   UNL     1      -0.952  -4.604  -5.206  1.00  0.00     0.029 A 
ATOM     44  N   UNL     1      -0.088  -5.462  -7.085  1.00  0.00    -0.354 N 
ATOM     45  C   UNL     1       1.501  -2.913 -10.180  1.00  0.00     0.074 A 
ATOM     46  C   UNL     1       1.485  -1.527  -9.767  1.00  0.00     0.031 C 
ATOM     47  C   UNL     1      -1.069  -5.943  -5.136  1.00  0.00     0.029 A 
ATOM     48  C   UNL     1      -0.589  -6.535  -6.386  1.00  0.00     0.049 A 
ATOM     49  H   UNL     1       0.405  -5.552  -7.932  1.00  0.00     0.167 HD
ATOM     50  C   UNL     1       2.001  -3.349 -11.358  1.00  0.00     0.037 A 
ATOM     51  C   UNL     1      -0.700  -7.832  -6.740  1.00  0.00     0.037 A 
ATOM     52  C   UNL     1       2.032  -4.727 -11.766  1.00  0.00     0.049 A 
ATOM     53  C   UNL     1      -0.215  -8.280  -8.099  1.00  0.00     0.074 A 
ATOM     54  C   UNL     1       2.565  -5.268 -12.922  1.00  0.00     0.029 A 
ATOM     55  N   UNL     1       1.499  -5.776 -11.037  1.00  0.00    -0.354 N 
ATOM     56  N   UNL     1       0.367  -7.582  -9.044  1.00  0.00    -0.248 NA
ATOM     57  C   UNL     1      -0.418  -9.697  -8.447  1.00  0.00     0.031 C 
ATOM     58  C   UNL     1       2.300  -6.640 -12.923  1.00  0.00     0.029 A 
ATOM     59  C   UNL     1       1.651  -6.959 -11.741  1.00  0.00     0.049 A 
ATOM     60  H   UNL     1       1.076  -5.694 -10.152  1.00  0.00     0.167 HD
ATOM     61  C   UNL     1       0.618  -8.475 -10.082  1.00  0.00     0.074 A 
ATOM     62  C   UNL     1       0.143  -9.770  -9.646  1.00  0.00     0.031 C 
ATOM     63  C   UNL     1       1.184  -8.243 -11.291  1.00  0.00     0.037 A 
BRANCH  50  64
ATOM     64  C   UNL     1       2.521  -2.325 -12.320  1.00  0.00     0.057 A 
ATOM     65  C   UNL     1       3.748  -1.680 -12.128  1.00  0.00     0.134 A 
ATOM     66  C   UNL     1       1.813  -2.040 -13.495  1.00  0.00     0.134 A 
ATOM     67  F   UNL     1       4.465  -1.899 -11.016  1.00  0.00    -0.206 F 
ATOM     68  C   UNL     1       4.252  -0.783 -13.072  1.00  0.00     0.040 A 
ATOM     69  C   UNL     1       2.317  -1.163 -14.455  1.00  0.00     0.040 A 
ATOM     70  F   UNL     1       0.630  -2.626 -13.736  1.00  0.00    -0.206 F 
ATOM     71  C   UNL     1       3.541  -0.532 -14.244  1.00  0.00     0.006 A 
ENDBRANCH  50  64
BRANCH  51  72
ATOM     72  C   UNL     1      -1.368  -8.810  -5.838  1.00  0.00     0.057 A 
ATOM     73  C   UNL     1      -0.665  -9.884  -5.277  1.00  0.00     0.134 A 
ATOM     74  C   UNL     1      -2.743  -8.739  -5.581  1.00  0.00     0.134 A 
ATOM     75  F   UNL     1       0.647 -10.029  -5.513  1.00  0.00    -0.206 F 
ATOM     76  C   UNL     1      -1.309 -10.865  -4.518  1.00  0.00     0.040 A 
ATOM     77  C   UNL     1      -3.394  -9.696  -4.799  1.00  0.00     0.040 A 
ATOM     78  F   UNL     1      -3.479  -7.743  -6.095  1.00  0.00    -0.206 F 
ATOM     79  C   UNL     1      -2.678 -10.770  -4.275  1.00  0.00     0.006 A 
ENDBRANCH  51  72
BRANCH  63  80
ATOM     80  C   UNL     1       1.352  -9.410 -12.221  1.00  0.00     0.057 A 
ATOM     81  C   UNL     1       0.263  -9.984 -12.888  1.00  0.00     0.134 A 
ATOM     82  C   UNL     1       2.626  -9.922 -12.503  1.00  0.00     0.134 A 
ATOM     83  F   UNL     1      -0.984  -9.547 -12.654  1.00  0.00    -0.206 F 
ATOM     84  C   UNL     1       0.432 -11.035 -13.791  1.00  0.00     0.040 A 
ATOM     85  C   UNL     1       2.811 -10.954 -13.424  1.00  0.00     0.040 A 
ATOM     86  F   UNL     1       3.713  -9.409 -11.908  1.00  0.00    -0.206 F 
ATOM     87  C   UNL     1       1.711 -11.517 -14.068  1.00  0.00     0.006 A 
ENDBRANCH  63  80
ENDBRANCH  37  38
ENDBRANCH  30  32
ENDBRANCH  29  30
ENDBRANCH  28  29
ENDBRANCH  27  28
ENDBRANCH  26  27
ENDBRANCH  25  26
ENDBRANCH  24  25
ENDBRANCH   1  24
TORSDOF 22
