REMARK SMILES Cc1ccc(F)cc1S(=O)(=O)Nc1cc(C(=O)OCCOCCOCCOC(=O)c2ccc(-c3c4nc(c(-c5c(F)cccc5F)c5ccc([nH]5)c(-c5c(F)cccc5F)c5nc(c(-c6c(F)cccc6F)c6ccc3[nH]6)C=C5)C=C4)cc2)ccc1N(C)Cc1ccccc1
REMARK SMILES IDX 22 1 21 2 20 3 19 4 18 5 16 6 17 7 15 8 13 9 14 10 86 11
REMARK SMILES IDX 85 12 84 13 12 14 9 16 10 17 11 18 8 19 1 20 2 21 3 22 4 23
REMARK SMILES IDX 7 24 5 25 6 26 87 27 88 28 89 29 90 30 91 31 95 32 92 33
REMARK SMILES IDX 94 34 93 35 23 36 24 37 25 38 26 39 27 40 28 41 29 42 30 43
REMARK SMILES IDX 31 44 83 45 32 46 82 47 33 48 34 49 35 50 76 51 36 52 81 53
REMARK SMILES IDX 75 54 77 55 37 56 80 57 74 58 73 59 38 61 64 62 47 63 63 64
REMARK SMILES IDX 48 65 51 66 62 67 78 68 49 69 50 70 61 72 79 73 52 74 39 75
REMARK SMILES IDX 40 76 45 77 41 78 42 79 44 80 46 81 43 82 65 83 66 84 71 85
REMARK SMILES IDX 67 86 68 87 70 88 72 89 69 90 53 91 54 92 59 93 55 94 56 95
REMARK SMILES IDX 58 96 60 97 57 98
REMARK H PARENT 12 15 77 60 51 71
REMARK Flexibility Score: inf
ROOT
ATOM      1  C   UNL     1       8.679  -0.426  -0.713  1.00  0.00     0.188 C 
ENDROOT
BRANCH   1   2
ATOM      2  O   UNL     1       9.696   0.185  -1.489  1.00  0.00    -0.376 OA
BRANCH   2   3
ATOM      3  C   UNL     1       9.642   1.596  -1.690  1.00  0.00     0.202 C 
BRANCH   3   4
ATOM      4  C   UNL     1       8.287   2.321  -1.852  1.00  0.00     0.261 C 
BRANCH   4   5
ATOM      5  O   UNL     1       7.311   2.087  -0.795  1.00  0.00    -0.460 OA
BRANCH   5   6
ATOM      6  C   UNL     1       6.145   1.538  -1.219  1.00  0.00     0.338 C 
ATOM      7  O   UNL     1       5.854   1.430  -2.402  1.00  0.00    -0.246 OA
BRANCH   6   8
ATOM      8  C   UNL     1       5.320   0.830  -0.166  1.00  0.00     0.062 A 
ATOM      9  C   UNL     1       3.835  -1.103   0.152  1.00  0.00     0.073 A 
ATOM     10  C   UNL     1       4.960  -0.485  -0.461  1.00  0.00     0.044 A 
ATOM     11  C   UNL     1       3.161  -0.581   1.267  1.00  0.00     0.061 A 
ATOM     12  C   UNL     1       3.699   0.688   1.667  1.00  0.00     0.029 A 
ATOM     13  C   UNL     1       4.717   1.406   0.944  1.00  0.00     0.018 A 
BRANCH   9  14
ATOM     14  N   UNL     1       3.094  -1.980  -0.697  1.00  0.00    -0.277 N 
ATOM     15  H   UNL     1       3.045  -2.957  -0.587  1.00  0.00     0.180 HD
BRANCH  14  16
ATOM     16  S   UNL     1       2.292  -1.083  -1.951  1.00  0.00     0.262 S 
ATOM     17  O   UNL     1       1.286  -1.928  -2.530  1.00  0.00    -0.201 OA
ATOM     18  O   UNL     1       3.369  -0.665  -2.834  1.00  0.00    -0.201 OA
BRANCH  16  19
ATOM     19  C   UNL     1       1.477   0.392  -1.224  1.00  0.00     0.093 A 
ATOM     20  C   UNL     1       2.881   2.146  -2.413  1.00  0.00     0.046 C 
ATOM     21  C   UNL     1       1.718   1.712  -1.598  1.00  0.00    -0.030 A 
ATOM     22  C   UNL     1       0.850   2.747  -1.153  1.00  0.00     0.008 A 
ATOM     23  C   UNL     1      -0.211   2.507  -0.287  1.00  0.00     0.039 A 
ATOM     24  C   UNL     1       0.486   0.231  -0.261  1.00  0.00     0.061 A 
ATOM     25  C   UNL     1      -0.356   1.236   0.196  1.00  0.00     0.124 A 
ATOM     26  F   UNL     1      -1.286   0.960   1.121  1.00  0.00    -0.207 F 
ENDBRANCH  16  19
ENDBRANCH  14  16
ENDBRANCH   9  14
BRANCH  11  27
ATOM     27  N   UNL     1       1.965  -1.156   1.797  1.00  0.00    -0.369 N 
ATOM     28  C   UNL     1       1.437  -0.486   2.999  1.00  0.00     0.144 C 
BRANCH  27  29
ATOM     29  C   UNL     1       1.400  -2.598   1.614  1.00  0.00     0.151 C 
BRANCH  29  30
ATOM     30  C   UNL     1       0.559  -3.178   0.407  1.00  0.00    -0.029 A 
ATOM     31  C   UNL     1      -0.535  -2.633  -0.305  1.00  0.00     0.005 A 
ATOM     32  C   UNL     1       0.820  -4.520   0.055  1.00  0.00     0.005 A 
ATOM     33  C   UNL     1      -1.023  -3.196  -1.511  1.00  0.00     0.000 A 
ATOM     34  C   UNL     1       0.251  -5.146  -1.075  1.00  0.00     0.000 A 
ATOM     35  C   UNL     1      -0.595  -4.445  -1.919  1.00  0.00     0.000 A 
ENDBRANCH  29  30
ENDBRANCH  27  29
ENDBRANCH  11  27
ENDBRANCH   6   8
ENDBRANCH   5   6
ENDBRANCH   4   5
ENDBRANCH   3   4
ENDBRANCH   2   3
ENDBRANCH   1   2
BRANCH   1  36
ATOM     36  C   UNL     1       8.462   0.084   0.727  1.00  0.00     0.188 C 
BRANCH  36  37
ATOM     37  O   UNL     1       9.189   1.239   1.054  1.00  0.00    -0.376 OA
BRANCH  37  38
ATOM     38  C   UNL     1      10.411   1.108   1.748  1.00  0.00     0.202 C 
BRANCH  38  39
ATOM     39  C   UNL     1      11.275  -0.172   1.773  1.00  0.00     0.261 C 
BRANCH  39  40
ATOM     40  O   UNL     1      10.733  -1.400   1.269  1.00  0.00    -0.460 OA
BRANCH  40  41
ATOM     41  C   UNL     1      10.078  -2.198   2.149  1.00  0.00     0.338 C 
ATOM     42  O   UNL     1       9.847  -1.970   3.321  1.00  0.00    -0.246 OA
BRANCH  41  43
ATOM     43  C   UNL     1       9.499  -3.331   1.391  1.00  0.00     0.060 A 
ATOM     44  C   UNL     1       8.106  -3.454   1.254  1.00  0.00     0.016 A 
ATOM     45  C   UNL     1      10.350  -4.283   0.834  1.00  0.00     0.016 A 
ATOM     46  C   UNL     1       7.561  -4.552   0.580  1.00  0.00     0.010 A 
ATOM     47  C   UNL     1       9.804  -5.391   0.185  1.00  0.00     0.010 A 
ATOM     48  C   UNL     1       8.409  -5.550   0.085  1.00  0.00    -0.014 A 
BRANCH  48  49
ATOM     49  C   UNL     1       7.878  -6.871  -0.335  1.00  0.00     0.031 A 
ATOM     50  C   UNL     1       7.942  -8.001   0.655  1.00  0.00     0.074 A 
ATOM     51  C   UNL     1       7.407  -7.090  -1.574  1.00  0.00     0.049 A 
ATOM     52  N   UNL     1       7.715  -9.277   0.483  1.00  0.00    -0.248 NA
ATOM     53  C   UNL     1       8.332  -7.635   2.026  1.00  0.00     0.031 C 
ATOM     54  C   UNL     1       7.239  -6.076  -2.611  1.00  0.00     0.029 A 
ATOM     55  N   UNL     1       7.008  -8.259  -2.174  1.00  0.00    -0.354 N 
ATOM     56  C   UNL     1       7.961  -9.870   1.716  1.00  0.00     0.074 A 
ATOM     57  C   UNL     1       8.377  -8.818   2.617  1.00  0.00     0.031 C 
ATOM     58  C   UNL     1       6.791  -6.671  -3.731  1.00  0.00     0.029 A 
ATOM     59  C   UNL     1       6.688  -8.113  -3.502  1.00  0.00     0.049 A 
ATOM     60  H   UNL     1       6.957  -9.120  -1.698  1.00  0.00     0.167 HD
ATOM     61  C   UNL     1       7.852 -11.174   2.065  1.00  0.00     0.037 A 
ATOM     62  C   UNL     1       6.382  -9.041  -4.430  1.00  0.00     0.037 A 
ATOM     63  C   UNL     1       7.450 -12.219   1.162  1.00  0.00     0.049 A 
ATOM     64  C   UNL     1       6.354 -10.499  -4.047  1.00  0.00     0.074 A 
ATOM     65  C   UNL     1       7.294 -13.569   1.421  1.00  0.00     0.029 A 
ATOM     66  N   UNL     1       7.155 -12.032  -0.180  1.00  0.00    -0.354 N 
ATOM     67  N   UNL     1       6.576 -11.055  -2.879  1.00  0.00    -0.248 NA
ATOM     68  C   UNL     1       6.036 -11.461  -5.113  1.00  0.00     0.031 C 
ATOM     69  C   UNL     1       6.965 -14.209   0.222  1.00  0.00     0.029 A 
ATOM     70  C   UNL     1       6.845 -13.247  -0.769  1.00  0.00     0.049 A 
ATOM     71  H   UNL     1       7.164 -11.165  -0.646  1.00  0.00     0.167 HD
ATOM     72  C   UNL     1       6.381 -12.420  -3.060  1.00  0.00     0.074 A 
ATOM     73  C   UNL     1       6.027 -12.610  -4.451  1.00  0.00     0.031 C 
ATOM     74  C   UNL     1       6.476 -13.424  -2.153  1.00  0.00     0.037 A 
BRANCH  61  75
ATOM     75  C   UNL     1       8.225 -11.539   3.474  1.00  0.00     0.057 A 
ATOM     76  C   UNL     1       7.463 -11.130   4.578  1.00  0.00     0.134 A 
ATOM     77  C   UNL     1       9.368 -12.306   3.730  1.00  0.00     0.134 A 
ATOM     78  F   UNL     1       6.364 -10.380   4.406  1.00  0.00    -0.206 F 
ATOM     79  C   UNL     1       7.848 -11.435   5.884  1.00  0.00     0.040 A 
ATOM     80  C   UNL     1       9.745 -12.647   5.030  1.00  0.00     0.040 A 
ATOM     81  F   UNL     1      10.141 -12.736   2.721  1.00  0.00    -0.206 F 
ATOM     82  C   UNL     1       8.990 -12.200   6.113  1.00  0.00     0.006 A 
ENDBRANCH  61  75
BRANCH  62  83
ATOM     83  C   UNL     1       6.080  -8.623  -5.824  1.00  0.00     0.057 A 
ATOM     84  C   UNL     1       4.786  -8.742  -6.345  1.00  0.00     0.134 A 
ATOM     85  C   UNL     1       7.070  -8.106  -6.668  1.00  0.00     0.134 A 
ATOM     86  F   UNL     1       3.801  -9.258  -5.595  1.00  0.00    -0.206 F 
ATOM     87  C   UNL     1       4.489  -8.369  -7.657  1.00  0.00     0.040 A 
ATOM     88  C   UNL     1       6.781  -7.705  -7.973  1.00  0.00     0.040 A 
ATOM     89  F   UNL     1       8.331  -7.972  -6.231  1.00  0.00    -0.206 F 
ATOM     90  C   UNL     1       5.487  -7.841  -8.473  1.00  0.00     0.006 A 
ENDBRANCH  62  83
BRANCH  74  91
ATOM     91  C   UNL     1       6.130 -14.815  -2.606  1.00  0.00     0.057 A 
ATOM     92  C   UNL     1       6.955 -15.552  -3.463  1.00  0.00     0.134 A 
ATOM     93  C   UNL     1       4.977 -15.448  -2.119  1.00  0.00     0.134 A 
ATOM     94  F   UNL     1       8.069 -15.005  -3.974  1.00  0.00    -0.206 F 
ATOM     95  C   UNL     1       6.638 -16.862  -3.834  1.00  0.00     0.040 A 
ATOM     96  C   UNL     1       4.666 -16.765  -2.458  1.00  0.00     0.040 A 
ATOM     97  F   UNL     1       4.147 -14.804  -1.284  1.00  0.00    -0.206 F 
ATOM     98  C   UNL     1       5.496 -17.475  -3.322  1.00  0.00     0.006 A 
ENDBRANCH  74  91
ENDBRANCH  48  49
ENDBRANCH  41  43
ENDBRANCH  40  41
ENDBRANCH  39  40
ENDBRANCH  38  39
ENDBRANCH  37  38
ENDBRANCH  36  37
ENDBRANCH   1  36
TORSDOF 23
