REMARK SMILES CC1=C(CC(=O)OCCOCCOCCOC(=O)c2ccc(-c3c4nc(c(-c5c(F)cccc5F)c5ccc([nH]5)c(-c5c(F)cccc5F)c5nc(c(-c6c(F)cccc6F)c6ccc3[nH]6)C=C5)C=C4)cc2)c2cc(F)ccc2/C1=C\c1ccc([S@@+](C)[O-])cc1
REMARK SMILES IDX 11 1 10 2 9 3 8 4 7 5 5 6 6 7 4 8 3 9 1 10 2 11 80 12 73 13
REMARK SMILES IDX 79 14 81 15 74 16 78 17 75 18 77 19 76 20 82 21 83 22 90 23
REMARK SMILES IDX 84 24 89 25 85 26 86 27 87 28 88 29 12 30 13 31 14 32 15 33
REMARK SMILES IDX 16 34 17 35 18 36 19 37 20 38 72 39 21 40 71 41 22 42 23 43
REMARK SMILES IDX 24 44 65 45 25 46 70 47 64 48 66 49 26 50 69 51 63 52 62 53
REMARK SMILES IDX 27 55 53 56 36 57 52 58 37 59 40 60 51 61 67 62 38 63 39 64
REMARK SMILES IDX 50 66 68 67 41 68 28 69 29 70 34 71 30 72 31 73 33 74 35 75
REMARK SMILES IDX 32 76 54 77 55 78 60 79 56 80 57 81 59 82 61 83 58 84 42 85
REMARK SMILES IDX 43 86 48 87 44 88 45 89 47 90 49 91 46 92
REMARK H PARENT 66 54 40 65
REMARK Flexibility Score: inf
ROOT
ATOM      1  C   UNL     1      -4.023   2.195  -2.886  1.00  0.00     0.188 C 
ENDROOT
BRANCH   1   2
ATOM      2  O   UNL     1      -5.093   1.317  -2.542  1.00  0.00    -0.376 OA
BRANCH   2   3
ATOM      3  C   UNL     1      -5.021   0.654  -1.284  1.00  0.00     0.202 C 
BRANCH   3   4
ATOM      4  C   UNL     1      -3.934  -0.420  -1.202  1.00  0.00     0.261 C 
BRANCH   4   5
ATOM      5  O   UNL     1      -2.612   0.147  -1.338  1.00  0.00    -0.463 OA
BRANCH   5   6
ATOM      6  C   UNL     1      -1.706  -0.633  -1.981  1.00  0.00     0.310 C 
ATOM      7  O   UNL     1      -1.933  -1.779  -2.357  1.00  0.00    -0.252 OA
BRANCH   6   8
ATOM      8  C   UNL     1      -0.400   0.080  -2.336  1.00  0.00     0.159 C 
BRANCH   8   9
ATOM      9  C   UNL     1       0.121   1.199  -1.484  1.00  0.00    -0.025 C 
ATOM     10  C   UNL     1       0.815  -0.056   0.619  1.00  0.00     0.045 C 
ATOM     11  C   UNL     1       0.640   1.155  -0.233  1.00  0.00    -0.039 C 
ATOM     12  C   UNL     1       1.122   2.492   0.168  1.00  0.00    -0.014 C 
ATOM     13  C   UNL     1       0.357   2.565  -1.997  1.00  0.00    -0.011 A 
ATOM     14  C   UNL     1       0.893   3.383  -0.986  1.00  0.00    -0.010 A 
ATOM     15  C   UNL     1       1.718   2.790   1.341  1.00  0.00     0.017 C 
ATOM     16  C   UNL     1       0.208   3.067  -3.281  1.00  0.00     0.048 A 
ATOM     17  C   UNL     1       1.171   4.725  -1.228  1.00  0.00     0.012 A 
ATOM     18  C   UNL     1       0.545   4.401  -3.522  1.00  0.00     0.123 A 
ATOM     19  C   UNL     1       0.981   5.241  -2.506  1.00  0.00     0.040 A 
ATOM     20  F   UNL     1       0.440   4.890  -4.763  1.00  0.00    -0.207 F 
BRANCH  15  21
ATOM     21  C   UNL     1       2.207   4.124   1.713  1.00  0.00    -0.025 A 
ATOM     22  C   UNL     1       1.306   5.076   2.202  1.00  0.00     0.013 A 
ATOM     23  C   UNL     1       3.520   4.510   1.421  1.00  0.00     0.013 A 
ATOM     24  C   UNL     1       1.678   6.423   2.291  1.00  0.00     0.061 A 
ATOM     25  C   UNL     1       3.896   5.855   1.527  1.00  0.00     0.061 A 
ATOM     26  C   UNL     1       2.968   6.827   1.926  1.00  0.00     0.152 A 
BRANCH  26  27
ATOM     27  S   UNL     1       3.392   8.582   1.765  1.00  0.00    -0.018 S 
ATOM     28  C   UNL     1       2.761   9.210   3.333  1.00  0.00     0.346 C 
ATOM     29  O   UNL     1       4.958   8.682   1.798  1.00  0.00    -0.612 OA
ENDBRANCH  26  27
ENDBRANCH  15  21
ENDBRANCH   8   9
ENDBRANCH   6   8
ENDBRANCH   5   6
ENDBRANCH   4   5
ENDBRANCH   3   4
ENDBRANCH   2   3
ENDBRANCH   1   2
BRANCH   1  30
ATOM     30  C   UNL     1      -3.400   3.046  -1.769  1.00  0.00     0.188 C 
BRANCH  30  31
ATOM     31  O   UNL     1      -4.399   3.610  -0.924  1.00  0.00    -0.376 OA
BRANCH  31  32
ATOM     32  C   UNL     1      -4.229   5.003  -0.692  1.00  0.00     0.202 C 
BRANCH  32  33
ATOM     33  C   UNL     1      -5.058   5.801  -1.699  1.00  0.00     0.261 C 
BRANCH  33  34
ATOM     34  O   UNL     1      -4.716   5.516  -3.068  1.00  0.00    -0.460 OA
BRANCH  34  35
ATOM     35  C   UNL     1      -3.609   6.130  -3.538  1.00  0.00     0.338 C 
ATOM     36  O   UNL     1      -2.858   6.866  -2.929  1.00  0.00    -0.246 OA
BRANCH  35  37
ATOM     37  C   UNL     1      -3.391   5.679  -4.924  1.00  0.00     0.060 A 
ATOM     38  C   UNL     1      -4.020   6.312  -5.991  1.00  0.00     0.016 A 
ATOM     39  C   UNL     1      -2.477   4.654  -5.160  1.00  0.00     0.016 A 
ATOM     40  C   UNL     1      -3.705   5.921  -7.299  1.00  0.00     0.010 A 
ATOM     41  C   UNL     1      -2.121   4.301  -6.461  1.00  0.00     0.010 A 
ATOM     42  C   UNL     1      -2.730   4.933  -7.548  1.00  0.00    -0.014 A 
BRANCH  42  43
ATOM     43  C   UNL     1      -2.293   4.641  -8.940  1.00  0.00     0.031 A 
ATOM     44  C   UNL     1      -2.558   3.312  -9.591  1.00  0.00     0.074 A 
ATOM     45  C   UNL     1      -1.618   5.589  -9.619  1.00  0.00     0.049 A 
ATOM     46  N   UNL     1      -2.390   2.963 -10.843  1.00  0.00    -0.248 NA
ATOM     47  C   UNL     1      -3.048   2.228  -8.728  1.00  0.00     0.031 C 
ATOM     48  C   UNL     1      -1.185   6.874  -9.066  1.00  0.00     0.029 A 
ATOM     49  N   UNL     1      -1.194   5.628 -10.923  1.00  0.00    -0.354 N 
ATOM     50  C   UNL     1      -2.775   1.630 -10.922  1.00  0.00     0.074 A 
ATOM     51  C   UNL     1      -3.111   1.212  -9.578  1.00  0.00     0.031 C 
ATOM     52  C   UNL     1      -0.616   7.601 -10.040  1.00  0.00     0.029 A 
ATOM     53  C   UNL     1      -0.635   6.832 -11.280  1.00  0.00     0.049 A 
ATOM     54  H   UNL     1      -1.282   4.868 -11.543  1.00  0.00     0.167 HD
ATOM     55  C   UNL     1      -2.874   0.839 -12.018  1.00  0.00     0.037 A 
ATOM     56  C   UNL     1      -0.219   7.279 -12.479  1.00  0.00     0.037 A 
ATOM     57  C   UNL     1      -2.534   1.256 -13.355  1.00  0.00     0.049 A 
ATOM     58  C   UNL     1      -0.363   6.396 -13.686  1.00  0.00     0.074 A 
ATOM     59  C   UNL     1      -2.671   0.557 -14.542  1.00  0.00     0.029 A 
ATOM     60  N   UNL     1      -1.976   2.483 -13.678  1.00  0.00    -0.354 N 
ATOM     61  N   UNL     1      -0.863   5.188 -13.772  1.00  0.00    -0.248 NA
ATOM     62  C   UNL     1       0.101   6.948 -14.966  1.00  0.00     0.031 C 
ATOM     63  C   UNL     1      -2.163   1.349 -15.579  1.00  0.00     0.029 A 
ATOM     64  C   UNL     1      -1.742   2.554 -15.042  1.00  0.00     0.049 A 
ATOM     65  H   UNL     1      -1.774   3.200 -13.033  1.00  0.00     0.167 HD
ATOM     66  C   UNL     1      -0.793   4.843 -15.115  1.00  0.00     0.074 A 
ATOM     67  C   UNL     1      -0.222   5.978 -15.810  1.00  0.00     0.031 C 
ATOM     68  C   UNL     1      -1.168   3.689 -15.719  1.00  0.00     0.037 A 
BRANCH  55  69
ATOM     69  C   UNL     1      -3.405  -0.552 -11.819  1.00  0.00     0.057 A 
ATOM     70  C   UNL     1      -2.585  -1.674 -11.985  1.00  0.00     0.134 A 
ATOM     71  C   UNL     1      -4.751  -0.778 -11.495  1.00  0.00     0.134 A 
ATOM     72  F   UNL     1      -1.291  -1.532 -12.306  1.00  0.00    -0.206 F 
ATOM     73  C   UNL     1      -3.083  -2.970 -11.830  1.00  0.00     0.040 A 
ATOM     74  C   UNL     1      -5.254  -2.067 -11.314  1.00  0.00     0.040 A 
ATOM     75  F   UNL     1      -5.590   0.254 -11.319  1.00  0.00    -0.206 F 
ATOM     76  C   UNL     1      -4.419  -3.169 -11.486  1.00  0.00     0.006 A 
ENDBRANCH  55  69
BRANCH  56  77
ATOM     77  C   UNL     1       0.298   8.662 -12.615  1.00  0.00     0.057 A 
ATOM     78  C   UNL     1       1.554   9.029 -12.123  1.00  0.00     0.134 A 
ATOM     79  C   UNL     1      -0.463   9.651 -13.251  1.00  0.00     0.134 A 
ATOM     80  F   UNL     1       2.326   8.128 -11.498  1.00  0.00    -0.206 F 
ATOM     81  C   UNL     1       2.037  10.332 -12.256  1.00  0.00     0.040 A 
ATOM     82  C   UNL     1       0.016  10.952 -13.410  1.00  0.00     0.040 A 
ATOM     83  F   UNL     1      -1.669   9.354 -13.756  1.00  0.00    -0.206 F 
ATOM     84  C   UNL     1       1.270  11.296 -12.908  1.00  0.00     0.006 A 
ENDBRANCH  56  77
BRANCH  68  85
ATOM     85  C   UNL     1      -0.981   3.607 -17.204  1.00  0.00     0.057 A 
ATOM     86  C   UNL     1      -2.081   3.660 -18.069  1.00  0.00     0.134 A 
ATOM     87  C   UNL     1       0.289   3.462 -17.777  1.00  0.00     0.134 A 
ATOM     88  F   UNL     1      -3.324   3.795 -17.583  1.00  0.00    -0.206 F 
ATOM     89  C   UNL     1      -1.925   3.571 -19.452  1.00  0.00     0.040 A 
ATOM     90  C   UNL     1       0.460   3.395 -19.161  1.00  0.00     0.040 A 
ATOM     91  F   UNL     1       1.384   3.421 -17.003  1.00  0.00    -0.206 F 
ATOM     92  C   UNL     1      -0.650   3.445 -20.002  1.00  0.00     0.006 A 
ENDBRANCH  68  85
ENDBRANCH  42  43
ENDBRANCH  35  37
ENDBRANCH  34  35
ENDBRANCH  33  34
ENDBRANCH  32  33
ENDBRANCH  31  32
ENDBRANCH  30  31
ENDBRANCH   1  30
TORSDOF 20
