REMARK SMILES C#CC[N@H+](CC(=O)NC(=O)NC)CC(=O)OCCOCCOCCOC(=O)c1ccc(-c2c3nc(c(-c4c(F)cccc4F)c4ccc([nH]4)c(-c4c(F)cccc4F)c4nc(c(-c5c(F)cccc5F)c5ccc2[nH]5)C=C4)C=C3)cc1
REMARK SMILES IDX 20 1 19 2 18 3 17 4 16 5 14 6 15 7 13 8 4 9 3 11 2 12 1 13
REMARK SMILES IDX 5 14 6 15 7 16 8 17 9 18 10 20 11 21 12 22 21 24 22 25 23 26
REMARK SMILES IDX 24 27 25 28 26 29 27 30 28 31 29 32 81 33 30 34 80 35 31 36
REMARK SMILES IDX 32 37 33 38 74 39 34 40 79 41 73 42 75 43 35 44 78 45 72 46
REMARK SMILES IDX 71 47 36 49 62 50 45 51 61 52 46 53 49 54 60 55 76 56 47 57
REMARK SMILES IDX 48 58 59 60 77 61 50 62 37 63 38 64 43 65 39 66 40 67 42 68
REMARK SMILES IDX 44 69 41 70 63 71 64 72 69 73 65 74 66 75 68 76 70 77 67 78
REMARK SMILES IDX 51 79 52 80 57 81 53 82 54 83 56 84 58 85 55 86
REMARK H PARENT 4 10 8 19 11 23 75 48 49 59
REMARK Flexibility Score: inf
ROOT
ATOM      1  C   UNL     1      -2.104   1.160   4.858  1.00  0.00     0.188 C 
ENDROOT
BRANCH   1   2
ATOM      2  O   UNL     1      -3.325   1.613   5.426  1.00  0.00    -0.376 OA
BRANCH   2   3
ATOM      3  C   UNL     1      -4.280   2.217   4.549  1.00  0.00     0.202 C 
BRANCH   3   4
ATOM      4  C   UNL     1      -3.734   3.320   3.638  1.00  0.00     0.261 C 
BRANCH   4   5
ATOM      5  O   UNL     1      -3.159   2.684   2.489  1.00  0.00    -0.459 OA
BRANCH   5   6
ATOM      6  C   UNL     1      -2.309   3.402   1.714  1.00  0.00     0.361 C 
ATOM      7  O   UNL     1      -1.993   4.568   1.919  1.00  0.00    -0.245 OA
BRANCH   6   8
ATOM      8  C   UNL     1      -1.691   2.532   0.608  1.00  0.00     0.387 C 
BRANCH   8   9
ATOM      9  N   UNL     1      -2.471   1.307   0.373  1.00  0.00    -0.308 N 
ATOM     10  H   UNL     1      -2.759   1.106   1.330  1.00  0.00     0.349 HD
BRANCH   9  11
ATOM     11  C   UNL     1      -1.774   0.082   0.030  1.00  0.00     0.354 C 
BRANCH  11  12
ATOM     12  C   UNL     1      -0.254   0.082   0.030  1.00  0.00    -0.047 C 
ATOM     13  C   UNL     1       1.050   0.082   0.030  1.00  0.00     0.010 C 
ENDBRANCH  11  12
ENDBRANCH   9  11
BRANCH   9  14
ATOM     14  C   UNL     1      -3.682   1.519  -0.440  1.00  0.00     0.365 C 
BRANCH  14  15
ATOM     15  C   UNL     1      -4.938   0.954   0.223  1.00  0.00     0.283 C 
ATOM     16  O   UNL     1      -5.683   1.697   0.876  1.00  0.00    -0.268 OA
ATOM     17  N   UNL     1      -5.301  -0.374   0.129  1.00  0.00    -0.273 N 
ATOM     18  C   UNL     1      -4.634  -1.524  -0.159  1.00  0.00     0.321 C 
ATOM     19  H   UNL     1      -6.256  -0.523   0.312  1.00  0.00     0.175 HD
ATOM     20  O   UNL     1      -4.599  -2.440   0.661  1.00  0.00    -0.248 OA
ATOM     21  N   UNL     1      -4.059  -1.711  -1.365  1.00  0.00    -0.341 N 
ATOM     22  C   UNL     1      -4.298  -1.036  -2.617  1.00  0.00     0.144 C 
ATOM     23  H   UNL     1      -3.371  -2.416  -1.395  1.00  0.00     0.165 HD
ENDBRANCH  14  15
ENDBRANCH   9  14
ENDBRANCH   8   9
ENDBRANCH   6   8
ENDBRANCH   5   6
ENDBRANCH   4   5
ENDBRANCH   3   4
ENDBRANCH   2   3
ENDBRANCH   1   2
BRANCH   1  24
ATOM     24  C   UNL     1      -2.160   0.065   3.786  1.00  0.00     0.188 C 
BRANCH  24  25
ATOM     25  O   UNL     1      -3.420  -0.544   3.546  1.00  0.00    -0.376 OA
BRANCH  25  26
ATOM     26  C   UNL     1      -3.757  -1.592   4.457  1.00  0.00     0.202 C 
BRANCH  26  27
ATOM     27  C   UNL     1      -3.220  -2.950   3.986  1.00  0.00     0.261 C 
BRANCH  27  28
ATOM     28  O   UNL     1      -1.798  -3.002   4.209  1.00  0.00    -0.460 OA
BRANCH  28  29
ATOM     29  C   UNL     1      -1.069  -3.528   3.201  1.00  0.00     0.338 C 
ATOM     30  O   UNL     1      -1.456  -4.127   2.214  1.00  0.00    -0.246 OA
BRANCH  29  31
ATOM     31  C   UNL     1       0.323  -3.090   3.368  1.00  0.00     0.060 A 
ATOM     32  C   UNL     1       0.698  -1.922   2.713  1.00  0.00     0.016 A 
ATOM     33  C   UNL     1       1.272  -3.849   4.047  1.00  0.00     0.016 A 
ATOM     34  C   UNL     1       2.033  -1.537   2.674  1.00  0.00     0.010 A 
ATOM     35  C   UNL     1       2.618  -3.449   4.015  1.00  0.00     0.010 A 
ATOM     36  C   UNL     1       3.018  -2.314   3.283  1.00  0.00    -0.014 A 
BRANCH  36  37
ATOM     37  C   UNL     1       4.452  -2.047   2.972  1.00  0.00     0.031 A 
ATOM     38  C   UNL     1       5.233  -3.101   2.232  1.00  0.00     0.074 A 
ATOM     39  C   UNL     1       5.042  -0.858   3.206  1.00  0.00     0.049 A 
ATOM     40  N   UNL     1       6.525  -3.230   2.085  1.00  0.00    -0.248 NA
ATOM     41  C   UNL     1       4.443  -4.150   1.565  1.00  0.00     0.031 C 
ATOM     42  C   UNL     1       4.386   0.333   3.744  1.00  0.00     0.029 A 
ATOM     43  N   UNL     1       6.340  -0.453   2.994  1.00  0.00    -0.354 N 
ATOM     44  C   UNL     1       6.706  -4.421   1.393  1.00  0.00     0.074 A 
ATOM     45  C   UNL     1       5.392  -4.957   1.114  1.00  0.00     0.031 C 
ATOM     46  C   UNL     1       5.274   1.340   3.793  1.00  0.00     0.029 A 
ATOM     47  C   UNL     1       6.586   0.838   3.397  1.00  0.00     0.049 A 
ATOM     48  H   UNL     1       7.027  -1.033   2.593  1.00  0.00     0.167 HD
ATOM     49  C   UNL     1       7.869  -5.021   1.045  1.00  0.00     0.037 A 
ATOM     50  C   UNL     1       7.746   1.516   3.500  1.00  0.00     0.037 A 
ATOM     51  C   UNL     1       9.168  -4.442   1.258  1.00  0.00     0.049 A 
ATOM     52  C   UNL     1       9.038   0.816   3.175  1.00  0.00     0.074 A 
ATOM     53  C   UNL     1      10.414  -4.987   1.008  1.00  0.00     0.029 A 
ATOM     54  N   UNL     1       9.380  -3.160   1.741  1.00  0.00    -0.354 N 
ATOM     55  N   UNL     1       9.227  -0.394   2.704  1.00  0.00    -0.248 NA
ATOM     56  C   UNL     1      10.280   1.558   3.437  1.00  0.00     0.031 C 
ATOM     57  C   UNL     1      11.383  -4.040   1.357  1.00  0.00     0.029 A 
ATOM     58  C   UNL     1      10.737  -2.894   1.794  1.00  0.00     0.049 A 
ATOM     59  H   UNL     1       8.671  -2.532   2.008  1.00  0.00     0.167 HD
ATOM     60  C   UNL     1      10.603  -0.559   2.619  1.00  0.00     0.074 A 
ATOM     61  C   UNL     1      11.203   0.684   3.058  1.00  0.00     0.031 C 
ATOM     62  C   UNL     1      11.310  -1.648   2.229  1.00  0.00     0.037 A 
BRANCH  49  63
ATOM     63  C   UNL     1       7.783  -6.403   0.473  1.00  0.00     0.057 A 
ATOM     64  C   UNL     1       7.370  -6.653  -0.840  1.00  0.00     0.134 A 
ATOM     65  C   UNL     1       8.124  -7.508   1.266  1.00  0.00     0.134 A 
ATOM     66  F   UNL     1       7.005  -5.641  -1.641  1.00  0.00    -0.206 F 
ATOM     67  C   UNL     1       7.280  -7.954  -1.339  1.00  0.00     0.040 A 
ATOM     68  C   UNL     1       8.061  -8.811   0.772  1.00  0.00     0.040 A 
ATOM     69  F   UNL     1       8.526  -7.336   2.535  1.00  0.00    -0.206 F 
ATOM     70  C   UNL     1       7.631  -9.037  -0.533  1.00  0.00     0.006 A 
ENDBRANCH  49  63
BRANCH  50  71
ATOM     71  C   UNL     1       7.754   2.906   4.030  1.00  0.00     0.057 A 
ATOM     72  C   UNL     1       8.124   3.990   3.227  1.00  0.00     0.134 A 
ATOM     73  C   UNL     1       7.412   3.179   5.361  1.00  0.00     0.134 A 
ATOM     74  F   UNL     1       8.496   3.792   1.954  1.00  0.00    -0.206 F 
ATOM     75  C   UNL     1       8.154   5.294   3.728  1.00  0.00     0.040 A 
ATOM     76  C   UNL     1       7.410   4.479   5.867  1.00  0.00     0.040 A 
ATOM     77  F   UNL     1       7.060   2.183   6.188  1.00  0.00    -0.206 F 
ATOM     78  C   UNL     1       7.787   5.542   5.050  1.00  0.00     0.006 A 
ENDBRANCH  50  71
BRANCH  62  79
ATOM     79  C   UNL     1      12.804  -1.534   2.242  1.00  0.00     0.057 A 
ATOM     80  C   UNL     1      13.533  -1.594   3.435  1.00  0.00     0.134 A 
ATOM     81  C   UNL     1      13.521  -1.403   1.046  1.00  0.00     0.134 A 
ATOM     82  F   UNL     1      12.901  -1.706   4.613  1.00  0.00    -0.206 F 
ATOM     83  C   UNL     1      14.926  -1.512   3.440  1.00  0.00     0.040 A 
ATOM     84  C   UNL     1      14.914  -1.340   1.037  1.00  0.00     0.040 A 
ATOM     85  F   UNL     1      12.878  -1.347  -0.130  1.00  0.00    -0.206 F 
ATOM     86  C   UNL     1      15.621  -1.391   2.237  1.00  0.00     0.006 A 
ENDBRANCH  62  79
ENDBRANCH  36  37
ENDBRANCH  29  31
ENDBRANCH  28  29
ENDBRANCH  27  28
ENDBRANCH  26  27
ENDBRANCH  25  26
ENDBRANCH  24  25
ENDBRANCH   1  24
TORSDOF 22
