REMARK SMILES O=C(C[C@H]1C[C@H]2CC[C@@H](C1)[N@H+]2C[C@@H]1CNC(=O)O1)OCCOCCOCCOC(=O)c1ccc(-c2c3nc(c(-c4c(F)cccc4F)c4ccc([nH]4)c(-c4c(F)cccc4F)c4nc(c(-c5c(F)cccc5F)c5ccc2[nH]5)C=C4)C=C3)cc1
REMARK SMILES IDX 23 1 22 2 21 3 20 4 19 5 2 6 1 7 3 8 4 9 5 10 10 11 6 12
REMARK SMILES IDX 9 13 7 14 11 15 8 16 12 18 13 19 14 20 18 21 15 22 16 23
REMARK SMILES IDX 17 25 24 26 25 27 26 28 27 29 28 30 29 31 30 32 31 33 32 34
REMARK SMILES IDX 84 35 33 36 83 37 34 38 35 39 36 40 77 41 37 42 82 43 76 44
REMARK SMILES IDX 78 45 38 46 81 47 75 48 74 49 39 51 65 52 48 53 64 54 49 55
REMARK SMILES IDX 52 56 63 57 79 58 50 59 51 60 62 62 80 63 53 64 40 65 41 66
REMARK SMILES IDX 46 67 42 68 43 69 45 70 47 71 44 72 66 73 67 74 72 75 68 76
REMARK SMILES IDX 69 77 71 78 73 79 70 80 54 81 55 82 60 83 56 84 57 85 59 86
REMARK SMILES IDX 61 87 58 88
REMARK H PARENT 11 17 15 24 78 50 52 61
REMARK Flexibility Score: inf
ROOT
ATOM      1  C   UNL     1       3.881   1.210  -1.912  1.00  0.00     0.188 C 
ENDROOT
BRANCH   1   2
ATOM      2  O   UNL     1       5.125   0.542  -1.992  1.00  0.00    -0.376 OA
BRANCH   2   3
ATOM      3  C   UNL     1       5.370  -0.463  -1.011  1.00  0.00     0.202 C 
BRANCH   3   4
ATOM      4  C   UNL     1       4.290  -1.549  -0.873  1.00  0.00     0.261 C 
BRANCH   4   5
ATOM      5  O   UNL     1       3.462  -1.174   0.242  1.00  0.00    -0.463 OA
BRANCH   5   6
ATOM      6  C   UNL     1       2.173  -0.800   0.082  1.00  0.00     0.306 C 
ATOM      7  O   UNL     1       1.373  -1.336  -0.668  1.00  0.00    -0.252 OA
BRANCH   6   8
ATOM      8  C   UNL     1       1.893   0.492   0.856  1.00  0.00     0.126 C 
BRANCH   8   9
ATOM      9  C   UNL     1       2.903   0.674   2.006  1.00  0.00     0.012 C 
ATOM     10  C   UNL     1       3.295   2.131   2.338  1.00  0.00     0.069 C 
ATOM     11  C   UNL     1       2.425  -0.214   3.171  1.00  0.00     0.069 C 
ATOM     12  C   UNL     1       2.826   2.610   3.706  1.00  0.00     0.184 C 
ATOM     13  C   UNL     1       1.946   0.574   4.375  1.00  0.00     0.184 C 
ATOM     14  C   UNL     1       1.304   2.804   3.634  1.00  0.00     0.071 C 
ATOM     15  N   UNL     1       2.928   1.586   4.728  1.00  0.00    -0.327 N 
ATOM     16  C   UNL     1       0.726   1.442   4.023  1.00  0.00     0.071 C 
ATOM     17  H   UNL     1       2.750   2.062   5.613  1.00  0.00     0.348 HD
BRANCH  15  18
ATOM     18  C   UNL     1       4.156   1.194   5.411  1.00  0.00     0.310 C 
BRANCH  18  19
ATOM     19  C   UNL     1       5.472   0.556   4.873  1.00  0.00     0.252 C 
ATOM     20  C   UNL     1       6.354   1.364   3.948  1.00  0.00     0.170 C 
ATOM     21  O   UNL     1       5.318  -0.725   4.242  1.00  0.00    -0.438 OA
ATOM     22  N   UNL     1       6.473   0.531   2.802  1.00  0.00    -0.318 N 
ATOM     23  C   UNL     1       5.931  -0.697   3.024  1.00  0.00     0.407 C 
ATOM     24  H   UNL     1       6.894   0.808   1.956  1.00  0.00     0.167 HD
ATOM     25  O   UNL     1       5.972  -1.629   2.236  1.00  0.00    -0.225 OA
ENDBRANCH  18  19
ENDBRANCH  15  18
ENDBRANCH   8   9
ENDBRANCH   6   8
ENDBRANCH   5   6
ENDBRANCH   4   5
ENDBRANCH   3   4
ENDBRANCH   2   3
ENDBRANCH   1   2
BRANCH   1  26
ATOM     26  C   UNL     1       2.787   0.669  -2.858  1.00  0.00     0.188 C 
BRANCH  26  27
ATOM     27  O   UNL     1       3.140  -0.109  -3.991  1.00  0.00    -0.376 OA
BRANCH  27  28
ATOM     28  C   UNL     1       4.350   0.178  -4.665  1.00  0.00     0.202 C 
BRANCH  28  29
ATOM     29  C   UNL     1       4.569   1.597  -5.220  1.00  0.00     0.261 C 
BRANCH  29  30
ATOM     30  O   UNL     1       4.185   2.699  -4.367  1.00  0.00    -0.460 OA
BRANCH  30  31
ATOM     31  C   UNL     1       3.003   3.299  -4.662  1.00  0.00     0.338 C 
ATOM     32  O   UNL     1       2.261   3.029  -5.591  1.00  0.00    -0.246 OA
BRANCH  31  33
ATOM     33  C   UNL     1       2.611   4.269  -3.604  1.00  0.00     0.060 A 
ATOM     34  C   UNL     1       1.377   4.094  -2.957  1.00  0.00     0.016 A 
ATOM     35  C   UNL     1       3.372   5.408  -3.336  1.00  0.00     0.016 A 
ATOM     36  C   UNL     1       0.877   5.076  -2.094  1.00  0.00     0.010 A 
ATOM     37  C   UNL     1       2.858   6.404  -2.485  1.00  0.00     0.010 A 
ATOM     38  C   UNL     1       1.586   6.267  -1.895  1.00  0.00    -0.014 A 
BRANCH  38  39
ATOM     39  C   UNL     1       0.914   7.426  -1.234  1.00  0.00     0.031 A 
ATOM     40  C   UNL     1       0.361   8.540  -2.093  1.00  0.00     0.074 A 
ATOM     41  C   UNL     1       0.740   7.482   0.100  1.00  0.00     0.049 A 
ATOM     42  N   UNL     1      -0.239   9.649  -1.737  1.00  0.00    -0.248 NA
ATOM     43  C   UNL     1       0.504   8.379  -3.549  1.00  0.00     0.031 C 
ATOM     44  C   UNL     1       1.176   6.466   1.056  1.00  0.00     0.029 A 
ATOM     45  N   UNL     1       0.150   8.448   0.883  1.00  0.00    -0.354 N 
ATOM     46  C   UNL     1      -0.546  10.314  -2.920  1.00  0.00     0.074 A 
ATOM     47  C   UNL     1      -0.030   9.503  -4.002  1.00  0.00     0.031 C 
ATOM     48  C   UNL     1       0.852   6.869   2.299  1.00  0.00     0.029 A 
ATOM     49  C   UNL     1       0.211   8.183   2.231  1.00  0.00     0.049 A 
ATOM     50  H   UNL     1      -0.276   9.254   0.513  1.00  0.00     0.167 HD
ATOM     51  C   UNL     1      -1.209  11.483  -3.097  1.00  0.00     0.037 A 
ATOM     52  C   UNL     1      -0.183   8.921   3.289  1.00  0.00     0.037 A 
ATOM     53  C   UNL     1      -1.729  12.302  -2.032  1.00  0.00     0.049 A 
ATOM     54  C   UNL     1      -0.846  10.260   3.068  1.00  0.00     0.074 A 
ATOM     55  C   UNL     1      -2.419  13.499  -2.123  1.00  0.00     0.029 A 
ATOM     56  N   UNL     1      -1.614  12.012  -0.682  1.00  0.00    -0.354 N 
ATOM     57  N   UNL     1      -1.147  10.863   1.943  1.00  0.00    -0.248 NA
ATOM     58  C   UNL     1      -1.232  11.016   4.270  1.00  0.00     0.031 C 
ATOM     59  C   UNL     1      -2.675  13.961  -0.828  1.00  0.00     0.029 A 
ATOM     60  C   UNL     1      -2.199  13.021   0.069  1.00  0.00     0.049 A 
ATOM     61  H   UNL     1      -1.182  11.210  -0.311  1.00  0.00     0.167 HD
ATOM     62  C   UNL     1      -1.783  12.048   2.303  1.00  0.00     0.074 A 
ATOM     63  C   UNL     1      -1.847  12.067   3.748  1.00  0.00     0.031 C 
ATOM     64  C   UNL     1      -2.267  13.034   1.508  1.00  0.00     0.037 A 
BRANCH  51  65
ATOM     65  C   UNL     1      -1.409  11.965  -4.507  1.00  0.00     0.057 A 
ATOM     66  C   UNL     1      -2.311  11.341  -5.379  1.00  0.00     0.134 A 
ATOM     67  C   UNL     1      -0.745  13.107  -4.974  1.00  0.00     0.134 A 
ATOM     68  F   UNL     1      -2.972  10.238  -4.999  1.00  0.00    -0.206 F 
ATOM     69  C   UNL     1      -2.533  11.827  -6.670  1.00  0.00     0.040 A 
ATOM     70  C   UNL     1      -0.980  13.618  -6.252  1.00  0.00     0.040 A 
ATOM     71  F   UNL     1       0.125  13.758  -4.187  1.00  0.00    -0.206 F 
ATOM     72  C   UNL     1      -1.873  12.975  -7.105  1.00  0.00     0.006 A 
ENDBRANCH  51  65
BRANCH  52  73
ATOM     73  C   UNL     1       0.058   8.438   4.676  1.00  0.00     0.057 A 
ATOM     74  C   UNL     1      -1.002   8.130   5.539  1.00  0.00     0.134 A 
ATOM     75  C   UNL     1       1.355   8.344   5.196  1.00  0.00     0.134 A 
ATOM     76  F   UNL     1      -2.270   8.231   5.112  1.00  0.00    -0.206 F 
ATOM     77  C   UNL     1      -0.784   7.781   6.873  1.00  0.00     0.040 A 
ATOM     78  C   UNL     1       1.589   7.963   6.518  1.00  0.00     0.040 A 
ATOM     79  F   UNL     1       2.416   8.625   4.426  1.00  0.00    -0.206 F 
ATOM     80  C   UNL     1       0.517   7.693   7.365  1.00  0.00     0.006 A 
ENDBRANCH  52  73
BRANCH  64  81
ATOM     81  C   UNL     1      -2.945  14.198   2.180  1.00  0.00     0.057 A 
ATOM     82  C   UNL     1      -2.235  15.127   2.953  1.00  0.00     0.134 A 
ATOM     83  C   UNL     1      -4.325  14.398   2.043  1.00  0.00     0.134 A 
ATOM     84  F   UNL     1      -0.913  14.993   3.135  1.00  0.00    -0.206 F 
ATOM     85  C   UNL     1      -2.879  16.187   3.597  1.00  0.00     0.040 A 
ATOM     86  C   UNL     1      -4.974  15.472   2.655  1.00  0.00     0.040 A 
ATOM     87  F   UNL     1      -5.067  13.557   1.307  1.00  0.00    -0.206 F 
ATOM     88  C   UNL     1      -4.252  16.364   3.445  1.00  0.00     0.006 A 
ENDBRANCH  64  81
ENDBRANCH  38  39
ENDBRANCH  31  33
ENDBRANCH  30  31
ENDBRANCH  29  30
ENDBRANCH  28  29
ENDBRANCH  27  28
ENDBRANCH  26  27
ENDBRANCH   1  26
TORSDOF 20
