REMARK SMILES Cc1ccc(C(=O)N2CCC3(CCC(=O)N(CC(=O)OCCOCCOCCOC(=O)c4ccc(-c5c6nc(c(-c7c(F)cccc7F)c7ccc([nH]7)c(-c7c(F)cccc7F)c7nc(c(-c8c(F)cccc8F)c8ccc5[nH]8)C=C7)C=C6)cc4)C3)CC2)cc1O
REMARK SMILES IDX 24 1 23 2 22 3 21 4 20 5 18 6 19 7 17 8 16 9 6 10 7 11 8 12
REMARK SMILES IDX 9 13 88 14 10 15 87 16 11 17 12 18 86 19 13 20 14 21 15 22
REMARK SMILES IDX 5 23 1 24 2 25 3 26 90 27 4 28 89 29 91 30 25 32 26 33 27 34
REMARK SMILES IDX 28 35 29 36 30 37 31 38 32 39 33 40 85 41 34 42 84 43 35 44
REMARK SMILES IDX 36 45 37 46 78 47 38 48 83 49 77 50 79 51 39 52 82 53 76 54
REMARK SMILES IDX 75 55 40 57 66 58 49 59 65 60 50 61 53 62 64 63 80 64 51 65
REMARK SMILES IDX 52 66 63 68 81 69 54 70 41 71 42 72 47 73 43 74 44 75 46 76
REMARK SMILES IDX 48 77 45 78 67 79 68 80 73 81 69 82 70 83 72 84 74 85 71 86
REMARK SMILES IDX 55 87 56 88 61 89 57 90 58 91 60 92 62 93 59 94
REMARK H PARENT 91 31 79 56 53 67
REMARK Flexibility Score: inf
ROOT
ATOM      1  C   UNL     1      11.310  -3.029   4.970  1.00  0.00     0.188 C 
ENDROOT
BRANCH   1   2
ATOM      2  O   UNL     1      11.343  -4.262   5.679  1.00  0.00    -0.376 OA
BRANCH   2   3
ATOM      3  C   UNL     1      10.812  -5.430   5.063  1.00  0.00     0.202 C 
BRANCH   3   4
ATOM      4  C   UNL     1       9.284  -5.480   4.915  1.00  0.00     0.261 C 
BRANCH   4   5
ATOM      5  O   UNL     1       8.726  -4.512   3.989  1.00  0.00    -0.462 OA
BRANCH   5   6
ATOM      6  C   UNL     1       7.873  -3.592   4.507  1.00  0.00     0.325 C 
ATOM      7  O   UNL     1       7.519  -3.577   5.684  1.00  0.00    -0.250 OA
BRANCH   6   8
ATOM      8  C   UNL     1       7.463  -2.438   3.559  1.00  0.00     0.242 C 
BRANCH   8   9
ATOM      9  N   UNL     1       7.613  -2.451   2.094  1.00  0.00    -0.331 N 
ATOM     10  C   UNL     1       2.845   1.568   0.159  1.00  0.00     0.253 C 
ATOM     11  O   UNL     1       2.727   2.728   0.548  1.00  0.00    -0.269 OA
ATOM     12  N   UNL     1       4.079   0.937   0.092  1.00  0.00    -0.339 N 
ATOM     13  C   UNL     1       5.056   1.246   1.115  1.00  0.00     0.120 C 
ATOM     14  C   UNL     1       4.542   0.131  -1.032  1.00  0.00     0.120 C 
ATOM     15  C   UNL     1       5.554  -0.072   1.702  1.00  0.00     0.030 C 
ATOM     16  C   UNL     1       5.174  -1.180  -0.559  1.00  0.00     0.030 C 
ATOM     17  C   UNL     1       6.166  -1.006   0.622  1.00  0.00    -0.008 C 
ATOM     18  C   UNL     1       7.487  -0.402   0.069  1.00  0.00     0.019 C 
ATOM     19  C   UNL     1       6.439  -2.418   1.238  1.00  0.00     0.127 C 
ATOM     20  C   UNL     1       8.602  -0.482   1.098  1.00  0.00     0.101 C 
ATOM     21  C   UNL     1       8.732  -1.939   1.462  1.00  0.00     0.223 C 
ATOM     22  O   UNL     1       9.598  -2.652   0.976  1.00  0.00    -0.275 OA
BRANCH  10  23
ATOM     23  C   UNL     1       1.620   0.745  -0.049  1.00  0.00     0.043 A 
ATOM     24  C   UNL     1      -2.022  -1.579  -0.060  1.00  0.00     0.048 C 
ATOM     25  C   UNL     1      -0.772  -0.752  -0.087  1.00  0.00    -0.009 A 
ATOM     26  C   UNL     1       0.463  -1.390   0.061  1.00  0.00     0.008 A 
ATOM     27  C   UNL     1      -0.788   0.645  -0.203  1.00  0.00     0.119 A 
ATOM     28  C   UNL     1       1.639  -0.645   0.107  1.00  0.00     0.014 A 
ATOM     29  C   UNL     1       0.392   1.389  -0.201  1.00  0.00     0.060 A 
BRANCH  27  30
ATOM     30  O   UNL     1      -1.948   1.360  -0.288  1.00  0.00    -0.508 OA
ATOM     31  H   UNL     1      -2.773   0.916  -0.293  1.00  0.00     0.293 HD
ENDBRANCH  27  30
ENDBRANCH  10  23
ENDBRANCH   8   9
ENDBRANCH   6   8
ENDBRANCH   5   6
ENDBRANCH   4   5
ENDBRANCH   3   4
ENDBRANCH   2   3
ENDBRANCH   1   2
BRANCH   1  32
ATOM     32  C   UNL     1      11.247  -3.050   3.446  1.00  0.00     0.188 C 
BRANCH  32  33
ATOM     33  O   UNL     1      12.086  -4.043   2.882  1.00  0.00    -0.376 OA
BRANCH  33  34
ATOM     34  C   UNL     1      12.472  -3.784   1.537  1.00  0.00     0.202 C 
BRANCH  34  35
ATOM     35  C   UNL     1      13.850  -3.132   1.567  1.00  0.00     0.261 C 
BRANCH  35  36
ATOM     36  O   UNL     1      13.866  -1.902   2.327  1.00  0.00    -0.460 OA
BRANCH  36  37
ATOM     37  C   UNL     1      13.221  -0.852   1.777  1.00  0.00     0.338 C 
ATOM     38  O   UNL     1      12.731  -0.790   0.653  1.00  0.00    -0.246 OA
BRANCH  37  39
ATOM     39  C   UNL     1      13.012   0.184   2.811  1.00  0.00     0.060 A 
ATOM     40  C   UNL     1      11.724   0.705   2.991  1.00  0.00     0.016 A 
ATOM     41  C   UNL     1      14.069   0.660   3.586  1.00  0.00     0.016 A 
ATOM     42  C   UNL     1      11.494   1.738   3.901  1.00  0.00     0.010 A 
ATOM     43  C   UNL     1      13.843   1.704   4.490  1.00  0.00     0.010 A 
ATOM     44  C   UNL     1      12.563   2.275   4.625  1.00  0.00    -0.014 A 
BRANCH  44  45
ATOM     45  C   UNL     1      12.390   3.540   5.384  1.00  0.00     0.031 A 
ATOM     46  C   UNL     1      12.891   4.820   4.771  1.00  0.00     0.074 A 
ATOM     47  C   UNL     1      11.794   3.563   6.591  1.00  0.00     0.049 A 
ATOM     48  N   UNL     1      12.941   6.024   5.281  1.00  0.00    -0.248 NA
ATOM     49  C   UNL     1      13.411   4.729   3.396  1.00  0.00     0.031 C 
ATOM     50  C   UNL     1      11.225   2.406   7.279  1.00  0.00     0.029 A 
ATOM     51  N   UNL     1      11.588   4.607   7.461  1.00  0.00    -0.354 N 
ATOM     52  C   UNL     1      13.516   6.825   4.303  1.00  0.00     0.074 A 
ATOM     53  C   UNL     1      13.814   5.971   3.174  1.00  0.00     0.031 C 
ATOM     54  C   UNL     1      10.755   2.799   8.476  1.00  0.00     0.029 A 
ATOM     55  C   UNL     1      11.025   4.225   8.655  1.00  0.00     0.049 A 
ATOM     56  H   UNL     1      11.822   5.539   7.248  1.00  0.00     0.167 HD
ATOM     57  C   UNL     1      13.772   8.154   4.340  1.00  0.00     0.037 A 
ATOM     58  C   UNL     1      10.789   4.938   9.775  1.00  0.00     0.037 A 
ATOM     59  C   UNL     1      13.459   9.010   5.453  1.00  0.00     0.049 A 
ATOM     60  C   UNL     1      11.140   6.405   9.811  1.00  0.00     0.074 A 
ATOM     61  C   UNL     1      13.649  10.377   5.566  1.00  0.00     0.029 A 
ATOM     62  N   UNL     1      12.899   8.583   6.646  1.00  0.00    -0.354 N 
ATOM     63  N   UNL     1      11.656   7.159   8.870  1.00  0.00    -0.248 NA
ATOM     64  C   UNL     1      10.873   7.123  11.068  1.00  0.00     0.031 C 
ATOM     65  C   UNL     1      13.255  10.768   6.848  1.00  0.00     0.029 A 
ATOM     66  C   UNL     1      12.763   9.656   7.511  1.00  0.00     0.049 A 
ATOM     67  H   UNL     1      12.636   7.656   6.848  1.00  0.00     0.167 HD
ATOM     68  C   UNL     1      11.741   8.439   9.408  1.00  0.00     0.074 A 
ATOM     69  C   UNL     1      11.211   8.364  10.752  1.00  0.00     0.031 C 
ATOM     70  C   UNL     1      12.215   9.574   8.840  1.00  0.00     0.037 A 
BRANCH  57  71
ATOM     71  C   UNL     1      14.448   8.772   3.152  1.00  0.00     0.057 A 
ATOM     72  C   UNL     1      13.776   8.984   1.942  1.00  0.00     0.134 A 
ATOM     73  C   UNL     1      15.769   9.226   3.248  1.00  0.00     0.134 A 
ATOM     74  F   UNL     1      12.514   8.559   1.781  1.00  0.00    -0.206 F 
ATOM     75  C   UNL     1      14.398   9.621   0.866  1.00  0.00     0.040 A 
ATOM     76  C   UNL     1      16.393   9.887   2.189  1.00  0.00     0.040 A 
ATOM     77  F   UNL     1      16.467   9.057   4.381  1.00  0.00    -0.206 F 
ATOM     78  C   UNL     1      15.707  10.084   0.993  1.00  0.00     0.006 A 
ENDBRANCH  57  71
BRANCH  58  79
ATOM     79  C   UNL     1      10.225   4.280  10.983  1.00  0.00     0.057 A 
ATOM     80  C   UNL     1       8.957   4.617  11.473  1.00  0.00     0.134 A 
ATOM     81  C   UNL     1      10.968   3.345  11.715  1.00  0.00     0.134 A 
ATOM     82  F   UNL     1       8.206   5.526  10.834  1.00  0.00    -0.206 F 
ATOM     83  C   UNL     1       8.463   4.074  12.661  1.00  0.00     0.040 A 
ATOM     84  C   UNL     1      10.474   2.772  12.887  1.00  0.00     0.040 A 
ATOM     85  F   UNL     1      12.191   2.981  11.303  1.00  0.00    -0.206 F 
ATOM     86  C   UNL     1       9.222   3.146  13.370  1.00  0.00     0.006 A 
ENDBRANCH  58  79
BRANCH  70  87
ATOM     87  C   UNL     1      12.135  10.841   9.643  1.00  0.00     0.057 A 
ATOM     88  C   UNL     1      12.958  11.073  10.752  1.00  0.00     0.134 A 
ATOM     89  C   UNL     1      11.253  11.864   9.270  1.00  0.00     0.134 A 
ATOM     90  F   UNL     1      13.818  10.131  11.170  1.00  0.00    -0.206 F 
ATOM     91  C   UNL     1      12.889  12.265  11.476  1.00  0.00     0.040 A 
ATOM     92  C   UNL     1      11.196  13.072   9.967  1.00  0.00     0.040 A 
ATOM     93  F   UNL     1      10.445  11.714   8.209  1.00  0.00    -0.206 F 
ATOM     94  C   UNL     1      12.012  13.272  11.078  1.00  0.00     0.006 A 
ENDBRANCH  70  87
ENDBRANCH  44  45
ENDBRANCH  37  39
ENDBRANCH  36  37
ENDBRANCH  35  36
ENDBRANCH  34  35
ENDBRANCH  33  34
ENDBRANCH  32  33
ENDBRANCH   1  32
TORSDOF 20
