REMARK SMILES O=C(OCCOCCOCCOC(=O)c1ccc(-c2c3nc(c(-c4c(F)cccc4F)c4ccc([nH]4)c(-c4c(F)cccc4F)c4nc(c(-c5c(F)cccc5F)c5ccc2[nH]5)C=C4)C=C3)cc1)C1=Cc2cc(Cl)cc(-c3ccccc3)c2O[C@@H]1C(F)(F)F
REMARK SMILES IDX 8 1 7 2 6 3 5 4 4 5 3 6 2 7 1 8 69 9 70 10 85 11 71 12 84 13
REMARK SMILES IDX 72 14 83 15 73 16 76 17 74 18 75 19 86 20 87 21 88 22 89 23
REMARK SMILES IDX 77 24 78 25 82 26 79 27 81 28 80 29 9 30 10 31 11 32 12 33
REMARK SMILES IDX 13 34 14 35 15 36 16 37 68 38 17 39 67 40 18 41 19 42 20 43
REMARK SMILES IDX 61 44 21 45 66 46 60 47 62 48 22 49 65 50 59 51 58 52 23 54
REMARK SMILES IDX 49 55 32 56 48 57 33 58 36 59 47 60 63 61 34 62 35 63 46 65
REMARK SMILES IDX 64 66 37 67 24 68 25 69 30 70 26 71 27 72 29 73 31 74 28 75
REMARK SMILES IDX 50 76 51 77 56 78 52 79 53 80 55 81 57 82 54 83 38 84 39 85
REMARK SMILES IDX 44 86 40 87 41 88 43 89 45 90 42 91
REMARK H PARENT 62 53 36 64
REMARK Flexibility Score: inf
ROOT
ATOM      1  C   UNL     1       1.633   2.084   2.696  1.00  0.00     0.188 C 
ENDROOT
BRANCH   1   2
ATOM      2  C   UNL     1       2.122   0.771   2.068  1.00  0.00     0.188 C 
BRANCH   2   3
ATOM      3  O   UNL     1       3.561   0.297   2.083  1.00  0.00    -0.376 OA
BRANCH   3   4
ATOM      4  C   UNL     1       4.461  -0.444   0.754  1.00  0.00     0.202 C 
BRANCH   4   5
ATOM      5  C   UNL     1       3.801  -0.343  -1.314  1.00  0.00     0.261 C 
BRANCH   5   6
ATOM      6  O   UNL     1       2.900  -1.371  -2.027  1.00  0.00    -0.460 OA
BRANCH   6   7
ATOM      7  C   UNL     1       3.113  -2.623  -1.599  1.00  0.00     0.338 C 
ATOM      8  O   UNL     1       2.489  -3.627  -1.835  1.00  0.00    -0.246 OA
BRANCH   7   9
ATOM      9  C   UNL     1       3.946  -2.252  -0.476  1.00  0.00     0.087 C 
ATOM     10  C   UNL     1       5.325  -1.952  -0.802  1.00  0.00     0.027 C 
ATOM     11  C   UNL     1       2.685  -1.008   0.257  1.00  0.00     0.316 C 
ATOM     12  C   UNL     1       5.993  -0.298  -0.856  1.00  0.00     0.019 A 
ATOM     13  O   UNL     1       3.351   0.836   0.066  1.00  0.00    -0.475 OA
ATOM     14  C   UNL     1       7.246  -0.166  -1.401  1.00  0.00     0.032 A 
ATOM     15  C   UNL     1       5.065   1.121  -0.508  1.00  0.00     0.135 A 
ATOM     16  C   UNL     1       7.685   1.145  -1.582  1.00  0.00     0.042 A 
ATOM     17  C   UNL     1       5.618   2.385  -0.656  1.00  0.00     0.026 A 
ATOM     18  Cl  UNL     1       9.236   1.374  -2.318  1.00  0.00    -0.084 Cl
ATOM     19  C   UNL     1       6.938   2.321  -1.216  1.00  0.00     0.033 A 
BRANCH  11  20
ATOM     20  C   UNL     1       2.431  -2.039   1.606  1.00  0.00     0.430 C 
ATOM     21  F   UNL     1       2.350  -1.588   2.861  1.00  0.00    -0.167 F 
ATOM     22  F   UNL     1       1.280  -2.732   1.379  1.00  0.00    -0.167 F 
ATOM     23  F   UNL     1       3.396  -3.010   1.691  1.00  0.00    -0.167 F 
ENDBRANCH  11  20
BRANCH  17  24
ATOM     24  C   UNL     1       5.170   3.725  -0.288  1.00  0.00    -0.015 A 
ATOM     25  C   UNL     1       4.362   4.496  -1.128  1.00  0.00     0.009 A 
ATOM     26  C   UNL     1       5.766   4.374   0.817  1.00  0.00     0.009 A 
ATOM     27  C   UNL     1       4.076   5.832  -0.817  1.00  0.00     0.001 A 
ATOM     28  C   UNL     1       5.456   5.699   1.148  1.00  0.00     0.001 A 
ATOM     29  C   UNL     1       4.591   6.421   0.338  1.00  0.00     0.000 A 
ENDBRANCH  17  24
ENDBRANCH   7   9
ENDBRANCH   6   7
ENDBRANCH   5   6
ENDBRANCH   4   5
ENDBRANCH   3   4
ENDBRANCH   2   3
ENDBRANCH   1   2
BRANCH   1  30
ATOM     30  O   UNL     1       2.342   3.269   2.495  1.00  0.00    -0.376 OA
BRANCH  30  31
ATOM     31  C   UNL     1       3.723   3.199   2.761  1.00  0.00     0.202 C 
BRANCH  31  32
ATOM     32  C   UNL     1       4.238   2.904   4.167  1.00  0.00     0.261 C 
BRANCH  32  33
ATOM     33  O   UNL     1       3.877   1.611   4.655  1.00  0.00    -0.460 OA
BRANCH  33  34
ATOM     34  C   UNL     1       2.872   1.601   5.556  1.00  0.00     0.338 C 
ATOM     35  O   UNL     1       2.283   2.553   6.037  1.00  0.00    -0.246 OA
BRANCH  34  36
ATOM     36  C   UNL     1       2.441   0.211   5.740  1.00  0.00     0.060 A 
ATOM     37  C   UNL     1       1.115  -0.128   5.432  1.00  0.00     0.016 A 
ATOM     38  C   UNL     1       3.319  -0.720   6.293  1.00  0.00     0.016 A 
ATOM     39  C   UNL     1       0.649  -1.402   5.710  1.00  0.00     0.010 A 
ATOM     40  C   UNL     1       2.836  -1.982   6.627  1.00  0.00     0.010 A 
ATOM     41  C   UNL     1       1.487  -2.294   6.386  1.00  0.00    -0.014 A 
BRANCH  41  42
ATOM     42  C   UNL     1       0.833  -3.371   7.150  1.00  0.00     0.031 A 
ATOM     43  C   UNL     1       0.402  -3.044   8.553  1.00  0.00     0.074 A 
ATOM     44  C   UNL     1       0.553  -4.553   6.584  1.00  0.00     0.049 A 
ATOM     45  N   UNL     1      -0.243  -3.779   9.418  1.00  0.00    -0.248 NA
ATOM     46  C   UNL     1       0.740  -1.695   9.043  1.00  0.00     0.031 C 
ATOM     47  C   UNL     1       0.871  -4.932   5.209  1.00  0.00     0.029 A 
ATOM     48  N   UNL     1      -0.077  -5.649   7.107  1.00  0.00    -0.354 N 
ATOM     49  C   UNL     1      -0.383  -2.984  10.549  1.00  0.00     0.074 A 
ATOM     50  C   UNL     1       0.271  -1.726  10.278  1.00  0.00     0.031 C 
ATOM     51  C   UNL     1       0.435  -6.186   4.997  1.00  0.00     0.029 A 
ATOM     52  C   UNL     1      -0.168  -6.697   6.227  1.00  0.00     0.049 A 
ATOM     53  H   UNL     1      -0.430  -5.682   8.025  1.00  0.00     0.167 HD
ATOM     54  C   UNL     1      -1.010  -3.278  11.710  1.00  0.00     0.037 A 
ATOM     55  C   UNL     1      -0.675  -7.929   6.416  1.00  0.00     0.037 A 
ATOM     56  C   UNL     1      -1.637  -4.544  11.970  1.00  0.00     0.049 A 
ATOM     57  C   UNL     1      -1.289  -8.263   7.752  1.00  0.00     0.074 A 
ATOM     58  C   UNL     1      -2.301  -4.961  13.108  1.00  0.00     0.029 A 
ATOM     59  N   UNL     1      -1.658  -5.607  11.077  1.00  0.00    -0.354 N 
ATOM     60  N   UNL     1      -1.440  -7.504   8.813  1.00  0.00    -0.248 NA
ATOM     61  C   UNL     1      -1.816  -9.624   7.910  1.00  0.00     0.031 C 
ATOM     62  C   UNL     1      -2.657  -6.302  12.932  1.00  0.00     0.029 A 
ATOM     63  C   UNL     1      -2.297  -6.691  11.651  1.00  0.00     0.049 A 
ATOM     64  H   UNL     1      -1.276  -5.591  10.170  1.00  0.00     0.167 HD
ATOM     65  C   UNL     1      -2.124  -8.278   9.744  1.00  0.00     0.074 A 
ATOM     66  C   UNL     1      -2.361  -9.562   9.116  1.00  0.00     0.031 C 
ATOM     67  C   UNL     1      -2.530  -7.956  10.999  1.00  0.00     0.037 A 
BRANCH  54  68
ATOM     68  C   UNL     1      -0.986  -2.236  12.790  1.00  0.00     0.057 A 
ATOM     69  C   UNL     1      -1.672  -1.018  12.677  1.00  0.00     0.134 A 
ATOM     70  C   UNL     1      -0.251  -2.453  13.963  1.00  0.00     0.134 A 
ATOM     71  F   UNL     1      -2.376  -0.734  11.570  1.00  0.00    -0.206 F 
ATOM     72  C   UNL     1      -1.602  -0.044  13.675  1.00  0.00     0.040 A 
ATOM     73  C   UNL     1      -0.202  -1.501  14.983  1.00  0.00     0.040 A 
ATOM     74  F   UNL     1       0.434  -3.593  14.137  1.00  0.00    -0.206 F 
ATOM     75  C   UNL     1      -0.871  -0.288  14.835  1.00  0.00     0.006 A 
ENDBRANCH  54  68
BRANCH  55  76
ATOM     76  C   UNL     1      -0.636  -8.931   5.321  1.00  0.00     0.057 A 
ATOM     77  C   UNL     1      -1.811  -9.405   4.726  1.00  0.00     0.134 A 
ATOM     78  C   UNL     1       0.576  -9.465   4.865  1.00  0.00     0.134 A 
ATOM     79  F   UNL     1      -3.005  -8.947   5.130  1.00  0.00    -0.206 F 
ATOM     80  C   UNL     1      -1.786 -10.393   3.740  1.00  0.00     0.040 A 
ATOM     81  C   UNL     1       0.618 -10.431   3.859  1.00  0.00     0.040 A 
ATOM     82  F   UNL     1       1.739  -9.052   5.390  1.00  0.00    -0.206 F 
ATOM     83  C   UNL     1      -0.567 -10.907   3.302  1.00  0.00     0.006 A 
ENDBRANCH  55  76
BRANCH  67  84
ATOM     84  C   UNL     1      -3.338  -8.982  11.744  1.00  0.00     0.057 A 
ATOM     85  C   UNL     1      -2.794 -10.194  12.188  1.00  0.00     0.134 A 
ATOM     86  C   UNL     1      -4.685  -8.733  12.043  1.00  0.00     0.134 A 
ATOM     87  F   UNL     1      -1.512 -10.499  11.934  1.00  0.00    -0.206 F 
ATOM     88  C   UNL     1      -3.571 -11.140  12.859  1.00  0.00     0.040 A 
ATOM     89  C   UNL     1      -5.461  -9.652  12.749  1.00  0.00     0.040 A 
ATOM     90  F   UNL     1      -5.268  -7.585  11.665  1.00  0.00    -0.206 F 
ATOM     91  C   UNL     1      -4.907 -10.867  13.146  1.00  0.00     0.006 A 
ENDBRANCH  67  84
ENDBRANCH  41  42
ENDBRANCH  34  36
ENDBRANCH  33  34
ENDBRANCH  32  33
ENDBRANCH  31  32
ENDBRANCH  30  31
ENDBRANCH   1  30
TORSDOF 19
