REMARK SMILES Cc1ccccc1/C=C1\SC(=O)N(CC(=O)Nc2ccccc2C(=O)OCCOCCOCCOC(=O)c2ccc(-c3c4nc(c(-c5c(F)cccc5F)c5ccc([nH]5)c(-c5c(F)cccc5F)c5nc(c(-c6c(F)cccc6F)c6ccc3[nH]6)C=C5)C=C4)cc2)C1=O
REMARK SMILES IDX 30 1 29 2 28 3 27 4 26 5 24 6 25 7 23 8 18 9 19 10 20 11
REMARK SMILES IDX 22 12 21 13 17 14 15 15 16 16 14 18 13 19 8 20 9 21 10 22
REMARK SMILES IDX 92 23 11 24 93 25 12 26 7 27 1 28 2 29 3 30 4 31 6 32 5 33
REMARK SMILES IDX 31 34 32 35 33 36 34 37 35 38 36 39 37 40 38 41 39 42 91 43
REMARK SMILES IDX 40 44 90 45 41 46 42 47 43 48 84 49 44 50 89 51 83 52 85 53
REMARK SMILES IDX 45 54 88 55 82 56 81 57 46 59 72 60 55 61 71 62 56 63 59 64
REMARK SMILES IDX 70 65 86 66 57 67 58 68 69 70 87 71 60 72 47 73 48 74 53 75
REMARK SMILES IDX 49 76 50 77 52 78 54 79 51 80 73 81 74 82 79 83 75 84 76 85
REMARK SMILES IDX 78 86 80 87 77 88 61 89 62 90 67 91 63 92 64 93 66 94 68 95
REMARK SMILES IDX 65 96
REMARK H PARENT 17 17 85 58 59 69
REMARK Flexibility Score: inf
ROOT
ATOM      1  C   UNL     1       7.599   4.051   0.595  1.00  0.00     0.188 C 
ENDROOT
BRANCH   1   2
ATOM      2  O   UNL     1       6.903   3.377   1.618  1.00  0.00    -0.376 OA
BRANCH   2   3
ATOM      3  C   UNL     1       5.582   2.910   1.386  1.00  0.00     0.202 C 
BRANCH   3   4
ATOM      4  C   UNL     1       5.042   2.573  -0.141  1.00  0.00     0.261 C 
BRANCH   4   5
ATOM      5  O   UNL     1       3.653   3.357  -1.433  1.00  0.00    -0.460 OA
BRANCH   5   6
ATOM      6  C   UNL     1       3.202   4.725  -2.213  1.00  0.00     0.340 C 
ATOM      7  O   UNL     1       3.258   5.774  -1.556  1.00  0.00    -0.246 OA
BRANCH   6   8
ATOM      8  C   UNL     1       2.645   5.153  -3.611  1.00  0.00     0.083 A 
ATOM      9  C   UNL     1       3.359   6.151  -4.280  1.00  0.00     0.055 A 
ATOM     10  C   UNL     1       2.876   6.680  -5.530  1.00  0.00     0.027 A 
ATOM     11  C   UNL     1       1.722   6.222  -6.168  1.00  0.00     0.002 A 
ATOM     12  C   UNL     1       1.328   4.955  -4.185  1.00  0.00     0.018 A 
ATOM     13  C   UNL     1       0.920   5.357  -5.474  1.00  0.00     0.001 A 
BRANCH   9  14
ATOM     14  N   UNL     1       4.478   6.827  -3.769  1.00  0.00    -0.324 N 
ATOM     15  C   UNL     1       5.327   6.747  -2.712  1.00  0.00     0.244 C 
ATOM     16  O   UNL     1       6.027   7.778  -2.621  1.00  0.00    -0.273 OA
ATOM     17  H   UNL     1       4.718   7.584  -4.349  1.00  0.00     0.170 HD
BRANCH  15  18
ATOM     18  C   UNL     1       5.777   5.535  -1.796  1.00  0.00     0.230 C 
BRANCH  18  19
ATOM     19  N   UNL     1       5.160   4.311  -1.175  1.00  0.00    -0.259 N 
ATOM     20  C   UNL     1       2.129   1.875   1.031  1.00  0.00     0.029 C 
ATOM     21  C   UNL     1       2.967   2.506   0.136  1.00  0.00     0.083 C 
ATOM     22  S   UNL     1       3.787   1.282  -1.565  1.00  0.00    -0.022 SA
ATOM     23  C   UNL     1       3.939   4.244   0.161  1.00  0.00     0.268 C 
ATOM     24  C   UNL     1       5.238   2.941  -2.231  1.00  0.00     0.294 C 
ATOM     25  O   UNL     1       3.951   4.997   1.125  1.00  0.00    -0.268 OA
ATOM     26  O   UNL     1       6.129   2.775  -3.041  1.00  0.00    -0.261 OA
BRANCH  20  27
ATOM     27  C   UNL     1       1.304   0.581   1.012  1.00  0.00    -0.021 A 
ATOM     28  C   UNL     1       3.145  -1.165   0.636  1.00  0.00     0.045 C 
ATOM     29  C   UNL     1       1.715  -0.725   0.686  1.00  0.00    -0.044 A 
ATOM     30  C   UNL     1       0.761  -1.772   0.507  1.00  0.00     0.004 A 
ATOM     31  C   UNL     1      -0.589  -1.593   0.778  1.00  0.00     0.000 A 
ATOM     32  C   UNL     1      -0.055   0.673   1.421  1.00  0.00     0.008 A 
ATOM     33  C   UNL     1      -0.989  -0.377   1.292  1.00  0.00     0.001 A 
ENDBRANCH  20  27
ENDBRANCH  18  19
ENDBRANCH  15  18
ENDBRANCH   9  14
ENDBRANCH   6   8
ENDBRANCH   5   6
ENDBRANCH   4   5
ENDBRANCH   3   4
ENDBRANCH   2   3
ENDBRANCH   1   2
BRANCH   1  34
ATOM     34  C   UNL     1       8.196   3.192  -0.566  1.00  0.00     0.188 C 
BRANCH  34  35
ATOM     35  O   UNL     1       8.015   1.796  -0.376  1.00  0.00    -0.376 OA
BRANCH  35  36
ATOM     36  C   UNL     1       7.997   0.845  -1.457  1.00  0.00     0.202 C 
BRANCH  36  37
ATOM     37  C   UNL     1       8.340   1.157  -2.946  1.00  0.00     0.261 C 
BRANCH  37  38
ATOM     38  O   UNL     1       7.248   0.661  -3.825  1.00  0.00    -0.460 OA
BRANCH  38  39
ATOM     39  C   UNL     1       6.886   1.418  -4.922  1.00  0.00     0.338 C 
ATOM     40  O   UNL     1       7.623   2.213  -5.490  1.00  0.00    -0.246 OA
BRANCH  39  41
ATOM     41  C   UNL     1       5.354   1.418  -5.098  1.00  0.00     0.060 A 
ATOM     42  C   UNL     1       4.703   2.607  -5.431  1.00  0.00     0.016 A 
ATOM     43  C   UNL     1       4.519   0.412  -4.630  1.00  0.00     0.016 A 
ATOM     44  C   UNL     1       3.343   2.845  -5.029  1.00  0.00     0.010 A 
ATOM     45  C   UNL     1       3.160   0.698  -4.228  1.00  0.00     0.010 A 
ATOM     46  C   UNL     1       2.601   2.010  -4.173  1.00  0.00    -0.014 A 
BRANCH  46  47
ATOM     47  C   UNL     1       1.278   2.294  -3.146  1.00  0.00     0.031 A 
ATOM     48  C   UNL     1       0.035   1.752  -3.772  1.00  0.00     0.074 A 
ATOM     49  C   UNL     1       0.864   3.038  -1.968  1.00  0.00     0.049 A 
ATOM     50  N   UNL     1      -1.153   2.254  -3.595  1.00  0.00    -0.248 NA
ATOM     51  C   UNL     1       0.055   0.722  -4.813  1.00  0.00     0.031 C 
ATOM     52  C   UNL     1      -0.205   2.675  -1.011  1.00  0.00     0.029 A 
ATOM     53  N   UNL     1       1.228   4.258  -1.302  1.00  0.00    -0.354 N 
ATOM     54  C   UNL     1      -1.988   1.249  -4.004  1.00  0.00     0.074 A 
ATOM     55  C   UNL     1      -1.253   0.609  -5.051  1.00  0.00     0.031 C 
ATOM     56  C   UNL     1      -0.298   3.543   0.035  1.00  0.00     0.029 A 
ATOM     57  C   UNL     1       0.687   4.613  -0.062  1.00  0.00     0.049 A 
ATOM     58  H   UNL     1       1.877   4.861  -1.730  1.00  0.00     0.167 HD
ATOM     59  C   UNL     1      -2.933   0.794  -3.129  1.00  0.00     0.037 A 
ATOM     60  C   UNL     1       0.617   5.904   0.448  1.00  0.00     0.037 A 
ATOM     61  C   UNL     1      -3.281   1.794  -2.076  1.00  0.00     0.049 A 
ATOM     62  C   UNL     1      -0.743   6.383   0.081  1.00  0.00     0.074 A 
ATOM     63  C   UNL     1      -3.474   1.709  -0.704  1.00  0.00     0.029 A 
ATOM     64  N   UNL     1      -3.300   3.181  -2.352  1.00  0.00    -0.354 N 
ATOM     65  N   UNL     1      -1.444   5.723  -0.791  1.00  0.00    -0.248 NA
ATOM     66  C   UNL     1      -1.435   7.544   0.625  1.00  0.00     0.031 C 
ATOM     67  C   UNL     1      -3.577   3.018  -0.166  1.00  0.00     0.029 A 
ATOM     68  C   UNL     1      -3.497   3.932  -1.205  1.00  0.00     0.049 A 
ATOM     69  H   UNL     1      -3.186   3.566  -3.251  1.00  0.00     0.167 HD
ATOM     70  C   UNL     1      -2.715   6.153  -0.714  1.00  0.00     0.074 A 
ATOM     71  C   UNL     1      -2.651   7.379   0.068  1.00  0.00     0.031 C 
ATOM     72  C   UNL     1      -3.718   5.384  -1.206  1.00  0.00     0.037 A 
BRANCH  59  73
ATOM     73  C   UNL     1      -3.297  -0.715  -3.062  1.00  0.00     0.057 A 
ATOM     74  C   UNL     1      -4.293  -1.172  -2.178  1.00  0.00     0.134 A 
ATOM     75  C   UNL     1      -2.649  -1.786  -3.741  1.00  0.00     0.134 A 
ATOM     76  F   UNL     1      -5.051  -0.319  -1.478  1.00  0.00    -0.206 F 
ATOM     77  C   UNL     1      -4.577  -2.536  -1.960  1.00  0.00     0.040 A 
ATOM     78  C   UNL     1      -2.969  -3.143  -3.580  1.00  0.00     0.040 A 
ATOM     79  F   UNL     1      -1.626  -1.632  -4.583  1.00  0.00    -0.206 F 
ATOM     80  C   UNL     1      -3.923  -3.530  -2.669  1.00  0.00     0.006 A 
ENDBRANCH  59  73
BRANCH  60  81
ATOM     81  C   UNL     1       1.742   6.909   0.658  1.00  0.00     0.057 A 
ATOM     82  C   UNL     1       2.493   6.914   1.853  1.00  0.00     0.134 A 
ATOM     83  C   UNL     1       2.225   7.781  -0.329  1.00  0.00     0.134 A 
ATOM     84  F   UNL     1       2.073   6.199   2.910  1.00  0.00    -0.206 F 
ATOM     85  C   UNL     1       3.773   7.518   1.951  1.00  0.00     0.040 A 
ATOM     86  C   UNL     1       3.504   8.387  -0.248  1.00  0.00     0.040 A 
ATOM     87  F   UNL     1       1.535   7.954  -1.466  1.00  0.00    -0.206 F 
ATOM     88  C   UNL     1       4.316   8.189   0.863  1.00  0.00     0.006 A 
ENDBRANCH  60  81
BRANCH  72  89
ATOM     89  C   UNL     1      -5.072   5.934  -1.457  1.00  0.00     0.057 A 
ATOM     90  C   UNL     1      -5.297   7.270  -1.820  1.00  0.00     0.134 A 
ATOM     91  C   UNL     1      -6.184   5.079  -1.497  1.00  0.00     0.134 A 
ATOM     92  F   UNL     1      -4.292   8.153  -1.925  1.00  0.00    -0.206 F 
ATOM     93  C   UNL     1      -6.568   7.740  -2.139  1.00  0.00     0.040 A 
ATOM     94  C   UNL     1      -7.445   5.525  -1.868  1.00  0.00     0.040 A 
ATOM     95  F   UNL     1      -6.092   3.773  -1.211  1.00  0.00    -0.206 F 
ATOM     96  C   UNL     1      -7.644   6.862  -2.177  1.00  0.00     0.006 A 
ENDBRANCH  72  89
ENDBRANCH  46  47
ENDBRANCH  39  41
ENDBRANCH  38  39
ENDBRANCH  37  38
ENDBRANCH  36  37
ENDBRANCH  35  36
ENDBRANCH  34  35
ENDBRANCH   1  34
TORSDOF 21
