REMARK SMILES CC(C)C[C@H](NC(=O)[C@@H](NC(=O)[C@H](C)NC(=O)CNC(=O)OCc1ccccc1)C(C)C)C(=O)OCCOCCOCCOC(=O)c1ccc(-c2c3nc(c(-c4c(F)cccc4F)c4ccc([nH]4)c(-c4c(F)cccc4F)c4nc(c(-c5c(F)cccc5F)c5ccc2[nH]5)C=C4)C=C3)cc1
REMARK SMILES IDX 36 1 35 2 33 3 34 4 5 5 4 6 2 7 1 8 3 9 6 10 7 11 8 13 9 14
REMARK SMILES IDX 10 15 11 16 12 18 13 19 14 20 15 21 16 22 17 24 18 25 19 26
REMARK SMILES IDX 20 27 21 29 22 30 23 31 24 32 25 33 29 34 26 35 28 36 27 37
REMARK SMILES IDX 30 38 31 39 32 40 37 41 38 42 39 43 40 44 41 45 42 46 43 47
REMARK SMILES IDX 44 48 45 49 46 50 47 51 48 52 100 53 49 54 99 55 50 56 51 57
REMARK SMILES IDX 52 58 93 59 53 60 98 61 92 62 94 63 54 64 97 65 91 66 90 67
REMARK SMILES IDX 55 69 81 70 64 71 80 72 65 73 68 74 79 75 95 76 66 77 67 78
REMARK SMILES IDX 78 80 96 81 69 82 56 83 57 84 62 85 58 86 59 87 61 88 63 89
REMARK SMILES IDX 60 90 82 91 83 92 88 93 84 94 85 95 87 96 89 97 86 98 70 99
REMARK SMILES IDX 71 100 76 101 72 102 73 103 75 104 77 105 74 106
REMARK H PARENT 6 12 10 17 15 23 19 28 94 68 68 79
REMARK Flexibility Score: inf
ROOT
ATOM      1  C   UNL     1      -3.078  -1.983   3.106  1.00  0.00     0.261 C 
ENDROOT
BRANCH   1   2
ATOM      2  O   UNL     1      -4.013  -2.893   3.658  1.00  0.00    -0.462 OA
BRANCH   2   3
ATOM      3  C   UNL     1      -4.862  -3.337   2.700  1.00  0.00     0.328 C 
ATOM      4  O   UNL     1      -6.078  -3.314   2.878  1.00  0.00    -0.250 OA
BRANCH   3   5
ATOM      5  C   UNL     1      -4.166  -4.019   1.487  1.00  0.00     0.192 C 
BRANCH   5   6
ATOM      6  C   UNL     1      -4.222  -5.485   1.997  1.00  0.00     0.040 C 
BRANCH   6   7
ATOM      7  C   UNL     1      -3.120  -6.038   2.942  1.00  0.00    -0.015 C 
ATOM      8  C   UNL     1      -1.870  -5.205   3.219  1.00  0.00     0.007 C 
ATOM      9  C   UNL     1      -3.700  -6.456   4.303  1.00  0.00     0.007 C 
ENDBRANCH   6   7
ENDBRANCH   5   6
BRANCH   5  10
ATOM     10  N   UNL     1      -2.797  -3.688   0.818  1.00  0.00    -0.341 N 
ATOM     11  C   UNL     1      -2.241  -2.699  -0.008  1.00  0.00     0.243 C 
ATOM     12  H   UNL     1      -2.126  -4.374   1.039  1.00  0.00     0.164 HD
ATOM     13  O   UNL     1      -1.701  -3.224  -1.008  1.00  0.00    -0.273 OA
BRANCH  11  14
ATOM     14  C   UNL     1      -1.909  -0.959   0.236  1.00  0.00     0.174 C 
BRANCH  14  15
ATOM     15  N   UNL     1      -2.805   0.500   0.147  1.00  0.00    -0.342 N 
ATOM     16  C   UNL     1      -3.685   1.475   0.575  1.00  0.00     0.242 C 
ATOM     17  H   UNL     1      -2.528   0.852  -0.730  1.00  0.00     0.164 HD
ATOM     18  O   UNL     1      -3.646   2.436  -0.231  1.00  0.00    -0.273 OA
BRANCH  16  19
ATOM     19  C   UNL     1      -4.961   1.624   1.713  1.00  0.00     0.168 C 
ATOM     20  C   UNL     1      -5.231   3.095   2.068  1.00  0.00     0.041 C 
BRANCH  19  21
ATOM     21  N   UNL     1      -5.425   0.850   2.895  1.00  0.00    -0.343 N 
ATOM     22  C   UNL     1      -4.798   0.779   4.128  1.00  0.00     0.240 C 
ATOM     23  H   UNL     1      -6.259   0.338   2.791  1.00  0.00     0.164 HD
ATOM     24  O   UNL     1      -3.853   1.498   4.435  1.00  0.00    -0.273 OA
BRANCH  22  25
ATOM     25  C   UNL     1      -5.359  -0.301   5.093  1.00  0.00     0.219 C 
BRANCH  25  26
ATOM     26  N   UNL     1      -6.268   0.368   5.974  1.00  0.00    -0.312 N 
ATOM     27  C   UNL     1      -7.484   0.757   5.535  1.00  0.00     0.407 C 
ATOM     28  H   UNL     1      -6.004   0.545   6.906  1.00  0.00     0.167 HD
ATOM     29  O   UNL     1      -8.048   1.730   6.056  1.00  0.00    -0.225 OA
BRANCH  27  30
ATOM     30  O   UNL     1      -7.929   0.027   4.486  1.00  0.00    -0.445 OA
BRANCH  30  31
ATOM     31  C   UNL     1      -9.277   0.252   4.027  1.00  0.00     0.270 C 
BRANCH  31  32
ATOM     32  C   UNL     1     -10.242  -0.086   5.132  1.00  0.00    -0.011 A 
ATOM     33  C   UNL     1     -10.683   0.943   5.975  1.00  0.00     0.007 A 
ATOM     34  C   UNL     1     -10.472  -1.419   5.493  1.00  0.00     0.007 A 
ATOM     35  C   UNL     1     -11.174   0.647   7.240  1.00  0.00     0.000 A 
ATOM     36  C   UNL     1     -11.020  -1.712   6.741  1.00  0.00     0.000 A 
ATOM     37  C   UNL     1     -11.325  -0.680   7.630  1.00  0.00     0.000 A 
ENDBRANCH  31  32
ENDBRANCH  30  31
ENDBRANCH  27  30
ENDBRANCH  25  26
ENDBRANCH  22  25
ENDBRANCH  19  21
ENDBRANCH  16  19
ENDBRANCH  14  15
BRANCH  14  38
ATOM     38  C   UNL     1      -0.601  -0.719   1.052  1.00  0.00     0.015 C 
ATOM     39  C   UNL     1       0.439  -1.829   0.819  1.00  0.00     0.010 C 
ATOM     40  C   UNL     1       0.058   0.614   0.648  1.00  0.00     0.010 C 
ENDBRANCH  14  38
ENDBRANCH  11  14
ENDBRANCH   5  10
ENDBRANCH   3   5
ENDBRANCH   2   3
ENDBRANCH   1   2
BRANCH   1  41
ATOM     41  C   UNL     1      -3.838  -1.105   2.091  1.00  0.00     0.202 C 
BRANCH  41  42
ATOM     42  O   UNL     1      -4.191  -1.654   0.808  1.00  0.00    -0.376 OA
BRANCH  42  43
ATOM     43  C   UNL     1      -5.148  -1.176  -0.140  1.00  0.00     0.188 C 
BRANCH  43  44
ATOM     44  C   UNL     1      -4.698  -1.193  -1.664  1.00  0.00     0.188 C 
BRANCH  44  45
ATOM     45  O   UNL     1      -3.322  -0.933  -1.876  1.00  0.00    -0.376 OA
BRANCH  45  46
ATOM     46  C   UNL     1      -2.720  -1.026  -3.168  1.00  0.00     0.202 C 
BRANCH  46  47
ATOM     47  C   UNL     1      -2.744   0.331  -3.885  1.00  0.00     0.261 C 
BRANCH  47  48
ATOM     48  O   UNL     1      -4.066   0.648  -4.313  1.00  0.00    -0.460 OA
BRANCH  48  49
ATOM     49  C   UNL     1      -4.582  -0.246  -5.176  1.00  0.00     0.338 C 
ATOM     50  O   UNL     1      -3.988  -1.074  -5.862  1.00  0.00    -0.246 OA
BRANCH  49  51
ATOM     51  C   UNL     1      -6.005  -0.285  -4.874  1.00  0.00     0.060 A 
ATOM     52  C   UNL     1      -6.552  -1.494  -4.421  1.00  0.00     0.016 A 
ATOM     53  C   UNL     1      -6.761   0.885  -4.958  1.00  0.00     0.016 A 
ATOM     54  C   UNL     1      -7.896  -1.548  -4.093  1.00  0.00     0.010 A 
ATOM     55  C   UNL     1      -8.114   0.821  -4.676  1.00  0.00     0.010 A 
ATOM     56  C   UNL     1      -8.683  -0.409  -4.303  1.00  0.00    -0.014 A 
BRANCH  56  57
ATOM     57  C   UNL     1     -10.126  -0.583  -4.522  1.00  0.00     0.031 A 
ATOM     58  C   UNL     1     -10.545  -0.938  -5.920  1.00  0.00     0.074 A 
ATOM     59  C   UNL     1     -11.006  -0.390  -3.531  1.00  0.00     0.049 A 
ATOM     60  N   UNL     1     -11.741  -1.026  -6.431  1.00  0.00    -0.248 NA
ATOM     61  C   UNL     1      -9.459  -1.225  -6.879  1.00  0.00     0.031 C 
ATOM     62  C   UNL     1     -10.669  -0.085  -2.142  1.00  0.00     0.029 A 
ATOM     63  N   UNL     1     -12.372  -0.399  -3.560  1.00  0.00    -0.354 N 
ATOM     64  C   UNL     1     -11.549  -1.374  -7.762  1.00  0.00     0.074 A 
ATOM     65  C   UNL     1     -10.129  -1.466  -7.992  1.00  0.00     0.031 C 
ATOM     66  C   UNL     1     -11.810   0.093  -1.451  1.00  0.00     0.029 A 
ATOM     67  C   UNL     1     -12.943  -0.046  -2.364  1.00  0.00     0.049 A 
ATOM     68  H   UNL     1     -12.895  -0.635  -4.360  1.00  0.00     0.167 HD
ATOM     69  C   UNL     1     -12.484  -1.590  -8.711  1.00  0.00     0.037 A 
ATOM     70  C   UNL     1     -14.238   0.173  -2.071  1.00  0.00     0.037 A 
ATOM     71  C   UNL     1     -13.890  -1.448  -8.469  1.00  0.00     0.049 A 
ATOM     72  C   UNL     1     -15.257   0.006  -3.169  1.00  0.00     0.074 A 
ATOM     73  C   UNL     1     -14.940  -1.618  -9.348  1.00  0.00     0.029 A 
ATOM     74  N   UNL     1     -14.434  -1.083  -7.246  1.00  0.00    -0.354 N 
ATOM     75  N   UNL     1     -15.076  -0.338  -4.423  1.00  0.00    -0.248 NA
ATOM     76  C   UNL     1     -16.659   0.261  -2.813  1.00  0.00     0.031 C 
ATOM     77  C   UNL     1     -16.122  -1.312  -8.666  1.00  0.00     0.029 A 
ATOM     78  C   UNL     1     -15.809  -1.005  -7.349  1.00  0.00     0.049 A 
ATOM     79  H   UNL     1     -13.918  -0.906  -6.426  1.00  0.00     0.167 HD
ATOM     80  C   UNL     1     -16.341  -0.370  -4.998  1.00  0.00     0.074 A 
ATOM     81  C   UNL     1     -17.279  -0.019  -3.950  1.00  0.00     0.031 C 
ATOM     82  C   UNL     1     -16.703  -0.664  -6.272  1.00  0.00     0.037 A 
BRANCH  69  83
ATOM     83  C   UNL     1     -11.999  -1.947 -10.083  1.00  0.00     0.057 A 
ATOM     84  C   UNL     1     -11.428  -3.196 -10.364  1.00  0.00     0.134 A 
ATOM     85  C   UNL     1     -12.087  -1.025 -11.132  1.00  0.00     0.134 A 
ATOM     86  F   UNL     1     -11.282  -4.110  -9.393  1.00  0.00    -0.206 F 
ATOM     87  C   UNL     1     -10.948  -3.509 -11.637  1.00  0.00     0.040 A 
ATOM     88  C   UNL     1     -11.633  -1.335 -12.415  1.00  0.00     0.040 A 
ATOM     89  F   UNL     1     -12.607   0.194 -10.926  1.00  0.00    -0.206 F 
ATOM     90  C   UNL     1     -11.058  -2.579 -12.669  1.00  0.00     0.006 A 
ENDBRANCH  69  83
BRANCH  70  91
ATOM     91  C   UNL     1     -14.637   0.592  -0.705  1.00  0.00     0.057 A 
ATOM     92  C   UNL     1     -15.383  -0.253   0.124  1.00  0.00     0.134 A 
ATOM     93  C   UNL     1     -14.295   1.853  -0.198  1.00  0.00     0.134 A 
ATOM     94  F   UNL     1     -15.755  -1.466  -0.311  1.00  0.00    -0.206 F 
ATOM     95  C   UNL     1     -15.792   0.145   1.398  1.00  0.00     0.040 A 
ATOM     96  C   UNL     1     -14.676   2.255   1.083  1.00  0.00     0.040 A 
ATOM     97  F   UNL     1     -13.576   2.708  -0.939  1.00  0.00    -0.206 F 
ATOM     98  C   UNL     1     -15.434   1.402   1.882  1.00  0.00     0.006 A 
ENDBRANCH  70  91
BRANCH  82  99
ATOM     99  C   UNL     1     -18.169  -0.662  -6.582  1.00  0.00     0.057 A 
ATOM    100  C   UNL     1     -18.898   0.526  -6.699  1.00  0.00     0.134 A 
ATOM    101  C   UNL     1     -18.839  -1.867  -6.827  1.00  0.00     0.134 A 
ATOM    102  F   UNL     1     -18.312   1.710  -6.467  1.00  0.00    -0.206 F 
ATOM    103  C   UNL     1     -20.254   0.514  -7.028  1.00  0.00     0.040 A 
ATOM    104  C   UNL     1     -20.186  -1.890  -7.185  1.00  0.00     0.040 A 
ATOM    105  F   UNL     1     -18.188  -3.038  -6.746  1.00  0.00    -0.206 F 
ATOM    106  C   UNL     1     -20.898  -0.697  -7.280  1.00  0.00     0.006 A 
ENDBRANCH  82  99
ENDBRANCH  56  57
ENDBRANCH  49  51
ENDBRANCH  48  49
ENDBRANCH  47  48
ENDBRANCH  46  47
ENDBRANCH  45  46
ENDBRANCH  44  45
ENDBRANCH  43  44
ENDBRANCH  42  43
ENDBRANCH  41  42
ENDBRANCH   1  41
TORSDOF 30
