REMARK SMILES Cc1c(CC(=O)OCCOCCOCCOC(=O)c2ccc(-c3c4nc(c(-c5c(F)cccc5F)c5ccc([nH]5)c(-c5c(F)cccc5F)c5nc(c(-c6c(F)cccc6F)c6ccc3[nH]6)C=C5)C=C4)cc2)c2ccccc2n1C(=O)c1ccc(Cl)cc1
REMARK SMILES IDX 11 1 10 2 9 3 8 4 7 5 5 6 6 7 4 8 3 9 1 10 2 11 79 12 73 13
REMARK SMILES IDX 78 14 74 15 77 16 75 17 76 18 80 19 81 20 82 21 83 22 88 23
REMARK SMILES IDX 84 24 87 25 85 26 86 27 12 28 13 29 14 30 15 31 16 32 17 33
REMARK SMILES IDX 18 34 19 35 20 36 72 37 21 38 71 39 22 40 23 41 24 42 65 43
REMARK SMILES IDX 25 44 70 45 64 46 66 47 26 48 69 49 63 50 62 51 27 53 53 54
REMARK SMILES IDX 36 55 52 56 37 57 40 58 51 59 67 60 38 61 39 62 50 64 68 65
REMARK SMILES IDX 41 66 28 67 29 68 34 69 30 70 31 71 33 72 35 73 32 74 54 75
REMARK SMILES IDX 55 76 60 77 56 78 57 79 59 80 61 81 58 82 42 83 43 84 48 85
REMARK SMILES IDX 44 86 45 87 47 88 49 89 46 90
REMARK H PARENT 66 52 40 63
REMARK Flexibility Score: inf
ROOT
ATOM      1  C   UNL     1       4.165  -4.966   0.637  1.00  0.00     0.188 C 
ENDROOT
BRANCH   1   2
ATOM      2  O   UNL     1       5.507  -4.809   1.035  1.00  0.00    -0.376 OA
BRANCH   2   3
ATOM      3  C   UNL     1       5.842  -3.614   1.716  1.00  0.00     0.202 C 
BRANCH   3   4
ATOM      4  C   UNL     1       5.387  -2.311   1.048  1.00  0.00     0.261 C 
BRANCH   4   5
ATOM      5  O   UNL     1       3.947  -2.120   1.131  1.00  0.00    -0.463 OA
BRANCH   5   6
ATOM      6  C   UNL     1       3.340  -1.705  -0.010  1.00  0.00     0.310 C 
ATOM      7  O   UNL     1       3.986  -1.284  -0.970  1.00  0.00    -0.252 OA
BRANCH   6   8
ATOM      8  C   UNL     1       1.852  -2.026  -0.159  1.00  0.00     0.160 C 
BRANCH   8   9
ATOM      9  C   UNL     1       0.768  -1.785   0.855  1.00  0.00    -0.008 A 
ATOM     10  C   UNL     1       0.735   0.768   0.601  1.00  0.00     0.065 C 
ATOM     11  C   UNL     1       0.237  -0.534   1.137  1.00  0.00     0.028 A 
ATOM     12  N   UNL     1      -0.894  -0.699   1.940  1.00  0.00    -0.280 N 
ATOM     13  C   UNL     1      -0.177  -2.740   1.367  1.00  0.00     0.004 A 
ATOM     14  C   UNL     1      -1.256  -2.051   1.902  1.00  0.00     0.056 A 
ATOM     15  C   UNL     1      -0.293  -4.141   1.338  1.00  0.00     0.010 A 
ATOM     16  C   UNL     1      -2.434  -2.753   2.286  1.00  0.00     0.027 A 
ATOM     17  C   UNL     1      -1.430  -4.844   1.747  1.00  0.00     0.001 A 
ATOM     18  C   UNL     1      -2.512  -4.141   2.206  1.00  0.00     0.002 A 
BRANCH  12  19
ATOM     19  C   UNL     1      -1.581   0.308   2.674  1.00  0.00     0.262 C 
ATOM     20  O   UNL     1      -1.394   1.474   2.440  1.00  0.00    -0.268 OA
BRANCH  19  21
ATOM     21  C   UNL     1      -2.526  -0.070   3.751  1.00  0.00     0.040 A 
ATOM     22  C   UNL     1      -2.042  -0.785   4.855  1.00  0.00     0.015 A 
ATOM     23  C   UNL     1      -3.896   0.045   3.497  1.00  0.00     0.015 A 
ATOM     24  C   UNL     1      -2.945  -1.453   5.681  1.00  0.00     0.021 A 
ATOM     25  C   UNL     1      -4.791  -0.639   4.322  1.00  0.00     0.021 A 
ATOM     26  C   UNL     1      -4.312  -1.395   5.397  1.00  0.00     0.041 A 
ATOM     27  Cl  UNL     1      -5.410  -2.334   6.331  1.00  0.00    -0.084 Cl
ENDBRANCH  19  21
ENDBRANCH  12  19
ENDBRANCH   8   9
ENDBRANCH   6   8
ENDBRANCH   5   6
ENDBRANCH   4   5
ENDBRANCH   3   4
ENDBRANCH   2   3
ENDBRANCH   1   2
BRANCH   1  28
ATOM     28  C   UNL     1       3.037  -4.700   1.642  1.00  0.00     0.188 C 
BRANCH  28  29
ATOM     29  O   UNL     1       3.287  -4.703   3.023  1.00  0.00    -0.376 OA
BRANCH  29  30
ATOM     30  C   UNL     1       3.545  -5.970   3.604  1.00  0.00     0.202 C 
BRANCH  30  31
ATOM     31  C   UNL     1       2.761  -7.203   3.079  1.00  0.00     0.261 C 
BRANCH  31  32
ATOM     32  O   UNL     1       2.943  -7.471   1.653  1.00  0.00    -0.460 OA
BRANCH  32  33
ATOM     33  C   UNL     1       1.813  -7.796   0.948  1.00  0.00     0.338 C 
ATOM     34  O   UNL     1       0.775  -8.202   1.451  1.00  0.00    -0.246 OA
BRANCH  33  35
ATOM     35  C   UNL     1       1.832  -7.196  -0.437  1.00  0.00     0.060 A 
ATOM     36  C   UNL     1       2.879  -7.236  -1.354  1.00  0.00     0.016 A 
ATOM     37  C   UNL     1       0.740  -6.377  -0.745  1.00  0.00     0.016 A 
ATOM     38  C   UNL     1       2.889  -6.320  -2.439  1.00  0.00     0.010 A 
ATOM     39  C   UNL     1       0.751  -5.456  -1.800  1.00  0.00     0.010 A 
ATOM     40  C   UNL     1       1.860  -5.361  -2.628  1.00  0.00    -0.014 A 
BRANCH  40  41
ATOM     41  C   UNL     1       1.737  -4.586  -3.889  1.00  0.00     0.031 A 
ATOM     42  C   UNL     1       1.389  -5.500  -4.976  1.00  0.00     0.074 A 
ATOM     43  C   UNL     1       1.791  -3.277  -4.238  1.00  0.00     0.049 A 
ATOM     44  N   UNL     1       2.274  -6.144  -5.650  1.00  0.00    -0.248 NA
ATOM     45  C   UNL     1       0.007  -5.928  -5.187  1.00  0.00     0.031 C 
ATOM     46  C   UNL     1       1.965  -2.131  -3.385  1.00  0.00     0.029 A 
ATOM     47  N   UNL     1       1.725  -2.675  -5.477  1.00  0.00    -0.354 N 
ATOM     48  C   UNL     1       1.561  -6.864  -6.574  1.00  0.00     0.074 A 
ATOM     49  C   UNL     1       0.204  -6.901  -6.083  1.00  0.00     0.031 C 
ATOM     50  C   UNL     1       1.764  -0.963  -4.036  1.00  0.00     0.029 A 
ATOM     51  C   UNL     1       1.683  -1.273  -5.450  1.00  0.00     0.049 A 
ATOM     52  H   UNL     1       1.707  -3.190  -6.316  1.00  0.00     0.167 HD
ATOM     53  C   UNL     1       2.110  -7.067  -7.798  1.00  0.00     0.037 A 
ATOM     54  C   UNL     1       1.819  -0.376  -6.466  1.00  0.00     0.037 A 
ATOM     55  C   UNL     1       3.529  -6.740  -7.797  1.00  0.00     0.049 A 
ATOM     56  C   UNL     1       2.601  -1.049  -7.524  1.00  0.00     0.074 A 
ATOM     57  C   UNL     1       4.622  -7.128  -7.040  1.00  0.00     0.029 A 
ATOM     58  N   UNL     1       3.915  -5.569  -8.408  1.00  0.00    -0.354 N 
ATOM     59  N   UNL     1       3.869  -1.331  -7.420  1.00  0.00    -0.248 NA
ATOM     60  C   UNL     1       1.865  -1.813  -8.511  1.00  0.00     0.031 C 
ATOM     61  C   UNL     1       5.417  -5.951  -6.878  1.00  0.00     0.029 A 
ATOM     62  C   UNL     1       4.809  -4.920  -7.593  1.00  0.00     0.049 A 
ATOM     63  H   UNL     1       3.602  -5.250  -9.285  1.00  0.00     0.167 HD
ATOM     64  C   UNL     1       3.977  -2.606  -7.952  1.00  0.00     0.074 A 
ATOM     65  C   UNL     1       2.735  -2.807  -8.697  1.00  0.00     0.031 C 
ATOM     66  C   UNL     1       4.931  -3.478  -7.510  1.00  0.00     0.037 A 
BRANCH  53  67
ATOM     67  C   UNL     1       1.292  -7.131  -9.056  1.00  0.00     0.057 A 
ATOM     68  C   UNL     1      -0.006  -6.598  -9.210  1.00  0.00     0.134 A 
ATOM     69  C   UNL     1       1.938  -7.494 -10.246  1.00  0.00     0.134 A 
ATOM     70  F   UNL     1      -0.730  -6.129  -8.189  1.00  0.00    -0.206 F 
ATOM     71  C   UNL     1      -0.604  -6.415 -10.456  1.00  0.00     0.040 A 
ATOM     72  C   UNL     1       1.371  -7.261 -11.502  1.00  0.00     0.040 A 
ATOM     73  F   UNL     1       3.179  -8.004 -10.227  1.00  0.00    -0.206 F 
ATOM     74  C   UNL     1       0.099  -6.713 -11.609  1.00  0.00     0.006 A 
ENDBRANCH  53  67
BRANCH  54  75
ATOM     75  C   UNL     1       1.227   0.973  -6.659  1.00  0.00     0.057 A 
ATOM     76  C   UNL     1      -0.002   1.309  -6.068  1.00  0.00     0.134 A 
ATOM     77  C   UNL     1       1.681   1.852  -7.659  1.00  0.00     0.134 A 
ATOM     78  F   UNL     1      -0.554   0.517  -5.137  1.00  0.00    -0.206 F 
ATOM     79  C   UNL     1      -0.756   2.418  -6.476  1.00  0.00     0.040 A 
ATOM     80  C   UNL     1       0.935   2.967  -8.077  1.00  0.00     0.040 A 
ATOM     81  F   UNL     1       2.829   1.615  -8.310  1.00  0.00    -0.206 F 
ATOM     82  C   UNL     1      -0.298   3.242  -7.497  1.00  0.00     0.006 A 
ENDBRANCH  54  75
BRANCH  66  83
ATOM     83  C   UNL     1       6.079  -2.921  -6.703  1.00  0.00     0.057 A 
ATOM     84  C   UNL     1       7.384  -3.146  -7.161  1.00  0.00     0.134 A 
ATOM     85  C   UNL     1       5.954  -2.276  -5.462  1.00  0.00     0.134 A 
ATOM     86  F   UNL     1       7.591  -3.790  -8.321  1.00  0.00    -0.206 F 
ATOM     87  C   UNL     1       8.509  -2.750  -6.431  1.00  0.00     0.040 A 
ATOM     88  C   UNL     1       7.073  -1.847  -4.735  1.00  0.00     0.040 A 
ATOM     89  F   UNL     1       4.756  -2.085  -4.897  1.00  0.00    -0.206 F 
ATOM     90  C   UNL     1       8.356  -2.089  -5.217  1.00  0.00     0.006 A 
ENDBRANCH  66  83
ENDBRANCH  40  41
ENDBRANCH  33  35
ENDBRANCH  32  33
ENDBRANCH  31  32
ENDBRANCH  30  31
ENDBRANCH  29  30
ENDBRANCH  28  29
ENDBRANCH   1  28
TORSDOF 20
