REMARK SMILES O=C(OCCOCCOCCOC(=O)c1ccc(-c2c3nc(c(-c4c(F)cccc4F)c4ccc([nH]4)c(-c4c(F)cccc4F)c4nc(c(-c5c(F)cccc5F)c5ccc2[nH]5)C=C4)C=C3)cc1)C1=Cc2cc(S(F)(F)(F)(F)F)ccc2O[C@@H]1C(F)(F)F
REMARK SMILES IDX 8 1 7 2 6 3 5 4 4 5 3 6 2 7 1 8 69 9 70 10 84 11 71 12 83 13
REMARK SMILES IDX 72 14 82 15 73 16 81 17 80 18 85 19 86 20 87 21 88 22 74 23
REMARK SMILES IDX 75 24 76 25 77 26 78 27 79 28 9 29 10 30 11 31 12 32 13 33
REMARK SMILES IDX 14 34 15 35 16 36 68 37 17 38 67 39 18 40 19 41 20 42 61 43
REMARK SMILES IDX 21 44 66 45 60 46 62 47 22 48 65 49 59 50 58 51 23 53 49 54
REMARK SMILES IDX 32 55 48 56 33 57 36 58 47 59 63 60 34 61 35 62 46 64 64 65
REMARK SMILES IDX 37 66 24 67 25 68 30 69 26 70 27 71 29 72 31 73 28 74 50 75
REMARK SMILES IDX 51 76 56 77 52 78 53 79 55 80 57 81 54 82 38 83 39 84 44 85
REMARK SMILES IDX 40 86 41 87 43 88 45 89 42 90
REMARK H PARENT 62 52 36 63
REMARK Flexibility Score: inf
ROOT
ATOM      1  C   UNL     1       2.489   2.370   0.342  1.00  0.00     0.188 C 
ENDROOT
BRANCH   1   2
ATOM      2  C   UNL     1       2.996   1.054   0.911  1.00  0.00     0.188 C 
BRANCH   2   3
ATOM      3  O   UNL     1       4.416   1.054   0.911  1.00  0.00    -0.376 OA
BRANCH   3   4
ATOM      4  C   UNL     1       4.889   1.209  -0.419  1.00  0.00     0.202 C 
BRANCH   4   5
ATOM      5  C   UNL     1       4.383   0.059  -1.274  1.00  0.00     0.261 C 
BRANCH   5   6
ATOM      6  O   UNL     1       2.963   0.059  -1.274  1.00  0.00    -0.460 OA
BRANCH   6   7
ATOM      7  C   UNL     1       2.253  -0.083  -0.052  1.00  0.00     0.338 C 
ATOM      8  O   UNL     1       0.982  -0.083  -0.052  1.00  0.00    -0.246 OA
BRANCH   7   9
ATOM      9  C   UNL     1       3.013  -0.235   1.255  1.00  0.00     0.087 C 
ATOM     10  C   UNL     1       4.373  -0.235   1.255  1.00  0.00     0.027 C 
ATOM     11  C   UNL     1       2.253  -0.387   2.563  1.00  0.00     0.316 C 
ATOM     12  C   UNL     1       5.133  -0.083  -0.052  1.00  0.00     0.019 A 
ATOM     13  O   UNL     1       3.553   1.572  -0.695  1.00  0.00    -0.475 OA
ATOM     14  C   UNL     1       6.205  -0.919  -0.317  1.00  0.00     0.036 A 
ATOM     15  C   UNL     1       4.749   0.842  -0.924  1.00  0.00     0.128 A 
ATOM     16  C   UNL     1       6.997  -0.506  -1.415  1.00  0.00     0.107 A 
ATOM     17  C   UNL     1       5.499   1.100  -2.046  1.00  0.00     0.048 A 
ATOM     18  C   UNL     1       6.606   0.352  -2.340  1.00  0.00     0.028 A 
BRANCH  11  19
ATOM     19  C   UNL     1       2.620   0.754   3.498  1.00  0.00     0.430 C 
ATOM     20  F   UNL     1       2.299   1.913   2.930  1.00  0.00    -0.167 F 
ATOM     21  F   UNL     1       1.955   0.621   4.642  1.00  0.00    -0.167 F 
ATOM     22  F   UNL     1       3.928   0.726   3.739  1.00  0.00    -0.167 F 
ENDBRANCH  11  19
BRANCH  16  23
ATOM     23  S   UNL     1       8.661  -1.202  -1.562  1.00  0.00     0.310 S 
ATOM     24  F   UNL     1       8.866  -1.208   0.010  1.00  0.00    -0.094 F 
ATOM     25  F   UNL     1       9.244   0.262  -1.563  1.00  0.00    -0.094 F 
ATOM     26  F   UNL     1      10.090  -1.801  -1.689  1.00  0.00    -0.094 F 
ATOM     27  F   UNL     1       8.071  -2.660  -1.419  1.00  0.00    -0.094 F 
ATOM     28  F   UNL     1       7.216  -0.609  -1.320  1.00  0.00    -0.094 F 
ENDBRANCH  16  23
ENDBRANCH   7   9
ENDBRANCH   6   7
ENDBRANCH   5   6
ENDBRANCH   4   5
ENDBRANCH   3   4
ENDBRANCH   2   3
ENDBRANCH   1   2
BRANCH   1  29
ATOM     29  O   UNL     1       2.963   2.524  -0.988  1.00  0.00    -0.376 OA
BRANCH  29  30
ATOM     30  C   UNL     1       4.383   2.524  -0.988  1.00  0.00     0.202 C 
BRANCH  30  31
ATOM     31  C   UNL     1       4.889   3.674  -0.133  1.00  0.00     0.261 C 
BRANCH  31  32
ATOM     32  O   UNL     1       4.416   3.520   1.197  1.00  0.00    -0.460 OA
BRANCH  32  33
ATOM     33  C   UNL     1       3.020   3.490   1.455  1.00  0.00     0.338 C 
ATOM     34  O   UNL     1       2.194   3.602   0.495  1.00  0.00    -0.246 OA
BRANCH  33  35
ATOM     35  C   UNL     1       2.513   3.325   2.878  1.00  0.00     0.060 A 
ATOM     36  C   UNL     1       1.469   2.451   3.133  1.00  0.00     0.016 A 
ATOM     37  C   UNL     1       3.069   4.036   3.852  1.00  0.00     0.016 A 
ATOM     38  C   UNL     1       0.884   2.614   4.411  1.00  0.00     0.010 A 
ATOM     39  C   UNL     1       2.523   4.042   5.113  1.00  0.00     0.010 A 
ATOM     40  C   UNL     1       1.453   3.248   5.420  1.00  0.00    -0.014 A 
BRANCH  40  41
ATOM     41  C   UNL     1       0.946   3.102   6.845  1.00  0.00     0.031 A 
ATOM     42  C   UNL     1       0.510   4.253   7.505  1.00  0.00     0.074 A 
ATOM     43  C   UNL     1       0.929   1.836   7.404  1.00  0.00     0.049 A 
ATOM     44  N   UNL     1      -0.012   4.340   8.730  1.00  0.00    -0.248 NA
ATOM     45  C   UNL     1       0.559   5.603   6.926  1.00  0.00     0.031 C 
ATOM     46  C   UNL     1       1.359   0.669   6.742  1.00  0.00     0.029 A 
ATOM     47  N   UNL     1       0.509   1.474   8.665  1.00  0.00    -0.354 N 
ATOM     48  C   UNL     1      -0.327   5.607   9.008  1.00  0.00     0.074 A 
ATOM     49  C   UNL     1       0.042   6.438   7.854  1.00  0.00     0.031 C 
ATOM     50  C   UNL     1       1.211  -0.378   7.595  1.00  0.00     0.029 A 
ATOM     51  C   UNL     1       0.686   0.115   8.804  1.00  0.00     0.049 A 
ATOM     52  H   UNL     1       0.146   2.082   9.349  1.00  0.00     0.167 HD
ATOM     53  C   UNL     1      -0.908   6.100  10.177  1.00  0.00     0.037 A 
ATOM     54  C   UNL     1       0.413  -0.667   9.915  1.00  0.00     0.037 A 
ATOM     55  C   UNL     1      -1.221   5.311  11.272  1.00  0.00     0.049 A 
ATOM     56  C   UNL     1      -0.115  -0.164  11.107  1.00  0.00     0.074 A 
ATOM     57  C   UNL     1      -1.814   5.791  12.455  1.00  0.00     0.029 A 
ATOM     58  N   UNL     1      -1.022   3.956  11.420  1.00  0.00    -0.354 N 
ATOM     59  N   UNL     1      -0.466   1.096  11.370  1.00  0.00    -0.248 NA
ATOM     60  C   UNL     1      -0.378  -0.977  12.301  1.00  0.00     0.031 C 
ATOM     61  C   UNL     1      -1.962   4.743  13.308  1.00  0.00     0.029 A 
ATOM     62  C   UNL     1      -1.463   3.591  12.672  1.00  0.00     0.049 A 
ATOM     63  H   UNL     1      -0.631   3.353  10.746  1.00  0.00     0.167 HD
ATOM     64  C   UNL     1      -0.949   1.189  12.610  1.00  0.00     0.074 A 
ATOM     65  C   UNL     1      -0.893  -0.142  13.230  1.00  0.00     0.031 C 
ATOM     66  C   UNL     1      -1.439   2.330  13.248  1.00  0.00     0.037 A 
BRANCH  53  67
ATOM     67  C   UNL     1      -1.214   7.587  10.253  1.00  0.00     0.057 A 
ATOM     68  C   UNL     1      -2.093   8.165   9.352  1.00  0.00     0.134 A 
ATOM     69  C   UNL     1      -0.636   8.306  11.208  1.00  0.00     0.134 A 
ATOM     70  F   UNL     1      -2.881   7.454   8.550  1.00  0.00    -0.206 F 
ATOM     71  C   UNL     1      -2.077   9.580   9.362  1.00  0.00     0.040 A 
ATOM     72  C   UNL     1      -0.773   9.672  11.236  1.00  0.00     0.040 A 
ATOM     73  F   UNL     1       0.083   7.697  12.147  1.00  0.00    -0.206 F 
ATOM     74  C   UNL     1      -1.580  10.316  10.339  1.00  0.00     0.006 A 
ENDBRANCH  53  67
BRANCH  54  75
ATOM     75  C   UNL     1       0.704  -2.157   9.832  1.00  0.00     0.057 A 
ATOM     76  C   UNL     1      -0.315  -3.081   9.995  1.00  0.00     0.134 A 
ATOM     77  C   UNL     1       1.952  -2.541   9.595  1.00  0.00     0.134 A 
ATOM     78  F   UNL     1      -1.603  -2.752   9.980  1.00  0.00    -0.206 F 
ATOM     79  C   UNL     1       0.140  -4.409  10.177  1.00  0.00     0.040 A 
ATOM     80  C   UNL     1       2.299  -3.869   9.657  1.00  0.00     0.040 A 
ATOM     81  F   UNL     1       2.876  -1.633   9.296  1.00  0.00    -0.206 F 
ATOM     82  C   UNL     1       1.353  -4.833   9.872  1.00  0.00     0.006 A 
ENDBRANCH  54  75
BRANCH  66  83
ATOM     83  C   UNL     1      -1.979   2.181  14.661  1.00  0.00     0.057 A 
ATOM     84  C   UNL     1      -1.148   1.703  15.661  1.00  0.00     0.134 A 
ATOM     85  C   UNL     1      -3.244   2.497  14.911  1.00  0.00     0.134 A 
ATOM     86  F   UNL     1       0.172   1.614  15.526  1.00  0.00    -0.206 F 
ATOM     87  C   UNL     1      -1.830   1.317  16.839  1.00  0.00     0.040 A 
ATOM     88  C   UNL     1      -3.809   2.215  16.131  1.00  0.00     0.040 A 
ATOM     89  F   UNL     1      -3.972   3.093  13.970  1.00  0.00    -0.206 F 
ATOM     90  C   UNL     1      -3.061   1.687  17.146  1.00  0.00     0.006 A 
ENDBRANCH  66  83
ENDBRANCH  40  41
ENDBRANCH  33  35
ENDBRANCH  32  33
ENDBRANCH  31  32
ENDBRANCH  30  31
ENDBRANCH  29  30
ENDBRANCH   1  29
TORSDOF 19
