REMARK SMILES Cc1n[nH]c(C)c1S(=O)(=O)N[C@H](C(=O)OCCOCCOCCOC(=O)c1ccc(-c2c3nc(c(-c4c(F)cccc4F)c4ccc([nH]4)c(-c4c(F)cccc4F)c4nc(c(-c5c(F)cccc5F)c5ccc2[nH]5)C=C4)C=C3)cc1)C(C)C
REMARK SMILES IDX 19 1 18 2 17 3 16 4 15 5 13 6 14 7 12 8 11 9 8 11 9 12 10 13
REMARK SMILES IDX 7 14 1 15 2 16 3 17 4 18 5 19 6 21 81 22 82 23 83 24 20 25
REMARK SMILES IDX 21 26 22 27 23 28 24 29 25 30 26 31 27 32 28 33 80 34 29 35
REMARK SMILES IDX 79 36 30 37 31 38 32 39 73 40 33 41 78 42 72 43 74 44 34 45
REMARK SMILES IDX 77 46 71 47 70 48 35 50 61 51 44 52 60 53 45 54 48 55 59 56
REMARK SMILES IDX 75 57 46 58 47 59 58 61 76 62 49 63 36 64 37 65 42 66 38 67
REMARK SMILES IDX 39 68 41 69 43 70 40 71 62 72 63 73 68 74 64 75 65 76 67 77
REMARK SMILES IDX 69 78 66 79 50 80 51 81 56 82 52 83 53 84 55 85 57 86 54 87
REMARK H PARENT 11 10 4 20 74 49 48 60
REMARK Flexibility Score: inf
ROOT
ATOM      1  C   UNL     1       0.562  -5.344  -0.433  1.00  0.00     0.188 C 
ENDROOT
BRANCH   1   2
ATOM      2  O   UNL     1      -0.044  -5.154  -1.704  1.00  0.00    -0.376 OA
BRANCH   2   3
ATOM      3  C   UNL     1       0.661  -4.342  -2.647  1.00  0.00     0.202 C 
BRANCH   3   4
ATOM      4  C   UNL     1       1.090  -2.940  -2.182  1.00  0.00     0.261 C 
BRANCH   4   5
ATOM      5  O   UNL     1       2.122  -2.918  -1.161  1.00  0.00    -0.462 OA
BRANCH   5   6
ATOM      6  C   UNL     1       1.779  -2.345   0.016  1.00  0.00     0.324 C 
ATOM      7  O   UNL     1       0.644  -1.926   0.245  1.00  0.00    -0.250 OA
BRANCH   6   8
ATOM      8  C   UNL     1       2.843  -2.363   1.151  1.00  0.00     0.182 C 
BRANCH   8   9
ATOM      9  N   UNL     1       2.112  -3.073   2.260  1.00  0.00    -0.196 NA
ATOM     10  H   UNL     1       1.149  -3.179   1.942  1.00  0.00     0.142 HD
BRANCH   9  11
ATOM     11  S   UNL     1       2.025  -2.455   3.823  1.00  0.00     0.245 S 
ATOM     12  O   UNL     1       3.104  -3.033   4.577  1.00  0.00    -0.207 OA
ATOM     13  O   UNL     1       0.642  -2.653   4.220  1.00  0.00    -0.207 OA
BRANCH  11  14
ATOM     14  C   UNL     1       2.245  -0.753   3.922  1.00  0.00     0.125 A 
ATOM     15  C   UNL     1       3.799  -0.618   6.040  1.00  0.00     0.070 C 
ATOM     16  C   UNL     1       3.037  -0.075   4.885  1.00  0.00     0.079 A 
ATOM     17  N   UNL     1       3.028   1.249   4.676  1.00  0.00    -0.179 NA
ATOM     18  N   UNL     1       2.176   1.418   3.659  1.00  0.00    -0.281 N 
ATOM     19  C   UNL     1       1.636   0.253   3.189  1.00  0.00     0.052 A 
ATOM     20  H   UNL     1       1.957   2.301   3.283  1.00  0.00     0.190 HD
ATOM     21  C   UNL     1       0.601   0.273   2.135  1.00  0.00     0.067 C 
ENDBRANCH  11  14
ENDBRANCH   9  11
ENDBRANCH   8   9
BRANCH   8  22
ATOM     22  C   UNL     1       4.224  -3.004   0.893  1.00  0.00     0.012 C 
ATOM     23  C   UNL     1       4.940  -2.394  -0.319  1.00  0.00     0.009 C 
ATOM     24  C   UNL     1       5.146  -2.809   2.111  1.00  0.00     0.009 C 
ENDBRANCH   8  22
ENDBRANCH   6   8
ENDBRANCH   5   6
ENDBRANCH   4   5
ENDBRANCH   3   4
ENDBRANCH   2   3
ENDBRANCH   1   2
BRANCH   1  25
ATOM     25  C   UNL     1       1.931  -6.029  -0.431  1.00  0.00     0.188 C 
BRANCH  25  26
ATOM     26  O   UNL     1       2.748  -5.702  -1.541  1.00  0.00    -0.376 OA
BRANCH  26  27
ATOM     27  C   UNL     1       3.851  -6.558  -1.836  1.00  0.00     0.202 C 
BRANCH  27  28
ATOM     28  C   UNL     1       3.534  -8.057  -2.032  1.00  0.00     0.261 C 
BRANCH  28  29
ATOM     29  O   UNL     1       2.998  -8.746  -0.882  1.00  0.00    -0.460 OA
BRANCH  29  30
ATOM     30  C   UNL     1       3.645  -8.600   0.299  1.00  0.00     0.338 C 
ATOM     31  O   UNL     1       4.778  -8.183   0.456  1.00  0.00    -0.246 OA
BRANCH  30  32
ATOM     32  C   UNL     1       2.652  -8.765   1.398  1.00  0.00     0.060 A 
ATOM     33  C   UNL     1       2.714  -7.878   2.483  1.00  0.00     0.016 A 
ATOM     34  C   UNL     1       1.624  -9.711   1.335  1.00  0.00     0.016 A 
ATOM     35  C   UNL     1       1.782  -7.964   3.523  1.00  0.00     0.010 A 
ATOM     36  C   UNL     1       0.699  -9.805   2.384  1.00  0.00     0.010 A 
ATOM     37  C   UNL     1       0.794  -8.957   3.502  1.00  0.00    -0.014 A 
BRANCH  37  38
ATOM     38  C   UNL     1       0.010  -9.259   4.730  1.00  0.00     0.031 A 
ATOM     39  C   UNL     1       0.485 -10.389   5.608  1.00  0.00     0.074 A 
ATOM     40  C   UNL     1      -1.088  -8.563   5.079  1.00  0.00     0.049 A 
ATOM     41  N   UNL     1      -0.058 -10.894   6.686  1.00  0.00    -0.248 NA
ATOM     42  C   UNL     1       1.744 -11.042   5.208  1.00  0.00     0.031 C 
ATOM     43  C   UNL     1      -1.639  -7.420   4.356  1.00  0.00     0.029 A 
ATOM     44  N   UNL     1      -1.948  -8.735   6.140  1.00  0.00    -0.354 N 
ATOM     45  C   UNL     1       0.782 -11.928   7.082  1.00  0.00     0.074 A 
ATOM     46  C   UNL     1       1.859 -11.994   6.120  1.00  0.00     0.031 C 
ATOM     47  C   UNL     1      -2.753  -7.001   4.986  1.00  0.00     0.029 A 
ATOM     48  C   UNL     1      -3.014  -7.866   6.137  1.00  0.00     0.049 A 
ATOM     49  H   UNL     1      -1.812  -9.417   6.837  1.00  0.00     0.167 HD
ATOM     50  C   UNL     1       0.672 -12.746   8.154  1.00  0.00     0.037 A 
ATOM     51  C   UNL     1      -4.085  -7.796   6.954  1.00  0.00     0.037 A 
ATOM     52  C   UNL     1      -0.383 -12.675   9.128  1.00  0.00     0.049 A 
ATOM     53  C   UNL     1      -4.218  -8.770   8.101  1.00  0.00     0.074 A 
ATOM     54  C   UNL     1      -0.548 -13.440  10.271  1.00  0.00     0.029 A 
ATOM     55  N   UNL     1      -1.452 -11.798   9.074  1.00  0.00    -0.354 N 
ATOM     56  N   UNL     1      -3.396  -9.713   8.491  1.00  0.00    -0.248 NA
ATOM     57  C   UNL     1      -5.434  -8.666   8.925  1.00  0.00     0.031 C 
ATOM     58  C   UNL     1      -1.750 -13.065  10.877  1.00  0.00     0.029 A 
ATOM     59  C   UNL     1      -2.301 -12.026  10.144  1.00  0.00     0.049 A 
ATOM     60  H   UNL     1      -1.589 -11.114   8.379  1.00  0.00     0.167 HD
ATOM     61  C   UNL     1      -3.972 -10.281   9.623  1.00  0.00     0.074 A 
ATOM     62  C   UNL     1      -5.209  -9.573   9.865  1.00  0.00     0.031 C 
ATOM     63  C   UNL     1      -3.517 -11.299  10.394  1.00  0.00     0.037 A 
BRANCH  50  64
ATOM     64  C   UNL     1       1.707 -13.817   8.324  1.00  0.00     0.057 A 
ATOM     65  C   UNL     1       3.010 -13.530   8.749  1.00  0.00     0.134 A 
ATOM     66  C   UNL     1       1.369 -15.162   8.128  1.00  0.00     0.134 A 
ATOM     67  F   UNL     1       3.400 -12.261   8.938  1.00  0.00    -0.206 F 
ATOM     68  C   UNL     1       3.943 -14.545   8.967  1.00  0.00     0.040 A 
ATOM     69  C   UNL     1       2.285 -16.186   8.367  1.00  0.00     0.040 A 
ATOM     70  F   UNL     1       0.136 -15.503   7.723  1.00  0.00    -0.206 F 
ATOM     71  C   UNL     1       3.577 -15.878   8.787  1.00  0.00     0.006 A 
ENDBRANCH  50  64
BRANCH  51  72
ATOM     72  C   UNL     1      -5.159  -6.792   6.717  1.00  0.00     0.057 A 
ATOM     73  C   UNL     1      -5.424  -5.775   7.644  1.00  0.00     0.134 A 
ATOM     74  C   UNL     1      -6.006  -6.882   5.605  1.00  0.00     0.134 A 
ATOM     75  F   UNL     1      -4.674  -5.657   8.749  1.00  0.00    -0.206 F 
ATOM     76  C   UNL     1      -6.511  -4.910   7.493  1.00  0.00     0.040 A 
ATOM     77  C   UNL     1      -7.077  -6.004   5.426  1.00  0.00     0.040 A 
ATOM     78  F   UNL     1      -5.815  -7.837   4.684  1.00  0.00    -0.206 F 
ATOM     79  C   UNL     1      -7.340  -5.023   6.379  1.00  0.00     0.006 A 
ENDBRANCH  51  72
BRANCH  63  80
ATOM     80  C   UNL     1      -4.322 -11.675  11.605  1.00  0.00     0.057 A 
ATOM     81  C   UNL     1      -5.556 -12.330  11.507  1.00  0.00     0.134 A 
ATOM     82  C   UNL     1      -3.826 -11.423  12.893  1.00  0.00     0.134 A 
ATOM     83  F   UNL     1      -6.092 -12.594  10.306  1.00  0.00    -0.206 F 
ATOM     84  C   UNL     1      -6.279 -12.698  12.643  1.00  0.00     0.040 A 
ATOM     85  C   UNL     1      -4.526 -11.813  14.035  1.00  0.00     0.040 A 
ATOM     86  F   UNL     1      -2.644 -10.812  13.060  1.00  0.00    -0.206 F 
ATOM     87  C   UNL     1      -5.760 -12.447  13.912  1.00  0.00     0.006 A 
ENDBRANCH  63  80
ENDBRANCH  37  38
ENDBRANCH  30  32
ENDBRANCH  29  30
ENDBRANCH  28  29
ENDBRANCH  27  28
ENDBRANCH  26  27
ENDBRANCH  25  26
ENDBRANCH   1  25
TORSDOF 21
