REMARK SMILES COc1ccc(S(=O)(=O)N[C@H]2C=C[C@@H](C(=O)OCCOCCOCCOC(=O)c3ccc(-c4c5nc(c(-c6c(F)cccc6F)c6ccc([nH]6)c(-c6c(F)cccc6F)c6nc(c(-c7c(F)cccc7F)c7ccc4[nH]7)C=C6)C=C5)cc3)C2)cc1
REMARK SMILES IDX 21 1 20 2 19 3 18 4 17 5 15 6 16 7 14 8 11 9 12 10 83 11
REMARK SMILES IDX 13 12 10 13 7 15 8 16 9 17 6 18 3 19 4 20 85 21 5 22 84 23
REMARK SMILES IDX 2 24 1 25 22 26 23 27 24 28 25 29 26 30 27 31 28 32 29 33
REMARK SMILES IDX 30 34 82 35 31 36 81 37 32 38 33 39 34 40 75 41 35 42 80 43
REMARK SMILES IDX 74 44 76 45 36 46 79 47 73 48 72 49 37 51 63 52 46 53 62 54
REMARK SMILES IDX 47 55 50 56 61 57 77 58 48 59 49 60 60 62 78 63 51 64 38 65
REMARK SMILES IDX 39 66 44 67 40 68 41 69 43 70 45 71 42 72 64 73 65 74 70 75
REMARK SMILES IDX 66 76 67 77 69 78 71 79 68 80 52 81 53 82 58 83 54 84 55 85
REMARK SMILES IDX 57 86 59 87 56 88
REMARK H PARENT 10 14 76 50 50 61
REMARK Flexibility Score: inf
ROOT
ATOM      1  C   UNL     1       3.431  -7.868  -6.070  1.00  0.00     0.188 C 
ENDROOT
BRANCH   1   2
ATOM      2  O   UNL     1       2.251  -8.532  -5.630  1.00  0.00    -0.376 OA
BRANCH   2   3
ATOM      3  C   UNL     1       1.092  -7.742  -5.355  1.00  0.00     0.202 C 
BRANCH   3   4
ATOM      4  C   UNL     1       1.265  -6.570  -4.380  1.00  0.00     0.261 C 
BRANCH   4   5
ATOM      5  O   UNL     1       2.262  -5.628  -4.817  1.00  0.00    -0.463 OA
BRANCH   5   6
ATOM      6  C   UNL     1       2.893  -4.933  -3.833  1.00  0.00     0.312 C 
ATOM      7  O   UNL     1       2.566  -4.971  -2.652  1.00  0.00    -0.252 OA
BRANCH   6   8
ATOM      8  C   UNL     1       4.191  -4.283  -4.333  1.00  0.00     0.123 C 
ATOM      9  C   UNL     1       4.542  -2.208  -5.640  1.00  0.00     0.093 C 
ATOM     10  C   UNL     1       4.757  -1.996  -4.186  1.00  0.00    -0.011 C 
ATOM     11  C   UNL     1       4.207  -3.689  -5.752  1.00  0.00     0.043 C 
ATOM     12  C   UNL     1       4.572  -3.113  -3.477  1.00  0.00    -0.015 C 
BRANCH   9  13
ATOM     13  N   UNL     1       3.587  -1.260  -6.184  1.00  0.00    -0.204 NA
ATOM     14  H   UNL     1       3.792  -0.390  -5.692  1.00  0.00     0.142 HD
BRANCH  13  15
ATOM     15  S   UNL     1       1.922  -1.323  -6.223  1.00  0.00     0.241 S 
ATOM     16  O   UNL     1       1.504  -2.632  -6.692  1.00  0.00    -0.207 OA
ATOM     17  O   UNL     1       1.511  -0.127  -6.909  1.00  0.00    -0.207 OA
BRANCH  15  18
ATOM     18  C   UNL     1       1.409  -1.149  -4.540  1.00  0.00     0.082 A 
ATOM     19  C   UNL     1       0.666  -0.936  -1.860  1.00  0.00     0.118 A 
ATOM     20  C   UNL     1      -0.041  -1.778  -2.725  1.00  0.00     0.048 A 
ATOM     21  C   UNL     1       1.742  -0.192  -2.349  1.00  0.00     0.048 A 
ATOM     22  C   UNL     1       0.331  -1.896  -4.065  1.00  0.00     0.025 A 
ATOM     23  C   UNL     1       2.097  -0.277  -3.696  1.00  0.00     0.025 A 
BRANCH  19  24
ATOM     24  O   UNL     1       0.214  -0.926  -0.569  1.00  0.00    -0.497 OA
ATOM     25  C   UNL     1       0.826   0.008   0.311  1.00  0.00     0.278 C 
ENDBRANCH  19  24
ENDBRANCH  15  18
ENDBRANCH  13  15
ENDBRANCH   9  13
ENDBRANCH   6   8
ENDBRANCH   5   6
ENDBRANCH   4   5
ENDBRANCH   3   4
ENDBRANCH   2   3
ENDBRANCH   1   2
BRANCH   1  26
ATOM     26  C   UNL     1       3.315  -6.819  -7.185  1.00  0.00     0.188 C 
BRANCH  26  27
ATOM     27  O   UNL     1       2.021  -6.702  -7.734  1.00  0.00    -0.376 OA
BRANCH  27  28
ATOM     28  C   UNL     1       1.936  -6.557  -9.142  1.00  0.00     0.202 C 
BRANCH  28  29
ATOM     29  C   UNL     1       2.172  -7.886  -9.873  1.00  0.00     0.261 C 
BRANCH  29  30
ATOM     30  O   UNL     1       3.474  -8.467  -9.658  1.00  0.00    -0.460 OA
BRANCH  30  31
ATOM     31  C   UNL     1       4.535  -7.775 -10.135  1.00  0.00     0.338 C 
ATOM     32  O   UNL     1       4.508  -6.765 -10.816  1.00  0.00    -0.246 OA
BRANCH  31  33
ATOM     33  C   UNL     1       5.753  -8.298  -9.468  1.00  0.00     0.060 A 
ATOM     34  C   UNL     1       6.602  -7.393  -8.812  1.00  0.00     0.016 A 
ATOM     35  C   UNL     1       6.034  -9.665  -9.449  1.00  0.00     0.016 A 
ATOM     36  C   UNL     1       7.749  -7.852  -8.161  1.00  0.00     0.010 A 
ATOM     37  C   UNL     1       7.195 -10.120  -8.818  1.00  0.00     0.010 A 
ATOM     38  C   UNL     1       8.073  -9.214  -8.196  1.00  0.00    -0.014 A 
BRANCH  38  39
ATOM     39  C   UNL     1       9.420  -9.673  -7.774  1.00  0.00     0.031 A 
ATOM     40  C   UNL     1      10.477  -9.826  -8.834  1.00  0.00     0.074 A 
ATOM     41  C   UNL     1       9.708  -9.956  -6.492  1.00  0.00     0.049 A 
ATOM     42  N   UNL     1      11.696 -10.290  -8.735  1.00  0.00    -0.248 NA
ATOM     43  C   UNL     1      10.103  -9.398 -10.192  1.00  0.00     0.031 C 
ATOM     44  C   UNL     1       8.793  -9.812  -5.363  1.00  0.00     0.029 A 
ATOM     45  N   UNL     1      10.864 -10.443  -5.930  1.00  0.00    -0.354 N 
ATOM     46  C   UNL     1      12.229 -10.219 -10.015  1.00  0.00     0.074 A 
ATOM     47  C   UNL     1      11.197  -9.690 -10.879  1.00  0.00     0.031 C 
ATOM     48  C   UNL     1       9.416 -10.222  -4.243  1.00  0.00     0.029 A 
ATOM     49  C   UNL     1      10.761 -10.687  -4.582  1.00  0.00     0.049 A 
ATOM     50  H   UNL     1      11.688 -10.602  -6.445  1.00  0.00     0.167 HD
ATOM     51  C   UNL     1      13.470 -10.559 -10.436  1.00  0.00     0.037 A 
ATOM     52  C   UNL     1      11.642 -11.249  -3.730  1.00  0.00     0.037 A 
ATOM     53  C   UNL     1      14.497 -11.093  -9.584  1.00  0.00     0.049 A 
ATOM     54  C   UNL     1      12.990 -11.696  -4.238  1.00  0.00     0.074 A 
ATOM     55  C   UNL     1      15.790 -11.457  -9.917  1.00  0.00     0.029 A 
ATOM     56  N   UNL     1      14.345 -11.349  -8.230  1.00  0.00    -0.354 N 
ATOM     57  N   UNL     1      13.494 -11.603  -5.445  1.00  0.00    -0.248 NA
ATOM     58  C   UNL     1      13.891 -12.329  -3.262  1.00  0.00     0.031 C 
ATOM     59  C   UNL     1      16.405 -11.977  -8.774  1.00  0.00     0.029 A 
ATOM     60  C   UNL     1      15.513 -11.889  -7.718  1.00  0.00     0.049 A 
ATOM     61  H   UNL     1      13.527 -11.174  -7.710  1.00  0.00     0.167 HD
ATOM     62  C   UNL     1      14.777 -12.135  -5.366  1.00  0.00     0.074 A 
ATOM     63  C   UNL     1      14.978 -12.539  -3.991  1.00  0.00     0.031 C 
ATOM     64  C   UNL     1      15.705 -12.275  -6.344  1.00  0.00     0.037 A 
BRANCH  51  65
ATOM     65  C   UNL     1      13.771 -10.389 -11.895  1.00  0.00     0.057 A 
ATOM     66  C   UNL     1      13.944  -9.124 -12.471  1.00  0.00     0.134 A 
ATOM     67  C   UNL     1      13.914 -11.506 -12.727  1.00  0.00     0.134 A 
ATOM     68  F   UNL     1      13.801  -8.014 -11.731  1.00  0.00    -0.206 F 
ATOM     69  C   UNL     1      14.230  -8.976 -13.829  1.00  0.00     0.040 A 
ATOM     70  C   UNL     1      14.225 -11.371 -14.081  1.00  0.00     0.040 A 
ATOM     71  F   UNL     1      13.761 -12.745 -12.237  1.00  0.00    -0.206 F 
ATOM     72  C   UNL     1      14.379 -10.102 -14.636  1.00  0.00     0.006 A 
ENDBRANCH  51  65
BRANCH  52  73
ATOM     73  C   UNL     1      11.280 -11.449  -2.302  1.00  0.00     0.057 A 
ATOM     74  C   UNL     1      11.919 -10.732  -1.284  1.00  0.00     0.134 A 
ATOM     75  C   UNL     1      10.322 -12.395  -1.919  1.00  0.00     0.134 A 
ATOM     76  F   UNL     1      12.868  -9.833  -1.585  1.00  0.00    -0.206 F 
ATOM     77  C   UNL     1      11.632 -10.960   0.063  1.00  0.00     0.040 A 
ATOM     78  C   UNL     1      10.006 -12.615  -0.578  1.00  0.00     0.040 A 
ATOM     79  F   UNL     1       9.678 -13.120  -2.846  1.00  0.00    -0.206 F 
ATOM     80  C   UNL     1      10.669 -11.902   0.419  1.00  0.00     0.006 A 
ENDBRANCH  52  73
BRANCH  64  81
ATOM     81  C   UNL     1      17.039 -12.846  -5.959  1.00  0.00     0.057 A 
ATOM     82  C   UNL     1      17.206 -14.203  -5.656  1.00  0.00     0.134 A 
ATOM     83  C   UNL     1      18.182 -12.035  -5.941  1.00  0.00     0.134 A 
ATOM     84  F   UNL     1      16.152 -15.032  -5.645  1.00  0.00    -0.206 F 
ATOM     85  C   UNL     1      18.458 -14.728  -5.327  1.00  0.00     0.040 A 
ATOM     86  C   UNL     1      19.442 -12.553  -5.640  1.00  0.00     0.040 A 
ATOM     87  F   UNL     1      18.094 -10.728  -6.233  1.00  0.00    -0.206 F 
ATOM     88  C   UNL     1      19.581 -13.903  -5.326  1.00  0.00     0.006 A 
ENDBRANCH  64  81
ENDBRANCH  38  39
ENDBRANCH  31  33
ENDBRANCH  30  31
ENDBRANCH  29  30
ENDBRANCH  28  29
ENDBRANCH  27  28
ENDBRANCH  26  27
ENDBRANCH   1  26
TORSDOF 21
