REMARK SMILES Cc1ccccc1OCC(=O)N1C[C@@H](O)C[C@H]1C(=O)OCCOCCOCCOC(=O)c1ccc(-c2c3nc(c(-c4c(F)cccc4F)c4ccc([nH]4)c(-c4c(F)cccc4F)c4nc(c(-c5c(F)cccc5F)c5ccc2[nH]5)C=C4)C=C3)cc1
REMARK SMILES IDX 24 1 23 2 22 3 21 4 20 5 18 6 19 7 17 8 12 9 13 10 14 11
REMARK SMILES IDX 16 12 10 13 11 14 9 15 8 16 7 17 1 18 2 19 3 20 4 21 6 22
REMARK SMILES IDX 5 23 15 24 25 26 26 27 27 28 28 29 29 30 30 31 31 32 32 33
REMARK SMILES IDX 33 34 85 35 34 36 84 37 35 38 36 39 37 40 78 41 38 42 83 43
REMARK SMILES IDX 77 44 79 45 39 46 82 47 76 48 75 49 40 51 66 52 49 53 65 54
REMARK SMILES IDX 50 55 53 56 64 57 80 58 51 59 52 60 63 62 81 63 54 64 41 65
REMARK SMILES IDX 42 66 47 67 43 68 44 69 46 70 48 71 45 72 67 73 68 74 73 75
REMARK SMILES IDX 69 76 70 77 72 78 74 79 71 80 55 81 56 82 61 83 57 84 58 85
REMARK SMILES IDX 60 86 62 87 59 88
REMARK H PARENT 15 25 79 50 53 61
REMARK Flexibility Score: inf
ROOT
ATOM      1  C   UNL     1       5.641  -2.735   2.983  1.00  0.00     0.188 C 
ENDROOT
BRANCH   1   2
ATOM      2  O   UNL     1       4.701  -2.741   4.061  1.00  0.00    -0.376 OA
BRANCH   2   3
ATOM      3  C   UNL     1       3.271  -2.751   3.971  1.00  0.00     0.202 C 
BRANCH   3   4
ATOM      4  C   UNL     1       2.060  -1.532   4.105  1.00  0.00     0.261 C 
BRANCH   4   5
ATOM      5  O   UNL     1       1.909   0.183   3.651  1.00  0.00    -0.462 OA
BRANCH   5   6
ATOM      6  C   UNL     1       2.362   1.520   3.986  1.00  0.00     0.329 C 
ATOM      7  O   UNL     1       3.221   1.853   4.820  1.00  0.00    -0.250 OA
BRANCH   6   8
ATOM      8  C   UNL     1       1.927   2.794   3.305  1.00  0.00     0.198 C 
ATOM      9  N   UNL     1       0.781   2.880   2.485  1.00  0.00    -0.323 N 
ATOM     10  C   UNL     1      -0.306   3.567   3.134  1.00  0.00     0.152 C 
ATOM     11  C   UNL     1       0.360   4.503   4.142  1.00  0.00     0.136 C 
ATOM     12  C   UNL     1       1.714   3.870   4.421  1.00  0.00     0.070 C 
BRANCH   9  13
ATOM     13  C   UNL     1       0.710   2.021   1.436  1.00  0.00     0.261 C 
ATOM     14  O   UNL     1       0.488   0.830   1.630  1.00  0.00    -0.271 OA
BRANCH  13  15
ATOM     15  C   UNL     1       1.137   2.639   0.082  1.00  0.00     0.329 C 
BRANCH  15  16
ATOM     16  O   UNL     1       0.422   2.374  -1.124  1.00  0.00    -0.484 OA
BRANCH  16  17
ATOM     17  C   UNL     1      -0.307   1.220  -1.003  1.00  0.00     0.122 A 
ATOM     18  C   UNL     1       1.562  -0.141  -2.038  1.00  0.00     0.048 C 
ATOM     19  C   UNL     1       0.269  -0.021  -1.296  1.00  0.00    -0.009 A 
ATOM     20  C   UNL     1      -0.414  -1.178  -0.896  1.00  0.00     0.007 A 
ATOM     21  C   UNL     1      -1.652  -1.088  -0.257  1.00  0.00     0.001 A 
ATOM     22  C   UNL     1      -1.582   1.315  -0.438  1.00  0.00     0.047 A 
ATOM     23  C   UNL     1      -2.248   0.155  -0.052  1.00  0.00     0.004 A 
ENDBRANCH  16  17
ENDBRANCH  15  16
ENDBRANCH  13  15
ENDBRANCH   9  13
BRANCH  11  24
ATOM     24  O   UNL     1      -0.405   4.642   5.332  1.00  0.00    -0.391 OA
ATOM     25  H   UNL     1      -0.527   3.771   5.741  1.00  0.00     0.211 HD
ENDBRANCH  11  24
ENDBRANCH   6   8
ENDBRANCH   5   6
ENDBRANCH   4   5
ENDBRANCH   3   4
ENDBRANCH   2   3
ENDBRANCH   1   2
BRANCH   1  26
ATOM     26  C   UNL     1       5.288  -3.229   1.601  1.00  0.00     0.188 C 
BRANCH  26  27
ATOM     27  O   UNL     1       3.944  -2.915   1.329  1.00  0.00    -0.376 OA
BRANCH  27  28
ATOM     28  C   UNL     1       3.473  -3.230   0.040  1.00  0.00     0.202 C 
BRANCH  28  29
ATOM     29  C   UNL     1       4.310  -2.608  -1.098  1.00  0.00     0.261 C 
BRANCH  29  30
ATOM     30  O   UNL     1       4.299  -1.150  -1.040  1.00  0.00    -0.460 OA
BRANCH  30  31
ATOM     31  C   UNL     1       5.391  -0.426  -0.605  1.00  0.00     0.338 C 
ATOM     32  O   UNL     1       6.512  -0.540  -1.029  1.00  0.00    -0.246 OA
BRANCH  31  33
ATOM     33  C   UNL     1       5.005   0.361   0.634  1.00  0.00     0.060 A 
ATOM     34  C   UNL     1       5.867   0.961   1.569  1.00  0.00     0.016 A 
ATOM     35  C   UNL     1       3.785   0.057   1.105  1.00  0.00     0.016 A 
ATOM     36  C   UNL     1       5.572   0.948   3.003  1.00  0.00     0.010 A 
ATOM     37  C   UNL     1       3.784  -0.307   2.434  1.00  0.00     0.010 A 
ATOM     38  C   UNL     1       4.546   0.160   3.530  1.00  0.00    -0.014 A 
BRANCH  38  39
ATOM     39  C   UNL     1       4.240  -0.225   5.174  1.00  0.00     0.031 A 
ATOM     40  C   UNL     1       2.850   0.078   6.237  1.00  0.00     0.074 A 
ATOM     41  C   UNL     1       5.294  -0.804   5.779  1.00  0.00     0.049 A 
ATOM     42  N   UNL     1       2.941   0.450   7.497  1.00  0.00    -0.248 NA
ATOM     43  C   UNL     1       1.322   0.249   5.937  1.00  0.00     0.031 C 
ATOM     44  C   UNL     1       5.344  -1.530   7.038  1.00  0.00     0.029 A 
ATOM     45  N   UNL     1       6.609  -0.874   5.303  1.00  0.00    -0.354 N 
ATOM     46  C   UNL     1       1.615   0.587   7.978  1.00  0.00     0.074 A 
ATOM     47  C   UNL     1       0.821   0.988   6.907  1.00  0.00     0.031 C 
ATOM     48  C   UNL     1       6.637  -1.701   7.378  1.00  0.00     0.029 A 
ATOM     49  C   UNL     1       7.433  -0.939   6.425  1.00  0.00     0.049 A 
ATOM     50  H   UNL     1       6.894  -0.877   4.360  1.00  0.00     0.167 HD
ATOM     51  C   UNL     1       1.160  -0.073   9.083  1.00  0.00     0.037 A 
ATOM     52  C   UNL     1       8.242   0.123   6.693  1.00  0.00     0.037 A 
ATOM     53  C   UNL     1       2.329  -0.445   9.831  1.00  0.00     0.049 A 
ATOM     54  C   UNL     1       7.817   0.742   8.003  1.00  0.00     0.074 A 
ATOM     55  C   UNL     1       3.027  -1.623   9.973  1.00  0.00     0.029 A 
ATOM     56  N   UNL     1       3.192   0.588  10.149  1.00  0.00    -0.354 N 
ATOM     57  N   UNL     1       6.605   0.665   8.495  1.00  0.00    -0.248 NA
ATOM     58  C   UNL     1       8.757   1.360   8.928  1.00  0.00     0.031 C 
ATOM     59  C   UNL     1       4.382  -1.260  10.253  1.00  0.00     0.029 A 
ATOM     60  C   UNL     1       4.474   0.124  10.314  1.00  0.00     0.049 A 
ATOM     61  H   UNL     1       2.923   1.530  10.245  1.00  0.00     0.167 HD
ATOM     62  C   UNL     1       6.604   1.127   9.780  1.00  0.00     0.074 A 
ATOM     63  C   UNL     1       7.971   1.567   9.997  1.00  0.00     0.031 C 
ATOM     64  C   UNL     1       5.514   1.099  10.603  1.00  0.00     0.037 A 
BRANCH  51  65
ATOM     65  C   UNL     1      -0.281  -0.553   9.370  1.00  0.00     0.057 A 
ATOM     66  C   UNL     1      -0.543  -1.186  10.601  1.00  0.00     0.134 A 
ATOM     67  C   UNL     1      -1.420  -0.539   8.514  1.00  0.00     0.134 A 
ATOM     68  F   UNL     1       0.417  -1.310  11.528  1.00  0.00    -0.206 F 
ATOM     69  C   UNL     1      -1.791  -1.742  10.948  1.00  0.00     0.040 A 
ATOM     70  C   UNL     1      -2.686  -1.050   8.869  1.00  0.00     0.040 A 
ATOM     71  F   UNL     1      -1.397  -0.093   7.255  1.00  0.00    -0.206 F 
ATOM     72  C   UNL     1      -2.875  -1.666  10.088  1.00  0.00     0.006 A 
ENDBRANCH  51  65
BRANCH  52  73
ATOM     73  C   UNL     1       8.782   0.783   5.452  1.00  0.00     0.057 A 
ATOM     74  C   UNL     1       9.417  -0.042   4.488  1.00  0.00     0.134 A 
ATOM     75  C   UNL     1       8.428   2.061   5.013  1.00  0.00     0.134 A 
ATOM     76  F   UNL     1       9.813  -1.283   4.822  1.00  0.00    -0.206 F 
ATOM     77  C   UNL     1       9.554   0.320   3.143  1.00  0.00     0.040 A 
ATOM     78  C   UNL     1       8.602   2.455   3.668  1.00  0.00     0.040 A 
ATOM     79  F   UNL     1       7.797   2.915   5.830  1.00  0.00    -0.206 F 
ATOM     80  C   UNL     1       9.127   1.571   2.723  1.00  0.00     0.006 A 
ENDBRANCH  52  73
BRANCH  64  81
ATOM     81  C   UNL     1       5.309   2.035  11.778  1.00  0.00     0.057 A 
ATOM     82  C   UNL     1       5.989   3.252  11.927  1.00  0.00     0.134 A 
ATOM     83  C   UNL     1       4.250   1.833  12.698  1.00  0.00     0.134 A 
ATOM     84  F   UNL     1       6.913   3.663  11.051  1.00  0.00    -0.206 F 
ATOM     85  C   UNL     1       5.703   4.150  12.960  1.00  0.00     0.040 A 
ATOM     86  C   UNL     1       3.890   2.772  13.665  1.00  0.00     0.040 A 
ATOM     87  F   UNL     1       3.482   0.734  12.680  1.00  0.00    -0.206 F 
ATOM     88  C   UNL     1       4.640   3.923  13.822  1.00  0.00     0.006 A 
ENDBRANCH  64  81
ENDBRANCH  38  39
ENDBRANCH  31  33
ENDBRANCH  30  31
ENDBRANCH  29  30
ENDBRANCH  28  29
ENDBRANCH  27  28
ENDBRANCH  26  27
ENDBRANCH   1  26
TORSDOF 22
