REMARK SMILES CC(C)(C)OC(=O)N1CC[C@@H]2CO[C@@H](CC(=O)OCCOCCOCCOC(=O)c3ccc(-c4c5nc(c(-c6c(F)cccc6F)c6ccc([nH]6)c(-c6c(F)cccc6F)c6nc(c(-c7c(F)cccc7F)c7ccc4[nH]7)C=C6)C=C5)cc3)[C@@H]2C1
REMARK SMILES IDX 22 1 21 2 20 3 19 4 18 5 16 6 17 7 15 8 14 9 8 10 9 11 85 12
REMARK SMILES IDX 10 13 84 14 11 15 12 16 13 17 6 18 7 19 5 20 2 21 1 22 3 23
REMARK SMILES IDX 4 24 23 25 24 26 25 27 26 28 27 29 28 30 29 31 30 32 31 33
REMARK SMILES IDX 83 34 32 35 82 36 33 37 34 38 35 39 76 40 36 41 81 42 75 43
REMARK SMILES IDX 77 44 37 45 80 46 74 47 73 48 38 50 64 51 47 52 63 53 48 54
REMARK SMILES IDX 51 55 62 56 78 57 49 58 50 59 61 61 79 62 52 63 39 64 40 65
REMARK SMILES IDX 45 66 41 67 42 68 44 69 46 70 43 71 65 72 66 73 71 74 67 75
REMARK SMILES IDX 68 76 70 77 72 78 69 79 53 80 54 81 59 82 55 83 56 84 58 85
REMARK SMILES IDX 60 86 57 87
REMARK H PARENT 77 49 51 60
REMARK Flexibility Score: inf
ROOT
ATOM      1  C   UNL     1       3.014  -0.299   7.584  1.00  0.00     0.188 C 
ENDROOT
BRANCH   1   2
ATOM      2  O   UNL     1       2.490  -0.307   8.905  1.00  0.00    -0.376 OA
BRANCH   2   3
ATOM      3  C   UNL     1       1.880   0.912   9.345  1.00  0.00     0.202 C 
BRANCH   3   4
ATOM      4  C   UNL     1       2.852   2.090   9.488  1.00  0.00     0.261 C 
BRANCH   4   5
ATOM      5  O   UNL     1       3.188   2.632   8.193  1.00  0.00    -0.463 OA
BRANCH   5   6
ATOM      6  C   UNL     1       4.467   3.064   8.049  1.00  0.00     0.308 C 
ATOM      7  O   UNL     1       5.292   3.094   8.957  1.00  0.00    -0.252 OA
BRANCH   6   8
ATOM      8  C   UNL     1       4.840   3.312   6.604  1.00  0.00     0.155 C 
BRANCH   8   9
ATOM      9  C   UNL     1       3.995   4.275   5.775  1.00  0.00     0.134 C 
ATOM     10  N   UNL     1       1.147   4.301   3.218  1.00  0.00    -0.308 N 
ATOM     11  C   UNL     1       0.316   5.173   4.028  1.00  0.00     0.123 C 
ATOM     12  C   UNL     1       2.513   4.078   3.692  1.00  0.00     0.129 C 
ATOM     13  C   UNL     1       0.263   4.676   5.464  1.00  0.00     0.028 C 
ATOM     14  C   UNL     1       2.647   3.768   5.215  1.00  0.00     0.044 C 
ATOM     15  C   UNL     1       1.645   4.529   6.075  1.00  0.00     0.024 C 
ATOM     16  C   UNL     1       2.368   5.833   6.347  1.00  0.00     0.164 C 
ATOM     17  O   UNL     1       3.739   5.468   6.538  1.00  0.00    -0.377 OA
BRANCH  10  18
ATOM     18  C   UNL     1       0.650   3.919   1.973  1.00  0.00     0.410 C 
ATOM     19  O   UNL     1      -0.339   4.455   1.480  1.00  0.00    -0.224 OA
BRANCH  18  20
ATOM     20  O   UNL     1       1.310   2.882   1.375  1.00  0.00    -0.444 OA
BRANCH  20  21
ATOM     21  C   UNL     1       0.711   2.242   0.204  1.00  0.00     0.106 C 
ATOM     22  C   UNL     1       1.416   0.887   0.013  1.00  0.00     0.056 C 
ATOM     23  C   UNL     1       0.984   3.092  -1.038  1.00  0.00     0.056 C 
ATOM     24  C   UNL     1      -0.791   1.933   0.369  1.00  0.00     0.056 C 
ENDBRANCH  20  21
ENDBRANCH  18  20
ENDBRANCH  10  18
ENDBRANCH   8   9
ENDBRANCH   6   8
ENDBRANCH   5   6
ENDBRANCH   4   5
ENDBRANCH   3   4
ENDBRANCH   2   3
ENDBRANCH   1   2
BRANCH   1  25
ATOM     25  C   UNL     1       1.963  -0.410   6.485  1.00  0.00     0.188 C 
BRANCH  25  26
ATOM     26  O   UNL     1       1.021   0.665   6.476  1.00  0.00    -0.376 OA
BRANCH  26  27
ATOM     27  C   UNL     1      -0.336   0.230   6.316  1.00  0.00     0.202 C 
BRANCH  27  28
ATOM     28  C   UNL     1      -0.789   0.022   4.862  1.00  0.00     0.261 C 
BRANCH  28  29
ATOM     29  O   UNL     1       0.177  -0.705   4.087  1.00  0.00    -0.460 OA
BRANCH  29  30
ATOM     30  C   UNL     1       1.100   0.118   3.525  1.00  0.00     0.338 C 
ATOM     31  O   UNL     1       1.079   1.329   3.563  1.00  0.00    -0.246 OA
BRANCH  30  32
ATOM     32  C   UNL     1       2.271  -0.629   3.009  1.00  0.00     0.060 A 
ATOM     33  C   UNL     1       3.482   0.077   2.918  1.00  0.00     0.016 A 
ATOM     34  C   UNL     1       2.213  -1.975   2.651  1.00  0.00     0.016 A 
ATOM     35  C   UNL     1       4.638  -0.555   2.478  1.00  0.00     0.010 A 
ATOM     36  C   UNL     1       3.373  -2.611   2.208  1.00  0.00     0.010 A 
ATOM     37  C   UNL     1       4.585  -1.903   2.120  1.00  0.00    -0.014 A 
BRANCH  37  38
ATOM     38  C   UNL     1       5.793  -2.583   1.615  1.00  0.00     0.031 A 
ATOM     39  C   UNL     1       5.965  -2.772   0.143  1.00  0.00     0.074 A 
ATOM     40  C   UNL     1       6.699  -3.058   2.486  1.00  0.00     0.049 A 
ATOM     41  N   UNL     1       6.851  -3.485  -0.499  1.00  0.00    -0.248 NA
ATOM     42  C   UNL     1       5.005  -2.067  -0.720  1.00  0.00     0.031 C 
ATOM     43  C   UNL     1       6.649  -2.879   3.936  1.00  0.00     0.029 A 
ATOM     44  N   UNL     1       7.818  -3.819   2.274  1.00  0.00    -0.354 N 
ATOM     45  C   UNL     1       6.546  -3.334  -1.844  1.00  0.00     0.074 A 
ATOM     46  C   UNL     1       5.388  -2.467  -1.924  1.00  0.00     0.031 C 
ATOM     47  C   UNL     1       7.672  -3.550   4.491  1.00  0.00     0.029 A 
ATOM     48  C   UNL     1       8.412  -4.240   3.438  1.00  0.00     0.049 A 
ATOM     49  H   UNL     1       8.162  -4.041   1.379  1.00  0.00     0.167 HD
ATOM     50  C   UNL     1       7.175  -3.880  -2.910  1.00  0.00     0.037 A 
ATOM     51  C   UNL     1       9.405  -5.128   3.630  1.00  0.00     0.037 A 
ATOM     52  C   UNL     1       8.320  -4.745  -2.810  1.00  0.00     0.049 A 
ATOM     53  C   UNL     1      10.032  -5.794   2.438  1.00  0.00     0.074 A 
ATOM     54  C   UNL     1       9.063  -5.318  -3.827  1.00  0.00     0.029 A 
ATOM     55  N   UNL     1       8.877  -5.177  -1.615  1.00  0.00    -0.354 N 
ATOM     56  N   UNL     1       9.756  -5.636   1.166  1.00  0.00    -0.248 NA
ATOM     57  C   UNL     1      11.096  -6.770   2.707  1.00  0.00     0.031 C 
ATOM     58  C   UNL     1      10.036  -6.140  -3.245  1.00  0.00     0.029 A 
ATOM     59  C   UNL     1       9.927  -6.045  -1.867  1.00  0.00     0.049 A 
ATOM     60  H   UNL     1       8.571  -4.907  -0.719  1.00  0.00     0.167 HD
ATOM     61  C   UNL     1      10.612  -6.488   0.481  1.00  0.00     0.074 A 
ATOM     62  C   UNL     1      11.430  -7.147   1.480  1.00  0.00     0.031 C 
ATOM     63  C   UNL     1      10.711  -6.707  -0.854  1.00  0.00     0.037 A 
BRANCH  50  64
ATOM     64  C   UNL     1       6.596  -3.595  -4.263  1.00  0.00     0.057 A 
ATOM     65  C   UNL     1       6.699  -2.336  -4.868  1.00  0.00     0.134 A 
ATOM     66  C   UNL     1       5.914  -4.596  -4.965  1.00  0.00     0.134 A 
ATOM     67  F   UNL     1       7.323  -1.329  -4.238  1.00  0.00    -0.206 F 
ATOM     68  C   UNL     1       6.119  -2.075  -6.110  1.00  0.00     0.040 A 
ATOM     69  C   UNL     1       5.349  -4.354  -6.218  1.00  0.00     0.040 A 
ATOM     70  F   UNL     1       5.777  -5.824  -4.441  1.00  0.00    -0.206 F 
ATOM     71  C   UNL     1       5.444  -3.087  -6.790  1.00  0.00     0.006 A 
ENDBRANCH  50  64
BRANCH  51  72
ATOM     72  C   UNL     1       9.817  -5.472   5.012  1.00  0.00     0.057 A 
ATOM     73  C   UNL     1      11.037  -5.036   5.535  1.00  0.00     0.134 A 
ATOM     74  C   UNL     1       8.982  -6.221   5.851  1.00  0.00     0.134 A 
ATOM     75  F   UNL     1      11.886  -4.333   4.772  1.00  0.00    -0.206 F 
ATOM     76  C   UNL     1      11.415  -5.330   6.847  1.00  0.00     0.040 A 
ATOM     77  C   UNL     1       9.337  -6.505   7.170  1.00  0.00     0.040 A 
ATOM     78  F   UNL     1       7.798  -6.666   5.407  1.00  0.00    -0.206 F 
ATOM     79  C   UNL     1      10.558  -6.060   7.671  1.00  0.00     0.006 A 
ENDBRANCH  51  72
BRANCH  63  80
ATOM     80  C   UNL     1      11.735  -7.705  -1.306  1.00  0.00     0.057 A 
ATOM     81  C   UNL     1      11.532  -9.082  -1.152  1.00  0.00     0.134 A 
ATOM     82  C   UNL     1      12.910  -7.289  -1.944  1.00  0.00     0.134 A 
ATOM     83  F   UNL     1      10.433  -9.542  -0.535  1.00  0.00    -0.206 F 
ATOM     84  C   UNL     1      12.470 -10.011  -1.605  1.00  0.00     0.040 A 
ATOM     85  C   UNL     1      13.844  -8.209  -2.423  1.00  0.00     0.040 A 
ATOM     86  F   UNL     1      13.160  -5.984  -2.129  1.00  0.00    -0.206 F 
ATOM     87  C   UNL     1      13.626  -9.575  -2.250  1.00  0.00     0.006 A 
ENDBRANCH  63  80
ENDBRANCH  37  38
ENDBRANCH  30  32
ENDBRANCH  29  30
ENDBRANCH  28  29
ENDBRANCH  27  28
ENDBRANCH  26  27
ENDBRANCH  25  26
ENDBRANCH   1  25
TORSDOF 21
