REMARK SMILES Cc1cc2nc(S/C(=C\c3ccc(O)cc3)C(=O)OCCOCCOCCOC(=O)c3ccc(-c4c5nc(c(-c6c(F)cccc6F)c6ccc([nH]6)c(-c6c(F)cccc6F)c6nc(c(-c7c(F)cccc7F)c7ccc4[nH]7)C=C6)C=C5)cc3)[nH]c2cc1C
REMARK SMILES IDX 23 1 22 2 21 3 20 4 19 5 17 6 18 7 8 8 9 9 7 10 6 11 1 12
REMARK SMILES IDX 2 13 3 14 88 15 4 16 87 17 89 18 5 19 86 20 85 21 10 23
REMARK SMILES IDX 11 24 16 25 12 26 15 27 13 28 14 29 24 31 25 32 26 33 27 34
REMARK SMILES IDX 28 35 29 36 30 37 31 38 32 39 84 40 33 41 83 42 34 43 35 44
REMARK SMILES IDX 36 45 77 46 37 47 82 48 76 49 78 50 38 51 81 52 75 53 74 54
REMARK SMILES IDX 39 56 65 57 48 58 64 59 49 60 52 61 63 62 79 63 50 64 51 65
REMARK SMILES IDX 62 67 80 68 53 69 40 70 41 71 46 72 42 73 43 74 45 75 47 76
REMARK SMILES IDX 44 77 66 78 67 79 72 80 68 81 69 82 71 83 73 84 70 85 54 86
REMARK SMILES IDX 55 87 60 88 56 89 57 90 59 91 61 92 58 93
REMARK H PARENT 85 22 14 30 78 55 52 66
REMARK Flexibility Score: inf
ROOT
ATOM      1  C   UNL     1      -7.906  -1.100   1.464  1.00  0.00     0.188 C 
ENDROOT
BRANCH   1   2
ATOM      2  O   UNL     1      -9.201  -1.483   1.016  1.00  0.00    -0.376 OA
BRANCH   2   3
ATOM      3  C   UNL     1      -9.374  -2.721   0.339  1.00  0.00     0.202 C 
BRANCH   3   4
ATOM      4  C   UNL     1      -8.456  -3.074  -0.843  1.00  0.00     0.261 C 
BRANCH   4   5
ATOM      5  O   UNL     1      -7.053  -2.911  -0.573  1.00  0.00    -0.459 OA
BRANCH   5   6
ATOM      6  C   UNL     1      -6.369  -2.046  -1.374  1.00  0.00     0.345 C 
ATOM      7  O   UNL     1      -6.823  -1.494  -2.365  1.00  0.00    -0.246 OA
BRANCH   6   8
ATOM      8  C   UNL     1      -4.988  -1.770  -0.814  1.00  0.00     0.101 C 
ATOM      9  C   UNL     1      -4.339  -2.828  -0.285  1.00  0.00     0.031 C 
BRANCH   8  10
ATOM     10  S   UNL     1      -4.591  -0.081  -0.900  1.00  0.00    -0.044 SA
BRANCH  10  11
ATOM     11  C   UNL     1      -2.883   0.105  -0.858  1.00  0.00     0.171 A 
ATOM     12  C   UNL     1       2.671   1.856   0.231  1.00  0.00     0.044 C 
ATOM     13  C   UNL     1       1.486   1.012  -0.162  1.00  0.00    -0.046 A 
ATOM     14  C   UNL     1       0.200   1.578  -0.019  1.00  0.00     0.034 A 
ATOM     15  C   UNL     1       1.627  -0.277  -0.722  1.00  0.00    -0.046 A 
ATOM     16  C   UNL     1      -0.925   0.859  -0.451  1.00  0.00     0.090 A 
ATOM     17  C   UNL     1       0.514  -0.938  -1.277  1.00  0.00     0.032 A 
ATOM     18  C   UNL     1       2.951  -0.996  -0.737  1.00  0.00     0.044 C 
ATOM     19  N   UNL     1      -2.265   1.129  -0.308  1.00  0.00    -0.222 NA
ATOM     20  C   UNL     1      -0.736  -0.342  -1.119  1.00  0.00     0.066 A 
ATOM     21  N   UNL     1      -2.003  -0.729  -1.482  1.00  0.00    -0.333 N 
ATOM     22  H   UNL     1      -2.234  -1.473  -2.083  1.00  0.00     0.169 HD
ENDBRANCH  10  11
ENDBRANCH   8  10
BRANCH   9  23
ATOM     23  C   UNL     1      -3.017  -2.943   0.336  1.00  0.00    -0.024 A 
ATOM     24  C   UNL     1      -2.617  -2.186   1.442  1.00  0.00     0.012 A 
ATOM     25  C   UNL     1      -2.113  -3.848  -0.243  1.00  0.00     0.012 A 
ATOM     26  C   UNL     1      -1.292  -2.248   1.888  1.00  0.00     0.047 A 
ATOM     27  C   UNL     1      -0.798  -3.921   0.211  1.00  0.00     0.047 A 
ATOM     28  C   UNL     1      -0.390  -3.093   1.247  1.00  0.00     0.115 A 
BRANCH  28  29
ATOM     29  O   UNL     1       0.933  -3.092   1.575  1.00  0.00    -0.508 OA
ATOM     30  H   UNL     1       1.243  -2.544   2.269  1.00  0.00     0.293 HD
ENDBRANCH  28  29
ENDBRANCH   9  23
ENDBRANCH   6   8
ENDBRANCH   5   6
ENDBRANCH   4   5
ENDBRANCH   3   4
ENDBRANCH   2   3
ENDBRANCH   1   2
BRANCH   1  31
ATOM     31  C   UNL     1      -7.029  -2.112   2.234  1.00  0.00     0.188 C 
BRANCH  31  32
ATOM     32  O   UNL     1      -7.611  -3.383   2.383  1.00  0.00    -0.376 OA
BRANCH  32  33
ATOM     33  C   UNL     1      -8.238  -3.720   3.607  1.00  0.00     0.202 C 
BRANCH  33  34
ATOM     34  C   UNL     1      -8.955  -2.706   4.526  1.00  0.00     0.261 C 
BRANCH  34  35
ATOM     35  O   UNL     1      -8.683  -1.311   4.349  1.00  0.00    -0.460 OA
BRANCH  35  36
ATOM     36  C   UNL     1      -7.713  -0.769   5.119  1.00  0.00     0.338 C 
ATOM     37  O   UNL     1      -6.998  -1.346   5.925  1.00  0.00    -0.246 OA
BRANCH  36  38
ATOM     38  C   UNL     1      -7.520   0.633   4.698  1.00  0.00     0.060 A 
ATOM     39  C   UNL     1      -6.340   0.990   4.031  1.00  0.00     0.016 A 
ATOM     40  C   UNL     1      -8.502   1.591   4.960  1.00  0.00     0.016 A 
ATOM     41  C   UNL     1      -6.132   2.312   3.634  1.00  0.00     0.010 A 
ATOM     42  C   UNL     1      -8.280   2.920   4.584  1.00  0.00     0.010 A 
ATOM     43  C   UNL     1      -7.085   3.292   3.941  1.00  0.00    -0.014 A 
BRANCH  43  44
ATOM     44  C   UNL     1      -6.766   4.728   3.744  1.00  0.00     0.031 A 
ATOM     45  C   UNL     1      -6.314   5.534   4.930  1.00  0.00     0.074 A 
ATOM     46  C   UNL     1      -6.872   5.311   2.536  1.00  0.00     0.049 A 
ATOM     47  N   UNL     1      -6.050   6.813   5.018  1.00  0.00    -0.248 NA
ATOM     48  C   UNL     1      -6.139   4.795   6.191  1.00  0.00     0.031 C 
ATOM     49  C   UNL     1      -7.255   4.633   1.300  1.00  0.00     0.029 A 
ATOM     50  N   UNL     1      -6.674   6.617   2.159  1.00  0.00    -0.354 N 
ATOM     51  C   UNL     1      -5.687   7.032   6.341  1.00  0.00     0.074 A 
ATOM     52  C   UNL     1      -5.796   5.763   7.027  1.00  0.00     0.031 C 
ATOM     53  C   UNL     1      -7.279   5.534   0.301  1.00  0.00     0.029 A 
ATOM     54  C   UNL     1      -6.948   6.854   0.835  1.00  0.00     0.049 A 
ATOM     55  H   UNL     1      -6.365   7.316   2.780  1.00  0.00     0.167 HD
ATOM     56  C   UNL     1      -5.290   8.185   6.930  1.00  0.00     0.037 A 
ATOM     57  C   UNL     1      -6.957   8.010   0.141  1.00  0.00     0.037 A 
ATOM     58  C   UNL     1      -5.187   9.449   6.248  1.00  0.00     0.049 A 
ATOM     59  C   UNL     1      -6.596   9.297   0.840  1.00  0.00     0.074 A 
ATOM     60  C   UNL     1      -4.777  10.670   6.754  1.00  0.00     0.029 A 
ATOM     61  N   UNL     1      -5.508   9.656   4.915  1.00  0.00    -0.354 N 
ATOM     62  N   UNL     1      -6.228   9.492   2.083  1.00  0.00    -0.248 NA
ATOM     63  C   UNL     1      -6.651  10.526   0.035  1.00  0.00     0.031 C 
ATOM     64  C   UNL     1      -4.908  11.628   5.743  1.00  0.00     0.029 A 
ATOM     65  C   UNL     1      -5.338  10.992   4.590  1.00  0.00     0.049 A 
ATOM     66  H   UNL     1      -5.812   8.957   4.291  1.00  0.00     0.167 HD
ATOM     67  C   UNL     1      -5.978  10.855   2.200  1.00  0.00     0.074 A 
ATOM     68  C   UNL     1      -6.223  11.437   0.897  1.00  0.00     0.031 C 
ATOM     69  C   UNL     1      -5.580  11.560   3.288  1.00  0.00     0.037 A 
BRANCH  56  70
ATOM     70  C   UNL     1      -4.971   8.138   8.396  1.00  0.00     0.057 A 
ATOM     71  C   UNL     1      -3.835   7.481   8.889  1.00  0.00     0.134 A 
ATOM     72  C   UNL     1      -5.797   8.782   9.326  1.00  0.00     0.134 A 
ATOM     73  F   UNL     1      -3.009   6.832   8.055  1.00  0.00    -0.206 F 
ATOM     74  C   UNL     1      -3.548   7.445  10.255  1.00  0.00     0.040 A 
ATOM     75  C   UNL     1      -5.504   8.778  10.690  1.00  0.00     0.040 A 
ATOM     76  F   UNL     1      -6.898   9.434   8.922  1.00  0.00    -0.206 F 
ATOM     77  C   UNL     1      -4.380   8.101  11.159  1.00  0.00     0.006 A 
ENDBRANCH  56  70
BRANCH  57  78
ATOM     78  C   UNL     1      -7.339   8.017  -1.295  1.00  0.00     0.057 A 
ATOM     79  C   UNL     1      -6.411   8.332  -2.293  1.00  0.00     0.134 A 
ATOM     80  C   UNL     1      -8.652   7.743  -1.701  1.00  0.00     0.134 A 
ATOM     81  F   UNL     1      -5.146   8.635  -1.967  1.00  0.00    -0.206 F 
ATOM     82  C   UNL     1      -6.776   8.395  -3.640  1.00  0.00     0.040 A 
ATOM     83  C   UNL     1      -9.024   7.774  -3.046  1.00  0.00     0.040 A 
ATOM     84  F   UNL     1      -9.592   7.440  -0.794  1.00  0.00    -0.206 F 
ATOM     85  C   UNL     1      -8.086   8.109  -4.019  1.00  0.00     0.006 A 
ENDBRANCH  57  78
BRANCH  69  86
ATOM     86  C   UNL     1      -5.347  13.035   3.111  1.00  0.00     0.057 A 
ATOM     87  C   UNL     1      -6.401  13.936   2.911  1.00  0.00     0.134 A 
ATOM     88  C   UNL     1      -4.052  13.566   3.185  1.00  0.00     0.134 A 
ATOM     89  F   UNL     1      -7.665  13.495   2.820  1.00  0.00    -0.206 F 
ATOM     90  C   UNL     1      -6.173  15.306   2.766  1.00  0.00     0.040 A 
ATOM     91  C   UNL     1      -3.815  14.936   3.073  1.00  0.00     0.040 A 
ATOM     92  F   UNL     1      -2.997  12.762   3.387  1.00  0.00    -0.206 F 
ATOM     93  C   UNL     1      -4.877  15.810   2.855  1.00  0.00     0.006 A 
ENDBRANCH  69  86
ENDBRANCH  43  44
ENDBRANCH  36  38
ENDBRANCH  35  36
ENDBRANCH  34  35
ENDBRANCH  33  34
ENDBRANCH  32  33
ENDBRANCH  31  32
ENDBRANCH   1  31
TORSDOF 21
