REMARK SMILES Cc1c(Br)c(C)c2c(c1Br)O[C@H](C(F)(F)F)C(C(=O)OCCOCCOCCOC(=O)c1ccc(-c3c4nc(c(-c5c(F)cccc5F)c5ccc([nH]5)c(-c5c(F)cccc5F)c5nc(c(-c6c(F)cccc6F)c6ccc3[nH]6)C=C5)C=C4)cc1)=C2
REMARK SMILES IDX 25 1 24 2 23 3 22 4 21 5 20 6 18 7 19 8 17 9 1 10 2 11 3 12
REMARK SMILES IDX 9 13 4 14 5 15 8 16 10 17 6 18 7 19 11 20 86 21 12 22 13 23
REMARK SMILES IDX 14 24 15 25 16 26 26 27 27 28 28 29 29 30 30 31 31 32 32 33
REMARK SMILES IDX 33 34 85 35 34 36 84 37 35 38 36 39 37 40 78 41 38 42 83 43
REMARK SMILES IDX 77 44 79 45 39 46 82 47 76 48 75 49 40 51 66 52 49 53 65 54
REMARK SMILES IDX 50 55 53 56 64 57 80 58 51 59 52 60 63 62 81 63 54 64 41 65
REMARK SMILES IDX 42 66 47 67 43 68 44 69 46 70 48 71 45 72 67 73 68 74 73 75
REMARK SMILES IDX 69 76 70 77 72 78 74 79 71 80 55 81 56 82 61 83 57 84 58 85
REMARK SMILES IDX 60 86 62 87 59 88
REMARK H PARENT 79 50 53 61
REMARK Flexibility Score: inf
ROOT
ATOM      1  C   UNL     1      -3.231   5.097  -5.583  1.00  0.00     0.188 C 
ENDROOT
BRANCH   1   2
ATOM      2  C   UNL     1      -2.311   6.309  -5.844  1.00  0.00     0.188 C 
BRANCH   2   3
ATOM      3  O   UNL     1      -2.432   7.033  -7.047  1.00  0.00    -0.376 OA
BRANCH   3   4
ATOM      4  C   UNL     1      -2.104   6.447  -8.294  1.00  0.00     0.202 C 
BRANCH   4   5
ATOM      5  C   UNL     1      -1.141   5.263  -8.478  1.00  0.00     0.261 C 
BRANCH   5   6
ATOM      6  O   UNL     1      -1.099   4.299  -7.422  1.00  0.00    -0.460 OA
BRANCH   6   7
ATOM      7  C   UNL     1       0.052   4.276  -6.707  1.00  0.00     0.338 C 
ATOM      8  O   UNL     1       1.036   4.976  -6.883  1.00  0.00    -0.246 OA
BRANCH   7   9
ATOM      9  C   UNL     1      -0.102   3.372  -5.550  1.00  0.00     0.087 C 
ATOM     10  C   UNL     1       0.872  -0.033  -0.085  1.00  0.00     0.047 C 
ATOM     11  C   UNL     1       0.585   1.005  -1.146  1.00  0.00    -0.019 A 
ATOM     12  C   UNL     1       0.981   2.352  -0.941  1.00  0.00     0.025 A 
ATOM     13  C   UNL     1      -0.034   0.674  -2.367  1.00  0.00     0.064 A 
ATOM     14  Br  UNL     1       1.774   2.829   0.744  1.00  0.00    -0.050 Br
ATOM     15  C   UNL     1       0.828   3.334  -1.951  1.00  0.00    -0.026 A 
ATOM     16  C   UNL     1      -0.168   1.631  -3.391  1.00  0.00     0.142 A 
ATOM     17  Br  UNL     1      -0.681  -1.097  -2.713  1.00  0.00    -0.046 Br
ATOM     18  C   UNL     1       1.216   4.783  -1.738  1.00  0.00     0.046 C 
ATOM     19  C   UNL     1       0.306   2.937  -3.208  1.00  0.00     0.022 A 
ATOM     20  O   UNL     1      -0.791   1.224  -4.543  1.00  0.00    -0.474 OA
ATOM     21  C   UNL     1       0.315   3.834  -4.364  1.00  0.00     0.027 C 
ATOM     22  C   UNL     1      -0.695   2.013  -5.750  1.00  0.00     0.316 C 
BRANCH  22  23
ATOM     23  C   UNL     1       0.047   1.198  -6.818  1.00  0.00     0.430 C 
ATOM     24  F   UNL     1      -0.472  -0.045  -6.942  1.00  0.00    -0.167 F 
ATOM     25  F   UNL     1      -0.039   1.780  -8.038  1.00  0.00    -0.167 F 
ATOM     26  F   UNL     1       1.361   1.066  -6.526  1.00  0.00    -0.167 F 
ENDBRANCH  22  23
ENDBRANCH   7   9
ENDBRANCH   6   7
ENDBRANCH   5   6
ENDBRANCH   4   5
ENDBRANCH   3   4
ENDBRANCH   2   3
ENDBRANCH   1   2
BRANCH   1  27
ATOM     27  O   UNL     1      -4.097   4.639  -6.596  1.00  0.00    -0.376 OA
BRANCH  27  28
ATOM     28  C   UNL     1      -5.148   5.479  -7.048  1.00  0.00     0.202 C 
BRANCH  28  29
ATOM     29  C   UNL     1      -5.865   6.518  -6.163  1.00  0.00     0.261 C 
BRANCH  29  30
ATOM     30  O   UNL     1      -5.062   7.220  -5.204  1.00  0.00    -0.460 OA
BRANCH  30  31
ATOM     31  C   UNL     1      -5.336   6.951  -3.899  1.00  0.00     0.338 C 
ATOM     32  O   UNL     1      -6.182   6.200  -3.459  1.00  0.00    -0.246 OA
BRANCH  31  33
ATOM     33  C   UNL     1      -4.285   7.563  -3.059  1.00  0.00     0.060 A 
ATOM     34  C   UNL     1      -3.369   6.720  -2.414  1.00  0.00     0.016 A 
ATOM     35  C   UNL     1      -4.208   8.946  -2.900  1.00  0.00     0.016 A 
ATOM     36  C   UNL     1      -2.361   7.261  -1.619  1.00  0.00     0.010 A 
ATOM     37  C   UNL     1      -3.216   9.486  -2.072  1.00  0.00     0.010 A 
ATOM     38  C   UNL     1      -2.297   8.645  -1.418  1.00  0.00    -0.014 A 
BRANCH  38  39
ATOM     39  C   UNL     1      -1.399   9.174  -0.363  1.00  0.00     0.031 A 
ATOM     40  C   UNL     1      -1.965   9.374   1.015  1.00  0.00     0.074 A 
ATOM     41  C   UNL     1      -0.094   9.405  -0.595  1.00  0.00     0.049 A 
ATOM     42  N   UNL     1      -1.377   9.804   2.100  1.00  0.00    -0.248 NA
ATOM     43  C   UNL     1      -3.386   9.032   1.193  1.00  0.00     0.031 C 
ATOM     44  C   UNL     1       0.591   9.192  -1.867  1.00  0.00     0.029 A 
ATOM     45  N   UNL     1       0.890   9.867   0.245  1.00  0.00    -0.354 N 
ATOM     46  C   UNL     1      -2.350   9.773   3.090  1.00  0.00     0.074 A 
ATOM     47  C   UNL     1      -3.576   9.323   2.471  1.00  0.00     0.031 C 
ATOM     48  C   UNL     1       1.887   9.523  -1.724  1.00  0.00     0.029 A 
ATOM     49  C   UNL     1       2.117   9.999  -0.359  1.00  0.00     0.049 A 
ATOM     50  H   UNL     1       0.731  10.082   1.193  1.00  0.00     0.167 HD
ATOM     51  C   UNL     1      -2.229  10.075   4.403  1.00  0.00     0.037 A 
ATOM     52  C   UNL     1       3.285  10.464   0.131  1.00  0.00     0.037 A 
ATOM     53  C   UNL     1      -1.014  10.531   5.021  1.00  0.00     0.049 A 
ATOM     54  C   UNL     1       3.364  10.911   1.570  1.00  0.00     0.074 A 
ATOM     55  C   UNL     1      -0.798  10.865   6.346  1.00  0.00     0.029 A 
ATOM     56  N   UNL     1       0.187  10.726   4.356  1.00  0.00    -0.354 N 
ATOM     57  N   UNL     1       2.444  10.859   2.504  1.00  0.00    -0.248 NA
ATOM     58  C   UNL     1       4.641  11.486   2.024  1.00  0.00     0.031 C 
ATOM     59  C   UNL     1       0.517  11.318   6.472  1.00  0.00     0.029 A 
ATOM     60  C   UNL     1       1.138  11.210   5.238  1.00  0.00     0.049 A 
ATOM     61  H   UNL     1       0.340  10.547   3.400  1.00  0.00     0.167 HD
ATOM     62  C   UNL     1       3.036  11.369   3.655  1.00  0.00     0.074 A 
ATOM     63  C   UNL     1       4.399  11.711   3.308  1.00  0.00     0.031 C 
ATOM     64  C   UNL     1       2.496  11.539   4.886  1.00  0.00     0.037 A 
BRANCH  51  65
ATOM     65  C   UNL     1      -3.450   9.935   5.261  1.00  0.00     0.057 A 
ATOM     66  C   UNL     1      -3.965   8.680   5.609  1.00  0.00     0.134 A 
ATOM     67  C   UNL     1      -4.086  11.066   5.789  1.00  0.00     0.134 A 
ATOM     68  F   UNL     1      -3.410   7.559   5.123  1.00  0.00    -0.206 F 
ATOM     69  C   UNL     1      -5.078   8.554   6.441  1.00  0.00     0.040 A 
ATOM     70  C   UNL     1      -5.183  10.952   6.644  1.00  0.00     0.040 A 
ATOM     71  F   UNL     1      -3.641  12.297   5.496  1.00  0.00    -0.206 F 
ATOM     72  C   UNL     1      -5.684   9.693   6.969  1.00  0.00     0.006 A 
ENDBRANCH  51  65
BRANCH  52  73
ATOM     73  C   UNL     1       4.484  10.539  -0.745  1.00  0.00     0.057 A 
ATOM     74  C   UNL     1       5.602   9.728  -0.515  1.00  0.00     0.134 A 
ATOM     75  C   UNL     1       4.551  11.434  -1.820  1.00  0.00     0.134 A 
ATOM     76  F   UNL     1       5.612   8.870   0.516  1.00  0.00    -0.206 F 
ATOM     77  C   UNL     1       6.744   9.809  -1.315  1.00  0.00     0.040 A 
ATOM     78  C   UNL     1       5.676  11.508  -2.644  1.00  0.00     0.040 A 
ATOM     79  F   UNL     1       3.518  12.246  -2.091  1.00  0.00    -0.206 F 
ATOM     80  C   UNL     1       6.779  10.696  -2.389  1.00  0.00     0.006 A 
ENDBRANCH  52  73
BRANCH  64  81
ATOM     81  C   UNL     1       3.365  12.111   5.971  1.00  0.00     0.057 A 
ATOM     82  C   UNL     1       3.720  13.465   5.991  1.00  0.00     0.134 A 
ATOM     83  C   UNL     1       3.751  11.325   7.066  1.00  0.00     0.134 A 
ATOM     84  F   UNL     1       3.388  14.270   4.971  1.00  0.00    -0.206 F 
ATOM     85  C   UNL     1       4.427  14.018   7.060  1.00  0.00     0.040 A 
ATOM     86  C   UNL     1       4.434  11.873   8.154  1.00  0.00     0.040 A 
ATOM     87  F   UNL     1       3.432  10.023   7.118  1.00  0.00    -0.206 F 
ATOM     88  C   UNL     1       4.774  13.224   8.152  1.00  0.00     0.006 A 
ENDBRANCH  64  81
ENDBRANCH  38  39
ENDBRANCH  31  33
ENDBRANCH  30  31
ENDBRANCH  29  30
ENDBRANCH  28  29
ENDBRANCH  27  28
ENDBRANCH   1  27
TORSDOF 18
