REMARK SMILES C[C@@H](C(=O)OCCOCCOCCOC(=O)c1ccc(-c2c3nc(c(-c4c(F)cccc4F)c4ccc([nH]4)c(-c4c(F)cccc4F)c4nc(c(-c5c(F)cccc5F)c5ccc2[nH]5)C=C4)C=C3)cc1)c1ccc2c3cc(Cl)ccc3n(C(=O)c3ccc(Cl)cc3)c2c1
REMARK SMILES IDX 9 1 8 2 7 3 6 4 5 5 3 6 4 7 2 8 1 9 71 10 72 11 93 12 73 13
REMARK SMILES IDX 92 14 74 15 82 16 75 17 81 18 76 19 80 20 77 21 79 22 78 23
REMARK SMILES IDX 83 24 84 25 85 26 86 27 91 28 87 29 90 30 88 31 89 32 10 33
REMARK SMILES IDX 11 34 12 35 13 36 14 37 15 38 16 39 17 40 18 41 70 42 19 43
REMARK SMILES IDX 69 44 20 45 21 46 22 47 63 48 23 49 68 50 62 51 64 52 24 53
REMARK SMILES IDX 67 54 61 55 60 56 25 58 51 59 34 60 50 61 35 62 38 63 49 64
REMARK SMILES IDX 65 65 36 66 37 67 48 69 66 70 39 71 26 72 27 73 32 74 28 75
REMARK SMILES IDX 29 76 31 77 33 78 30 79 52 80 53 81 58 82 54 83 55 84 57 85
REMARK SMILES IDX 59 86 56 87 40 88 41 89 46 90 42 91 43 92 45 93 47 94 44 95
REMARK H PARENT 64 57 38 68
REMARK Flexibility Score: inf
ROOT
ATOM      1  C   UNL     1       0.978  -2.675  -2.740  1.00  0.00     0.188 C 
ENDROOT
BRANCH   1   2
ATOM      2  O   UNL     1       2.094  -3.054  -3.514  1.00  0.00    -0.376 OA
BRANCH   2   3
ATOM      3  C   UNL     1       2.481  -2.110  -4.491  1.00  0.00     0.202 C 
BRANCH   3   4
ATOM      4  C   UNL     1       2.951  -0.703  -4.055  1.00  0.00     0.261 C 
BRANCH   4   5
ATOM      5  O   UNL     1       2.434  -0.127  -2.838  1.00  0.00    -0.463 OA
BRANCH   5   6
ATOM      6  C   UNL     1       1.425   0.777  -2.928  1.00  0.00     0.313 C 
ATOM      7  O   UNL     1       0.887   1.071  -3.991  1.00  0.00    -0.252 OA
BRANCH   6   8
ATOM      8  C   UNL     1       1.024   1.424  -1.569  1.00  0.00     0.126 C 
ATOM      9  C   UNL     1       1.720   0.990  -0.271  1.00  0.00     0.025 C 
BRANCH   8  10
ATOM     10  C   UNL     1      -0.489   1.359  -1.414  1.00  0.00    -0.032 A 
ATOM     11  C   UNL     1      -1.258   2.500  -1.628  1.00  0.00     0.005 A 
ATOM     12  C   UNL     1      -1.121   0.126  -1.186  1.00  0.00     0.032 A 
ATOM     13  C   UNL     1      -2.644   2.406  -1.706  1.00  0.00     0.011 A 
ATOM     14  C   UNL     1      -2.504   0.022  -1.301  1.00  0.00     0.057 A 
ATOM     15  C   UNL     1      -3.262   1.147  -1.568  1.00  0.00     0.008 A 
ATOM     16  N   UNL     1      -3.331  -1.126  -1.264  1.00  0.00    -0.276 N 
ATOM     17  C   UNL     1      -4.605   0.743  -1.556  1.00  0.00     0.009 A 
ATOM     18  C   UNL     1      -4.634  -0.560  -1.002  1.00  0.00     0.057 A 
ATOM     19  C   UNL     1      -5.781   1.488  -1.804  1.00  0.00     0.031 A 
ATOM     20  C   UNL     1      -5.861  -0.927  -0.402  1.00  0.00     0.029 A 
ATOM     21  C   UNL     1      -6.995   1.019  -1.345  1.00  0.00     0.041 A 
ATOM     22  C   UNL     1      -7.027  -0.140  -0.594  1.00  0.00     0.023 A 
ATOM     23  Cl  UNL     1      -8.420   1.935  -1.634  1.00  0.00    -0.084 Cl
BRANCH  16  24
ATOM     24  C   UNL     1      -2.738  -2.459  -1.686  1.00  0.00     0.262 C 
ATOM     25  O   UNL     1      -1.905  -2.344  -2.592  1.00  0.00    -0.268 OA
BRANCH  24  26
ATOM     26  C   UNL     1      -3.000  -4.045  -1.376  1.00  0.00     0.040 A 
ATOM     27  C   UNL     1      -3.028  -5.285   0.236  1.00  0.00     0.015 A 
ATOM     28  C   UNL     1      -4.055  -4.545  -2.771  1.00  0.00     0.015 A 
ATOM     29  C   UNL     1      -4.150  -6.682   0.263  1.00  0.00     0.021 A 
ATOM     30  C   UNL     1      -5.155  -5.929  -2.572  1.00  0.00     0.021 A 
ATOM     31  C   UNL     1      -5.194  -6.926  -1.108  1.00  0.00     0.041 A 
ATOM     32  Cl  UNL     1      -6.289  -8.256  -1.039  1.00  0.00    -0.084 Cl
ENDBRANCH  24  26
ENDBRANCH  16  24
ENDBRANCH   8  10
ENDBRANCH   6   8
ENDBRANCH   5   6
ENDBRANCH   4   5
ENDBRANCH   3   4
ENDBRANCH   2   3
ENDBRANCH   1   2
BRANCH   1  33
ATOM     33  C   UNL     1       1.395  -2.273  -1.323  1.00  0.00     0.188 C 
BRANCH  33  34
ATOM     34  O   UNL     1       2.655  -2.590  -0.763  1.00  0.00    -0.376 OA
BRANCH  34  35
ATOM     35  C   UNL     1       3.280  -3.813  -1.091  1.00  0.00     0.202 C 
BRANCH  35  36
ATOM     36  C   UNL     1       2.505  -5.115  -0.871  1.00  0.00     0.261 C 
BRANCH  36  37
ATOM     37  O   UNL     1       1.079  -5.015  -0.926  1.00  0.00    -0.460 OA
BRANCH  37  38
ATOM     38  C   UNL     1       0.415  -4.617   0.187  1.00  0.00     0.338 C 
ATOM     39  O   UNL     1       0.861  -4.367   1.288  1.00  0.00    -0.246 OA
BRANCH  38  40
ATOM     40  C   UNL     1      -1.005  -4.462  -0.209  1.00  0.00     0.060 A 
ATOM     41  C   UNL     1      -2.094  -3.338   0.625  1.00  0.00     0.016 A 
ATOM     42  C   UNL     1      -1.533  -5.714  -1.257  1.00  0.00     0.016 A 
ATOM     43  C   UNL     1      -3.874  -3.420   0.471  1.00  0.00     0.010 A 
ATOM     44  C   UNL     1      -3.259  -5.934  -1.502  1.00  0.00     0.010 A 
ATOM     45  C   UNL     1      -4.609  -4.696  -0.629  1.00  0.00    -0.014 A 
BRANCH  45  46
ATOM     46  C   UNL     1      -6.144  -4.374  -0.661  1.00  0.00     0.031 A 
ATOM     47  C   UNL     1      -6.941  -4.827   0.528  1.00  0.00     0.074 A 
ATOM     48  C   UNL     1      -6.761  -3.608  -1.602  1.00  0.00     0.049 A 
ATOM     49  N   UNL     1      -8.223  -5.029   0.629  1.00  0.00    -0.248 NA
ATOM     50  C   UNL     1      -6.192  -5.154   1.751  1.00  0.00     0.031 C 
ATOM     51  C   UNL     1      -6.108  -2.807  -2.639  1.00  0.00     0.029 A 
ATOM     52  N   UNL     1      -8.084  -3.309  -1.822  1.00  0.00    -0.354 N 
ATOM     53  C   UNL     1      -8.394  -5.669   1.849  1.00  0.00     0.074 A 
ATOM     54  C   UNL     1      -7.095  -5.811   2.453  1.00  0.00     0.031 C 
ATOM     55  C   UNL     1      -6.988  -2.169  -3.406  1.00  0.00     0.029 A 
ATOM     56  C   UNL     1      -8.301  -2.506  -2.929  1.00  0.00     0.049 A 
ATOM     57  H   UNL     1      -8.812  -3.635  -1.245  1.00  0.00     0.167 HD
ATOM     58  C   UNL     1      -9.549  -6.098   2.400  1.00  0.00     0.037 A 
ATOM     59  C   UNL     1      -9.427  -2.061  -3.511  1.00  0.00     0.037 A 
ATOM     60  C   UNL     1     -10.825  -5.783   1.822  1.00  0.00     0.049 A 
ATOM     61  C   UNL     1     -10.694  -2.472  -2.849  1.00  0.00     0.074 A 
ATOM     62  C   UNL     1     -12.086  -6.129   2.258  1.00  0.00     0.029 A 
ATOM     63  N   UNL     1     -10.988  -4.985   0.693  1.00  0.00    -0.354 N 
ATOM     64  N   UNL     1     -10.843  -3.210  -1.773  1.00  0.00    -0.248 NA
ATOM     65  C   UNL     1     -11.938  -2.009  -3.457  1.00  0.00     0.031 C 
ATOM     66  C   UNL     1     -13.013  -5.551   1.384  1.00  0.00     0.029 A 
ATOM     67  C   UNL     1     -12.331  -4.809   0.428  1.00  0.00     0.049 A 
ATOM     68  H   UNL     1     -10.253  -4.602   0.161  1.00  0.00     0.167 HD
ATOM     69  C   UNL     1     -12.204  -3.300  -1.569  1.00  0.00     0.074 A 
ATOM     70  C   UNL     1     -12.829  -2.499  -2.609  1.00  0.00     0.031 C 
ATOM     71  C   UNL     1     -12.883  -3.995  -0.626  1.00  0.00     0.037 A 
BRANCH  58  72
ATOM     72  C   UNL     1      -9.444  -6.978   3.613  1.00  0.00     0.057 A 
ATOM     73  C   UNL     1      -8.932  -6.534   4.841  1.00  0.00     0.134 A 
ATOM     74  C   UNL     1      -9.777  -8.336   3.514  1.00  0.00     0.134 A 
ATOM     75  F   UNL     1      -8.558  -5.255   4.999  1.00  0.00    -0.206 F 
ATOM     76  C   UNL     1      -8.699  -7.415   5.900  1.00  0.00     0.040 A 
ATOM     77  C   UNL     1      -9.588  -9.218   4.580  1.00  0.00     0.040 A 
ATOM     78  F   UNL     1     -10.267  -8.837   2.370  1.00  0.00    -0.206 F 
ATOM     79  C   UNL     1      -9.031  -8.761   5.772  1.00  0.00     0.006 A 
ENDBRANCH  58  72
BRANCH  59  80
ATOM     80  C   UNL     1      -9.370  -1.198  -4.729  1.00  0.00     0.057 A 
ATOM     81  C   UNL     1      -9.849   0.117  -4.724  1.00  0.00     0.134 A 
ATOM     82  C   UNL     1      -8.771  -1.643  -5.920  1.00  0.00     0.134 A 
ATOM     83  F   UNL     1     -10.461   0.607  -3.637  1.00  0.00    -0.206 F 
ATOM     84  C   UNL     1      -9.735   0.952  -5.840  1.00  0.00     0.040 A 
ATOM     85  C   UNL     1      -8.623  -0.811  -7.034  1.00  0.00     0.040 A 
ATOM     86  F   UNL     1      -8.276  -2.887  -6.007  1.00  0.00    -0.206 F 
ATOM     87  C   UNL     1      -9.111   0.491  -6.997  1.00  0.00     0.006 A 
ENDBRANCH  59  80
BRANCH  71  88
ATOM     88  C   UNL     1     -14.368  -3.882  -0.692  1.00  0.00     0.057 A 
ATOM     89  C   UNL     1     -15.104  -4.512  -1.702  1.00  0.00     0.134 A 
ATOM     90  C   UNL     1     -15.061  -3.147   0.274  1.00  0.00     0.134 A 
ATOM     91  F   UNL     1     -14.481  -5.208  -2.666  1.00  0.00    -0.206 F 
ATOM     92  C   UNL     1     -16.488  -4.391  -1.763  1.00  0.00     0.040 A 
ATOM     93  C   UNL     1     -16.448  -3.047   0.242  1.00  0.00     0.040 A 
ATOM     94  F   UNL     1     -14.401  -2.526   1.263  1.00  0.00    -0.206 F 
ATOM     95  C   UNL     1     -17.164  -3.664  -0.784  1.00  0.00     0.006 A 
ENDBRANCH  71  88
ENDBRANCH  45  46
ENDBRANCH  38  40
ENDBRANCH  37  38
ENDBRANCH  36  37
ENDBRANCH  35  36
ENDBRANCH  34  35
ENDBRANCH  33  34
ENDBRANCH   1  33
TORSDOF 20
