REMARK SMILES O=C(OCCOCCOCCOC(=O)[C@@H]1CCCN(c2cnnc(O)c2Cl)C1)c1ccc(-c2c3nc(c(-c4c(F)cccc4F)c4ccc([nH]4)c(-c4c(F)cccc4F)c4nc(c(-c5c(F)cccc5F)c5ccc2[nH]5)C=C4)C=C3)cc1
REMARK SMILES IDX 7 1 6 2 5 3 4 4 3 5 2 6 1 7 29 8 30 9 82 10 31 11 81 12
REMARK SMILES IDX 32 13 33 14 34 15 75 16 35 17 80 18 74 19 76 20 36 21 79 22
REMARK SMILES IDX 73 23 72 24 37 26 63 27 46 28 62 29 47 30 50 31 61 32 77 33
REMARK SMILES IDX 48 34 49 35 60 37 78 38 51 39 38 40 39 41 44 42 40 43 41 44
REMARK SMILES IDX 43 45 45 46 42 47 64 48 65 49 70 50 66 51 67 52 69 53 71 54
REMARK SMILES IDX 68 55 52 56 53 57 58 58 54 59 55 60 57 61 59 62 56 63 8 64
REMARK SMILES IDX 9 65 10 66 11 67 12 68 13 69 14 70 15 71 16 72 28 73 17 74
REMARK SMILES IDX 19 75 18 76 20 77 21 78 26 79 22 80 24 81 27 82 23 83 25 84
REMARK H PARENT 76 25 50 36 25 85
REMARK Flexibility Score: inf
ROOT
ATOM      1  C   UNL     1       2.652   0.758  -1.559  1.00  0.00     0.188 C 
ENDROOT
BRANCH   1   2
ATOM      2  O   UNL     1       4.045   0.629  -1.286  1.00  0.00    -0.376 OA
BRANCH   2   3
ATOM      3  C   UNL     1       4.533  -0.711  -1.431  1.00  0.00     0.202 C 
BRANCH   3   4
ATOM      4  C   UNL     1       4.474  -1.544  -0.145  1.00  0.00     0.261 C 
BRANCH   4   5
ATOM      5  O   UNL     1       3.153  -1.598   0.421  1.00  0.00    -0.460 OA
BRANCH   5   6
ATOM      6  C   UNL     1       2.607  -0.880   1.429  1.00  0.00     0.338 C 
ATOM      7  O   UNL     1       1.563  -1.301   1.927  1.00  0.00    -0.246 OA
BRANCH   6   8
ATOM      8  C   UNL     1       3.120   0.443   1.931  1.00  0.00     0.060 A 
ATOM      9  C   UNL     1       4.308   1.068   1.554  1.00  0.00     0.016 A 
ATOM     10  C   UNL     1       2.312   1.119   2.874  1.00  0.00     0.016 A 
ATOM     11  C   UNL     1       4.680   2.303   2.083  1.00  0.00     0.010 A 
ATOM     12  C   UNL     1       2.695   2.344   3.440  1.00  0.00     0.010 A 
ATOM     13  C   UNL     1       3.901   2.927   3.060  1.00  0.00    -0.014 A 
BRANCH  13  14
ATOM     14  C   UNL     1       4.555   4.007   3.830  1.00  0.00     0.031 A 
ATOM     15  C   UNL     1       5.664   3.588   4.751  1.00  0.00     0.074 A 
ATOM     16  C   UNL     1       4.296   5.304   3.601  1.00  0.00     0.049 A 
ATOM     17  N   UNL     1       6.595   4.306   5.317  1.00  0.00    -0.248 NA
ATOM     18  C   UNL     1       5.742   2.146   5.042  1.00  0.00     0.031 C 
ATOM     19  C   UNL     1       3.254   5.811   2.719  1.00  0.00     0.029 A 
ATOM     20  N   UNL     1       4.941   6.432   4.042  1.00  0.00    -0.354 N 
ATOM     21  C   UNL     1       7.389   3.396   6.004  1.00  0.00     0.074 A 
ATOM     22  C   UNL     1       6.833   2.080   5.783  1.00  0.00     0.031 C 
ATOM     23  C   UNL     1       3.402   7.141   2.584  1.00  0.00     0.029 A 
ATOM     24  C   UNL     1       4.512   7.585   3.422  1.00  0.00     0.049 A 
ATOM     25  H   UNL     1       5.642   6.419   4.733  1.00  0.00     0.167 HD
ATOM     26  C   UNL     1       8.469   3.638   6.782  1.00  0.00     0.037 A 
ATOM     27  C   UNL     1       4.991   8.841   3.517  1.00  0.00     0.037 A 
ATOM     28  C   UNL     1       8.922   4.960   7.109  1.00  0.00     0.049 A 
ATOM     29  C   UNL     1       6.126   9.094   4.479  1.00  0.00     0.074 A 
ATOM     30  C   UNL     1       9.898   5.348   8.007  1.00  0.00     0.029 A 
ATOM     31  N   UNL     1       8.386   6.121   6.568  1.00  0.00    -0.354 N 
ATOM     32  N   UNL     1       6.872   8.236   5.134  1.00  0.00    -0.248 NA
ATOM     33  C   UNL     1       6.458  10.501   4.742  1.00  0.00     0.031 C 
ATOM     34  C   UNL     1       9.910   6.748   8.051  1.00  0.00     0.029 A 
ATOM     35  C   UNL     1       8.993   7.229   7.129  1.00  0.00     0.049 A 
ATOM     36  H   UNL     1       7.677   6.150   5.885  1.00  0.00     0.167 HD
ATOM     37  C   UNL     1       7.760   8.997   5.885  1.00  0.00     0.074 A 
ATOM     38  C   UNL     1       7.493  10.384   5.560  1.00  0.00     0.031 C 
ATOM     39  C   UNL     1       8.699   8.597   6.780  1.00  0.00     0.037 A 
BRANCH  26  40
ATOM     40  C   UNL     1       9.105   2.436   7.412  1.00  0.00     0.057 A 
ATOM     41  C   UNL     1       8.887   2.147   8.765  1.00  0.00     0.134 A 
ATOM     42  C   UNL     1       9.821   1.496   6.657  1.00  0.00     0.134 A 
ATOM     43  F   UNL     1       8.196   2.996   9.539  1.00  0.00    -0.206 F 
ATOM     44  C   UNL     1       9.339   0.959   9.338  1.00  0.00     0.040 A 
ATOM     45  C   UNL     1      10.255   0.291   7.214  1.00  0.00     0.040 A 
ATOM     46  F   UNL     1      10.027   1.692   5.346  1.00  0.00    -0.206 F 
ATOM     47  C   UNL     1      10.011   0.019   8.559  1.00  0.00     0.006 A 
ENDBRANCH  26  40
BRANCH  27  48
ATOM     48  C   UNL     1       4.436   9.961   2.703  1.00  0.00     0.057 A 
ATOM     49  C   UNL     1       3.108  10.386   2.829  1.00  0.00     0.134 A 
ATOM     50  C   UNL     1       5.252  10.693   1.827  1.00  0.00     0.134 A 
ATOM     51  F   UNL     1       2.267   9.749   3.658  1.00  0.00    -0.206 F 
ATOM     52  C   UNL     1       2.612  11.480   2.115  1.00  0.00     0.040 A 
ATOM     53  C   UNL     1       4.779  11.807   1.129  1.00  0.00     0.040 A 
ATOM     54  F   UNL     1       6.547  10.373   1.682  1.00  0.00    -0.206 F 
ATOM     55  C   UNL     1       3.452  12.202   1.270  1.00  0.00     0.006 A 
ENDBRANCH  27  48
BRANCH  39  56
ATOM     56  C   UNL     1       9.512   9.674   7.439  1.00  0.00     0.057 A 
ATOM     57  C   UNL     1      10.876   9.809   7.149  1.00  0.00     0.134 A 
ATOM     58  C   UNL     1       8.958  10.560   8.372  1.00  0.00     0.134 A 
ATOM     59  F   UNL     1      11.471   8.985   6.273  1.00  0.00    -0.206 F 
ATOM     60  C   UNL     1      11.658  10.789   7.759  1.00  0.00     0.040 A 
ATOM     61  C   UNL     1       9.723  11.567   8.963  1.00  0.00     0.040 A 
ATOM     62  F   UNL     1       7.656  10.491   8.687  1.00  0.00    -0.206 F 
ATOM     63  C   UNL     1      11.079  11.679   8.661  1.00  0.00     0.006 A 
ENDBRANCH  39  56
ENDBRANCH  13  14
ENDBRANCH   6   8
ENDBRANCH   5   6
ENDBRANCH   4   5
ENDBRANCH   3   4
ENDBRANCH   2   3
ENDBRANCH   1   2
BRANCH   1  64
ATOM     64  C   UNL     1       2.269   1.014  -3.023  1.00  0.00     0.188 C 
BRANCH  64  65
ATOM     65  O   UNL     1       3.172   0.593  -4.036  1.00  0.00    -0.376 OA
BRANCH  65  66
ATOM     66  C   UNL     1       4.425   1.271  -4.153  1.00  0.00     0.202 C 
BRANCH  66  67
ATOM     67  C   UNL     1       4.392   2.790  -4.310  1.00  0.00     0.261 C 
BRANCH  67  68
ATOM     68  O   UNL     1       3.984   3.420  -3.084  1.00  0.00    -0.463 OA
BRANCH  68  69
ATOM     69  C   UNL     1       2.990   4.340  -3.171  1.00  0.00     0.310 C 
ATOM     70  O   UNL     1       2.390   4.618  -4.199  1.00  0.00    -0.252 OA
BRANCH  69  71
ATOM     71  C   UNL     1       2.623   4.929  -1.819  1.00  0.00     0.118 C 
ATOM     72  C   UNL     1       2.310   6.419  -1.973  1.00  0.00     0.019 C 
ATOM     73  C   UNL     1       3.686   4.734  -0.742  1.00  0.00     0.132 C 
ATOM     74  C   UNL     1       3.584   7.199  -2.288  1.00  0.00     0.022 C 
ATOM     75  N   UNL     1       4.889   5.549  -0.992  1.00  0.00    -0.368 N 
ATOM     76  C   UNL     1       4.664   6.980  -1.227  1.00  0.00     0.116 C 
BRANCH  75  77
ATOM     77  C   UNL     1       6.114   5.045  -0.534  1.00  0.00     0.082 A 
ATOM     78  C   UNL     1       6.466   3.721  -0.835  1.00  0.00     0.163 A 
ATOM     79  C   UNL     1       7.097   5.722   0.205  1.00  0.00     0.129 A 
ATOM     80  N   UNL     1       7.612   3.093  -0.473  1.00  0.00    -0.153 NA
ATOM     81  C   UNL     1       8.272   5.052   0.562  1.00  0.00     0.252 A 
ATOM     82  Cl  UNL     1       6.943   7.351   0.772  1.00  0.00    -0.076 Cl
ATOM     83  N   UNL     1       8.529   3.773   0.231  1.00  0.00    -0.111 NA
BRANCH  81  84
ATOM     84  O   UNL     1       9.261   5.663   1.289  1.00  0.00    -0.491 OA
ATOM     85  H   UNL     1      10.038   5.189   1.514  1.00  0.00     0.295 HD
ENDBRANCH  81  84
ENDBRANCH  75  77
ENDBRANCH  69  71
ENDBRANCH  68  69
ENDBRANCH  67  68
ENDBRANCH  66  67
ENDBRANCH  65  66
ENDBRANCH  64  65
ENDBRANCH   1  64
TORSDOF 19
