REMARK SMILES O=C(OCCOCCOCCOC(=O)c1ccc(-c2c3nc(c(-c4c(F)cccc4F)c4ccc([nH]4)c(-c4c(F)cccc4F)c4nc(c(-c5c(F)cccc5F)c5ccc2[nH]5)C=C4)C=C3)cc1)c1ccc(/C=C/c2ccnc(-c3cccc([N+](=O)[O-])c3)[n+]2[O-])cc1
REMARK SMILES IDX 7 1 6 2 5 3 4 4 3 5 2 6 1 7 69 8 70 9 92 10 71 11 91 12
REMARK SMILES IDX 72 13 73 14 74 15 75 16 76 17 89 18 77 19 79 20 90 21 78 22
REMARK SMILES IDX 80 23 81 24 88 25 82 26 84 27 83 28 85 29 86 30 87 31 8 32
REMARK SMILES IDX 9 33 10 34 11 35 12 36 13 37 14 38 15 39 16 40 68 41 17 42
REMARK SMILES IDX 67 43 18 44 19 45 20 46 61 47 21 48 66 49 60 50 62 51 22 52
REMARK SMILES IDX 65 53 59 54 58 55 23 57 49 58 32 59 48 60 33 61 36 62 47 63
REMARK SMILES IDX 63 64 34 65 35 66 46 68 64 69 37 70 24 71 25 72 30 73 26 74
REMARK SMILES IDX 27 75 29 76 31 77 28 78 50 79 51 80 56 81 52 82 53 83 55 84
REMARK SMILES IDX 57 85 54 86 38 87 39 88 44 89 40 90 41 91 43 92 45 93 42 94
REMARK H PARENT 62 56 36 67
REMARK Flexibility Score: inf
ROOT
ATOM      1  C   UNL     1       2.620   1.427   1.669  1.00  0.00     0.188 C 
ENDROOT
BRANCH   1   2
ATOM      2  O   UNL     1       3.867   0.766   1.405  1.00  0.00    -0.376 OA
BRANCH   2   3
ATOM      3  C   UNL     1       4.655   1.405   0.400  1.00  0.00     0.202 C 
BRANCH   3   4
ATOM      4  C   UNL     1       4.423   0.853  -1.008  1.00  0.00     0.261 C 
BRANCH   4   5
ATOM      5  O   UNL     1       3.020   0.655  -1.265  1.00  0.00    -0.460 OA
BRANCH   5   6
ATOM      6  C   UNL     1       2.394  -0.541  -1.393  1.00  0.00     0.338 C 
ATOM      7  O   UNL     1       1.211  -0.591  -1.718  1.00  0.00    -0.246 OA
BRANCH   6   8
ATOM      8  C   UNL     1       3.129  -1.818  -1.212  1.00  0.00     0.060 A 
ATOM      9  C   UNL     1       3.911  -2.094  -0.089  1.00  0.00     0.016 A 
ATOM     10  C   UNL     1       2.954  -2.816  -2.175  1.00  0.00     0.016 A 
ATOM     11  C   UNL     1       4.596  -3.307   0.021  1.00  0.00     0.009 A 
ATOM     12  C   UNL     1       3.619  -4.040  -2.049  1.00  0.00     0.009 A 
ATOM     13  C   UNL     1       4.473  -4.290  -0.964  1.00  0.00    -0.025 A 
BRANCH  13  14
ATOM     14  C   UNL     1       5.226  -5.555  -0.941  1.00  0.00     0.012 C 
ATOM     15  C   UNL     1       6.174  -5.899  -0.054  1.00  0.00     0.053 C 
BRANCH  15  16
ATOM     16  C   UNL     1       6.992  -7.120  -0.183  1.00  0.00     0.134 A 
ATOM     17  C   UNL     1       7.242  -7.895   0.950  1.00  0.00     0.100 A 
ATOM     18  N   UNL     1       7.562  -7.474  -1.418  1.00  0.00    -0.228 N 
ATOM     19  C   UNL     1       8.020  -9.021   0.805  1.00  0.00     0.259 A 
ATOM     20  C   UNL     1       8.346  -8.629  -1.470  1.00  0.00     0.333 A 
ATOM     21  O   UNL     1       7.384  -6.754  -2.468  1.00  0.00    -0.710 OA
ATOM     22  N   UNL     1       8.561  -9.406  -0.366  1.00  0.00    -0.049 NA
BRANCH  20  23
ATOM     23  C   UNL     1       8.952  -9.047  -2.735  1.00  0.00     0.076 A 
ATOM     24  C   UNL     1       8.600 -10.273  -3.325  1.00  0.00     0.017 A 
ATOM     25  C   UNL     1       9.861  -8.214  -3.412  1.00  0.00     0.102 A 
ATOM     26  C   UNL     1       9.107 -10.645  -4.573  1.00  0.00     0.008 A 
ATOM     27  C   UNL     1      10.372  -8.593  -4.660  1.00  0.00     0.270 A 
ATOM     28  C   UNL     1       9.991  -9.805  -5.248  1.00  0.00     0.085 A 
BRANCH  27  29
ATOM     29  N   UNL     1      11.309  -7.706  -5.359  1.00  0.00     0.062 N 
ATOM     30  O   UNL     1      11.629  -8.005  -6.519  1.00  0.00    -0.258 OA
ATOM     31  O   UNL     1      11.737  -6.718  -4.745  1.00  0.00    -0.258 OA
ENDBRANCH  27  29
ENDBRANCH  20  23
ENDBRANCH  15  16
ENDBRANCH  13  14
ENDBRANCH   6   8
ENDBRANCH   5   6
ENDBRANCH   4   5
ENDBRANCH   3   4
ENDBRANCH   2   3
ENDBRANCH   1   2
BRANCH   1  32
ATOM     32  C   UNL     1       2.108   1.037   3.059  1.00  0.00     0.188 C 
BRANCH  32  33
ATOM     33  O   UNL     1       2.781   1.690   4.141  1.00  0.00    -0.376 OA
BRANCH  33  34
ATOM     34  C   UNL     1       4.173   1.421   4.287  1.00  0.00     0.202 C 
BRANCH  34  35
ATOM     35  C   UNL     1       4.520   0.099   4.978  1.00  0.00     0.261 C 
BRANCH  35  36
ATOM     36  O   UNL     1       4.045  -1.071   4.286  1.00  0.00    -0.460 OA
BRANCH  36  37
ATOM     37  C   UNL     1       3.138  -1.800   4.976  1.00  0.00     0.338 C 
ATOM     38  O   UNL     1       2.655  -1.554   6.072  1.00  0.00    -0.246 OA
BRANCH  37  39
ATOM     39  C   UNL     1       2.797  -3.037   4.260  1.00  0.00     0.060 A 
ATOM     40  C   UNL     1       1.593  -3.116   3.554  1.00  0.00     0.016 A 
ATOM     41  C   UNL     1       3.554  -4.185   4.508  1.00  0.00     0.016 A 
ATOM     42  C   UNL     1       1.112  -4.364   3.144  1.00  0.00     0.010 A 
ATOM     43  C   UNL     1       3.075  -5.429   4.090  1.00  0.00     0.010 A 
ATOM     44  C   UNL     1       1.828  -5.532   3.449  1.00  0.00    -0.014 A 
BRANCH  44  45
ATOM     45  C   UNL     1       1.226  -6.873   3.233  1.00  0.00     0.031 A 
ATOM     46  C   UNL     1       0.660  -7.632   4.405  1.00  0.00     0.074 A 
ATOM     47  C   UNL     1       1.198  -7.426   2.008  1.00  0.00     0.049 A 
ATOM     48  N   UNL     1       0.184  -8.851   4.454  1.00  0.00    -0.248 NA
ATOM     49  C   UNL     1       0.636  -6.925   5.696  1.00  0.00     0.031 C 
ATOM     50  C   UNL     1       1.681  -6.794   0.783  1.00  0.00     0.029 A 
ATOM     51  N   UNL     1       0.750  -8.658   1.601  1.00  0.00    -0.354 N 
ATOM     52  C   UNL     1      -0.185  -9.062   5.777  1.00  0.00     0.074 A 
ATOM     53  C   UNL     1       0.144  -7.854   6.504  1.00  0.00     0.031 C 
ATOM     54  C   UNL     1       1.513  -7.648  -0.241  1.00  0.00     0.029 A 
ATOM     55  C   UNL     1       0.939  -8.895   0.262  1.00  0.00     0.049 A 
ATOM     56  H   UNL     1       0.333  -9.309   2.210  1.00  0.00     0.167 HD
ATOM     57  C   UNL     1      -0.754 -10.157   6.337  1.00  0.00     0.037 A 
ATOM     58  C   UNL     1       0.695  -9.999  -0.470  1.00  0.00     0.037 A 
ATOM     59  C   UNL     1      -1.104 -11.355   5.622  1.00  0.00     0.049 A 
ATOM     60  C   UNL     1       0.106 -11.221   0.182  1.00  0.00     0.074 A 
ATOM     61  C   UNL     1      -1.711 -12.503   6.105  1.00  0.00     0.029 A 
ATOM     62  N   UNL     1      -0.883 -11.560   4.270  1.00  0.00    -0.354 N 
ATOM     63  N   UNL     1      -0.243 -11.405   1.432  1.00  0.00    -0.248 NA
ATOM     64  C   UNL     1      -0.117 -12.392  -0.680  1.00  0.00     0.031 C 
ATOM     65  C   UNL     1      -1.824 -13.416   5.051  1.00  0.00     0.029 A 
ATOM     66  C   UNL     1      -1.319 -12.823   3.905  1.00  0.00     0.049 A 
ATOM     67  H   UNL     1      -0.475 -10.905   3.658  1.00  0.00     0.167 HD
ATOM     68  C   UNL     1      -0.747 -12.698   1.501  1.00  0.00     0.074 A 
ATOM     69  C   UNL     1      -0.665 -13.253   0.167  1.00  0.00     0.031 C 
ATOM     70  C   UNL     1      -1.235 -13.365   2.575  1.00  0.00     0.037 A 
BRANCH  57  71
ATOM     71  C   UNL     1      -1.023 -10.117   7.812  1.00  0.00     0.057 A 
ATOM     72  C   UNL     1      -2.091  -9.386   8.346  1.00  0.00     0.134 A 
ATOM     73  C   UNL     1      -0.231 -10.855   8.701  1.00  0.00     0.134 A 
ATOM     74  F   UNL     1      -2.878  -8.652   7.547  1.00  0.00    -0.206 F 
ATOM     75  C   UNL     1      -2.352  -9.378   9.717  1.00  0.00     0.040 A 
ATOM     76  C   UNL     1      -0.495 -10.870  10.071  1.00  0.00     0.040 A 
ATOM     77  F   UNL     1       0.804 -11.580   8.250  1.00  0.00    -0.206 F 
ATOM     78  C   UNL     1      -1.556 -10.126  10.583  1.00  0.00     0.006 A 
ENDBRANCH  57  71
BRANCH  58  79
ATOM     79  C   UNL     1       1.019 -10.007  -1.917  1.00  0.00     0.057 A 
ATOM     80  C   UNL     1       0.007  -9.985  -2.882  1.00  0.00     0.134 A 
ATOM     81  C   UNL     1       2.344 -10.050  -2.366  1.00  0.00     0.134 A 
ATOM     82  F   UNL     1      -1.281  -9.969  -2.508  1.00  0.00    -0.206 F 
ATOM     83  C   UNL     1       0.299 -10.019  -4.245  1.00  0.00     0.040 A 
ATOM     84  C   UNL     1       2.652 -10.063  -3.726  1.00  0.00     0.040 A 
ATOM     85  F   UNL     1       3.358 -10.072  -1.487  1.00  0.00    -0.206 F 
ATOM     86  C   UNL     1       1.627 -10.054  -4.670  1.00  0.00     0.006 A 
ENDBRANCH  58  79
BRANCH  70  87
ATOM     87  C   UNL     1      -1.738 -14.760   2.350  1.00  0.00     0.057 A 
ATOM     88  C   UNL     1      -0.863 -15.839   2.180  1.00  0.00     0.134 A 
ATOM     89  C   UNL     1      -3.112 -15.032   2.345  1.00  0.00     0.134 A 
ATOM     90  F   UNL     1       0.464 -15.641   2.164  1.00  0.00    -0.206 F 
ATOM     91  C   UNL     1      -1.337 -17.139   1.996  1.00  0.00     0.040 A 
ATOM     92  C   UNL     1      -3.598 -16.330   2.181  1.00  0.00     0.040 A 
ATOM     93  F   UNL     1      -4.003 -14.043   2.510  1.00  0.00    -0.206 F 
ATOM     94  C   UNL     1      -2.708 -17.388   2.002  1.00  0.00     0.006 A 
ENDBRANCH  70  87
ENDBRANCH  44  45
ENDBRANCH  37  39
ENDBRANCH  36  37
ENDBRANCH  35  36
ENDBRANCH  34  35
ENDBRANCH  33  34
ENDBRANCH  32  33
ENDBRANCH   1  32
TORSDOF 21
