REMARK SMILES COc1ccc(CCC(=O)Nc2ccc(N3CCCC3)cc2C(=O)OCCOCCOCCOC(=O)c2ccc(-c3c4nc(c(-c5c(F)cccc5F)c5ccc([nH]5)c(-c5c(F)cccc5F)c5nc(c(-c6c(F)cccc6F)c6ccc3[nH]6)C=C5)C=C4)cc2)cc1
REMARK SMILES IDX 28 1 27 2 26 3 25 4 23 5 24 6 22 7 12 8 13 9 14 10 21 11
REMARK SMILES IDX 15 12 11 13 9 14 10 15 8 17 7 18 6 19 3 20 4 21 92 22 5 23
REMARK SMILES IDX 91 24 2 25 1 26 16 27 17 28 20 29 18 30 19 31 29 32 30 33
REMARK SMILES IDX 31 34 32 35 33 36 34 37 35 38 36 39 37 40 38 41 90 42 39 43
REMARK SMILES IDX 89 44 40 45 41 46 42 47 83 48 43 49 88 50 82 51 84 52 44 53
REMARK SMILES IDX 87 54 81 55 80 56 45 58 71 59 54 60 70 61 55 62 58 63 69 64
REMARK SMILES IDX 85 65 56 66 57 67 68 69 86 70 59 71 46 72 47 73 52 74 48 75
REMARK SMILES IDX 49 76 51 77 53 78 50 79 72 80 73 81 78 82 74 83 75 84 77 85
REMARK SMILES IDX 79 86 76 87 60 88 61 89 66 90 62 91 63 92 65 93 67 94 64 95
REMARK H PARENT 11 16 84 57 58 68
REMARK Flexibility Score: inf
ROOT
ATOM      1  O   UNL     1       0.039   7.624   2.121  1.00  0.00    -0.376 OA
ENDROOT
BRANCH   1   2
ATOM      2  C   UNL     1       0.537   8.164   0.905  1.00  0.00     0.202 C 
BRANCH   2   3
ATOM      3  C   UNL     1      -0.278   7.891  -0.411  1.00  0.00     0.261 C 
BRANCH   3   4
ATOM      4  O   UNL     1      -0.316   6.561  -1.086  1.00  0.00    -0.460 OA
BRANCH   4   5
ATOM      5  C   UNL     1       0.903   6.006  -1.342  1.00  0.00     0.340 C 
ATOM      6  O   UNL     1       1.854   6.603  -0.864  1.00  0.00    -0.246 OA
BRANCH   5   7
ATOM      7  C   UNL     1       0.968   4.632  -2.270  1.00  0.00     0.085 A 
ATOM      8  C   UNL     1       0.541   4.923  -3.508  1.00  0.00     0.055 A 
ATOM      9  C   UNL     1       0.135   3.889  -4.372  1.00  0.00     0.029 A 
ATOM     10  C   UNL     1       0.673   2.591  -4.208  1.00  0.00     0.028 A 
ATOM     11  C   UNL     1       1.823   3.470  -2.391  1.00  0.00     0.043 A 
ATOM     12  C   UNL     1       1.699   2.401  -3.308  1.00  0.00     0.038 A 
BRANCH   8  13
ATOM     13  N   UNL     1       1.122   6.110  -3.988  1.00  0.00    -0.325 N 
ATOM     14  C   UNL     1       2.263   6.738  -3.439  1.00  0.00     0.224 C 
ATOM     15  O   UNL     1       2.416   7.921  -3.785  1.00  0.00    -0.275 OA
ATOM     16  H   UNL     1       0.701   6.538  -4.769  1.00  0.00     0.169 HD
BRANCH  14  17
ATOM     17  C   UNL     1       3.489   5.976  -2.474  1.00  0.00     0.105 C 
BRANCH  17  18
ATOM     18  C   UNL     1       3.785   5.237  -0.860  1.00  0.00     0.045 C 
BRANCH  18  19
ATOM     19  C   UNL     1       3.094   4.085   0.089  1.00  0.00    -0.047 A 
ATOM     20  C   UNL     1       1.634   1.652   0.724  1.00  0.00     0.118 A 
ATOM     21  C   UNL     1       0.991   2.850   0.617  1.00  0.00     0.046 A 
ATOM     22  C   UNL     1       3.030   1.696   0.777  1.00  0.00     0.046 A 
ATOM     23  C   UNL     1       1.735   4.026   0.433  1.00  0.00     0.007 A 
ATOM     24  C   UNL     1       3.756   2.901   0.447  1.00  0.00     0.007 A 
BRANCH  20  25
ATOM     25  O   UNL     1       0.860   0.590   0.337  1.00  0.00    -0.497 OA
ATOM     26  C   UNL     1       0.620  -0.536   1.155  1.00  0.00     0.278 C 
ENDBRANCH  20  25
ENDBRANCH  18  19
ENDBRANCH  17  18
ENDBRANCH  14  17
ENDBRANCH   8  13
BRANCH  12  27
ATOM     27  N   UNL     1       2.524   1.285  -3.324  1.00  0.00    -0.372 N 
ATOM     28  C   UNL     1       2.507   0.302  -2.245  1.00  0.00     0.116 C 
ATOM     29  C   UNL     1       3.806   1.170  -4.037  1.00  0.00     0.116 C 
ATOM     30  C   UNL     1       3.961  -0.088  -1.999  1.00  0.00     0.023 C 
ATOM     31  C   UNL     1       4.522  -0.048  -3.400  1.00  0.00     0.023 C 
ENDBRANCH  12  27
ENDBRANCH   5   7
ENDBRANCH   4   5
ENDBRANCH   3   4
ENDBRANCH   2   3
ENDBRANCH   1   2
BRANCH   1  32
ATOM     32  C   UNL     1       0.101   6.218   2.226  1.00  0.00     0.188 C 
BRANCH  32  33
ATOM     33  C   UNL     1      -1.148   5.517   1.655  1.00  0.00     0.188 C 
BRANCH  33  34
ATOM     34  O   UNL     1      -2.383   6.223   1.708  1.00  0.00    -0.376 OA
BRANCH  34  35
ATOM     35  C   UNL     1      -2.628   7.010   2.863  1.00  0.00     0.202 C 
BRANCH  35  36
ATOM     36  C   UNL     1      -2.706   6.271   4.209  1.00  0.00     0.261 C 
BRANCH  36  37
ATOM     37  O   UNL     1      -1.608   5.380   4.516  1.00  0.00    -0.460 OA
BRANCH  37  38
ATOM     38  C   UNL     1      -1.922   4.057   4.599  1.00  0.00     0.338 C 
ATOM     39  O   UNL     1      -3.013   3.558   4.440  1.00  0.00    -0.246 OA
BRANCH  38  40
ATOM     40  C   UNL     1      -0.706   3.217   4.770  1.00  0.00     0.060 A 
ATOM     41  C   UNL     1      -0.308   2.440   3.690  1.00  0.00     0.016 A 
ATOM     42  C   UNL     1      -0.080   3.022   6.005  1.00  0.00     0.016 A 
ATOM     43  C   UNL     1       0.714   1.502   3.845  1.00  0.00     0.010 A 
ATOM     44  C   UNL     1       0.922   2.029   6.153  1.00  0.00     0.010 A 
ATOM     45  C   UNL     1       1.323   1.242   5.066  1.00  0.00    -0.014 A 
BRANCH  45  46
ATOM     46  C   UNL     1       2.181   0.017   5.166  1.00  0.00     0.031 A 
ATOM     47  C   UNL     1       1.574  -1.253   5.707  1.00  0.00     0.074 A 
ATOM     48  C   UNL     1       3.423  -0.054   4.643  1.00  0.00     0.049 A 
ATOM     49  N   UNL     1       2.142  -2.401   5.980  1.00  0.00    -0.248 NA
ATOM     50  C   UNL     1       0.125  -1.225   5.955  1.00  0.00     0.031 C 
ATOM     51  C   UNL     1       4.104   1.021   3.929  1.00  0.00     0.029 A 
ATOM     52  N   UNL     1       4.335  -1.090   4.627  1.00  0.00    -0.354 N 
ATOM     53  C   UNL     1       1.135  -3.211   6.492  1.00  0.00     0.074 A 
ATOM     54  C   UNL     1      -0.084  -2.429   6.464  1.00  0.00     0.031 C 
ATOM     55  C   UNL     1       5.325   0.597   3.555  1.00  0.00     0.029 A 
ATOM     56  C   UNL     1       5.547  -0.754   4.068  1.00  0.00     0.049 A 
ATOM     57  H   UNL     1       4.136  -1.987   4.982  1.00  0.00     0.167 HD
ATOM     58  C   UNL     1       1.218  -4.479   6.963  1.00  0.00     0.037 A 
ATOM     59  C   UNL     1       6.719  -1.426   4.025  1.00  0.00     0.037 A 
ATOM     60  C   UNL     1       2.422  -5.272   6.978  1.00  0.00     0.049 A 
ATOM     61  C   UNL     1       6.826  -2.789   4.667  1.00  0.00     0.074 A 
ATOM     62  C   UNL     1       2.600  -6.558   7.459  1.00  0.00     0.029 A 
ATOM     63  N   UNL     1       3.651  -4.856   6.493  1.00  0.00    -0.354 N 
ATOM     64  N   UNL     1       5.891  -3.519   5.225  1.00  0.00    -0.248 NA
ATOM     65  C   UNL     1       8.160  -3.413   4.692  1.00  0.00     0.031 C 
ATOM     66  C   UNL     1       3.950  -6.897   7.322  1.00  0.00     0.029 A 
ATOM     67  C   UNL     1       4.599  -5.849   6.692  1.00  0.00     0.049 A 
ATOM     68  H   UNL     1       3.826  -3.985   6.069  1.00  0.00     0.167 HD
ATOM     69  C   UNL     1       6.517  -4.688   5.649  1.00  0.00     0.074 A 
ATOM     70  C   UNL     1       7.907  -4.582   5.263  1.00  0.00     0.031 C 
ATOM     71  C   UNL     1       5.984  -5.750   6.303  1.00  0.00     0.037 A 
BRANCH  58  72
ATOM     72  C   UNL     1      -0.017  -5.061   7.589  1.00  0.00     0.057 A 
ATOM     73  C   UNL     1      -1.136  -5.443   6.839  1.00  0.00     0.134 A 
ATOM     74  C   UNL     1      -0.075  -5.251   8.977  1.00  0.00     0.134 A 
ATOM     75  F   UNL     1      -1.153  -5.272   5.508  1.00  0.00    -0.206 F 
ATOM     76  C   UNL     1      -2.279  -5.964   7.450  1.00  0.00     0.040 A 
ATOM     77  C   UNL     1      -1.198  -5.800   9.595  1.00  0.00     0.040 A 
ATOM     78  F   UNL     1       0.965  -4.913   9.754  1.00  0.00    -0.206 F 
ATOM     79  C   UNL     1      -2.309  -6.149   8.831  1.00  0.00     0.006 A 
ENDBRANCH  58  72
BRANCH  59  80
ATOM     80  C   UNL     1       7.932  -0.792   3.433  1.00  0.00     0.057 A 
ATOM     81  C   UNL     1       8.567  -1.327   2.306  1.00  0.00     0.134 A 
ATOM     82  C   UNL     1       8.521   0.335   4.023  1.00  0.00     0.134 A 
ATOM     83  F   UNL     1       8.081  -2.429   1.716  1.00  0.00    -0.206 F 
ATOM     84  C   UNL     1       9.745  -0.774   1.795  1.00  0.00     0.040 A 
ATOM     85  C   UNL     1       9.678   0.917   3.504  1.00  0.00     0.040 A 
ATOM     86  F   UNL     1       7.978   0.888   5.118  1.00  0.00    -0.206 F 
ATOM     87  C   UNL     1      10.299   0.357   2.391  1.00  0.00     0.006 A 
ENDBRANCH  59  80
BRANCH  71  88
ATOM     88  C   UNL     1       6.892  -6.910   6.610  1.00  0.00     0.057 A 
ATOM     89  C   UNL     1       7.909  -6.829   7.570  1.00  0.00     0.134 A 
ATOM     90  C   UNL     1       6.719  -8.141   5.961  1.00  0.00     0.134 A 
ATOM     91  F   UNL     1       8.138  -5.680   8.223  1.00  0.00    -0.206 F 
ATOM     92  C   UNL     1       8.737  -7.919   7.853  1.00  0.00     0.040 A 
ATOM     93  C   UNL     1       7.520  -9.246   6.257  1.00  0.00     0.040 A 
ATOM     94  F   UNL     1       5.758  -8.296   5.038  1.00  0.00    -0.206 F 
ATOM     95  C   UNL     1       8.539  -9.134   7.200  1.00  0.00     0.006 A 
ENDBRANCH  71  88
ENDBRANCH  45  46
ENDBRANCH  38  40
ENDBRANCH  37  38
ENDBRANCH  36  37
ENDBRANCH  35  36
ENDBRANCH  34  35
ENDBRANCH  33  34
ENDBRANCH  32  33
ENDBRANCH   1  32
TORSDOF 23
