REMARK SMILES O=C(C[C@H](C(=O)OCCOCCOCCOC(=O)c1ccc(-c2c3nc(c(-c4c(F)cccc4F)c4ccc([nH]4)c(-c4c(F)cccc4F)c4nc(c(-c5c(F)cccc5F)c5ccc2[nH]5)C=C4)C=C3)cc1)c1ccccc1)Nc1ccc(Cl)cc1Cl
REMARK SMILES IDX 11 1 10 2 9 3 8 4 7 5 5 6 6 7 4 8 3 9 2 10 1 11 79 12 80 14
REMARK SMILES IDX 81 15 86 16 82 17 85 18 87 19 83 20 84 21 73 22 74 23 78 24
REMARK SMILES IDX 75 25 77 26 76 27 12 28 13 29 14 30 15 31 16 32 17 33 18 34
REMARK SMILES IDX 19 35 20 36 72 37 21 38 71 39 22 40 23 41 24 42 65 43 25 44
REMARK SMILES IDX 70 45 64 46 66 47 26 48 69 49 63 50 62 51 27 53 53 54 36 55
REMARK SMILES IDX 52 56 37 57 40 58 51 59 67 60 38 61 39 62 50 64 68 65 41 66
REMARK SMILES IDX 28 67 29 68 34 69 30 70 31 71 33 72 35 73 32 74 54 75 55 76
REMARK SMILES IDX 60 77 56 78 57 79 59 80 61 81 58 82 42 83 43 84 48 85 44 86
REMARK SMILES IDX 45 87 47 88 49 89 46 90
REMARK H PARENT 79 13 66 52 40 63
REMARK Flexibility Score: inf
ROOT
ATOM      1  C   UNL     1       3.343  -0.160   1.823  1.00  0.00     0.188 C 
ENDROOT
BRANCH   1   2
ATOM      2  O   UNL     1       2.063  -0.404   2.398  1.00  0.00    -0.376 OA
BRANCH   2   3
ATOM      3  C   UNL     1       1.496  -1.703   2.297  1.00  0.00     0.202 C 
BRANCH   3   4
ATOM      4  C   UNL     1       1.139  -2.169   0.886  1.00  0.00     0.261 C 
BRANCH   4   5
ATOM      5  O   UNL     1       2.303  -2.399   0.069  1.00  0.00    -0.463 OA
BRANCH   5   6
ATOM      6  C   UNL     1       2.392  -1.704  -1.093  1.00  0.00     0.314 C 
ATOM      7  O   UNL     1       1.553  -0.898  -1.484  1.00  0.00    -0.252 OA
BRANCH   6   8
ATOM      8  C   UNL     1       3.668  -1.984  -1.887  1.00  0.00     0.138 C 
BRANCH   8   9
ATOM      9  C   UNL     1       4.482  -0.676  -1.991  1.00  0.00     0.120 C 
BRANCH   9  10
ATOM     10  C   UNL     1       5.634  -0.596  -3.002  1.00  0.00     0.225 C 
ATOM     11  O   UNL     1       6.188   0.483  -3.181  1.00  0.00    -0.275 OA
ATOM     12  N   UNL     1       5.965  -1.780  -3.610  1.00  0.00    -0.325 N 
ATOM     13  H   UNL     1       5.198  -2.370  -3.786  1.00  0.00     0.169 HD
BRANCH  12  14
ATOM     14  C   UNL     1       7.212  -2.308  -4.030  1.00  0.00     0.060 A 
ATOM     15  C   UNL     1       7.098  -3.605  -4.579  1.00  0.00     0.029 A 
ATOM     16  C   UNL     1       8.504  -1.781  -3.861  1.00  0.00     0.066 A 
ATOM     17  C   UNL     1       8.215  -4.354  -4.947  1.00  0.00     0.023 A 
ATOM     18  C   UNL     1       9.626  -2.530  -4.263  1.00  0.00     0.043 A 
ATOM     19  Cl  UNL     1       8.889  -0.297  -3.074  1.00  0.00    -0.082 Cl
ATOM     20  C   UNL     1       9.479  -3.807  -4.793  1.00  0.00     0.042 A 
ATOM     21  Cl  UNL     1      10.864  -4.729  -5.222  1.00  0.00    -0.084 Cl
ENDBRANCH  12  14
ENDBRANCH   9  10
ENDBRANCH   8   9
BRANCH   8  22
ATOM     22  C   UNL     1       4.443  -3.243  -1.484  1.00  0.00    -0.033 A 
ATOM     23  C   UNL     1       3.892  -4.498  -1.795  1.00  0.00     0.004 A 
ATOM     24  C   UNL     1       5.733  -3.213  -0.921  1.00  0.00     0.004 A 
ATOM     25  C   UNL     1       4.620  -5.673  -1.594  1.00  0.00     0.000 A 
ATOM     26  C   UNL     1       6.465  -4.389  -0.735  1.00  0.00     0.000 A 
ATOM     27  C   UNL     1       5.911  -5.617  -1.079  1.00  0.00     0.000 A 
ENDBRANCH   8  22
ENDBRANCH   6   8
ENDBRANCH   5   6
ENDBRANCH   4   5
ENDBRANCH   3   4
ENDBRANCH   2   3
ENDBRANCH   1   2
BRANCH   1  28
ATOM     28  C   UNL     1       4.420  -1.253   1.907  1.00  0.00     0.188 C 
BRANCH  28  29
ATOM     29  O   UNL     1       4.283  -2.085   3.048  1.00  0.00    -0.376 OA
BRANCH  29  30
ATOM     30  C   UNL     1       5.435  -2.175   3.872  1.00  0.00     0.202 C 
BRANCH  30  31
ATOM     31  C   UNL     1       5.472  -1.031   4.886  1.00  0.00     0.261 C 
BRANCH  31  32
ATOM     32  O   UNL     1       5.481   0.283   4.299  1.00  0.00    -0.460 OA
BRANCH  32  33
ATOM     33  C   UNL     1       6.581   0.632   3.599  1.00  0.00     0.338 C 
ATOM     34  O   UNL     1       7.583  -0.046   3.418  1.00  0.00    -0.246 OA
BRANCH  33  35
ATOM     35  C   UNL     1       6.313   1.920   2.927  1.00  0.00     0.060 A 
ATOM     36  C   UNL     1       6.543   2.033   1.550  1.00  0.00     0.016 A 
ATOM     37  C   UNL     1       5.835   3.013   3.654  1.00  0.00     0.016 A 
ATOM     38  C   UNL     1       6.323   3.252   0.902  1.00  0.00     0.010 A 
ATOM     39  C   UNL     1       5.630   4.235   3.009  1.00  0.00     0.010 A 
ATOM     40  C   UNL     1       5.900   4.370   1.635  1.00  0.00    -0.014 A 
BRANCH  40  41
ATOM     41  C   UNL     1       5.894   5.721   1.021  1.00  0.00     0.031 A 
ATOM     42  C   UNL     1       7.077   6.622   1.249  1.00  0.00     0.074 A 
ATOM     43  C   UNL     1       4.851   6.160   0.296  1.00  0.00     0.049 A 
ATOM     44  N   UNL     1       7.258   7.867   0.890  1.00  0.00    -0.248 NA
ATOM     45  C   UNL     1       8.203   6.037   1.993  1.00  0.00     0.031 C 
ATOM     46  C   UNL     1       3.655   5.386  -0.023  1.00  0.00     0.029 A 
ATOM     47  N   UNL     1       4.630   7.384  -0.288  1.00  0.00    -0.354 N 
ATOM     48  C   UNL     1       8.515   8.216   1.366  1.00  0.00     0.074 A 
ATOM     49  C   UNL     1       9.037   7.062   2.068  1.00  0.00     0.031 C 
ATOM     50  C   UNL     1       2.815   6.159  -0.734  1.00  0.00     0.029 A 
ATOM     51  C   UNL     1       3.401   7.490  -0.891  1.00  0.00     0.049 A 
ATOM     52  H   UNL     1       5.289   8.114  -0.275  1.00  0.00     0.167 HD
ATOM     53  C   UNL     1       9.180   9.387   1.227  1.00  0.00     0.037 A 
ATOM     54  C   UNL     1       2.809   8.547  -1.482  1.00  0.00     0.037 A 
ATOM     55  C   UNL     1       8.663  10.540   0.538  1.00  0.00     0.049 A 
ATOM     56  C   UNL     1       3.536   9.864  -1.564  1.00  0.00     0.074 A 
ATOM     57  C   UNL     1       9.274  11.764   0.326  1.00  0.00     0.029 A 
ATOM     58  N   UNL     1       7.406  10.615  -0.041  1.00  0.00    -0.354 N 
ATOM     59  N   UNL     1       4.735  10.177  -1.137  1.00  0.00    -0.248 NA
ATOM     60  C   UNL     1       2.823  10.976  -2.212  1.00  0.00     0.031 C 
ATOM     61  C   UNL     1       8.366  12.596  -0.339  1.00  0.00     0.029 A 
ATOM     62  C   UNL     1       7.209  11.874  -0.585  1.00  0.00     0.049 A 
ATOM     63  H   UNL     1       6.749   9.881  -0.063  1.00  0.00     0.167 HD
ATOM     64  C   UNL     1       4.930  11.509  -1.484  1.00  0.00     0.074 A 
ATOM     65  C   UNL     1       3.729  11.943  -2.167  1.00  0.00     0.031 C 
ATOM     66  C   UNL     1       6.009  12.299  -1.261  1.00  0.00     0.037 A 
BRANCH  53  67
ATOM     67  C   UNL     1      10.534   9.482   1.867  1.00  0.00     0.057 A 
ATOM     68  C   UNL     1      11.643   8.791   1.361  1.00  0.00     0.134 A 
ATOM     69  C   UNL     1      10.730  10.276   3.004  1.00  0.00     0.134 A 
ATOM     70  F   UNL     1      11.518   8.001   0.284  1.00  0.00    -0.206 F 
ATOM     71  C   UNL     1      12.891   8.861   1.982  1.00  0.00     0.040 A 
ATOM     72  C   UNL     1      11.979  10.375   3.617  1.00  0.00     0.040 A 
ATOM     73  F   UNL     1       9.711  10.967   3.537  1.00  0.00    -0.206 F 
ATOM     74  C   UNL     1      13.062   9.659   3.111  1.00  0.00     0.006 A 
ENDBRANCH  53  67
BRANCH  54  75
ATOM     75  C   UNL     1       1.437   8.409  -2.033  1.00  0.00     0.057 A 
ATOM     76  C   UNL     1       1.206   8.416  -3.413  1.00  0.00     0.134 A 
ATOM     77  C   UNL     1       0.325   8.279  -1.192  1.00  0.00     0.134 A 
ATOM     78  F   UNL     1       2.228   8.569  -4.268  1.00  0.00    -0.206 F 
ATOM     79  C   UNL     1      -0.083   8.304  -3.938  1.00  0.00     0.040 A 
ATOM     80  C   UNL     1      -0.966   8.143  -1.703  1.00  0.00     0.040 A 
ATOM     81  F   UNL     1       0.481   8.273   0.140  1.00  0.00    -0.206 F 
ATOM     82  C   UNL     1      -1.173   8.160  -3.081  1.00  0.00     0.006 A 
ENDBRANCH  54  75
BRANCH  66  83
ATOM     83  C   UNL     1       5.957  13.707  -1.780  1.00  0.00     0.057 A 
ATOM     84  C   UNL     1       5.162  14.690  -1.177  1.00  0.00     0.134 A 
ATOM     85  C   UNL     1       6.749  14.096  -2.868  1.00  0.00     0.134 A 
ATOM     86  F   UNL     1       4.371  14.381  -0.137  1.00  0.00    -0.206 F 
ATOM     87  C   UNL     1       5.142  16.004  -1.649  1.00  0.00     0.040 A 
ATOM     88  C   UNL     1       6.756  15.412  -3.334  1.00  0.00     0.040 A 
ATOM     89  F   UNL     1       7.542  13.208  -3.486  1.00  0.00    -0.206 F 
ATOM     90  C   UNL     1       5.947  16.369  -2.727  1.00  0.00     0.006 A 
ENDBRANCH  66  83
ENDBRANCH  40  41
ENDBRANCH  33  35
ENDBRANCH  32  33
ENDBRANCH  31  32
ENDBRANCH  30  31
ENDBRANCH  29  30
ENDBRANCH  28  29
ENDBRANCH   1  28
TORSDOF 21
