REMARK SMILES CC[C@@H](C)N(C)C(=O)N1[C@@H](C(=O)OCCOCCOCCOC(=O)c2ccc(-c3c4nc(c(-c5c(F)cccc5F)c5ccc([nH]5)c(-c5c(F)cccc5F)c5nc(c(-c6c(F)cccc6F)c6ccc3[nH]6)C=C5)C=C4)cc2)CC[C@H]2CCCC[C@H]21
REMARK SMILES IDX 17 1 16 2 15 3 14 4 13 5 11 6 12 7 10 8 9 9 86 10 79 11
REMARK SMILES IDX 81 12 85 13 80 14 82 15 84 16 83 17 7 18 8 19 5 20 6 21 3 22
REMARK SMILES IDX 4 23 2 24 1 25 18 26 19 27 20 28 21 29 22 30 23 31 24 32
REMARK SMILES IDX 25 33 26 34 78 35 27 36 77 37 28 38 29 39 30 40 71 41 31 42
REMARK SMILES IDX 76 43 70 44 72 45 32 46 75 47 69 48 68 49 33 51 59 52 42 53
REMARK SMILES IDX 58 54 43 55 46 56 57 57 73 58 44 59 45 60 56 62 74 63 47 64
REMARK SMILES IDX 34 65 35 66 40 67 36 68 37 69 39 70 41 71 38 72 60 73 61 74
REMARK SMILES IDX 66 75 62 76 63 77 65 78 67 79 64 80 48 81 49 82 54 83 50 84
REMARK SMILES IDX 51 85 53 86 55 87 52 88
REMARK H PARENT 72 50 46 61
REMARK Flexibility Score: inf
ROOT
ATOM      1  C   UNL     1       1.558   9.193  -1.825  1.00  0.00     0.188 C 
ENDROOT
BRANCH   1   2
ATOM      2  O   UNL     1       2.687   8.477  -2.313  1.00  0.00    -0.376 OA
BRANCH   2   3
ATOM      3  C   UNL     1       2.520   7.204  -2.921  1.00  0.00     0.202 C 
BRANCH   3   4
ATOM      4  C   UNL     1       1.916   6.070  -2.086  1.00  0.00     0.261 C 
BRANCH   4   5
ATOM      5  O   UNL     1       0.548   6.229  -1.664  1.00  0.00    -0.462 OA
BRANCH   5   6
ATOM      6  C   UNL     1       0.340   6.536  -0.351  1.00  0.00     0.329 C 
ATOM      7  O   UNL     1       1.227   6.860   0.434  1.00  0.00    -0.250 OA
BRANCH   6   8
ATOM      8  C   UNL     1      -1.124   6.314   0.094  1.00  0.00     0.197 C 
ATOM      9  N   UNL     1      -1.458   4.912   0.398  1.00  0.00    -0.308 N 
ATOM     10  C   UNL     1      -2.807   4.729   0.969  1.00  0.00     0.091 C 
ATOM     11  C   UNL     1      -2.196   6.997  -0.765  1.00  0.00     0.038 C 
ATOM     12  C   UNL     1      -3.942   5.413   0.187  1.00  0.00     0.012 C 
ATOM     13  C   UNL     1      -3.211   3.294   1.316  1.00  0.00     0.025 C 
ATOM     14  C   UNL     1      -3.582   6.868  -0.129  1.00  0.00     0.008 C 
ATOM     15  C   UNL     1      -4.372   4.672  -1.079  1.00  0.00     0.006 C 
ATOM     16  C   UNL     1      -3.735   2.446   0.160  1.00  0.00     0.002 C 
ATOM     17  C   UNL     1      -4.481   3.155  -0.969  1.00  0.00     0.000 C 
BRANCH   9  18
ATOM     18  C   UNL     1      -0.934   3.954  -0.455  1.00  0.00     0.320 C 
ATOM     19  O   UNL     1      -1.559   3.570  -1.437  1.00  0.00    -0.248 OA
BRANCH  18  20
ATOM     20  N   UNL     1       0.313   3.448  -0.082  1.00  0.00    -0.325 N 
ATOM     21  C   UNL     1       1.120   3.966   1.027  1.00  0.00     0.149 C 
BRANCH  20  22
ATOM     22  C   UNL     1       0.820   2.188  -0.665  1.00  0.00     0.083 C 
ATOM     23  C   UNL     1       0.553   1.983  -2.160  1.00  0.00     0.031 C 
BRANCH  22  24
ATOM     24  C   UNL     1       0.306   1.015   0.193  1.00  0.00     0.021 C 
ATOM     25  C   UNL     1       0.941  -0.322  -0.141  1.00  0.00     0.006 C 
ENDBRANCH  22  24
ENDBRANCH  20  22
ENDBRANCH  18  20
ENDBRANCH   9  18
ENDBRANCH   6   8
ENDBRANCH   5   6
ENDBRANCH   4   5
ENDBRANCH   3   4
ENDBRANCH   2   3
ENDBRANCH   1   2
BRANCH   1  26
ATOM     26  C   UNL     1       0.194   9.000  -2.502  1.00  0.00     0.188 C 
BRANCH  26  27
ATOM     27  O   UNL     1       0.254   8.518  -3.817  1.00  0.00    -0.376 OA
BRANCH  27  28
ATOM     28  C   UNL     1       0.128   9.412  -4.898  1.00  0.00     0.202 C 
BRANCH  28  29
ATOM     29  C   UNL     1       0.698  10.841  -4.850  1.00  0.00     0.261 C 
BRANCH  29  30
ATOM     30  O   UNL     1       0.741  11.516  -3.582  1.00  0.00    -0.460 OA
BRANCH  30  31
ATOM     31  C   UNL     1      -0.407  12.066  -3.110  1.00  0.00     0.338 C 
ATOM     32  O   UNL     1      -1.484  12.078  -3.655  1.00  0.00    -0.246 OA
BRANCH  31  33
ATOM     33  C   UNL     1      -0.173  12.440  -1.683  1.00  0.00     0.060 A 
ATOM     34  C   UNL     1      -1.020  11.909  -0.699  1.00  0.00     0.016 A 
ATOM     35  C   UNL     1       0.874  13.287  -1.315  1.00  0.00     0.016 A 
ATOM     36  C   UNL     1      -0.850  12.257   0.647  1.00  0.00     0.010 A 
ATOM     37  C   UNL     1       1.029  13.654   0.030  1.00  0.00     0.010 A 
ATOM     38  C   UNL     1       0.146  13.171   1.014  1.00  0.00    -0.014 A 
BRANCH  38  39
ATOM     39  C   UNL     1       0.119  13.801   2.363  1.00  0.00     0.031 A 
ATOM     40  C   UNL     1      -0.534  15.154   2.499  1.00  0.00     0.074 A 
ATOM     41  C   UNL     1       0.626  13.198   3.455  1.00  0.00     0.049 A 
ATOM     42  N   UNL     1      -0.622  15.939   3.543  1.00  0.00    -0.248 NA
ATOM     43  C   UNL     1      -1.177  15.689   1.288  1.00  0.00     0.031 C 
ATOM     44  C   UNL     1       1.231  11.869   3.491  1.00  0.00     0.029 A 
ATOM     45  N   UNL     1       0.717  13.644   4.754  1.00  0.00    -0.354 N 
ATOM     46  C   UNL     1      -1.328  17.057   3.114  1.00  0.00     0.074 A 
ATOM     47  C   UNL     1      -1.611  16.867   1.708  1.00  0.00     0.031 C 
ATOM     48  C   UNL     1       1.642  11.611   4.747  1.00  0.00     0.029 A 
ATOM     49  C   UNL     1       1.363  12.770   5.596  1.00  0.00     0.049 A 
ATOM     50  H   UNL     1       0.353  14.508   5.053  1.00  0.00     0.167 HD
ATOM     51  C   UNL     1      -1.720  18.141   3.824  1.00  0.00     0.037 A 
ATOM     52  C   UNL     1       1.710  12.902   6.893  1.00  0.00     0.037 A 
ATOM     53  C   UNL     1      -1.435  18.347   5.219  1.00  0.00     0.049 A 
ATOM     54  C   UNL     1       1.364  14.172   7.634  1.00  0.00     0.074 A 
ATOM     55  C   UNL     1      -1.775  19.424   6.019  1.00  0.00     0.029 A 
ATOM     56  N   UNL     1      -0.739  17.457   6.021  1.00  0.00    -0.354 N 
ATOM     57  N   UNL     1       0.694  15.221   7.220  1.00  0.00    -0.248 NA
ATOM     58  C   UNL     1       1.827  14.276   9.027  1.00  0.00     0.031 C 
ATOM     59  C   UNL     1      -1.245  19.207   7.294  1.00  0.00     0.029 A 
ATOM     60  C   UNL     1      -0.624  17.969   7.303  1.00  0.00     0.049 A 
ATOM     61  H   UNL     1      -0.379  16.590   5.724  1.00  0.00     0.167 HD
ATOM     62  C   UNL     1       0.618  16.082   8.311  1.00  0.00     0.074 A 
ATOM     63  C   UNL     1       1.302  15.431   9.407  1.00  0.00     0.031 C 
ATOM     64  C   UNL     1       0.034  17.302   8.397  1.00  0.00     0.037 A 
BRANCH  51  65
ATOM     65  C   UNL     1      -2.490  19.203   3.095  1.00  0.00     0.057 A 
ATOM     66  C   UNL     1      -3.814  19.000   2.682  1.00  0.00     0.134 A 
ATOM     67  C   UNL     1      -1.916  20.453   2.834  1.00  0.00     0.134 A 
ATOM     68  F   UNL     1      -4.416  17.819   2.886  1.00  0.00    -0.206 F 
ATOM     69  C   UNL     1      -4.532  19.996   2.019  1.00  0.00     0.040 A 
ATOM     70  C   UNL     1      -2.633  21.467   2.197  1.00  0.00     0.040 A 
ATOM     71  F   UNL     1      -0.654  20.714   3.206  1.00  0.00    -0.206 F 
ATOM     72  C   UNL     1      -3.944  21.238   1.783  1.00  0.00     0.006 A 
ENDBRANCH  51  65
BRANCH  52  73
ATOM     73  C   UNL     1       2.454  11.821   7.595  1.00  0.00     0.057 A 
ATOM     74  C   UNL     1       1.881  11.125   8.668  1.00  0.00     0.134 A 
ATOM     75  C   UNL     1       3.779  11.512   7.265  1.00  0.00     0.134 A 
ATOM     76  F   UNL     1       0.626  11.397   9.055  1.00  0.00    -0.206 F 
ATOM     77  C   UNL     1       2.606  10.186   9.404  1.00  0.00     0.040 A 
ATOM     78  C   UNL     1       4.506  10.553   7.973  1.00  0.00     0.040 A 
ATOM     79  F   UNL     1       4.391  12.146   6.255  1.00  0.00    -0.206 F 
ATOM     80  C   UNL     1       3.923   9.896   9.055  1.00  0.00     0.006 A 
ENDBRANCH  52  73
BRANCH  64  81
ATOM     81  C   UNL     1       0.046  17.991   9.733  1.00  0.00     0.057 A 
ATOM     82  C   UNL     1       1.216  18.530  10.284  1.00  0.00     0.134 A 
ATOM     83  C   UNL     1      -1.142  18.155  10.457  1.00  0.00     0.134 A 
ATOM     84  F   UNL     1       2.390  18.400   9.649  1.00  0.00    -0.206 F 
ATOM     85  C   UNL     1       1.207  19.183  11.518  1.00  0.00     0.040 A 
ATOM     86  C   UNL     1      -1.169  18.832  11.677  1.00  0.00     0.040 A 
ATOM     87  F   UNL     1      -2.302  17.675   9.982  1.00  0.00    -0.206 F 
ATOM     88  C   UNL     1       0.010  19.343  12.215  1.00  0.00     0.006 A 
ENDBRANCH  64  81
ENDBRANCH  38  39
ENDBRANCH  31  33
ENDBRANCH  30  31
ENDBRANCH  29  30
ENDBRANCH  28  29
ENDBRANCH  27  28
ENDBRANCH  26  27
ENDBRANCH   1  26
TORSDOF 21
