REMARK SMILES Cc1nn(C)cc1CNC(=O)[C@H]1[C@@H]2CC[C@@H](C2)[C@@H]1C(=O)OCCOCCOCCOC(=O)c1ccc(-c2c3nc(c(-c4c(F)cccc4F)c4ccc([nH]4)c(-c4c(F)cccc4F)c4nc(c(-c5c(F)cccc5F)c5ccc2[nH]5)C=C4)C=C3)cc1
REMARK SMILES IDX 25 1 24 2 23 3 22 4 21 5 19 6 20 7 18 8 12 9 13 10 14 11
REMARK SMILES IDX 17 12 16 13 15 14 10 15 9 16 11 18 8 19 7 20 1 21 2 22 3 23
REMARK SMILES IDX 4 24 6 25 5 26 26 27 27 28 28 29 29 30 30 31 31 32 32 33
REMARK SMILES IDX 33 34 34 35 86 36 35 37 85 38 36 39 37 40 38 41 79 42 39 43
REMARK SMILES IDX 84 44 78 45 80 46 40 47 83 48 77 49 76 50 41 52 67 53 50 54
REMARK SMILES IDX 66 55 51 56 54 57 65 58 81 59 52 60 53 61 64 63 82 64 55 65
REMARK SMILES IDX 42 66 43 67 48 68 44 69 45 70 47 71 49 72 46 73 68 74 69 75
REMARK SMILES IDX 74 76 70 77 71 78 73 79 75 80 72 81 56 82 57 83 62 84 58 85
REMARK SMILES IDX 59 86 61 87 63 88 60 89
REMARK H PARENT 9 17 80 51 54 62
REMARK Flexibility Score: inf
ROOT
ATOM      1  C   UNL     1       1.997  -3.316   4.293  1.00  0.00     0.188 C 
ENDROOT
BRANCH   1   2
ATOM      2  O   UNL     1       1.238  -2.122   4.428  1.00  0.00    -0.376 OA
BRANCH   2   3
ATOM      3  C   UNL     1      -0.179  -2.167   4.468  1.00  0.00     0.202 C 
BRANCH   3   4
ATOM      4  C   UNL     1      -0.916  -2.437   3.149  1.00  0.00     0.261 C 
BRANCH   4   5
ATOM      5  O   UNL     1      -0.703  -3.698   2.471  1.00  0.00    -0.463 OA
BRANCH   5   6
ATOM      6  C   UNL     1       0.292  -3.687   1.550  1.00  0.00     0.310 C 
ATOM      7  O   UNL     1       1.132  -2.798   1.459  1.00  0.00    -0.252 OA
BRANCH   6   8
ATOM      8  C   UNL     1       0.314  -4.858   0.596  1.00  0.00     0.115 C 
ATOM      9  C   UNL     1      -0.990  -5.236  -0.129  1.00  0.00     0.096 C 
ATOM     10  C   UNL     1      -0.846  -6.794  -0.233  1.00  0.00     0.002 C 
ATOM     11  C   UNL     1      -1.252  -7.421   1.105  1.00  0.00     0.005 C 
ATOM     12  C   UNL     1       0.673  -7.028  -0.187  1.00  0.00     0.009 C 
ATOM     13  C   UNL     1       0.848  -6.214   1.100  1.00  0.00     0.004 C 
ATOM     14  C   UNL     1      -0.134  -6.949   2.040  1.00  0.00     0.005 C 
BRANCH   9  15
ATOM     15  C   UNL     1      -1.021  -4.590  -1.511  1.00  0.00     0.224 C 
ATOM     16  N   UNL     1      -1.333  -3.273  -1.644  1.00  0.00    -0.352 N 
ATOM     17  H   UNL     1      -1.194  -2.909  -2.548  1.00  0.00     0.163 HD
ATOM     18  O   UNL     1      -0.732  -5.217  -2.531  1.00  0.00    -0.275 OA
BRANCH  16  19
ATOM     19  C   UNL     1      -1.835  -2.315  -0.683  1.00  0.00     0.155 C 
BRANCH  19  20
ATOM     20  C   UNL     1      -0.931  -1.133  -0.604  1.00  0.00     0.012 A 
ATOM     21  C   UNL     1      -2.615   0.784   0.025  1.00  0.00     0.069 C 
ATOM     22  C   UNL     1      -1.277   0.207  -0.254  1.00  0.00     0.064 A 
ATOM     23  N   UNL     1      -0.201   0.997  -0.160  1.00  0.00    -0.178 NA
ATOM     24  N   UNL     1       0.831   0.172  -0.400  1.00  0.00    -0.275 N 
ATOM     25  C   UNL     1       0.440  -1.077  -0.775  1.00  0.00     0.114 A 
ATOM     26  C   UNL     1       2.182   0.634  -0.194  1.00  0.00     0.173 C 
ENDBRANCH  19  20
ENDBRANCH  16  19
ENDBRANCH   9  15
ENDBRANCH   6   8
ENDBRANCH   5   6
ENDBRANCH   4   5
ENDBRANCH   3   4
ENDBRANCH   2   3
ENDBRANCH   1   2
BRANCH   1  27
ATOM     27  C   UNL     1       1.341  -4.682   4.488  1.00  0.00     0.188 C 
BRANCH  27  28
ATOM     28  O   UNL     1       0.327  -4.673   5.472  1.00  0.00    -0.376 OA
BRANCH  28  29
ATOM     29  C   UNL     1       0.208  -5.829   6.282  1.00  0.00     0.202 C 
BRANCH  29  30
ATOM     30  C   UNL     1       1.236  -5.806   7.420  1.00  0.00     0.261 C 
BRANCH  30  31
ATOM     31  O   UNL     1       2.610  -5.809   6.981  1.00  0.00    -0.460 OA
BRANCH  31  32
ATOM     32  C   UNL     1       3.018  -6.895   6.282  1.00  0.00     0.338 C 
ATOM     33  O   UNL     1       2.383  -7.922   6.101  1.00  0.00    -0.246 OA
BRANCH  32  34
ATOM     34  C   UNL     1       4.250  -6.538   5.531  1.00  0.00     0.060 A 
ATOM     35  C   UNL     1       4.327  -6.893   4.176  1.00  0.00     0.016 A 
ATOM     36  C   UNL     1       5.295  -5.825   6.124  1.00  0.00     0.016 A 
ATOM     37  C   UNL     1       5.474  -6.599   3.433  1.00  0.00     0.010 A 
ATOM     38  C   UNL     1       6.449  -5.540   5.381  1.00  0.00     0.010 A 
ATOM     39  C   UNL     1       6.566  -5.969   4.046  1.00  0.00    -0.014 A 
BRANCH  39  40
ATOM     40  C   UNL     1       7.888  -5.971   3.362  1.00  0.00     0.031 A 
ATOM     41  C   UNL     1       8.904  -7.008   3.775  1.00  0.00     0.074 A 
ATOM     42  C   UNL     1       8.178  -5.128   2.353  1.00  0.00     0.049 A 
ATOM     43  N   UNL     1      10.109  -7.229   3.313  1.00  0.00    -0.248 NA
ATOM     44  C   UNL     1       8.502  -7.919   4.859  1.00  0.00     0.031 C 
ATOM     45  C   UNL     1       7.287  -4.099   1.822  1.00  0.00     0.029 A 
ATOM     46  N   UNL     1       9.317  -5.013   1.591  1.00  0.00    -0.354 N 
ATOM     47  C   UNL     1      10.605  -8.299   4.047  1.00  0.00     0.074 A 
ATOM     48  C   UNL     1       9.591  -8.654   5.016  1.00  0.00     0.031 C 
ATOM     49  C   UNL     1       7.912  -3.458   0.818  1.00  0.00     0.029 A 
ATOM     50  C   UNL     1       9.255  -4.013   0.650  1.00  0.00     0.049 A 
ATOM     51  H   UNL     1      10.103  -5.592   1.710  1.00  0.00     0.167 HD
ATOM     52  C   UNL     1      11.789  -8.946   3.921  1.00  0.00     0.037 A 
ATOM     53  C   UNL     1      10.179  -3.590  -0.237  1.00  0.00     0.037 A 
ATOM     54  C   UNL     1      12.807  -8.602   2.964  1.00  0.00     0.049 A 
ATOM     55  C   UNL     1      11.519  -4.281  -0.311  1.00  0.00     0.074 A 
ATOM     56  C   UNL     1      14.035  -9.207   2.758  1.00  0.00     0.029 A 
ATOM     57  N   UNL     1      12.720  -7.557   2.057  1.00  0.00    -0.354 N 
ATOM     58  N   UNL     1      11.964  -5.310   0.369  1.00  0.00    -0.248 NA
ATOM     59  C   UNL     1      12.483  -3.752  -1.289  1.00  0.00     0.031 C 
ATOM     60  C   UNL     1      14.714  -8.495   1.764  1.00  0.00     0.029 A 
ATOM     61  C   UNL     1      13.883  -7.486   1.306  1.00  0.00     0.049 A 
ATOM     62  H   UNL     1      11.948  -6.955   1.961  1.00  0.00     0.167 HD
ATOM     63  C   UNL     1      13.240  -5.571  -0.122  1.00  0.00     0.074 A 
ATOM     64  C   UNL     1      13.489  -4.606  -1.171  1.00  0.00     0.031 C 
ATOM     65  C   UNL     1      14.125  -6.525   0.260  1.00  0.00     0.037 A 
BRANCH  52  66
ATOM     66  C   UNL     1      12.055 -10.085   4.863  1.00  0.00     0.057 A 
ATOM     67  C   UNL     1      11.367 -11.302   4.770  1.00  0.00     0.134 A 
ATOM     68  C   UNL     1      13.034  -9.972   5.859  1.00  0.00     0.134 A 
ATOM     69  F   UNL     1      10.404 -11.470   3.850  1.00  0.00    -0.206 F 
ATOM     70  C   UNL     1      11.626 -12.356   5.647  1.00  0.00     0.040 A 
ATOM     71  C   UNL     1      13.323 -11.030   6.722  1.00  0.00     0.040 A 
ATOM     72  F   UNL     1      13.733  -8.836   6.002  1.00  0.00    -0.206 F 
ATOM     73  C   UNL     1      12.613 -12.224   6.622  1.00  0.00     0.006 A 
ENDBRANCH  52  66
BRANCH  53  74
ATOM     74  C   UNL     1       9.885  -2.445  -1.140  1.00  0.00     0.057 A 
ATOM     75  C   UNL     1       9.785  -2.616  -2.527  1.00  0.00     0.134 A 
ATOM     76  C   UNL     1       9.756  -1.142  -0.644  1.00  0.00     0.134 A 
ATOM     77  F   UNL     1       9.932  -3.834  -3.069  1.00  0.00    -0.206 F 
ATOM     78  C   UNL     1       9.594  -1.532  -3.388  1.00  0.00     0.040 A 
ATOM     79  C   UNL     1       9.534  -0.054  -1.490  1.00  0.00     0.040 A 
ATOM     80  F   UNL     1       9.848  -0.907   0.673  1.00  0.00    -0.206 F 
ATOM     81  C   UNL     1       9.463  -0.247  -2.868  1.00  0.00     0.006 A 
ENDBRANCH  53  74
BRANCH  65  82
ATOM     82  C   UNL     1      15.427  -6.601  -0.491  1.00  0.00     0.057 A 
ATOM     83  C   UNL     1      16.407  -5.604  -0.392  1.00  0.00     0.134 A 
ATOM     84  C   UNL     1      15.707  -7.696  -1.321  1.00  0.00     0.134 A 
ATOM     85  F   UNL     1      16.203  -4.525   0.379  1.00  0.00    -0.206 F 
ATOM     86  C   UNL     1      17.595  -5.670  -1.123  1.00  0.00     0.040 A 
ATOM     87  C   UNL     1      16.906  -7.789  -2.031  1.00  0.00     0.040 A 
ATOM     88  F   UNL     1      14.824  -8.696  -1.452  1.00  0.00    -0.206 F 
ATOM     89  C   UNL     1      17.848  -6.767  -1.943  1.00  0.00     0.006 A 
ENDBRANCH  65  82
ENDBRANCH  39  40
ENDBRANCH  32  34
ENDBRANCH  31  32
ENDBRANCH  30  31
ENDBRANCH  29  30
ENDBRANCH  28  29
ENDBRANCH  27  28
ENDBRANCH   1  27
TORSDOF 20
