REMARK SMILES Cc1nn(Cc2nc(C(C)(C)C)cs2)c(C)c1C(=O)OCCOCCOCCOC(=O)c1ccc(-c2c3nc(c(-c4c(F)cccc4F)c4ccc([nH]4)c(-c4c(F)cccc4F)c4nc(c(-c5c(F)cccc5F)c5ccc2[nH]5)C=C4)C=C3)cc1
REMARK SMILES IDX 24 1 23 2 22 3 21 4 20 5 18 6 19 7 17 8 1 9 2 10 3 11 4 12
REMARK SMILES IDX 15 13 16 14 5 15 6 16 7 17 14 18 8 19 13 20 9 21 10 22 11 23
REMARK SMILES IDX 12 24 25 25 26 26 27 27 28 28 29 29 30 30 31 31 32 32 33 33
REMARK SMILES IDX 85 34 34 35 84 36 35 37 36 38 37 39 78 40 38 41 83 42 77 43
REMARK SMILES IDX 79 44 39 45 82 46 76 47 75 48 40 50 66 51 49 52 65 53 50 54
REMARK SMILES IDX 53 55 64 56 80 57 51 58 52 59 63 61 81 62 54 63 41 64 42 65
REMARK SMILES IDX 47 66 43 67 44 68 46 69 48 70 45 71 67 72 68 73 73 74 69 75
REMARK SMILES IDX 70 76 72 77 74 78 71 79 55 80 56 81 61 82 57 83 58 84 60 85
REMARK SMILES IDX 62 86 59 87
REMARK H PARENT 79 49 53 60
REMARK Flexibility Score: inf
ROOT
ATOM      1  C   UNL     1       3.536   3.909   0.286  1.00  0.00     0.188 C 
ENDROOT
BRANCH   1   2
ATOM      2  O   UNL     1       4.113   3.912   1.575  1.00  0.00    -0.376 OA
BRANCH   2   3
ATOM      3  C   UNL     1       3.245   3.872   2.699  1.00  0.00     0.202 C 
BRANCH   3   4
ATOM      4  C   UNL     1       2.053   2.890   2.787  1.00  0.00     0.261 C 
BRANCH   4   5
ATOM      5  O   UNL     1       1.491   2.421   1.557  1.00  0.00    -0.460 OA
BRANCH   5   6
ATOM      6  C   UNL     1       0.481   3.145   1.006  1.00  0.00     0.341 C 
ATOM      7  O   UNL     1      -0.019   4.136   1.534  1.00  0.00    -0.246 OA
BRANCH   6   8
ATOM      8  C   UNL     1       0.175   2.720  -0.352  1.00  0.00     0.103 A 
ATOM      9  C   UNL     1       0.537   0.120  -0.283  1.00  0.00     0.070 C 
ATOM     10  C   UNL     1       0.171   1.414  -0.917  1.00  0.00     0.074 A 
ATOM     11  N   UNL     1      -0.182   1.434  -2.207  1.00  0.00    -0.177 NA
ATOM     12  N   UNL     1      -0.319   2.739  -2.511  1.00  0.00    -0.262 N 
ATOM     13  C   UNL     1      -0.034   3.561  -1.442  1.00  0.00     0.051 A 
ATOM     14  C   UNL     1       0.075   5.039  -1.557  1.00  0.00     0.067 C 
BRANCH  12  15
ATOM     15  C   UNL     1      -0.908   3.122  -3.793  1.00  0.00     0.212 C 
BRANCH  15  16
ATOM     16  C   UNL     1      -0.034   2.817  -4.967  1.00  0.00     0.114 A 
ATOM     17  N   UNL     1      -0.080   1.697  -5.660  1.00  0.00    -0.244 NA
ATOM     18  S   UNL     1       1.011   4.018  -5.620  1.00  0.00    -0.125 S 
ATOM     19  C   UNL     1       0.790   1.735  -6.742  1.00  0.00     0.057 A 
ATOM     20  C   UNL     1       1.434   2.950  -6.894  1.00  0.00     0.091 A 
BRANCH  19  21
ATOM     21  C   UNL     1       0.923   0.472  -7.582  1.00  0.00     0.005 C 
ATOM     22  C   UNL     1       1.468  -0.668  -6.697  1.00  0.00     0.017 C 
ATOM     23  C   UNL     1      -0.456   0.059  -8.135  1.00  0.00     0.017 C 
ATOM     24  C   UNL     1       1.881   0.652  -8.776  1.00  0.00     0.017 C 
ENDBRANCH  19  21
ENDBRANCH  15  16
ENDBRANCH  12  15
ENDBRANCH   6   8
ENDBRANCH   5   6
ENDBRANCH   4   5
ENDBRANCH   3   4
ENDBRANCH   2   3
ENDBRANCH   1   2
BRANCH   1  25
ATOM     25  C   UNL     1       3.662   2.553  -0.441  1.00  0.00     0.188 C 
BRANCH  25  26
ATOM     26  O   UNL     1       4.017   1.369   0.264  1.00  0.00    -0.376 OA
BRANCH  26  27
ATOM     27  C   UNL     1       5.094   1.341   1.191  1.00  0.00     0.202 C 
BRANCH  27  28
ATOM     28  C   UNL     1       6.474   1.885   0.827  1.00  0.00     0.261 C 
BRANCH  28  29
ATOM     29  O   UNL     1       6.452   3.136   0.166  1.00  0.00    -0.460 OA
BRANCH  29  30
ATOM     30  C   UNL     1       6.571   3.049  -1.173  1.00  0.00     0.338 C 
ATOM     31  O   UNL     1       6.607   2.041  -1.857  1.00  0.00    -0.246 OA
BRANCH  30  32
ATOM     32  C   UNL     1       6.702   4.401  -1.720  1.00  0.00     0.060 A 
ATOM     33  C   UNL     1       6.593   4.528  -3.107  1.00  0.00     0.016 A 
ATOM     34  C   UNL     1       7.221   5.418  -0.908  1.00  0.00     0.016 A 
ATOM     35  C   UNL     1       7.264   5.563  -3.711  1.00  0.00     0.010 A 
ATOM     36  C   UNL     1       7.898   6.446  -1.512  1.00  0.00     0.010 A 
ATOM     37  C   UNL     1       8.004   6.428  -2.900  1.00  0.00    -0.014 A 
BRANCH  37  38
ATOM     38  C   UNL     1       8.984   7.271  -3.543  1.00  0.00     0.031 A 
ATOM     39  C   UNL     1       8.418   8.463  -4.196  1.00  0.00     0.074 A 
ATOM     40  C   UNL     1      10.298   6.995  -3.444  1.00  0.00     0.049 A 
ATOM     41  N   UNL     1       8.398   8.745  -5.454  1.00  0.00    -0.248 NA
ATOM     42  C   UNL     1       7.653   9.391  -3.348  1.00  0.00     0.031 C 
ATOM     43  C   UNL     1      10.947   5.991  -2.590  1.00  0.00     0.029 A 
ATOM     44  N   UNL     1      11.349   7.633  -4.021  1.00  0.00    -0.354 N 
ATOM     45  C   UNL     1       7.801   9.997  -5.535  1.00  0.00     0.074 A 
ATOM     46  C   UNL     1       7.204  10.260  -4.252  1.00  0.00     0.031 C 
ATOM     47  C   UNL     1      12.274   6.240  -2.540  1.00  0.00     0.029 A 
ATOM     48  C   UNL     1      12.577   7.326  -3.456  1.00  0.00     0.049 A 
ATOM     49  H   UNL     1      11.248   8.258  -4.774  1.00  0.00     0.167 HD
ATOM     50  C   UNL     1       8.086  10.844  -6.557  1.00  0.00     0.037 A 
ATOM     51  C   UNL     1      13.743   7.979  -3.676  1.00  0.00     0.037 A 
ATOM     52  C   UNL     1       8.673  10.157  -7.676  1.00  0.00     0.049 A 
ATOM     53  C   UNL     1      13.598   8.738  -4.941  1.00  0.00     0.074 A 
ATOM     54  C   UNL     1       8.255   9.181  -8.557  1.00  0.00     0.029 A 
ATOM     55  N   UNL     1      10.037  10.225  -7.798  1.00  0.00    -0.354 N 
ATOM     56  N   UNL     1      13.486   8.181  -6.115  1.00  0.00    -0.248 NA
ATOM     57  C   UNL     1      13.153  10.122  -4.869  1.00  0.00     0.031 C 
ATOM     58  C   UNL     1       9.424   8.426  -8.867  1.00  0.00     0.029 A 
ATOM     59  C   UNL     1      10.499   8.993  -8.180  1.00  0.00     0.049 A 
ATOM     60  H   UNL     1      10.591  11.023  -7.637  1.00  0.00     0.167 HD
ATOM     61  C   UNL     1      12.586   8.980  -6.806  1.00  0.00     0.074 A 
ATOM     62  C   UNL     1      12.520  10.220  -6.041  1.00  0.00     0.031 C 
ATOM     63  C   UNL     1      11.774   8.448  -7.767  1.00  0.00     0.037 A 
BRANCH  50  64
ATOM     64  C   UNL     1       8.221  12.331  -6.367  1.00  0.00     0.057 A 
ATOM     65  C   UNL     1       8.285  13.165  -7.493  1.00  0.00     0.134 A 
ATOM     66  C   UNL     1       8.586  12.934  -5.144  1.00  0.00     0.134 A 
ATOM     67  F   UNL     1       7.996  12.692  -8.714  1.00  0.00    -0.206 F 
ATOM     68  C   UNL     1       8.730  14.489  -7.414  1.00  0.00     0.040 A 
ATOM     69  C   UNL     1       8.976  14.271  -5.046  1.00  0.00     0.040 A 
ATOM     70  F   UNL     1       8.687  12.241  -4.003  1.00  0.00    -0.206 F 
ATOM     71  C   UNL     1       9.078  15.046  -6.188  1.00  0.00     0.006 A 
ENDBRANCH  50  64
BRANCH  51  72
ATOM     72  C   UNL     1      14.821   8.238  -2.698  1.00  0.00     0.057 A 
ATOM     73  C   UNL     1      16.114   8.588  -3.106  1.00  0.00     0.134 A 
ATOM     74  C   UNL     1      14.541   8.396  -1.328  1.00  0.00     0.134 A 
ATOM     75  F   UNL     1      16.460   8.520  -4.400  1.00  0.00    -0.206 F 
ATOM     76  C   UNL     1      17.072   9.072  -2.204  1.00  0.00     0.040 A 
ATOM     77  C   UNL     1      15.488   8.870  -0.417  1.00  0.00     0.040 A 
ATOM     78  F   UNL     1      13.310   8.177  -0.843  1.00  0.00    -0.206 F 
ATOM     79  C   UNL     1      16.758   9.221  -0.856  1.00  0.00     0.006 A 
ENDBRANCH  51  72
BRANCH  63  80
ATOM     80  C   UNL     1      12.104   7.062  -8.250  1.00  0.00     0.057 A 
ATOM     81  C   UNL     1      11.976   5.910  -7.460  1.00  0.00     0.134 A 
ATOM     82  C   UNL     1      12.431   6.873  -9.596  1.00  0.00     0.134 A 
ATOM     83  F   UNL     1      11.571   5.987  -6.187  1.00  0.00    -0.206 F 
ATOM     84  C   UNL     1      12.207   4.632  -7.975  1.00  0.00     0.040 A 
ATOM     85  C   UNL     1      12.633   5.599 -10.132  1.00  0.00     0.040 A 
ATOM     86  F   UNL     1      12.512   7.926 -10.426  1.00  0.00    -0.206 F 
ATOM     87  C   UNL     1      12.532   4.473  -9.319  1.00  0.00     0.006 A 
ENDBRANCH  63  80
ENDBRANCH  37  38
ENDBRANCH  30  32
ENDBRANCH  29  30
ENDBRANCH  28  29
ENDBRANCH  27  28
ENDBRANCH  26  27
ENDBRANCH  25  26
ENDBRANCH   1  25
TORSDOF 20
