REMARK SMILES CC(=O)Nc1ccc(/C(=C\c2ccc(S(C)(=O)=O)cc2)C(=O)OCCOCCOCCOC(=O)c2ccc(-c3c4nc(c(-c5c(F)cccc5F)c5ccc([nH]5)c(-c5c(F)cccc5F)c5nc(c(-c6c(F)cccc6F)c6ccc3[nH]6)C=C5)C=C4)cc2)cc1
REMARK SMILES IDX 27 1 26 2 25 3 24 4 23 5 21 6 22 7 9 8 10 9 8 10 5 11 6 12
REMARK SMILES IDX 90 13 7 14 89 15 4 16 1 17 2 18 3 19 11 21 12 22 20 23 13 24
REMARK SMILES IDX 19 25 14 26 15 27 16 28 17 29 18 30 28 31 29 32 30 33 31 34
REMARK SMILES IDX 32 35 33 36 34 37 35 38 36 39 88 40 37 41 87 42 38 43 39 44
REMARK SMILES IDX 40 45 81 46 41 47 86 48 80 49 82 50 42 51 85 52 79 53 78 54
REMARK SMILES IDX 43 56 69 57 52 58 68 59 53 60 56 61 67 62 83 63 54 64 55 65
REMARK SMILES IDX 66 67 84 68 57 69 44 70 45 71 50 72 46 73 47 74 49 75 51 76
REMARK SMILES IDX 48 77 70 78 71 79 76 80 72 81 73 82 75 83 77 84 74 85 58 86
REMARK SMILES IDX 59 87 64 88 60 89 61 90 63 91 65 92 62 93
REMARK H PARENT 4 20 82 55 56 66
REMARK Flexibility Score: inf
ROOT
ATOM      1  C   UNL     1       5.397  -2.812   3.900  1.00  0.00     0.188 C 
ENDROOT
BRANCH   1   2
ATOM      2  O   UNL     1       6.676  -3.388   3.817  1.00  0.00    -0.376 OA
BRANCH   2   3
ATOM      3  C   UNL     1       7.752  -2.867   4.581  1.00  0.00     0.202 C 
BRANCH   3   4
ATOM      4  C   UNL     1       7.709  -1.597   5.457  1.00  0.00     0.261 C 
BRANCH   4   5
ATOM      5  O   UNL     1       6.427  -1.091   5.838  1.00  0.00    -0.460 OA
BRANCH   5   6
ATOM      6  C   UNL     1       6.041   0.093   5.280  1.00  0.00     0.338 C 
ATOM      7  O   UNL     1       6.698   0.746   4.484  1.00  0.00    -0.246 OA
BRANCH   6   8
ATOM      8  C   UNL     1       4.622   0.430   5.661  1.00  0.00     0.067 C 
ATOM      9  C   UNL     1       4.282   0.139   6.944  1.00  0.00     0.024 C 
BRANCH   8  10
ATOM     10  C   UNL     1       3.705   1.023   4.632  1.00  0.00    -0.011 A 
ATOM     11  C   UNL     1       1.772   1.909   2.715  1.00  0.00     0.041 A 
ATOM     12  C   UNL     1       1.778   2.397   4.022  1.00  0.00     0.027 A 
ATOM     13  C   UNL     1       2.793   1.043   2.342  1.00  0.00     0.027 A 
ATOM     14  C   UNL     1       2.740   1.982   4.952  1.00  0.00     0.011 A 
ATOM     15  C   UNL     1       3.746   0.612   3.288  1.00  0.00     0.011 A 
BRANCH  11  16
ATOM     16  N   UNL     1       0.778   2.428   1.871  1.00  0.00    -0.326 N 
ATOM     17  C   UNL     1       0.391   0.643   0.180  1.00  0.00     0.114 C 
ATOM     18  C   UNL     1       0.220   2.037   0.693  1.00  0.00     0.221 C 
ATOM     19  O   UNL     1      -0.534   2.827   0.119  1.00  0.00    -0.275 OA
ATOM     20  H   UNL     1       0.395   3.270   2.210  1.00  0.00     0.169 HD
ENDBRANCH  11  16
ENDBRANCH   8  10
BRANCH   9  21
ATOM     21  C   UNL     1       3.015   0.445   7.628  1.00  0.00    -0.025 A 
ATOM     22  C   UNL     1       3.069   1.375   8.675  1.00  0.00     0.009 A 
ATOM     23  C   UNL     1       1.771  -0.027   7.185  1.00  0.00     0.009 A 
ATOM     24  C   UNL     1       1.899   1.934   9.183  1.00  0.00     0.021 A 
ATOM     25  C   UNL     1       0.592   0.538   7.684  1.00  0.00     0.021 A 
ATOM     26  C   UNL     1       0.667   1.540   8.656  1.00  0.00     0.067 A 
BRANCH  26  27
ATOM     27  S   UNL     1      -0.782   2.470   9.103  1.00  0.00     0.175 S 
ATOM     28  C   UNL     1      -1.152   1.935  10.749  1.00  0.00     0.163 C 
ATOM     29  O   UNL     1      -0.381   3.864   9.159  1.00  0.00    -0.224 OA
ATOM     30  O   UNL     1      -1.865   2.045   8.237  1.00  0.00    -0.224 OA
ENDBRANCH  26  27
ENDBRANCH   9  21
ENDBRANCH   6   8
ENDBRANCH   5   6
ENDBRANCH   4   5
ENDBRANCH   3   4
ENDBRANCH   2   3
ENDBRANCH   1   2
BRANCH   1  31
ATOM     31  C   UNL     1       4.524  -3.169   5.119  1.00  0.00     0.188 C 
BRANCH  31  32
ATOM     32  O   UNL     1       5.050  -3.968   6.158  1.00  0.00    -0.376 OA
BRANCH  32  33
ATOM     33  C   UNL     1       5.574  -5.249   5.848  1.00  0.00     0.202 C 
BRANCH  33  34
ATOM     34  C   UNL     1       4.934  -6.189   4.807  1.00  0.00     0.261 C 
BRANCH  34  35
ATOM     35  O   UNL     1       4.414  -5.586   3.613  1.00  0.00    -0.460 OA
BRANCH  35  36
ATOM     36  C   UNL     1       3.064  -5.584   3.490  1.00  0.00     0.338 C 
ATOM     37  O   UNL     1       2.242  -6.014   4.288  1.00  0.00    -0.246 OA
BRANCH  36  38
ATOM     38  C   UNL     1       2.693  -4.808   2.294  1.00  0.00     0.060 A 
ATOM     39  C   UNL     1       2.091  -3.553   2.455  1.00  0.00     0.016 A 
ATOM     40  C   UNL     1       2.915  -5.326   1.018  1.00  0.00     0.016 A 
ATOM     41  C   UNL     1       1.731  -2.804   1.335  1.00  0.00     0.010 A 
ATOM     42  C   UNL     1       2.521  -4.586  -0.102  1.00  0.00     0.010 A 
ATOM     43  C   UNL     1       1.922  -3.325   0.049  1.00  0.00    -0.014 A 
BRANCH  43  44
ATOM     44  C   UNL     1       1.382  -2.612  -1.135  1.00  0.00     0.031 A 
ATOM     45  C   UNL     1       0.015  -2.975  -1.643  1.00  0.00     0.074 A 
ATOM     46  C   UNL     1       2.075  -1.621  -1.725  1.00  0.00     0.049 A 
ATOM     47  N   UNL     1      -0.628  -2.524  -2.689  1.00  0.00    -0.248 NA
ATOM     48  C   UNL     1      -0.724  -3.981  -0.866  1.00  0.00     0.031 C 
ATOM     49  C   UNL     1       3.361  -1.103  -1.266  1.00  0.00     0.029 A 
ATOM     50  N   UNL     1       1.761  -0.834  -2.806  1.00  0.00    -0.354 N 
ATOM     51  C   UNL     1      -1.829  -3.220  -2.722  1.00  0.00     0.074 A 
ATOM     52  C   UNL     1      -1.832  -4.112  -1.581  1.00  0.00     0.031 C 
ATOM     53  C   UNL     1       3.701  -0.049  -2.028  1.00  0.00     0.029 A 
ATOM     54  C   UNL     1       2.698   0.133  -3.078  1.00  0.00     0.049 A 
ATOM     55  H   UNL     1       0.940  -0.952  -3.337  1.00  0.00     0.167 HD
ATOM     56  C   UNL     1      -2.829  -3.139  -3.632  1.00  0.00     0.037 A 
ATOM     57  C   UNL     1       2.749   1.044  -4.072  1.00  0.00     0.037 A 
ATOM     58  C   UNL     1      -2.826  -2.251  -4.765  1.00  0.00     0.049 A 
ATOM     59  C   UNL     1       1.656   1.063  -5.114  1.00  0.00     0.074 A 
ATOM     60  C   UNL     1      -3.785  -2.115  -5.754  1.00  0.00     0.029 A 
ATOM     61  N   UNL     1      -1.816  -1.349  -5.062  1.00  0.00    -0.354 N 
ATOM     62  N   UNL     1       0.543   0.370  -5.162  1.00  0.00    -0.248 NA
ATOM     63  C   UNL     1       1.845   1.968  -6.260  1.00  0.00     0.031 C 
ATOM     64  C   UNL     1      -3.324  -1.180  -6.686  1.00  0.00     0.029 A 
ATOM     65  C   UNL     1      -2.109  -0.685  -6.243  1.00  0.00     0.049 A 
ATOM     66  H   UNL     1      -1.010  -1.202  -4.516  1.00  0.00     0.167 HD
ATOM     67  C   UNL     1      -0.102   0.764  -6.330  1.00  0.00     0.074 A 
ATOM     68  C   UNL     1       0.728   1.775  -6.948  1.00  0.00     0.031 C 
ATOM     69  C   UNL     1      -1.272   0.318  -6.851  1.00  0.00     0.037 A 
BRANCH  56  70
ATOM     70  C   UNL     1      -3.979  -4.092  -3.484  1.00  0.00     0.057 A 
ATOM     71  C   UNL     1      -4.935  -3.963  -2.470  1.00  0.00     0.134 A 
ATOM     72  C   UNL     1      -4.145  -5.141  -4.399  1.00  0.00     0.134 A 
ATOM     73  F   UNL     1      -4.824  -2.993  -1.550  1.00  0.00    -0.206 F 
ATOM     74  C   UNL     1      -6.003  -4.856  -2.358  1.00  0.00     0.040 A 
ATOM     75  C   UNL     1      -5.223  -6.022  -4.315  1.00  0.00     0.040 A 
ATOM     76  F   UNL     1      -3.266  -5.320  -5.398  1.00  0.00    -0.206 F 
ATOM     77  C   UNL     1      -6.153  -5.884  -3.288  1.00  0.00     0.006 A 
ENDBRANCH  56  70
BRANCH  57  78
ATOM     78  C   UNL     1       3.895   1.988  -4.174  1.00  0.00     0.057 A 
ATOM     79  C   UNL     1       3.709   3.374  -4.082  1.00  0.00     0.134 A 
ATOM     80  C   UNL     1       5.199   1.535  -4.414  1.00  0.00     0.134 A 
ATOM     81  F   UNL     1       2.482   3.878  -3.888  1.00  0.00    -0.206 F 
ATOM     82  C   UNL     1       4.769   4.270  -4.238  1.00  0.00     0.040 A 
ATOM     83  C   UNL     1       6.274   2.417  -4.538  1.00  0.00     0.040 A 
ATOM     84  F   UNL     1       5.450   0.222  -4.527  1.00  0.00    -0.206 F 
ATOM     85  C   UNL     1       6.058   3.790  -4.459  1.00  0.00     0.006 A 
ENDBRANCH  57  78
BRANCH  69  86
ATOM     86  C   UNL     1      -1.733   0.916  -8.152  1.00  0.00     0.057 A 
ATOM     87  C   UNL     1      -1.097   0.621  -9.365  1.00  0.00     0.134 A 
ATOM     88  C   UNL     1      -2.869   1.735  -8.203  1.00  0.00     0.134 A 
ATOM     89  F   UNL     1      -0.000  -0.151  -9.388  1.00  0.00    -0.206 F 
ATOM     90  C   UNL     1      -1.565   1.131 -10.578  1.00  0.00     0.040 A 
ATOM     91  C   UNL     1      -3.362   2.229  -9.412  1.00  0.00     0.040 A 
ATOM     92  F   UNL     1      -3.535   2.048  -7.081  1.00  0.00    -0.206 F 
ATOM     93  C   UNL     1      -2.706   1.930 -10.605  1.00  0.00     0.006 A 
ENDBRANCH  69  86
ENDBRANCH  43  44
ENDBRANCH  36  38
ENDBRANCH  35  36
ENDBRANCH  34  35
ENDBRANCH  33  34
ENDBRANCH  32  33
ENDBRANCH  31  32
ENDBRANCH   1  31
TORSDOF 21
