REMARK SMILES CC(C)(C)[NH+]1CCN(C(=O)CCCC(=O)OCCOCCOCCOC(=O)c2ccc(-c3c4nc(c(-c5c(F)cccc5F)c5ccc([nH]5)c(-c5c(F)cccc5F)c5nc(c(-c6c(F)cccc6F)c6ccc3[nH]6)C=C5)C=C4)cc2)CC1
REMARK SMILES IDX 20 1 19 2 18 3 17 4 16 5 14 6 15 7 13 8 12 9 11 10 9 11 5 12
REMARK SMILES IDX 6 13 83 14 7 16 82 17 8 18 10 19 2 20 1 21 3 22 4 23 21 24
REMARK SMILES IDX 22 25 23 26 24 27 25 28 26 29 27 30 28 31 29 32 81 33 30 34
REMARK SMILES IDX 80 35 31 36 32 37 33 38 74 39 34 40 79 41 73 42 75 43 35 44
REMARK SMILES IDX 78 45 72 46 71 47 36 49 62 50 45 51 61 52 46 53 49 54 60 55
REMARK SMILES IDX 76 56 47 57 48 58 59 60 77 61 50 62 37 63 38 64 43 65 39 66
REMARK SMILES IDX 40 67 42 68 44 69 41 70 63 71 64 72 69 73 65 74 66 75 68 76
REMARK SMILES IDX 70 77 67 78 51 79 52 80 57 81 53 82 54 83 56 84 58 85 55 86
REMARK H PARENT 5 15 75 48 49 59
REMARK Flexibility Score: inf
ROOT
ATOM      1  C   UNL     1      -4.044   6.565   2.368  1.00  0.00     0.188 C 
ENDROOT
BRANCH   1   2
ATOM      2  O   UNL     1      -3.513   5.989   3.559  1.00  0.00    -0.376 OA
BRANCH   2   3
ATOM      3  C   UNL     1      -2.164   5.539   3.547  1.00  0.00     0.202 C 
BRANCH   3   4
ATOM      4  C   UNL     1      -1.808   4.528   2.457  1.00  0.00     0.261 C 
BRANCH   4   5
ATOM      5  O   UNL     1      -1.905   5.080   1.121  1.00  0.00    -0.463 OA
BRANCH   5   6
ATOM      6  C   UNL     1      -2.619   4.387   0.204  1.00  0.00     0.305 C 
ATOM      7  O   UNL     1      -3.194   3.332   0.449  1.00  0.00    -0.252 OA
BRANCH   6   8
ATOM      8  C   UNL     1      -2.628   4.977  -1.206  1.00  0.00     0.123 C 
BRANCH   8   9
ATOM      9  C   UNL     1      -1.914   6.256  -1.681  1.00  0.00     0.022 C 
BRANCH   9  10
ATOM     10  C   UNL     1      -0.478   6.611  -1.282  1.00  0.00     0.101 C 
BRANCH  10  11
ATOM     11  C   UNL     1       0.634   5.826  -1.986  1.00  0.00     0.222 C 
ATOM     12  N   UNL     1       1.726   1.980  -0.391  1.00  0.00    -0.328 N 
ATOM     13  C   UNL     1       2.672   2.684  -1.272  1.00  0.00     0.284 C 
ATOM     14  C   UNL     1       1.145   2.959   0.516  1.00  0.00     0.284 C 
ATOM     15  H   UNL     1       2.270   1.303   0.146  1.00  0.00     0.348 HD
ATOM     16  C   UNL     1       2.075   3.842  -2.099  1.00  0.00     0.181 C 
ATOM     17  C   UNL     1       0.469   4.108  -0.219  1.00  0.00     0.181 C 
ATOM     18  N   UNL     1       1.136   4.690  -1.362  1.00  0.00    -0.331 N 
ATOM     19  O   UNL     1       1.057   6.210  -3.079  1.00  0.00    -0.275 OA
BRANCH  12  20
ATOM     20  C   UNL     1       0.853   0.910  -0.933  1.00  0.00     0.089 C 
ATOM     21  C   UNL     1       1.334  -0.359  -0.196  1.00  0.00     0.078 C 
ATOM     22  C   UNL     1       0.990   0.660  -2.450  1.00  0.00     0.078 C 
ATOM     23  C   UNL     1      -0.672   1.019  -0.659  1.00  0.00     0.078 C 
ENDBRANCH  12  20
ENDBRANCH  10  11
ENDBRANCH   9  10
ENDBRANCH   8   9
ENDBRANCH   6   8
ENDBRANCH   5   6
ENDBRANCH   4   5
ENDBRANCH   3   4
ENDBRANCH   2   3
ENDBRANCH   1   2
BRANCH   1  24
ATOM     24  C   UNL     1      -3.168   7.569   1.595  1.00  0.00     0.188 C 
BRANCH  24  25
ATOM     25  O   UNL     1      -2.137   8.134   2.381  1.00  0.00    -0.376 OA
BRANCH  25  26
ATOM     26  C   UNL     1      -2.224   9.530   2.606  1.00  0.00     0.202 C 
BRANCH  26  27
ATOM     27  C   UNL     1      -3.408   9.975   3.477  1.00  0.00     0.261 C 
BRANCH  27  28
ATOM     28  O   UNL     1      -4.710   9.540   3.039  1.00  0.00    -0.460 OA
BRANCH  28  29
ATOM     29  C   UNL     1      -5.196  10.035   1.878  1.00  0.00     0.338 C 
ATOM     30  O   UNL     1      -4.669  10.873   1.165  1.00  0.00    -0.246 OA
BRANCH  29  31
ATOM     31  C   UNL     1      -6.354   9.192   1.481  1.00  0.00     0.060 A 
ATOM     32  C   UNL     1      -6.375   8.616   0.201  1.00  0.00     0.016 A 
ATOM     33  C   UNL     1      -7.383   8.918   2.385  1.00  0.00     0.016 A 
ATOM     34  C   UNL     1      -7.438   7.792  -0.186  1.00  0.00     0.010 A 
ATOM     35  C   UNL     1      -8.457   8.113   1.990  1.00  0.00     0.010 A 
ATOM     36  C   UNL     1      -8.508   7.572   0.692  1.00  0.00    -0.014 A 
BRANCH  36  37
ATOM     37  C   UNL     1      -9.784   6.997   0.194  1.00  0.00     0.031 A 
ATOM     38  C   UNL     1     -10.857   7.957  -0.248  1.00  0.00     0.074 A 
ATOM     39  C   UNL     1     -10.011   5.672   0.141  1.00  0.00     0.049 A 
ATOM     40  N   UNL     1     -12.088   7.722  -0.621  1.00  0.00    -0.248 NA
ATOM     41  C   UNL     1     -10.483   9.382  -0.263  1.00  0.00     0.031 C 
ATOM     42  C   UNL     1      -9.052   4.628   0.490  1.00  0.00     0.029 A 
ATOM     43  N   UNL     1     -11.145   4.982  -0.219  1.00  0.00    -0.354 N 
ATOM     44  C   UNL     1     -12.636   8.966  -0.908  1.00  0.00     0.074 A 
ATOM     45  C   UNL     1     -11.615   9.955  -0.639  1.00  0.00     0.031 C 
ATOM     46  C   UNL     1      -9.644   3.428   0.346  1.00  0.00     0.029 A 
ATOM     47  C   UNL     1     -11.033   3.620  -0.072  1.00  0.00     0.049 A 
ATOM     48  H   UNL     1     -11.960   5.422  -0.551  1.00  0.00     0.167 HD
ATOM     49  C   UNL     1     -13.877   9.263  -1.360  1.00  0.00     0.037 A 
ATOM     50  C   UNL     1     -11.954   2.648  -0.231  1.00  0.00     0.037 A 
ATOM     51  C   UNL     1     -14.901   8.289  -1.618  1.00  0.00     0.049 A 
ATOM     52  C   UNL     1     -13.359   3.010  -0.648  1.00  0.00     0.074 A 
ATOM     53  C   UNL     1     -16.190   8.494  -2.078  1.00  0.00     0.029 A 
ATOM     54  N   UNL     1     -14.755   6.924  -1.430  1.00  0.00    -0.354 N 
ATOM     55  N   UNL     1     -13.864   4.187  -0.930  1.00  0.00    -0.248 NA
ATOM     56  C   UNL     1     -14.324   1.904  -0.764  1.00  0.00     0.031 C 
ATOM     57  C   UNL     1     -16.838   7.256  -2.126  1.00  0.00     0.029 A 
ATOM     58  C   UNL     1     -15.937   6.276  -1.744  1.00  0.00     0.049 A 
ATOM     59  H   UNL     1     -13.932   6.481  -1.119  1.00  0.00     0.167 HD
ATOM     60  C   UNL     1     -15.189   3.959  -1.290  1.00  0.00     0.074 A 
ATOM     61  C   UNL     1     -15.409   2.531  -1.197  1.00  0.00     0.031 C 
ATOM     62  C   UNL     1     -16.138   4.852  -1.665  1.00  0.00     0.037 A 
BRANCH  49  63
ATOM     63  C   UNL     1     -14.197  10.712  -1.577  1.00  0.00     0.057 A 
ATOM     64  C   UNL     1     -13.645  11.439  -2.640  1.00  0.00     0.134 A 
ATOM     65  C   UNL     1     -15.076  11.384  -0.720  1.00  0.00     0.134 A 
ATOM     66  F   UNL     1     -12.779  10.858  -3.484  1.00  0.00    -0.206 F 
ATOM     67  C   UNL     1     -13.940  12.790  -2.829  1.00  0.00     0.040 A 
ATOM     68  C   UNL     1     -15.399  12.727  -0.914  1.00  0.00     0.040 A 
ATOM     69  F   UNL     1     -15.638  10.745   0.318  1.00  0.00    -0.206 F 
ATOM     70  C   UNL     1     -14.825  13.436  -1.968  1.00  0.00     0.006 A 
ENDBRANCH  49  63
BRANCH  50  71
ATOM     71  C   UNL     1     -11.600   1.228   0.026  1.00  0.00     0.057 A 
ATOM     72  C   UNL     1     -11.556   0.291  -1.014  1.00  0.00     0.134 A 
ATOM     73  C   UNL     1     -11.350   0.761   1.323  1.00  0.00     0.134 A 
ATOM     74  F   UNL     1     -11.818   0.669  -2.273  1.00  0.00    -0.206 F 
ATOM     75  C   UNL     1     -11.294  -1.059  -0.773  1.00  0.00     0.040 A 
ATOM     76  C   UNL     1     -11.063  -0.582   1.575  1.00  0.00     0.040 A 
ATOM     77  F   UNL     1     -11.387   1.604   2.365  1.00  0.00    -0.206 F 
ATOM     78  C   UNL     1     -11.043  -1.498   0.525  1.00  0.00     0.006 A 
ENDBRANCH  50  71
BRANCH  62  79
ATOM     79  C   UNL     1     -17.485   4.315  -2.053  1.00  0.00     0.057 A 
ATOM     80  C   UNL     1     -18.388   3.817  -1.106  1.00  0.00     0.134 A 
ATOM     81  C   UNL     1     -17.904   4.348  -3.390  1.00  0.00     0.134 A 
ATOM     82  F   UNL     1     -18.046   3.749   0.190  1.00  0.00    -0.206 F 
ATOM     83  C   UNL     1     -19.652   3.353  -1.477  1.00  0.00     0.040 A 
ATOM     84  C   UNL     1     -19.174   3.911  -3.770  1.00  0.00     0.040 A 
ATOM     85  F   UNL     1     -17.093   4.823  -4.347  1.00  0.00    -0.206 F 
ATOM     86  C   UNL     1     -20.051   3.406  -2.812  1.00  0.00     0.006 A 
ENDBRANCH  62  79
ENDBRANCH  36  37
ENDBRANCH  29  31
ENDBRANCH  28  29
ENDBRANCH  27  28
ENDBRANCH  26  27
ENDBRANCH  25  26
ENDBRANCH  24  25
ENDBRANCH   1  24
TORSDOF 21
