REMARK SMILES O=C(OCCOCCOCCOC(=O)[C@@H]1[C@H](C(=O)Nc2ccccc2OC(F)F)[C@@H]2C=C[C@H]1C2)c1ccc(-c2c3nc(c(-c4c(F)cccc4F)c4ccc([nH]4)c(-c4c(F)cccc4F)c4nc(c(-c5c(F)cccc5F)c5ccc2[nH]5)C=C4)C=C3)cc1
REMARK SMILES IDX 8 1 7 2 6 3 5 4 4 5 3 6 2 7 1 8 35 9 36 10 88 11 37 12 87 13
REMARK SMILES IDX 38 14 39 15 40 16 81 17 41 18 86 19 80 20 82 21 42 22 85 23
REMARK SMILES IDX 79 24 78 25 43 27 69 28 52 29 68 30 53 31 56 32 67 33 83 34
REMARK SMILES IDX 54 35 55 36 66 38 84 39 57 40 44 41 45 42 50 43 46 44 47 45
REMARK SMILES IDX 49 46 51 47 48 48 70 49 71 50 76 51 72 52 73 53 75 54 77 55
REMARK SMILES IDX 74 56 58 57 59 58 64 59 60 60 61 61 63 62 65 63 62 64 9 65
REMARK SMILES IDX 10 66 11 67 12 68 13 69 14 70 15 71 16 72 33 73 30 74 32 75
REMARK SMILES IDX 34 76 31 77 17 78 18 79 19 80 20 82 21 83 25 84 22 85 24 86
REMARK SMILES IDX 23 87 26 88 27 89 28 90 29 91
REMARK H PARENT 82 26 56 37 19 81
REMARK Flexibility Score: inf
ROOT
ATOM      1  C   UNL     1       3.357   2.667  -2.137  1.00  0.00     0.188 C 
ENDROOT
BRANCH   1   2
ATOM      2  C   UNL     1       3.494   1.217  -1.670  1.00  0.00     0.188 C 
BRANCH   2   3
ATOM      3  O   UNL     1       4.857   0.961  -1.361  1.00  0.00    -0.376 OA
BRANCH   3   4
ATOM      4  C   UNL     1       5.392  -0.349  -1.502  1.00  0.00     0.202 C 
BRANCH   4   5
ATOM      5  C   UNL     1       4.469  -1.568  -1.652  1.00  0.00     0.261 C 
BRANCH   5   6
ATOM      6  O   UNL     1       3.977  -1.972  -0.367  1.00  0.00    -0.460 OA
BRANCH   6   7
ATOM      7  C   UNL     1       2.810  -1.440   0.079  1.00  0.00     0.338 C 
ATOM      8  O   UNL     1       1.816  -1.164  -0.550  1.00  0.00    -0.246 OA
BRANCH   7   9
ATOM      9  C   UNL     1       3.105  -1.142   1.493  1.00  0.00     0.060 A 
ATOM     10  C   UNL     1       4.194  -0.297   1.727  1.00  0.00     0.016 A 
ATOM     11  C   UNL     1       2.487  -1.814   2.542  1.00  0.00     0.016 A 
ATOM     12  C   UNL     1       4.782  -0.241   2.967  1.00  0.00     0.010 A 
ATOM     13  C   UNL     1       3.036  -1.697   3.824  1.00  0.00     0.010 A 
ATOM     14  C   UNL     1       4.218  -0.957   4.022  1.00  0.00    -0.014 A 
BRANCH  14  15
ATOM     15  C   UNL     1       4.994  -1.004   5.275  1.00  0.00     0.031 A 
ATOM     16  C   UNL     1       5.729  -2.263   5.617  1.00  0.00     0.074 A 
ATOM     17  C   UNL     1       5.178   0.129   5.976  1.00  0.00     0.049 A 
ATOM     18  N   UNL     1       6.481  -2.525   6.652  1.00  0.00    -0.248 NA
ATOM     19  C   UNL     1       5.622  -3.372   4.654  1.00  0.00     0.031 C 
ATOM     20  C   UNL     1       4.617   1.433   5.618  1.00  0.00     0.029 A 
ATOM     21  N   UNL     1       5.913   0.383   7.101  1.00  0.00    -0.354 N 
ATOM     22  C   UNL     1       6.920  -3.829   6.474  1.00  0.00     0.074 A 
ATOM     23  C   UNL     1       6.338  -4.316   5.244  1.00  0.00     0.031 C 
ATOM     24  C   UNL     1       5.042   2.354   6.495  1.00  0.00     0.029 A 
ATOM     25  C   UNL     1       5.843   1.691   7.515  1.00  0.00     0.049 A 
ATOM     26  H   UNL     1       6.441  -0.304   7.568  1.00  0.00     0.167 HD
ATOM     27  C   UNL     1       7.739  -4.550   7.273  1.00  0.00     0.037 A 
ATOM     28  C   UNL     1       6.342   2.273   8.620  1.00  0.00     0.037 A 
ATOM     29  C   UNL     1       8.295  -4.037   8.496  1.00  0.00     0.049 A 
ATOM     30  C   UNL     1       7.138   1.412   9.560  1.00  0.00     0.074 A 
ATOM     31  C   UNL     1       9.071  -4.686   9.437  1.00  0.00     0.029 A 
ATOM     32  N   UNL     1       8.125  -2.732   8.943  1.00  0.00    -0.354 N 
ATOM     33  N   UNL     1       7.492   0.154   9.426  1.00  0.00    -0.248 NA
ATOM     34  C   UNL     1       7.596   2.038  10.804  1.00  0.00     0.031 C 
ATOM     35  C   UNL     1       9.330  -3.786  10.477  1.00  0.00     0.029 A 
ATOM     36  C   UNL     1       8.764  -2.560  10.158  1.00  0.00     0.049 A 
ATOM     37  H   UNL     1       7.622  -2.033   8.466  1.00  0.00     0.167 HD
ATOM     38  C   UNL     1       8.232  -0.156  10.557  1.00  0.00     0.074 A 
ATOM     39  C   UNL     1       8.292   1.054  11.355  1.00  0.00     0.031 C 
ATOM     40  C   UNL     1       8.808  -1.332  10.912  1.00  0.00     0.037 A 
BRANCH  27  41
ATOM     41  C   UNL     1       8.005  -5.971   6.872  1.00  0.00     0.057 A 
ATOM     42  C   UNL     1       8.802  -6.299   5.767  1.00  0.00     0.134 A 
ATOM     43  C   UNL     1       7.414  -7.027   7.577  1.00  0.00     0.134 A 
ATOM     44  F   UNL     1       9.374  -5.335   5.030  1.00  0.00    -0.206 F 
ATOM     45  C   UNL     1       8.974  -7.624   5.359  1.00  0.00     0.040 A 
ATOM     46  C   UNL     1       7.599  -8.357   7.193  1.00  0.00     0.040 A 
ATOM     47  F   UNL     1       6.634  -6.784   8.640  1.00  0.00    -0.206 F 
ATOM     48  C   UNL     1       8.373  -8.658   6.075  1.00  0.00     0.006 A 
ENDBRANCH  27  41
BRANCH  28  49
ATOM     49  C   UNL     1       6.057   3.701   8.918  1.00  0.00     0.057 A 
ATOM     50  C   UNL     1       7.078   4.655   8.991  1.00  0.00     0.134 A 
ATOM     51  C   UNL     1       4.750   4.146   9.163  1.00  0.00     0.134 A 
ATOM     52  F   UNL     1       8.353   4.296   8.780  1.00  0.00    -0.206 F 
ATOM     53  C   UNL     1       6.816   5.987   9.319  1.00  0.00     0.040 A 
ATOM     54  C   UNL     1       4.468   5.480   9.461  1.00  0.00     0.040 A 
ATOM     55  F   UNL     1       3.719   3.289   9.104  1.00  0.00    -0.206 F 
ATOM     56  C   UNL     1       5.506   6.404   9.552  1.00  0.00     0.006 A 
ENDBRANCH  28  49
BRANCH  40  57
ATOM     57  C   UNL     1       9.582  -1.341  12.195  1.00  0.00     0.057 A 
ATOM     58  C   UNL     1       8.946  -1.299  13.441  1.00  0.00     0.134 A 
ATOM     59  C   UNL     1      10.979  -1.437  12.177  1.00  0.00     0.134 A 
ATOM     60  F   UNL     1       7.612  -1.192  13.522  1.00  0.00    -0.206 F 
ATOM     61  C   UNL     1       9.678  -1.329  14.629  1.00  0.00     0.040 A 
ATOM     62  C   UNL     1      11.717  -1.498  13.357  1.00  0.00     0.040 A 
ATOM     63  F   UNL     1      11.643  -1.489  11.012  1.00  0.00    -0.206 F 
ATOM     64  C   UNL     1      11.067  -1.438  14.587  1.00  0.00     0.006 A 
ENDBRANCH  40  57
ENDBRANCH  14  15
ENDBRANCH   7   9
ENDBRANCH   6   7
ENDBRANCH   5   6
ENDBRANCH   4   5
ENDBRANCH   3   4
ENDBRANCH   2   3
ENDBRANCH   1   2
BRANCH   1  65
ATOM     65  O   UNL     1       3.548   3.573  -1.053  1.00  0.00    -0.376 OA
BRANCH  65  66
ATOM     66  C   UNL     1       4.891   3.923  -0.771  1.00  0.00     0.202 C 
BRANCH  66  67
ATOM     67  C   UNL     1       5.182   4.184   0.728  1.00  0.00     0.261 C 
BRANCH  67  68
ATOM     68  O   UNL     1       4.108   4.575   1.621  1.00  0.00    -0.463 OA
BRANCH  68  69
ATOM     69  C   UNL     1       3.235   3.608   2.022  1.00  0.00     0.310 C 
ATOM     70  O   UNL     1       3.211   2.476   1.546  1.00  0.00    -0.252 OA
BRANCH  69  71
ATOM     71  C   UNL     1       2.393   3.970   3.246  1.00  0.00     0.119 C 
ATOM     72  C   UNL     1       0.842   4.167   3.481  1.00  0.00     0.100 C 
ATOM     73  C   UNL     1       3.033   4.984   4.229  1.00  0.00     0.027 C 
ATOM     74  C   UNL     1       0.852   5.164   4.691  1.00  0.00     0.025 C 
ATOM     75  C   UNL     1       2.616   6.391   3.886  1.00  0.00    -0.027 C 
ATOM     76  C   UNL     1       2.120   4.765   5.448  1.00  0.00     0.017 C 
ATOM     77  C   UNL     1       1.317   6.510   4.193  1.00  0.00    -0.027 C 
BRANCH  72  78
ATOM     78  C   UNL     1      -0.461   4.486   2.700  1.00  0.00     0.229 C 
ATOM     79  O   UNL     1      -1.507   3.939   3.099  1.00  0.00    -0.274 OA
ATOM     80  N   UNL     1      -0.672   5.478   1.796  1.00  0.00    -0.323 N 
ATOM     81  H   UNL     1      -1.618   5.712   1.659  1.00  0.00     0.170 HD
BRANCH  80  82
ATOM     82  C   UNL     1       0.222   6.217   1.033  1.00  0.00     0.084 A 
ATOM     83  C   UNL     1      -0.008   7.589   0.883  1.00  0.00     0.030 A 
ATOM     84  C   UNL     1       1.337   5.651   0.458  1.00  0.00     0.149 A 
ATOM     85  C   UNL     1       1.015   8.422   0.424  1.00  0.00     0.002 A 
ATOM     86  C   UNL     1       2.376   6.491   0.045  1.00  0.00     0.049 A 
ATOM     87  C   UNL     1       2.241   7.875   0.075  1.00  0.00     0.004 A 
BRANCH  84  88
ATOM     88  O   UNL     1       1.539   4.323   0.307  1.00  0.00    -0.433 OA
BRANCH  88  89
ATOM     89  C   UNL     1       0.519   3.416  -0.091  1.00  0.00     0.542 C 
ATOM     90  F   UNL     1       0.065   2.752   0.997  1.00  0.00    -0.167 F 
ATOM     91  F   UNL     1      -0.519   4.051  -0.679  1.00  0.00    -0.167 F 
ENDBRANCH  88  89
ENDBRANCH  84  88
ENDBRANCH  80  82
ENDBRANCH  72  78
ENDBRANCH  69  71
ENDBRANCH  68  69
ENDBRANCH  67  68
ENDBRANCH  66  67
ENDBRANCH  65  66
ENDBRANCH   1  65
TORSDOF 21
