REMARK SMILES CCN(C(=O)Cc1c(C(=O)OCCOCCOCCOC(=O)c2ccc(-c3c4nc(c(-c5c(F)cccc5F)c5ccc([nH]5)c(-c5c(F)cccc5F)c5nc(c(-c6c(F)cccc6F)c6ccc3[nH]6)C=C5)C=C4)cc2)[nH]c2ccc(Cl)cc12)c1ccc(C)c(C)c1
REMARK SMILES IDX 15 1 14 2 13 3 12 4 11 5 9 6 10 7 8 8 7 9 84 10 77 11 78 12
REMARK SMILES IDX 83 13 79 15 81 16 80 17 82 18 6 19 4 20 5 21 3 22 2 23 1 24
REMARK SMILES IDX 85 25 86 26 92 27 87 28 90 29 88 30 91 31 89 32 16 33 17 34
REMARK SMILES IDX 18 35 19 36 20 37 21 38 22 39 23 40 24 41 76 42 25 43 75 44
REMARK SMILES IDX 26 45 27 46 28 47 69 48 29 49 74 50 68 51 70 52 30 53 73 54
REMARK SMILES IDX 67 55 66 56 31 58 57 59 40 60 56 61 41 62 44 63 55 64 71 65
REMARK SMILES IDX 42 66 43 67 54 69 72 70 45 71 32 72 33 73 38 74 34 75 35 76
REMARK SMILES IDX 37 77 39 78 36 79 58 80 59 81 64 82 60 83 61 84 63 85 65 86
REMARK SMILES IDX 62 87 46 88 47 89 52 90 48 91 49 92 51 93 53 94 50 95
REMARK H PARENT 77 14 70 57 44 68
REMARK Flexibility Score: inf
ROOT
ATOM      1  C   UNL     1      -4.578   1.822   0.126  1.00  0.00     0.188 C 
ENDROOT
BRANCH   1   2
ATOM      2  O   UNL     1      -4.310   3.211   0.093  1.00  0.00    -0.376 OA
BRANCH   2   3
ATOM      3  C   UNL     1      -3.397   3.780  -0.825  1.00  0.00     0.202 C 
BRANCH   3   4
ATOM      4  C   UNL     1      -2.000   3.192  -1.028  1.00  0.00     0.261 C 
BRANCH   4   5
ATOM      5  O   UNL     1      -1.953   1.773  -1.179  1.00  0.00    -0.459 OA
BRANCH   5   6
ATOM      6  C   UNL     1      -1.636   1.074  -0.059  1.00  0.00     0.355 C 
ATOM      7  O   UNL     1      -1.433   1.558   1.044  1.00  0.00    -0.244 OA
BRANCH   6   8
ATOM      8  C   UNL     1      -1.647  -0.349  -0.323  1.00  0.00     0.129 A 
ATOM      9  C   UNL     1      -1.409  -1.102  -1.473  1.00  0.00     0.002 A 
ATOM     10  C   UNL     1      -1.523  -2.486  -1.098  1.00  0.00     0.005 A 
ATOM     11  N   UNL     1      -1.872  -1.236   0.704  1.00  0.00    -0.349 N 
ATOM     12  C   UNL     1      -1.806  -2.531   0.265  1.00  0.00     0.046 A 
ATOM     13  C   UNL     1      -1.373  -3.705  -1.793  1.00  0.00     0.031 A 
ATOM     14  H   UNL     1      -2.055  -0.974   1.635  1.00  0.00     0.167 HD
ATOM     15  C   UNL     1      -1.953  -3.726   0.978  1.00  0.00     0.028 A 
ATOM     16  C   UNL     1      -1.503  -4.908  -1.090  1.00  0.00     0.041 A 
ATOM     17  C   UNL     1      -1.789  -4.920   0.272  1.00  0.00     0.022 A 
ATOM     18  Cl  UNL     1      -1.292  -6.402  -1.921  1.00  0.00    -0.084 Cl
BRANCH   9  19
ATOM     19  C   UNL     1      -1.030  -0.611  -2.844  1.00  0.00     0.139 C 
BRANCH  19  20
ATOM     20  C   UNL     1       0.411  -0.964  -3.214  1.00  0.00     0.231 C 
ATOM     21  O   UNL     1       0.597  -1.746  -4.155  1.00  0.00    -0.274 OA
BRANCH  20  22
ATOM     22  N   UNL     1       1.453  -0.410  -2.460  1.00  0.00    -0.312 N 
BRANCH  22  23
ATOM     23  C   UNL     1       1.317   0.711  -1.507  1.00  0.00     0.122 C 
ATOM     24  C   UNL     1       1.464   0.347  -0.032  1.00  0.00     0.028 C 
ENDBRANCH  22  23
BRANCH  22  25
ATOM     25  C   UNL     1       2.802  -0.763  -2.745  1.00  0.00     0.044 A 
ATOM     26  C   UNL     1       3.332  -0.615  -4.022  1.00  0.00     0.026 A 
ATOM     27  C   UNL     1       3.647  -1.120  -1.693  1.00  0.00     0.030 A 
ATOM     28  C   UNL     1       4.708  -0.751  -4.214  1.00  0.00     0.006 A 
ATOM     29  C   UNL     1       5.032  -1.211  -1.854  1.00  0.00    -0.046 A 
ATOM     30  C   UNL     1       5.572  -1.024  -3.135  1.00  0.00    -0.048 A 
ATOM     31  C   UNL     1       5.864  -1.490  -0.635  1.00  0.00     0.044 C 
ATOM     32  C   UNL     1       7.043  -1.127  -3.417  1.00  0.00     0.044 C 
ENDBRANCH  22  25
ENDBRANCH  20  22
ENDBRANCH  19  20
ENDBRANCH   9  19
ENDBRANCH   6   8
ENDBRANCH   5   6
ENDBRANCH   4   5
ENDBRANCH   3   4
ENDBRANCH   2   3
ENDBRANCH   1   2
BRANCH   1  33
ATOM     33  C   UNL     1      -4.792   0.993  -1.160  1.00  0.00     0.188 C 
BRANCH  33  34
ATOM     34  O   UNL     1      -4.822   1.671  -2.389  1.00  0.00    -0.376 OA
BRANCH  34  35
ATOM     35  C   UNL     1      -5.955   2.436  -2.754  1.00  0.00     0.202 C 
BRANCH  35  36
ATOM     36  C   UNL     1      -7.307   2.461  -2.009  1.00  0.00     0.261 C 
BRANCH  36  37
ATOM     37  O   UNL     1      -7.350   2.009  -0.651  1.00  0.00    -0.460 OA
BRANCH  37  38
ATOM     38  C   UNL     1      -7.925   0.796  -0.446  1.00  0.00     0.338 C 
ATOM     39  O   UNL     1      -8.413   0.064  -1.289  1.00  0.00    -0.246 OA
BRANCH  38  40
ATOM     40  C   UNL     1      -7.685   0.362   0.950  1.00  0.00     0.060 A 
ATOM     41  C   UNL     1      -6.927  -0.799   1.167  1.00  0.00     0.016 A 
ATOM     42  C   UNL     1      -8.213   1.067   2.033  1.00  0.00     0.016 A 
ATOM     43  C   UNL     1      -6.740  -1.286   2.461  1.00  0.00     0.010 A 
ATOM     44  C   UNL     1      -8.044   0.564   3.330  1.00  0.00     0.010 A 
ATOM     45  C   UNL     1      -7.345  -0.639   3.546  1.00  0.00    -0.014 A 
BRANCH  45  46
ATOM     46  C   UNL     1      -7.440  -1.347   4.850  1.00  0.00     0.031 A 
ATOM     47  C   UNL     1      -8.712  -2.091   5.167  1.00  0.00     0.074 A 
ATOM     48  C   UNL     1      -6.412  -1.386   5.717  1.00  0.00     0.049 A 
ATOM     49  N   UNL     1      -9.029  -2.790   6.228  1.00  0.00    -0.248 NA
ATOM     50  C   UNL     1      -9.770  -2.037   4.145  1.00  0.00     0.031 C 
ATOM     51  C   UNL     1      -5.115  -0.743   5.526  1.00  0.00     0.029 A 
ATOM     52  N   UNL     1      -6.306  -2.000   6.943  1.00  0.00    -0.354 N 
ATOM     53  C   UNL     1     -10.321  -3.253   6.002  1.00  0.00     0.074 A 
ATOM     54  C   UNL     1     -10.742  -2.724   4.723  1.00  0.00     0.031 C 
ATOM     55  C   UNL     1      -4.344  -0.990   6.601  1.00  0.00     0.029 A 
ATOM     56  C   UNL     1      -5.101  -1.787   7.566  1.00  0.00     0.049 A 
ATOM     57  H   UNL     1      -7.028  -2.542   7.337  1.00  0.00     0.167 HD
ATOM     58  C   UNL     1     -11.085  -4.056   6.779  1.00  0.00     0.037 A 
ATOM     59  C   UNL     1      -4.666  -2.179   8.780  1.00  0.00     0.037 A 
ATOM     60  C   UNL     1     -10.674  -4.583   8.055  1.00  0.00     0.049 A 
ATOM     61  C   UNL     1      -5.562  -3.017   9.659  1.00  0.00     0.074 A 
ATOM     62  C   UNL     1     -11.374  -5.418   8.908  1.00  0.00     0.029 A 
ATOM     63  N   UNL     1      -9.458  -4.316   8.665  1.00  0.00    -0.354 N 
ATOM     64  N   UNL     1      -6.767  -3.476   9.421  1.00  0.00    -0.248 NA
ATOM     65  C   UNL     1      -5.027  -3.400  10.975  1.00  0.00     0.031 C 
ATOM     66  C   UNL     1     -10.604  -5.611  10.060  1.00  0.00     0.029 A 
ATOM     67  C   UNL     1      -9.398  -4.950   9.896  1.00  0.00     0.049 A 
ATOM     68  H   UNL     1      -8.743  -3.760   8.280  1.00  0.00     0.167 HD
ATOM     69  C   UNL     1      -7.119  -4.226  10.539  1.00  0.00     0.074 A 
ATOM     70  C   UNL     1      -5.992  -4.176  11.446  1.00  0.00     0.031 C 
ATOM     71  C   UNL     1      -8.271  -4.897  10.792  1.00  0.00     0.037 A 
BRANCH  58  72
ATOM     72  C   UNL     1     -12.461  -4.392   6.280  1.00  0.00     0.057 A 
ATOM     73  C   UNL     1     -12.667  -5.236   5.180  1.00  0.00     0.134 A 
ATOM     74  C   UNL     1     -13.597  -3.883   6.923  1.00  0.00     0.134 A 
ATOM     75  F   UNL     1     -11.623  -5.744   4.508  1.00  0.00    -0.206 F 
ATOM     76  C   UNL     1     -13.951  -5.538   4.722  1.00  0.00     0.040 A 
ATOM     77  C   UNL     1     -14.885  -4.203   6.494  1.00  0.00     0.040 A 
ATOM     78  F   UNL     1     -13.472  -3.072   7.984  1.00  0.00    -0.206 F 
ATOM     79  C   UNL     1     -15.065  -5.027   5.385  1.00  0.00     0.006 A 
ENDBRANCH  58  72
BRANCH  59  80
ATOM     80  C   UNL     1      -3.315  -1.781   9.257  1.00  0.00     0.057 A 
ATOM     81  C   UNL     1      -2.303  -2.729   9.456  1.00  0.00     0.134 A 
ATOM     82  C   UNL     1      -3.018  -0.450   9.573  1.00  0.00     0.134 A 
ATOM     83  F   UNL     1      -2.534  -4.025   9.199  1.00  0.00    -0.206 F 
ATOM     84  C   UNL     1      -1.056  -2.373   9.972  1.00  0.00     0.040 A 
ATOM     85  C   UNL     1      -1.765  -0.074  10.061  1.00  0.00     0.040 A 
ATOM     86  F   UNL     1      -3.942   0.508   9.409  1.00  0.00    -0.206 F 
ATOM     87  C   UNL     1      -0.783  -1.040  10.272  1.00  0.00     0.006 A 
ENDBRANCH  59  80
BRANCH  71  88
ATOM     88  C   UNL     1      -8.353  -5.669  12.081  1.00  0.00     0.057 A 
ATOM     89  C   UNL     1      -8.416  -5.034  13.328  1.00  0.00     0.134 A 
ATOM     90  C   UNL     1      -8.384  -7.070  12.071  1.00  0.00     0.134 A 
ATOM     91  F   UNL     1      -8.382  -3.695  13.413  1.00  0.00    -0.206 F 
ATOM     92  C   UNL     1      -8.466  -5.763  14.518  1.00  0.00     0.040 A 
ATOM     93  C   UNL     1      -8.468  -7.809  13.252  1.00  0.00     0.040 A 
ATOM     94  F   UNL     1      -8.341  -7.745  10.912  1.00  0.00    -0.206 F 
ATOM     95  C   UNL     1      -8.496  -7.156  14.482  1.00  0.00     0.006 A 
ENDBRANCH  71  88
ENDBRANCH  45  46
ENDBRANCH  38  40
ENDBRANCH  37  38
ENDBRANCH  36  37
ENDBRANCH  35  36
ENDBRANCH  34  35
ENDBRANCH  33  34
ENDBRANCH   1  33
TORSDOF 22
