REMARK SMILES O=C(OCCOCCOCCOC(=O)c1[nH]ncc1C[NH+]1CCC([N@H+]2CCC[C@@H](C(=O)N3CCCC3)C2)CC1)c1ccc(-c2c3nc(c(-c4c(F)cccc4F)c4ccc([nH]4)c(-c4c(F)cccc4F)c4nc(c(-c5c(F)cccc5F)c5ccc2[nH]5)C=C4)C=C3)cc1
REMARK SMILES IDX 8 1 7 2 6 3 5 4 4 5 3 6 2 7 1 8 40 9 41 10 93 11 42 12 92 13
REMARK SMILES IDX 43 14 44 15 45 16 86 17 46 18 91 19 85 20 87 21 47 22 90 23
REMARK SMILES IDX 84 24 83 25 48 27 74 28 57 29 73 30 58 31 61 32 72 33 88 34
REMARK SMILES IDX 59 35 60 36 71 38 89 39 62 40 49 41 50 42 55 43 51 44 52 45
REMARK SMILES IDX 54 46 56 47 53 48 75 49 76 50 81 51 77 52 78 53 80 54 82 55
REMARK SMILES IDX 79 56 63 57 64 58 69 59 65 60 66 61 68 62 70 63 67 64 9 65
REMARK SMILES IDX 10 66 11 67 12 68 13 69 14 70 15 71 16 72 19 73 17 74 18 76
REMARK SMILES IDX 20 77 21 78 22 79 39 80 23 82 38 83 24 84 25 85 26 86 37 87
REMARK SMILES IDX 27 89 29 90 28 91 30 92 31 93 32 94 33 95 36 96 34 97 35 98
REMARK H PARENT 87 26 61 37 16 75 21 81 25 88
REMARK Flexibility Score: inf
ROOT
ATOM      1  C   UNL     1       2.477  -0.910  -2.947  1.00  0.00     0.188 C 
ENDROOT
BRANCH   1   2
ATOM      2  C   UNL     1       2.952  -1.916  -1.902  1.00  0.00     0.188 C 
BRANCH   2   3
ATOM      3  O   UNL     1       4.148  -1.440  -1.256  1.00  0.00    -0.376 OA
BRANCH   3   4
ATOM      4  C   UNL     1       4.455  -2.214  -0.091  1.00  0.00     0.202 C 
BRANCH   4   5
ATOM      5  C   UNL     1       4.134  -1.438   1.190  1.00  0.00     0.261 C 
BRANCH   5   6
ATOM      6  O   UNL     1       2.764  -0.982   1.181  1.00  0.00    -0.460 OA
BRANCH   6   7
ATOM      7  C   UNL     1       2.399   0.215   0.652  1.00  0.00     0.338 C 
ATOM      8  O   UNL     1       1.343   0.372   0.050  1.00  0.00    -0.246 OA
BRANCH   7   9
ATOM      9  C   UNL     1       3.204   1.393   1.030  1.00  0.00     0.060 A 
ATOM     10  C   UNL     1       4.429   1.668   0.420  1.00  0.00     0.016 A 
ATOM     11  C   UNL     1       2.660   2.290   1.955  1.00  0.00     0.016 A 
ATOM     12  C   UNL     1       5.160   2.789   0.817  1.00  0.00     0.010 A 
ATOM     13  C   UNL     1       3.367   3.443   2.307  1.00  0.00     0.010 A 
ATOM     14  C   UNL     1       4.637   3.688   1.763  1.00  0.00    -0.014 A 
BRANCH  14  15
ATOM     15  C   UNL     1       5.409   4.894   2.159  1.00  0.00     0.031 A 
ATOM     16  C   UNL     1       6.003   5.011   3.533  1.00  0.00     0.074 A 
ATOM     17  C   UNL     1       5.589   5.894   1.276  1.00  0.00     0.049 A 
ATOM     18  N   UNL     1       6.711   5.987   4.043  1.00  0.00    -0.248 NA
ATOM     19  C   UNL     1       5.776   3.886   4.452  1.00  0.00     0.031 C 
ATOM     20  C   UNL     1       5.065   5.910  -0.087  1.00  0.00     0.029 A 
ATOM     21  N   UNL     1       6.266   7.081   1.388  1.00  0.00    -0.354 N 
ATOM     22  C   UNL     1       7.012   5.599   5.339  1.00  0.00     0.074 A 
ATOM     23  C   UNL     1       6.391   4.307   5.548  1.00  0.00     0.031 C 
ATOM     24  C   UNL     1       5.453   7.042  -0.695  1.00  0.00     0.029 A 
ATOM     25  C   UNL     1       6.239   7.837   0.243  1.00  0.00     0.049 A 
ATOM     26  H   UNL     1       6.727   7.364   2.211  1.00  0.00     0.167 HD
ATOM     27  C   UNL     1       7.752   6.249   6.269  1.00  0.00     0.037 A 
ATOM     28  C   UNL     1       6.787   9.035  -0.029  1.00  0.00     0.037 A 
ATOM     29  C   UNL     1       8.391   7.521   6.073  1.00  0.00     0.049 A 
ATOM     30  C   UNL     1       7.583   9.745   1.022  1.00  0.00     0.074 A 
ATOM     31  C   UNL     1       9.177   8.240   6.958  1.00  0.00     0.029 A 
ATOM     32  N   UNL     1       8.322   8.264   4.906  1.00  0.00    -0.354 N 
ATOM     33  N   UNL     1       7.866   9.357   2.240  1.00  0.00    -0.248 NA
ATOM     34  C   UNL     1       8.135  11.059   0.661  1.00  0.00     0.031 C 
ATOM     35  C   UNL     1       9.581   9.423   6.325  1.00  0.00     0.029 A 
ATOM     36  C   UNL     1       9.049   9.435   5.046  1.00  0.00     0.049 A 
ATOM     37  H   UNL     1       7.828   8.000   4.096  1.00  0.00     0.167 HD
ATOM     38  C   UNL     1       8.640  10.368   2.788  1.00  0.00     0.074 A 
ATOM     39  C   UNL     1       8.781  11.390   1.771  1.00  0.00     0.031 C 
ATOM     40  C   UNL     1       9.187  10.438   4.025  1.00  0.00     0.037 A 
BRANCH  27  41
ATOM     41  C   UNL     1       7.914   5.568   7.590  1.00  0.00     0.057 A 
ATOM     42  C   UNL     1       8.892   4.586   7.782  1.00  0.00     0.134 A 
ATOM     43  C   UNL     1       7.089   5.892   8.672  1.00  0.00     0.134 A 
ATOM     44  F   UNL     1       9.698   4.224   6.773  1.00  0.00    -0.206 F 
ATOM     45  C   UNL     1       9.037   3.938   9.008  1.00  0.00     0.040 A 
ATOM     46  C   UNL     1       7.229   5.255   9.906  1.00  0.00     0.040 A 
ATOM     47  F   UNL     1       6.129   6.820   8.543  1.00  0.00    -0.206 F 
ATOM     48  C   UNL     1       8.205   4.273  10.075  1.00  0.00     0.006 A 
ENDBRANCH  27  41
BRANCH  28  49
ATOM     49  C   UNL     1       6.618   9.622  -1.376  1.00  0.00     0.057 A 
ATOM     50  C   UNL     1       7.624   9.502  -2.340  1.00  0.00     0.134 A 
ATOM     51  C   UNL     1       5.441  10.285  -1.737  1.00  0.00     0.134 A 
ATOM     52  F   UNL     1       8.775   8.884  -2.040  1.00  0.00    -0.206 F 
ATOM     53  C   UNL     1       7.465  10.024  -3.623  1.00  0.00     0.040 A 
ATOM     54  C   UNL     1       5.266  10.806  -3.019  1.00  0.00     0.040 A 
ATOM     55  F   UNL     1       4.445  10.425  -0.851  1.00  0.00    -0.206 F 
ATOM     56  C   UNL     1       6.281  10.675  -3.967  1.00  0.00     0.006 A 
ENDBRANCH  28  49
BRANCH  40  57
ATOM     57  C   UNL     1      10.002  11.652   4.333  1.00  0.00     0.057 A 
ATOM     58  C   UNL     1       9.405  12.830   4.792  1.00  0.00     0.134 A 
ATOM     59  C   UNL     1      11.393  11.637   4.183  1.00  0.00     0.134 A 
ATOM     60  F   UNL     1       8.074  12.905   4.941  1.00  0.00    -0.206 F 
ATOM     61  C   UNL     1      10.167  13.961   5.089  1.00  0.00     0.040 A 
ATOM     62  C   UNL     1      12.166  12.759   4.482  1.00  0.00     0.040 A 
ATOM     63  F   UNL     1      12.018  10.536   3.740  1.00  0.00    -0.206 F 
ATOM     64  C   UNL     1      11.553  13.926   4.936  1.00  0.00     0.006 A 
ENDBRANCH  40  57
ENDBRANCH  14  15
ENDBRANCH   7   9
ENDBRANCH   6   7
ENDBRANCH   5   6
ENDBRANCH   4   5
ENDBRANCH   3   4
ENDBRANCH   2   3
ENDBRANCH   1   2
BRANCH   1  65
ATOM     65  O   UNL     1       3.140  -1.109  -4.199  1.00  0.00    -0.376 OA
BRANCH  65  66
ATOM     66  C   UNL     1       4.364  -0.391  -4.347  1.00  0.00     0.202 C 
BRANCH  66  67
ATOM     67  C   UNL     1       4.172   0.844  -5.232  1.00  0.00     0.261 C 
BRANCH  67  68
ATOM     68  O   UNL     1       3.862   2.013  -4.450  1.00  0.00    -0.459 OA
BRANCH  68  69
ATOM     69  C   UNL     1       2.547   2.252  -4.211  1.00  0.00     0.356 C 
ATOM     70  O   UNL     1       1.614   1.558  -4.583  1.00  0.00    -0.244 OA
BRANCH  69  71
ATOM     71  C   UNL     1       2.405   3.421  -3.394  1.00  0.00     0.152 A 
ATOM     72  N   UNL     1       1.424   3.510  -2.444  1.00  0.00    -0.271 N 
ATOM     73  C   UNL     1       3.059   4.649  -3.382  1.00  0.00     0.059 A 
ATOM     74  N   UNL     1       1.421   4.673  -1.776  1.00  0.00    -0.183 NA
ATOM     75  H   UNL     1       0.780   2.786  -2.267  1.00  0.00     0.190 HD
ATOM     76  C   UNL     1       2.395   5.370  -2.361  1.00  0.00     0.145 A 
BRANCH  73  77
ATOM     77  C   UNL     1       4.173   5.142  -4.256  1.00  0.00     0.303 C 
BRANCH  77  78
ATOM     78  N   UNL     1       3.713   5.816  -5.485  1.00  0.00    -0.331 N 
ATOM     79  C   UNL     1       2.893   4.948  -6.338  1.00  0.00     0.268 C 
ATOM     80  C   UNL     1       3.111   7.131  -5.230  1.00  0.00     0.268 C 
ATOM     81  H   UNL     1       4.552   6.013  -6.030  1.00  0.00     0.348 HD
ATOM     82  C   UNL     1       2.454   5.631  -7.630  1.00  0.00     0.126 C 
ATOM     83  C   UNL     1       2.666   7.840  -6.517  1.00  0.00     0.126 C 
ATOM     84  C   UNL     1       1.705   6.927  -7.289  1.00  0.00     0.195 C 
BRANCH  84  85
ATOM     85  N   UNL     1       1.048   7.622  -8.416  1.00  0.00    -0.331 N 
ATOM     86  C   UNL     1       1.878   7.764  -9.619  1.00  0.00     0.262 C 
ATOM     87  C   UNL     1      -0.226   6.946  -8.743  1.00  0.00     0.275 C 
ATOM     88  H   UNL     1       0.877   8.576  -8.098  1.00  0.00     0.348 HD
ATOM     89  C   UNL     1       1.139   8.552 -10.708  1.00  0.00     0.062 C 
ATOM     90  C   UNL     1      -1.040   7.738  -9.774  1.00  0.00     0.134 C 
ATOM     91  C   UNL     1      -0.216   7.929 -11.046  1.00  0.00     0.025 C 
BRANCH  90  92
ATOM     92  C   UNL     1      -2.350   7.000 -10.039  1.00  0.00     0.231 C 
ATOM     93  O   UNL     1      -2.459   5.792  -9.819  1.00  0.00    -0.274 OA
ATOM     94  N   UNL     1      -3.416   7.730 -10.514  1.00  0.00    -0.342 N 
ATOM     95  C   UNL     1      -3.457   9.132 -10.896  1.00  0.00     0.119 C 
ATOM     96  C   UNL     1      -4.728   7.115 -10.634  1.00  0.00     0.119 C 
ATOM     97  C   UNL     1      -4.939   9.477 -10.885  1.00  0.00     0.023 C 
ATOM     98  C   UNL     1      -5.596   8.169 -11.304  1.00  0.00     0.023 C 
ENDBRANCH  90  92
ENDBRANCH  84  85
ENDBRANCH  77  78
ENDBRANCH  73  77
ENDBRANCH  69  71
ENDBRANCH  68  69
ENDBRANCH  67  68
ENDBRANCH  66  67
ENDBRANCH  65  66
ENDBRANCH   1  65
TORSDOF 21
