REMARK SMILES COc1ccc(OCc2cccs2)c(C(=O)OCCOCCOCCOC(=O)c2ccc(-c3c4nc(c(-c5c(F)cccc5F)c5ccc([nH]5)c(-c5c(F)cccc5F)c5nc(c(-c6c(F)cccc6F)c6ccc3[nH]6)C=C5)C=C4)cc2)c1
REMARK SMILES IDX 21 1 20 2 19 3 18 4 17 5 15 6 16 7 14 8 3 9 4 10 83 11 5 12
REMARK SMILES IDX 6 13 2 14 1 15 7 16 8 17 9 18 10 19 13 20 11 21 12 22 22 23
REMARK SMILES IDX 23 24 24 25 25 26 26 27 27 28 28 29 29 30 30 31 82 32 31 33
REMARK SMILES IDX 81 34 32 35 33 36 34 37 75 38 35 39 80 40 74 41 76 42 36 43
REMARK SMILES IDX 79 44 73 45 72 46 37 48 63 49 46 50 62 51 47 52 50 53 61 54
REMARK SMILES IDX 77 55 48 56 49 57 60 59 78 60 51 61 38 62 39 63 44 64 40 65
REMARK SMILES IDX 41 66 43 67 45 68 42 69 64 70 65 71 70 72 66 73 67 74 69 75
REMARK SMILES IDX 71 76 68 77 52 78 53 79 58 80 54 81 55 82 57 83 59 84 56 85
REMARK H PARENT 76 47 50 58
REMARK Flexibility Score: inf
ROOT
ATOM      1  C   UNL     1       5.530   4.244   3.138  1.00  0.00     0.188 C 
ENDROOT
BRANCH   1   2
ATOM      2  O   UNL     1       6.794   3.631   3.356  1.00  0.00    -0.376 OA
BRANCH   2   3
ATOM      3  C   UNL     1       6.778   2.323   3.921  1.00  0.00     0.202 C 
BRANCH   3   4
ATOM      4  C   UNL     1       6.206   1.256   2.987  1.00  0.00     0.261 C 
BRANCH   4   5
ATOM      5  O   UNL     1       4.800   1.449   2.764  1.00  0.00    -0.460 OA
BRANCH   5   6
ATOM      6  C   UNL     1       3.976   1.192   3.810  1.00  0.00     0.342 C 
ATOM      7  O   UNL     1       4.330   0.685   4.853  1.00  0.00    -0.246 OA
BRANCH   6   8
ATOM      8  C   UNL     1       2.619   1.662   3.430  1.00  0.00     0.105 A 
ATOM      9  C   UNL     1       0.978   1.557   1.607  1.00  0.00     0.119 A 
ATOM     10  C   UNL     1       0.190   2.473   2.284  1.00  0.00     0.050 A 
ATOM     11  C   UNL     1       2.188   1.167   2.172  1.00  0.00     0.066 A 
ATOM     12  C   UNL     1       0.585   2.940   3.539  1.00  0.00     0.051 A 
ATOM     13  C   UNL     1       1.791   2.538   4.148  1.00  0.00     0.134 A 
BRANCH   9  14
ATOM     14  O   UNL     1       0.491   1.136   0.403  1.00  0.00    -0.497 OA
ATOM     15  C   UNL     1       1.003  -0.103  -0.076  1.00  0.00     0.278 C 
ENDBRANCH   9  14
BRANCH  13  16
ATOM     16  O   UNL     1       1.878   3.115   5.378  1.00  0.00    -0.487 OA
BRANCH  16  17
ATOM     17  C   UNL     1       3.012   3.100   6.232  1.00  0.00     0.276 C 
BRANCH  17  18
ATOM     18  C   UNL     1       3.113   1.851   7.051  1.00  0.00     0.042 A 
ATOM     19  C   UNL     1       4.223   1.455   7.777  1.00  0.00     0.019 A 
ATOM     20  S   UNL     1       1.873   0.669   7.133  1.00  0.00    -0.145 S 
ATOM     21  C   UNL     1       4.135   0.098   8.198  1.00  0.00     0.012 A 
ATOM     22  C   UNL     1       2.925  -0.464   7.863  1.00  0.00     0.065 A 
ENDBRANCH  17  18
ENDBRANCH  16  17
ENDBRANCH  13  16
ENDBRANCH   6   8
ENDBRANCH   5   6
ENDBRANCH   4   5
ENDBRANCH   3   4
ENDBRANCH   2   3
ENDBRANCH   1   2
BRANCH   1  23
ATOM     23  C   UNL     1       4.983   4.181   1.696  1.00  0.00     0.188 C 
BRANCH  23  24
ATOM     24  O   UNL     1       5.854   3.881   0.615  1.00  0.00    -0.376 OA
BRANCH  24  25
ATOM     25  C   UNL     1       7.159   4.441   0.605  1.00  0.00     0.202 C 
BRANCH  25  26
ATOM     26  C   UNL     1       7.282   5.968   0.553  1.00  0.00     0.261 C 
BRANCH  26  27
ATOM     27  O   UNL     1       6.593   6.649   1.616  1.00  0.00    -0.460 OA
BRANCH  27  28
ATOM     28  C   UNL     1       5.550   7.421   1.225  1.00  0.00     0.338 C 
ATOM     29  O   UNL     1       5.177   7.637   0.084  1.00  0.00    -0.246 OA
BRANCH  28  30
ATOM     30  C   UNL     1       4.776   7.878   2.398  1.00  0.00     0.060 A 
ATOM     31  C   UNL     1       3.405   7.590   2.427  1.00  0.00     0.016 A 
ATOM     32  C   UNL     1       5.352   8.664   3.399  1.00  0.00     0.016 A 
ATOM     33  C   UNL     1       2.596   8.128   3.425  1.00  0.00     0.010 A 
ATOM     34  C   UNL     1       4.534   9.221   4.391  1.00  0.00     0.010 A 
ATOM     35  C   UNL     1       3.146   8.988   4.385  1.00  0.00    -0.014 A 
BRANCH  35  36
ATOM     36  C   UNL     1       2.234   9.771   5.256  1.00  0.00     0.031 A 
ATOM     37  C   UNL     1       1.837  11.161   4.832  1.00  0.00     0.074 A 
ATOM     38  C   UNL     1       1.716   9.241   6.378  1.00  0.00     0.049 A 
ATOM     39  N   UNL     1       1.019  12.005   5.410  1.00  0.00    -0.248 NA
ATOM     40  C   UNL     1       2.439  11.664   3.587  1.00  0.00     0.031 C 
ATOM     41  C   UNL     1       1.985   7.897   6.884  1.00  0.00     0.029 A 
ATOM     42  N   UNL     1       0.845   9.778   7.294  1.00  0.00    -0.354 N 
ATOM     43  C   UNL     1       1.006  13.134   4.600  1.00  0.00     0.074 A 
ATOM     44  C   UNL     1       1.919  12.880   3.506  1.00  0.00     0.031 C 
ATOM     45  C   UNL     1       1.294   7.715   8.023  1.00  0.00     0.029 A 
ATOM     46  C   UNL     1       0.549   8.934   8.335  1.00  0.00     0.049 A 
ATOM     47  H   UNL     1       0.468  10.684   7.212  1.00  0.00     0.167 HD
ATOM     48  C   UNL     1       0.292  14.275   4.745  1.00  0.00     0.037 A 
ATOM     49  C   UNL     1      -0.230   9.127   9.417  1.00  0.00     0.037 A 
ATOM     50  C   UNL     1      -0.622  14.534   5.826  1.00  0.00     0.049 A 
ATOM     51  C   UNL     1      -0.959  10.434   9.591  1.00  0.00     0.074 A 
ATOM     52  C   UNL     1      -1.419  15.647   6.033  1.00  0.00     0.029 A 
ATOM     53  N   UNL     1      -0.854  13.674   6.886  1.00  0.00    -0.354 N 
ATOM     54  N   UNL     1      -1.000  11.473   8.794  1.00  0.00    -0.248 NA
ATOM     55  C   UNL     1      -1.754  10.590  10.819  1.00  0.00     0.031 C 
ATOM     56  C   UNL     1      -2.098  15.480   7.245  1.00  0.00     0.029 A 
ATOM     57  C   UNL     1      -1.757  14.244   7.769  1.00  0.00     0.049 A 
ATOM     58  H   UNL     1      -0.439  12.788   6.997  1.00  0.00     0.167 HD
ATOM     59  C   UNL     1      -1.846  12.391   9.406  1.00  0.00     0.074 A 
ATOM     60  C   UNL     1      -2.306  11.781  10.636  1.00  0.00     0.031 C 
ATOM     61  C   UNL     1      -2.211  13.627   8.987  1.00  0.00     0.037 A 
BRANCH  48  62
ATOM     62  C   UNL     1       0.484  15.345   3.714  1.00  0.00     0.057 A 
ATOM     63  C   UNL     1      -0.060  15.239   2.428  1.00  0.00     0.134 A 
ATOM     64  C   UNL     1       1.186  16.517   4.026  1.00  0.00     0.134 A 
ATOM     65  F   UNL     1      -0.731  14.136   2.064  1.00  0.00    -0.206 F 
ATOM     66  C   UNL     1       0.100  16.253   1.483  1.00  0.00     0.040 A 
ATOM     67  C   UNL     1       1.335  17.547   3.097  1.00  0.00     0.040 A 
ATOM     68  F   UNL     1       1.728  16.681   5.242  1.00  0.00    -0.206 F 
ATOM     69  C   UNL     1       0.794  17.415   1.820  1.00  0.00     0.006 A 
ENDBRANCH  48  62
BRANCH  49  70
ATOM     70  C   UNL     1      -0.368   8.059  10.439  1.00  0.00     0.057 A 
ATOM     71  C   UNL     1      -1.578   7.378  10.616  1.00  0.00     0.134 A 
ATOM     72  C   UNL     1       0.689   7.733  11.297  1.00  0.00     0.134 A 
ATOM     73  F   UNL     1      -2.635   7.669   9.844  1.00  0.00    -0.206 F 
ATOM     74  C   UNL     1      -1.738   6.424  11.623  1.00  0.00     0.040 A 
ATOM     75  C   UNL     1       0.550   6.766  12.293  1.00  0.00     0.040 A 
ATOM     76  F   UNL     1       1.872   8.354  11.181  1.00  0.00    -0.206 F 
ATOM     77  C   UNL     1      -0.671   6.114  12.463  1.00  0.00     0.006 A 
ENDBRANCH  49  70
BRANCH  61  78
ATOM     78  C   UNL     1      -3.176  14.388   9.849  1.00  0.00     0.057 A 
ATOM     79  C   UNL     1      -2.790  14.949  11.073  1.00  0.00     0.134 A 
ATOM     80  C   UNL     1      -4.501  14.584   9.438  1.00  0.00     0.134 A 
ATOM     81  F   UNL     1      -1.539  14.787  11.530  1.00  0.00    -0.206 F 
ATOM     82  C   UNL     1      -3.694  15.654  11.870  1.00  0.00     0.040 A 
ATOM     83  C   UNL     1      -5.407  15.308  10.214  1.00  0.00     0.040 A 
ATOM     84  F   UNL     1      -4.934  14.082   8.271  1.00  0.00    -0.206 F 
ATOM     85  C   UNL     1      -5.006  15.839  11.438  1.00  0.00     0.006 A 
ENDBRANCH  61  78
ENDBRANCH  35  36
ENDBRANCH  28  30
ENDBRANCH  27  28
ENDBRANCH  26  27
ENDBRANCH  25  26
ENDBRANCH  24  25
ENDBRANCH  23  24
ENDBRANCH   1  23
TORSDOF 21
