REMARK SMILES CS(=O)(=O)c1ccc(/C=C(/C(=O)OCCOCCOCCOC(=O)c2ccc(-c3c4nc(c(-c5c(F)cccc5F)c5ccc([nH]5)c(-c5c(F)cccc5F)c5nc(c(-c6c(F)cccc6F)c6ccc3[nH]6)C=C5)C=C4)cc2)c2ccc(-c3ccc(F)cc3F)cc2)cc1
REMARK SMILES IDX 17 1 16 2 15 3 14 4 13 5 11 6 12 7 10 8 9 9 8 10 5 11 6 12
REMARK SMILES IDX 94 13 7 14 93 15 2 16 1 17 3 18 4 19 79 20 80 21 92 22 81 23
REMARK SMILES IDX 91 24 82 25 83 26 84 27 89 28 85 29 88 30 90 31 86 32 87 33
REMARK SMILES IDX 18 34 19 35 20 36 21 37 22 38 23 39 24 40 25 41 26 42 78 43
REMARK SMILES IDX 27 44 77 45 28 46 29 47 30 48 71 49 31 50 76 51 70 52 72 53
REMARK SMILES IDX 32 54 75 55 69 56 68 57 33 59 59 60 42 61 58 62 43 63 46 64
REMARK SMILES IDX 57 65 73 66 44 67 45 68 56 70 74 71 47 72 34 73 35 74 40 75
REMARK SMILES IDX 36 76 37 77 39 78 41 79 38 80 60 81 61 82 66 83 62 84 63 85
REMARK SMILES IDX 65 86 67 87 64 88 48 89 49 90 54 91 50 92 51 93 53 94 55 95
REMARK SMILES IDX 52 96
REMARK H PARENT 72 58 46 69
REMARK Flexibility Score: inf
ROOT
ATOM      1  C   UNL     1       3.859  -7.311  -7.764  1.00  0.00     0.188 C 
ENDROOT
BRANCH   1   2
ATOM      2  O   UNL     1       4.203  -7.157  -9.124  1.00  0.00    -0.376 OA
BRANCH   2   3
ATOM      3  C   UNL     1       3.234  -6.570  -9.975  1.00  0.00     0.202 C 
BRANCH   3   4
ATOM      4  C   UNL     1       2.624  -5.197  -9.625  1.00  0.00     0.261 C 
BRANCH   4   5
ATOM      5  O   UNL     1       2.449  -4.895  -8.231  1.00  0.00    -0.460 OA
BRANCH   5   6
ATOM      6  C   UNL     1       1.268  -5.237  -7.660  1.00  0.00     0.338 C 
ATOM      7  O   UNL     1       0.347  -5.793  -8.239  1.00  0.00    -0.246 OA
BRANCH   6   8
ATOM      8  C   UNL     1       1.281  -4.967  -6.178  1.00  0.00     0.067 C 
ATOM      9  C   UNL     1       1.904  -3.865  -5.689  1.00  0.00     0.024 C 
BRANCH   9  10
ATOM     10  C   UNL     1       1.866  -3.332  -4.302  1.00  0.00    -0.025 A 
ATOM     11  C   UNL     1       1.213  -2.208  -1.812  1.00  0.00     0.067 A 
ATOM     12  C   UNL     1       1.453  -3.578  -1.916  1.00  0.00     0.021 A 
ATOM     13  C   UNL     1       1.440  -1.373  -2.906  1.00  0.00     0.021 A 
ATOM     14  C   UNL     1       1.816  -4.127  -3.150  1.00  0.00     0.009 A 
ATOM     15  C   UNL     1       1.769  -1.940  -4.144  1.00  0.00     0.009 A 
BRANCH  11  16
ATOM     16  S   UNL     1       0.504  -1.589  -0.305  1.00  0.00     0.175 S 
ATOM     17  C   UNL     1       1.104   0.060  -0.090  1.00  0.00     0.163 C 
ATOM     18  O   UNL     1       1.050  -2.384   0.780  1.00  0.00    -0.224 OA
ATOM     19  O   UNL     1      -0.926  -1.516  -0.533  1.00  0.00    -0.224 OA
ENDBRANCH  11  16
ENDBRANCH   9  10
BRANCH   8  20
ATOM     20  C   UNL     1       0.571  -5.934  -5.317  1.00  0.00    -0.011 A 
ATOM     21  C   UNL     1       1.150  -7.184  -5.051  1.00  0.00     0.009 A 
ATOM     22  C   UNL     1      -0.628  -5.599  -4.690  1.00  0.00     0.009 A 
ATOM     23  C   UNL     1       0.539  -8.085  -4.176  1.00  0.00     0.009 A 
ATOM     24  C   UNL     1      -1.224  -6.496  -3.801  1.00  0.00     0.009 A 
ATOM     25  C   UNL     1      -0.664  -7.761  -3.539  1.00  0.00    -0.015 A 
BRANCH  25  26
ATOM     26  C   UNL     1      -1.331  -8.700  -2.621  1.00  0.00     0.018 A 
ATOM     27  C   UNL     1      -0.620  -9.385  -1.617  1.00  0.00     0.015 A 
ATOM     28  C   UNL     1      -2.718  -8.921  -2.701  1.00  0.00     0.133 A 
ATOM     29  C   UNL     1      -1.288 -10.206  -0.704  1.00  0.00     0.040 A 
ATOM     30  C   UNL     1      -3.390  -9.729  -1.796  1.00  0.00     0.079 A 
ATOM     31  F   UNL     1      -3.442  -8.335  -3.669  1.00  0.00    -0.206 F 
ATOM     32  C   UNL     1      -2.669 -10.342  -0.787  1.00  0.00     0.126 A 
ATOM     33  F   UNL     1      -3.323 -11.070   0.125  1.00  0.00    -0.207 F 
ENDBRANCH  25  26
ENDBRANCH   8  20
ENDBRANCH   6   8
ENDBRANCH   5   6
ENDBRANCH   4   5
ENDBRANCH   3   4
ENDBRANCH   2   3
ENDBRANCH   1   2
BRANCH   1  34
ATOM     34  C   UNL     1       4.585  -6.310  -6.839  1.00  0.00     0.188 C 
BRANCH  34  35
ATOM     35  O   UNL     1       5.593  -5.450  -7.350  1.00  0.00    -0.376 OA
BRANCH  35  36
ATOM     36  C   UNL     1       6.526  -5.954  -8.294  1.00  0.00     0.202 C 
BRANCH  36  37
ATOM     37  C   UNL     1       7.341  -7.217  -7.966  1.00  0.00     0.261 C 
BRANCH  37  38
ATOM     38  O   UNL     1       6.633  -8.275  -7.296  1.00  0.00    -0.460 OA
BRANCH  38  39
ATOM     39  C   UNL     1       6.894  -8.391  -5.970  1.00  0.00     0.338 C 
ATOM     40  O   UNL     1       7.668  -7.724  -5.309  1.00  0.00    -0.246 OA
BRANCH  39  41
ATOM     41  C   UNL     1       5.962  -9.361  -5.352  1.00  0.00     0.060 A 
ATOM     42  C   UNL     1       5.175  -8.923  -4.277  1.00  0.00     0.016 A 
ATOM     43  C   UNL     1       5.934 -10.700  -5.747  1.00  0.00     0.016 A 
ATOM     44  C   UNL     1       4.401  -9.831  -3.557  1.00  0.00     0.010 A 
ATOM     45  C   UNL     1       5.176 -11.617  -5.006  1.00  0.00     0.010 A 
ATOM     46  C   UNL     1       4.447 -11.194  -3.879  1.00  0.00    -0.014 A 
BRANCH  46  47
ATOM     47  C   UNL     1       3.944 -12.177  -2.886  1.00  0.00     0.031 A 
ATOM     48  C   UNL     1       4.924 -12.752  -1.897  1.00  0.00     0.074 A 
ATOM     49  C   UNL     1       2.644 -12.515  -2.818  1.00  0.00     0.049 A 
ATOM     50  N   UNL     1       4.719 -13.581  -0.906  1.00  0.00    -0.248 NA
ATOM     51  C   UNL     1       6.328 -12.334  -2.050  1.00  0.00     0.031 C 
ATOM     52  C   UNL     1       1.596 -12.016  -3.702  1.00  0.00     0.029 A 
ATOM     53  N   UNL     1       1.988 -13.361  -1.958  1.00  0.00    -0.354 N 
ATOM     54  C   UNL     1       5.964 -13.788  -0.323  1.00  0.00     0.074 A 
ATOM     55  C   UNL     1       6.923 -13.024  -1.091  1.00  0.00     0.031 C 
ATOM     56  C   UNL     1       0.422 -12.559  -3.333  1.00  0.00     0.029 A 
ATOM     57  C   UNL     1       0.642 -13.473  -2.212  1.00  0.00     0.049 A 
ATOM     58  H   UNL     1       2.439 -13.842  -1.227  1.00  0.00     0.167 HD
ATOM     59  C   UNL     1       6.282 -14.538   0.758  1.00  0.00     0.037 A 
ATOM     60  C   UNL     1      -0.296 -14.233  -1.611  1.00  0.00     0.037 A 
ATOM     61  C   UNL     1       5.333 -15.306   1.519  1.00  0.00     0.049 A 
ATOM     62  C   UNL     1       0.098 -15.095  -0.433  1.00  0.00     0.074 A 
ATOM     63  C   UNL     1       5.556 -16.092   2.636  1.00  0.00     0.029 A 
ATOM     64  N   UNL     1       3.979 -15.392   1.233  1.00  0.00    -0.354 N 
ATOM     65  N   UNL     1       1.262 -15.213   0.159  1.00  0.00    -0.248 NA
ATOM     66  C   UNL     1      -0.963 -15.913   0.173  1.00  0.00     0.031 C 
ATOM     67  C   UNL     1       4.345 -16.693   2.997  1.00  0.00     0.029 A 
ATOM     68  C   UNL     1       3.358 -16.235   2.140  1.00  0.00     0.049 A 
ATOM     69  H   UNL     1       3.527 -14.923   0.495  1.00  0.00     0.167 HD
ATOM     70  C   UNL     1       1.059 -16.074   1.234  1.00  0.00     0.074 A 
ATOM     71  C   UNL     1      -0.345 -16.423   1.228  1.00  0.00     0.031 C 
ATOM     72  C   UNL     1       1.951 -16.544   2.142  1.00  0.00     0.037 A 
BRANCH  59  73
ATOM     73  C   UNL     1       7.727 -14.585   1.161  1.00  0.00     0.057 A 
ATOM     74  C   UNL     1       8.376 -13.479   1.728  1.00  0.00     0.134 A 
ATOM     75  C   UNL     1       8.475 -15.757   0.994  1.00  0.00     0.134 A 
ATOM     76  F   UNL     1       7.722 -12.320   1.898  1.00  0.00    -0.206 F 
ATOM     77  C   UNL     1       9.723 -13.530   2.089  1.00  0.00     0.040 A 
ATOM     78  C   UNL     1       9.815 -15.829   1.378  1.00  0.00     0.040 A 
ATOM     79  F   UNL     1       7.915 -16.852   0.459  1.00  0.00    -0.206 F 
ATOM     80  C   UNL     1      10.445 -14.711   1.921  1.00  0.00     0.006 A 
ENDBRANCH  59  73
BRANCH  60  81
ATOM     81  C   UNL     1      -1.712 -14.196  -2.073  1.00  0.00     0.057 A 
ATOM     82  C   UNL     1      -2.736 -13.769  -1.220  1.00  0.00     0.134 A 
ATOM     83  C   UNL     1      -2.089 -14.615  -3.354  1.00  0.00     0.134 A 
ATOM     84  F   UNL     1      -2.449 -13.412   0.041  1.00  0.00    -0.206 F 
ATOM     85  C   UNL     1      -4.074 -13.751  -1.617  1.00  0.00     0.040 A 
ATOM     86  C   UNL     1      -3.421 -14.582  -3.776  1.00  0.00     0.040 A 
ATOM     87  F   UNL     1      -1.167 -15.061  -4.220  1.00  0.00    -0.206 F 
ATOM     88  C   UNL     1      -4.419 -14.151  -2.904  1.00  0.00     0.006 A 
ENDBRANCH  60  81
BRANCH  72  89
ATOM     89  C   UNL     1       1.420 -17.425   3.239  1.00  0.00     0.057 A 
ATOM     90  C   UNL     1       0.931 -18.715   2.992  1.00  0.00     0.134 A 
ATOM     91  C   UNL     1       1.404 -16.975   4.566  1.00  0.00     0.134 A 
ATOM     92  F   UNL     1       0.910 -19.207   1.743  1.00  0.00    -0.206 F 
ATOM     93  C   UNL     1       0.402 -19.505   4.014  1.00  0.00     0.040 A 
ATOM     94  C   UNL     1       0.910 -17.769   5.602  1.00  0.00     0.040 A 
ATOM     95  F   UNL     1       1.872 -15.758   4.880  1.00  0.00    -0.206 F 
ATOM     96  C   UNL     1       0.394 -19.033   5.325  1.00  0.00     0.006 A 
ENDBRANCH  72  89
ENDBRANCH  46  47
ENDBRANCH  39  41
ENDBRANCH  38  39
ENDBRANCH  37  38
ENDBRANCH  36  37
ENDBRANCH  35  36
ENDBRANCH  34  35
ENDBRANCH   1  34
TORSDOF 21
