REMARK SMILES O=C(OCCOCCOCCOC(=O)c1noc(-c2ccccc2Cl)n1)c1ccc(-c2c3nc(c(-c4c(F)cccc4F)c4ccc([nH]4)c(-c4c(F)cccc4F)c4nc(c(-c5c(F)cccc5F)c5ccc2[nH]5)C=C4)C=C3)cc1
REMARK SMILES IDX 7 1 6 2 5 3 4 4 3 5 2 6 1 7 27 8 28 9 80 10 29 11 79 12
REMARK SMILES IDX 30 13 31 14 32 15 73 16 33 17 78 18 72 19 74 20 34 21 77 22
REMARK SMILES IDX 71 23 70 24 35 26 61 27 44 28 60 29 45 30 48 31 59 32 75 33
REMARK SMILES IDX 46 34 47 35 58 37 76 38 49 39 36 40 37 41 42 42 38 43 39 44
REMARK SMILES IDX 41 45 43 46 40 47 62 48 63 49 68 50 64 51 65 52 67 53 69 54
REMARK SMILES IDX 66 55 50 56 51 57 56 58 52 59 53 60 55 61 57 62 54 63 8 64
REMARK SMILES IDX 9 65 10 66 11 67 12 68 13 69 14 70 15 71 16 72 26 73 17 74
REMARK SMILES IDX 18 75 19 76 20 77 24 78 21 79 23 80 25 81 22 82
REMARK H PARENT 74 25 48 36
REMARK Flexibility Score: inf
ROOT
ATOM      1  C   UNL     1       2.613  -0.064   1.984  1.00  0.00     0.188 C 
ENDROOT
BRANCH   1   2
ATOM      2  O   UNL     1       3.965  -0.425   1.696  1.00  0.00    -0.376 OA
BRANCH   2   3
ATOM      3  C   UNL     1       4.827   0.675   1.381  1.00  0.00     0.202 C 
BRANCH   3   4
ATOM      4  C   UNL     1       4.454   1.534   0.147  1.00  0.00     0.261 C 
BRANCH   4   5
ATOM      5  O   UNL     1       3.086   1.420  -0.310  1.00  0.00    -0.460 OA
BRANCH   5   6
ATOM      6  C   UNL     1       2.549   0.618  -1.269  1.00  0.00     0.338 C 
ATOM      7  O   UNL     1       1.400   0.829  -1.650  1.00  0.00    -0.246 OA
BRANCH   6   8
ATOM      8  C   UNL     1       3.282  -0.542  -1.852  1.00  0.00     0.060 A 
ATOM      9  C   UNL     1       4.402  -1.094  -1.254  1.00  0.00     0.016 A 
ATOM     10  C   UNL     1       2.800  -1.169  -3.010  1.00  0.00     0.016 A 
ATOM     11  C   UNL     1       5.112  -2.132  -1.802  1.00  0.00     0.010 A 
ATOM     12  C   UNL     1       3.439  -2.314  -3.514  1.00  0.00     0.010 A 
ATOM     13  C   UNL     1       4.602  -2.801  -2.893  1.00  0.00    -0.014 A 
BRANCH  13  14
ATOM     14  C   UNL     1       5.384  -3.948  -3.381  1.00  0.00     0.031 A 
ATOM     15  C   UNL     1       6.081  -3.794  -4.686  1.00  0.00     0.074 A 
ATOM     16  C   UNL     1       5.636  -5.008  -2.581  1.00  0.00     0.049 A 
ATOM     17  N   UNL     1       6.685  -4.694  -5.402  1.00  0.00    -0.248 NA
ATOM     18  C   UNL     1       6.181  -2.421  -5.218  1.00  0.00     0.031 C 
ATOM     19  C   UNL     1       5.333  -5.082  -1.147  1.00  0.00     0.029 A 
ATOM     20  N   UNL     1       6.183  -6.244  -2.845  1.00  0.00    -0.354 N 
ATOM     21  C   UNL     1       7.268  -3.996  -6.447  1.00  0.00     0.074 A 
ATOM     22  C   UNL     1       6.910  -2.606  -6.307  1.00  0.00     0.031 C 
ATOM     23  C   UNL     1       5.602  -6.318  -0.700  1.00  0.00     0.029 A 
ATOM     24  C   UNL     1       5.868  -7.147  -1.839  1.00  0.00     0.049 A 
ATOM     25  H   UNL     1       6.724  -6.458  -3.639  1.00  0.00     0.167 HD
ATOM     26  C   UNL     1       8.058  -4.501  -7.416  1.00  0.00     0.037 A 
ATOM     27  C   UNL     1       5.574  -8.459  -1.953  1.00  0.00     0.037 A 
ATOM     28  C   UNL     1       8.359  -5.900  -7.502  1.00  0.00     0.049 A 
ATOM     29  C   UNL     1       6.234  -9.086  -3.224  1.00  0.00     0.074 A 
ATOM     30  C   UNL     1       9.098  -6.574  -8.450  1.00  0.00     0.029 A 
ATOM     31  N   UNL     1       7.902  -6.840  -6.588  1.00  0.00    -0.354 N 
ATOM     32  N   UNL     1       6.724  -8.461  -4.286  1.00  0.00    -0.248 NA
ATOM     33  C   UNL     1       6.432 -10.539  -3.304  1.00  0.00     0.031 C 
ATOM     34  C   UNL     1       9.020  -7.938  -8.150  1.00  0.00     0.029 A 
ATOM     35  C   UNL     1       8.295  -8.101  -6.976  1.00  0.00     0.049 A 
ATOM     36  H   UNL     1       7.376  -6.636  -5.781  1.00  0.00     0.167 HD
ATOM     37  C   UNL     1       7.310  -9.430  -5.100  1.00  0.00     0.074 A 
ATOM     38  C   UNL     1       7.102 -10.692  -4.435  1.00  0.00     0.031 C 
ATOM     39  C   UNL     1       7.992  -9.320  -6.270  1.00  0.00     0.037 A 
BRANCH  26  40
ATOM     40  C   UNL     1       8.561  -3.559  -8.459  1.00  0.00     0.057 A 
ATOM     41  C   UNL     1       9.561  -2.615  -8.195  1.00  0.00     0.134 A 
ATOM     42  C   UNL     1       8.018  -3.588  -9.748  1.00  0.00     0.134 A 
ATOM     43  F   UNL     1      10.097  -2.515  -6.969  1.00  0.00    -0.206 F 
ATOM     44  C   UNL     1       9.995  -1.723  -9.177  1.00  0.00     0.040 A 
ATOM     45  C   UNL     1       8.457  -2.716 -10.743  1.00  0.00     0.040 A 
ATOM     46  F   UNL     1       7.045  -4.459 -10.057  1.00  0.00    -0.206 F 
ATOM     47  C   UNL     1       9.446  -1.777 -10.457  1.00  0.00     0.006 A 
ENDBRANCH  26  40
BRANCH  27  48
ATOM     48  C   UNL     1       4.560  -9.338  -0.904  1.00  0.00     0.057 A 
ATOM     49  C   UNL     1       5.711 -10.658  -0.453  1.00  0.00     0.134 A 
ATOM     50  C   UNL     1       2.582  -9.797  -0.714  1.00  0.00     0.134 A 
ATOM     51  F   UNL     1       7.035 -10.452  -0.496  1.00  0.00    -0.206 F 
ATOM     52  C   UNL     1       5.104 -12.244  -0.009  1.00  0.00     0.040 A 
ATOM     53  C   UNL     1       2.109 -11.462  -0.215  1.00  0.00     0.040 A 
ATOM     54  F   UNL     1       1.433  -9.113  -1.012  1.00  0.00    -0.206 F 
ATOM     55  C   UNL     1       3.378 -12.629   0.099  1.00  0.00     0.006 A 
ENDBRANCH  27  48
BRANCH  39  56
ATOM     56  C   UNL     1       8.511 -10.585  -6.897  1.00  0.00     0.057 A 
ATOM     57  C   UNL     1       7.654 -11.485  -7.542  1.00  0.00     0.134 A 
ATOM     58  C   UNL     1       9.888 -10.835  -6.969  1.00  0.00     0.134 A 
ATOM     59  F   UNL     1       6.324 -11.308  -7.498  1.00  0.00    -0.206 F 
ATOM     60  C   UNL     1       8.149 -12.587  -8.239  1.00  0.00     0.040 A 
ATOM     61  C   UNL     1      10.396 -11.915  -7.690  1.00  0.00     0.040 A 
ATOM     62  F   UNL     1      10.763 -10.003  -6.383  1.00  0.00    -0.206 F 
ATOM     63  C   UNL     1       9.525 -12.795  -8.329  1.00  0.00     0.006 A 
ENDBRANCH  39  56
ENDBRANCH  13  14
ENDBRANCH   6   8
ENDBRANCH   5   6
ENDBRANCH   4   5
ENDBRANCH   3   4
ENDBRANCH   2   3
ENDBRANCH   1   2
BRANCH   1  64
ATOM     64  C   UNL     1       1.962  -0.918   3.071  1.00  0.00     0.188 C 
BRANCH  64  65
ATOM     65  O   UNL     1       2.557  -0.892   4.363  1.00  0.00    -0.376 OA
BRANCH  65  66
ATOM     66  C   UNL     1       3.957  -1.125   4.448  1.00  0.00     0.202 C 
BRANCH  66  67
ATOM     67  C   UNL     1       4.476  -2.524   4.080  1.00  0.00     0.261 C 
BRANCH  67  68
ATOM     68  O   UNL     1       4.026  -3.051   2.819  1.00  0.00    -0.457 OA
BRANCH  68  69
ATOM     69  C   UNL     1       3.038  -4.001   2.898  1.00  0.00     0.380 C 
ATOM     70  O   UNL     1       2.483  -4.328   3.943  1.00  0.00    -0.242 OA
BRANCH  69  71
ATOM     71  C   UNL     1       2.799  -4.691   1.628  1.00  0.00     0.281 A 
ATOM     72  N   UNL     1       2.011  -4.281   0.612  1.00  0.00    -0.049 NA
ATOM     73  N   UNL     1       3.337  -5.926   1.433  1.00  0.00    -0.181 NA
ATOM     74  O   UNL     1       2.022  -5.395  -0.284  1.00  0.00    -0.333 OA
ATOM     75  C   UNL     1       2.809  -6.337   0.305  1.00  0.00     0.259 A 
BRANCH  75  76
ATOM     76  C   UNL     1       3.063  -7.657  -0.274  1.00  0.00     0.058 A 
ATOM     77  C   UNL     1       3.007  -8.066  -2.015  1.00  0.00     0.015 A 
ATOM     78  C   UNL     1       3.484  -8.817   0.962  1.00  0.00     0.053 A 
ATOM     79  C   UNL     1       3.337  -9.712  -2.650  1.00  0.00     0.001 A 
ATOM     80  C   UNL     1       3.857 -10.466   0.492  1.00  0.00     0.021 A 
ATOM     81  Cl  UNL     1       3.352  -8.539   2.661  1.00  0.00    -0.083 Cl
ATOM     82  C   UNL     1       3.810 -10.998  -1.456  1.00  0.00     0.002 A 
ENDBRANCH  75  76
ENDBRANCH  69  71
ENDBRANCH  68  69
ENDBRANCH  67  68
ENDBRANCH  66  67
ENDBRANCH  65  66
ENDBRANCH  64  65
ENDBRANCH   1  64
TORSDOF 18
