REMARK SMILES COc1cccc2c(C)cc(S[C@H](C)C(=O)Nc3ccc(C(=O)OCCOCCOCCOC(=O)c4ccc(-c5c6nc(c(-c7c(F)cccc7F)c7ccc([nH]7)c(-c7c(F)cccc7F)c7nc(c(-c8c(F)cccc8F)c8ccc5[nH]8)C=C7)C=C6)cc4)cc3)nc12
REMARK SMILES IDX 27 1 26 2 25 3 24 4 22 5 23 6 21 7 18 8 19 9 91 10 20 11
REMARK SMILES IDX 90 12 17 13 15 14 16 15 13 17 14 18 12 19 11 20 3 21 4 22
REMARK SMILES IDX 93 23 5 24 7 25 92 26 6 27 8 28 9 29 10 30 2 31 1 32 28 33
REMARK SMILES IDX 29 34 30 35 31 36 32 37 33 38 34 39 35 40 36 41 37 42 89 43
REMARK SMILES IDX 38 44 88 45 39 46 40 47 41 48 82 49 42 50 87 51 81 52 83 53
REMARK SMILES IDX 43 54 86 55 80 56 79 57 44 59 70 60 53 61 69 62 54 63 57 64
REMARK SMILES IDX 68 65 84 66 55 67 56 68 67 70 85 71 58 72 45 73 46 74 51 75
REMARK SMILES IDX 47 76 48 77 50 78 52 79 49 80 71 81 72 82 77 83 73 84 74 85
REMARK SMILES IDX 76 86 78 87 75 88 59 89 60 90 65 91 61 92 62 93 64 94 66 95
REMARK SMILES IDX 63 96
REMARK H PARENT 17 16 83 58 57 69
REMARK Flexibility Score: inf
ROOT
ATOM      1  O   UNL     1       1.317   7.125   2.450  1.00  0.00    -0.376 OA
ENDROOT
BRANCH   1   2
ATOM      2  C   UNL     1       1.364   7.143   1.026  1.00  0.00     0.202 C 
BRANCH   2   3
ATOM      3  C   UNL     1       2.652   6.738   0.299  1.00  0.00     0.261 C 
BRANCH   3   4
ATOM      4  O   UNL     1       3.132   5.440   0.665  1.00  0.00    -0.460 OA
BRANCH   4   5
ATOM      5  C   UNL     1       4.347   5.416   1.271  1.00  0.00     0.338 C 
ATOM      6  O   UNL     1       5.098   6.349   1.456  1.00  0.00    -0.246 OA
BRANCH   5   7
ATOM      7  C   UNL     1       4.545   4.080   1.876  1.00  0.00     0.060 A 
ATOM      8  C   UNL     1       5.031   1.625   3.051  1.00  0.00     0.041 A 
ATOM      9  C   UNL     1       5.349   2.785   3.753  1.00  0.00     0.027 A 
ATOM     10  C   UNL     1       4.331   1.685   1.849  1.00  0.00     0.027 A 
ATOM     11  C   UNL     1       5.144   4.018   3.142  1.00  0.00     0.018 A 
ATOM     12  C   UNL     1       4.092   2.916   1.250  1.00  0.00     0.018 A 
BRANCH   8  13
ATOM     13  N   UNL     1       5.471   0.403   3.540  1.00  0.00    -0.325 N 
ATOM     14  C   UNL     1       6.354  -0.451   2.943  1.00  0.00     0.237 C 
ATOM     15  O   UNL     1       6.565  -1.524   3.528  1.00  0.00    -0.273 OA
ATOM     16  H   UNL     1       5.107   0.121   4.411  1.00  0.00     0.169 HD
BRANCH  14  17
ATOM     17  C   UNL     1       7.146  -0.137   1.665  1.00  0.00     0.139 C 
ATOM     18  C   UNL     1       6.330  -0.358   0.392  1.00  0.00     0.030 C 
BRANCH  17  19
ATOM     19  S   UNL     1       8.038   1.471   1.542  1.00  0.00    -0.093 SA
BRANCH  19  20
ATOM     20  C   UNL     1       8.635   1.939   3.153  1.00  0.00     0.098 A 
ATOM     21  C   UNL     1      10.087   5.050   4.452  1.00  0.00     0.145 A 
ATOM     22  C   UNL     1      10.492   5.608   5.675  1.00  0.00     0.049 A 
ATOM     23  C   UNL     1       9.494   3.770   4.378  1.00  0.00     0.114 A 
ATOM     24  C   UNL     1      10.273   4.930   6.861  1.00  0.00     0.005 A 
ATOM     25  C   UNL     1       9.325   3.065   5.594  1.00  0.00     0.007 A 
ATOM     26  N   UNL     1       9.103   3.209   3.205  1.00  0.00    -0.238 NA
ATOM     27  C   UNL     1       9.691   3.670   6.819  1.00  0.00     0.011 A 
ATOM     28  C   UNL     1       8.821   1.748   5.534  1.00  0.00    -0.039 A 
ATOM     29  C   UNL     1       8.535   0.930   6.766  1.00  0.00     0.045 C 
ATOM     30  C   UNL     1       8.576   1.164   4.288  1.00  0.00     0.039 A 
BRANCH  21  31
ATOM     31  O   UNL     1      10.420   5.853   3.382  1.00  0.00    -0.494 OA
ATOM     32  C   UNL     1       9.474   5.895   2.321  1.00  0.00     0.278 C 
ENDBRANCH  21  31
ENDBRANCH  19  20
ENDBRANCH  17  19
ENDBRANCH  14  17
ENDBRANCH   8  13
ENDBRANCH   5   7
ENDBRANCH   4   5
ENDBRANCH   3   4
ENDBRANCH   2   3
ENDBRANCH   1   2
BRANCH   1  33
ATOM     33  C   UNL     1       1.695   5.952   3.162  1.00  0.00     0.188 C 
BRANCH  33  34
ATOM     34  C   UNL     1       1.111   4.580   2.763  1.00  0.00     0.188 C 
BRANCH  34  35
ATOM     35  O   UNL     1       0.307   4.596   1.611  1.00  0.00    -0.376 OA
BRANCH  35  36
ATOM     36  C   UNL     1      -1.102   4.665   1.736  1.00  0.00     0.202 C 
BRANCH  36  37
ATOM     37  C   UNL     1      -1.856   5.295   2.927  1.00  0.00     0.261 C 
BRANCH  37  38
ATOM     38  O   UNL     1      -1.131   5.569   4.129  1.00  0.00    -0.460 OA
BRANCH  38  39
ATOM     39  C   UNL     1      -1.191   4.628   5.100  1.00  0.00     0.338 C 
ATOM     40  O   UNL     1      -1.750   3.547   5.050  1.00  0.00    -0.246 OA
BRANCH  39  41
ATOM     41  C   UNL     1      -0.302   5.044   6.204  1.00  0.00     0.060 A 
ATOM     42  C   UNL     1       0.825   4.263   6.489  1.00  0.00     0.016 A 
ATOM     43  C   UNL     1      -0.596   6.174   6.970  1.00  0.00     0.016 A 
ATOM     44  C   UNL     1       1.647   4.593   7.567  1.00  0.00     0.010 A 
ATOM     45  C   UNL     1       0.218   6.492   8.061  1.00  0.00     0.010 A 
ATOM     46  C   UNL     1       1.324   5.685   8.384  1.00  0.00    -0.014 A 
BRANCH  46  47
ATOM     47  C   UNL     1       2.034   5.875   9.673  1.00  0.00     0.031 A 
ATOM     48  C   UNL     1       1.392   5.358  10.931  1.00  0.00     0.074 A 
ATOM     49  C   UNL     1       3.232   6.482   9.729  1.00  0.00     0.049 A 
ATOM     50  N   UNL     1       1.803   5.440  12.170  1.00  0.00    -0.248 NA
ATOM     51  C   UNL     1       0.110   4.654  10.766  1.00  0.00     0.031 C 
ATOM     52  C   UNL     1       3.973   7.001   8.582  1.00  0.00     0.029 A 
ATOM     53  N   UNL     1       4.029   6.774  10.808  1.00  0.00    -0.354 N 
ATOM     54  C   UNL     1       0.829   4.809  12.933  1.00  0.00     0.074 A 
ATOM     55  C   UNL     1      -0.207   4.373  12.021  1.00  0.00     0.031 C 
ATOM     56  C   UNL     1       5.112   7.566   9.021  1.00  0.00     0.029 A 
ATOM     57  C   UNL     1       5.165   7.473  10.479  1.00  0.00     0.049 A 
ATOM     58  H   UNL     1       3.808   6.508  11.730  1.00  0.00     0.167 HD
ATOM     59  C   UNL     1       0.800   4.605  14.271  1.00  0.00     0.037 A 
ATOM     60  C   UNL     1       6.122   7.998  11.269  1.00  0.00     0.037 A 
ATOM     61  C   UNL     1       1.827   5.042  15.179  1.00  0.00     0.049 A 
ATOM     62  C   UNL     1       6.038   7.815  12.762  1.00  0.00     0.074 A 
ATOM     63  C   UNL     1       1.904   4.856  16.548  1.00  0.00     0.029 A 
ATOM     64  N   UNL     1       2.951   5.766  14.810  1.00  0.00    -0.354 N 
ATOM     65  N   UNL     1       5.135   7.181  13.470  1.00  0.00    -0.248 NA
ATOM     66  C   UNL     1       7.112   8.418  13.566  1.00  0.00     0.031 C 
ATOM     67  C   UNL     1       3.046   5.513  17.015  1.00  0.00     0.029 A 
ATOM     68  C   UNL     1       3.712   6.059  15.930  1.00  0.00     0.049 A 
ATOM     69  H   UNL     1       3.175   6.032  13.889  1.00  0.00     0.167 HD
ATOM     70  C   UNL     1       5.545   7.283  14.795  1.00  0.00     0.074 A 
ATOM     71  C   UNL     1       6.785   8.031  14.791  1.00  0.00     0.031 C 
ATOM     72  C   UNL     1       4.949   6.800  15.913  1.00  0.00     0.037 A 
BRANCH  59  73
ATOM     73  C   UNL     1      -0.400   3.902  14.835  1.00  0.00     0.057 A 
ATOM     74  C   UNL     1      -0.631   2.537  14.621  1.00  0.00     0.134 A 
ATOM     75  C   UNL     1      -1.329   4.599  15.617  1.00  0.00     0.134 A 
ATOM     76  F   UNL     1       0.212   1.815  13.867  1.00  0.00    -0.206 F 
ATOM     77  C   UNL     1      -1.756   1.897  15.143  1.00  0.00     0.040 A 
ATOM     78  C   UNL     1      -2.443   3.964  16.168  1.00  0.00     0.040 A 
ATOM     79  F   UNL     1      -1.167   5.908  15.864  1.00  0.00    -0.206 F 
ATOM     80  C   UNL     1      -2.663   2.610  15.925  1.00  0.00     0.006 A 
ENDBRANCH  59  73
BRANCH  60  81
ATOM     81  C   UNL     1       7.242   8.765  10.665  1.00  0.00     0.057 A 
ATOM     82  C   UNL     1       8.550   8.267  10.668  1.00  0.00     0.134 A 
ATOM     83  C   UNL     1       7.031  10.024  10.090  1.00  0.00     0.134 A 
ATOM     84  F   UNL     1       8.819   7.078  11.226  1.00  0.00    -0.206 F 
ATOM     85  C   UNL     1       9.611   9.000  10.133  1.00  0.00     0.040 A 
ATOM     86  C   UNL     1       8.078  10.756   9.528  1.00  0.00     0.040 A 
ATOM     87  F   UNL     1       5.801  10.557  10.059  1.00  0.00    -0.206 F 
ATOM     88  C   UNL     1       9.375  10.246   9.556  1.00  0.00     0.006 A 
ENDBRANCH  60  81
BRANCH  72  89
ATOM     89  C   UNL     1       5.648   7.026  17.224  1.00  0.00     0.057 A 
ATOM     90  C   UNL     1       5.708   8.288  17.826  1.00  0.00     0.134 A 
ATOM     91  C   UNL     1       6.231   5.953  17.913  1.00  0.00     0.134 A 
ATOM     92  F   UNL     1       5.179   9.359  17.215  1.00  0.00    -0.206 F 
ATOM     93  C   UNL     1       6.344   8.481  19.055  1.00  0.00     0.040 A 
ATOM     94  C   UNL     1       6.845   6.128  19.154  1.00  0.00     0.040 A 
ATOM     95  F   UNL     1       6.200   4.715  17.398  1.00  0.00    -0.206 F 
ATOM     96  C   UNL     1       6.908   7.397  19.725  1.00  0.00     0.006 A 
ENDBRANCH  72  89
ENDBRANCH  46  47
ENDBRANCH  39  41
ENDBRANCH  38  39
ENDBRANCH  37  38
ENDBRANCH  36  37
ENDBRANCH  35  36
ENDBRANCH  34  35
ENDBRANCH  33  34
ENDBRANCH   1  33
TORSDOF 22
