REMARK SMILES CCCCCCOC(=O)Nc1cccc(-c2ccc([C@@H](C)C(=O)OCCOCCOCCOC(=O)c3ccc(-c4c5nc(c(-c6c(F)cccc6F)c6ccc([nH]6)c(-c6c(F)cccc6F)c6nc(c(-c7c(F)cccc7F)c7ccc4[nH]7)C=C6)C=C5)cc3)cc2F)c1
REMARK SMILES IDX 25 1 24 2 22 3 23 4 20 5 21 6 19 7 16 8 17 9 91 10 18 11
REMARK SMILES IDX 90 12 92 13 15 14 11 15 12 16 93 17 13 18 14 19 10 20 8 21
REMARK SMILES IDX 9 22 7 24 6 25 5 26 4 27 3 28 2 29 1 30 26 31 27 32 28 33
REMARK SMILES IDX 29 34 30 35 31 36 32 37 33 38 34 39 35 40 36 41 37 42 89 43
REMARK SMILES IDX 38 44 88 45 39 46 40 47 41 48 82 49 42 50 87 51 81 52 83 53
REMARK SMILES IDX 43 54 86 55 80 56 79 57 44 59 70 60 53 61 69 62 54 63 57 64
REMARK SMILES IDX 68 65 84 66 55 67 56 68 67 70 85 71 58 72 45 73 46 74 51 75
REMARK SMILES IDX 47 76 48 77 50 78 52 79 49 80 71 81 72 82 77 83 73 84 74 85
REMARK SMILES IDX 76 86 78 87 75 88 59 89 60 90 65 91 61 92 62 93 64 94 66 95
REMARK SMILES IDX 63 96
REMARK H PARENT 10 23 83 58 57 69
REMARK Flexibility Score: inf
ROOT
ATOM      1  C   UNL     1      -9.355   7.519   4.451  1.00  0.00     0.261 C 
ENDROOT
BRANCH   1   2
ATOM      2  O   UNL     1      -8.168   8.341   4.430  1.00  0.00    -0.463 OA
BRANCH   2   3
ATOM      3  C   UNL     1      -7.989   9.167   5.491  1.00  0.00     0.313 C 
ATOM      4  O   UNL     1      -8.797   9.269   6.412  1.00  0.00    -0.252 OA
BRANCH   3   5
ATOM      5  C   UNL     1      -6.692   9.979   5.502  1.00  0.00     0.126 C 
ATOM      6  C   UNL     1      -7.046  11.465   5.558  1.00  0.00     0.025 C 
BRANCH   5   7
ATOM      7  C   UNL     1      -5.595   9.740   4.468  1.00  0.00    -0.031 A 
ATOM      8  C   UNL     1      -3.433   9.364   2.621  1.00  0.00     0.018 A 
ATOM      9  C   UNL     1      -4.740   9.625   2.178  1.00  0.00     0.012 A 
ATOM     10  C   UNL     1      -3.236   9.295   4.005  1.00  0.00     0.131 A 
ATOM     11  C   UNL     1      -5.803   9.817   3.083  1.00  0.00     0.005 A 
ATOM     12  C   UNL     1      -4.285   9.484   4.912  1.00  0.00     0.044 A 
ATOM     13  F   UNL     1      -2.011   9.067   4.506  1.00  0.00    -0.206 F 
BRANCH   8  14
ATOM     14  C   UNL     1      -2.304   9.231   1.678  1.00  0.00    -0.013 A 
ATOM     15  C   UNL     1      -0.341   8.021   0.859  1.00  0.00     0.045 A 
ATOM     16  C   UNL     1       0.013   9.115   0.069  1.00  0.00     0.026 A 
ATOM     17  C   UNL     1      -1.498   8.077   1.650  1.00  0.00     0.035 A 
ATOM     18  C   UNL     1      -0.809  10.239   0.030  1.00  0.00     0.003 A 
ATOM     19  C   UNL     1      -1.952  10.297   0.832  1.00  0.00     0.009 A 
BRANCH  15  20
ATOM     20  N   UNL     1       0.554   6.944   0.919  1.00  0.00    -0.291 N 
ATOM     21  C   UNL     1       0.279   5.642   1.229  1.00  0.00     0.411 C 
ATOM     22  O   UNL     1       1.153   4.898   1.660  1.00  0.00    -0.224 OA
ATOM     23  H   UNL     1       1.494   7.150   0.712  1.00  0.00     0.173 HD
BRANCH  21  24
ATOM     24  O   UNL     1      -0.972   5.263   0.871  1.00  0.00    -0.449 OA
BRANCH  24  25
ATOM     25  C   UNL     1      -1.329   3.882   1.035  1.00  0.00     0.235 C 
BRANCH  25  26
ATOM     26  C   UNL     1      -0.970   3.028  -0.183  1.00  0.00     0.042 C 
BRANCH  26  27
ATOM     27  C   UNL     1       0.513   2.677  -0.342  1.00  0.00     0.003 C 
BRANCH  27  28
ATOM     28  C   UNL     1       1.130   1.896   0.826  1.00  0.00    -0.000 C 
BRANCH  28  29
ATOM     29  C   UNL     1       0.592   0.478   1.021  1.00  0.00    -0.003 C 
ATOM     30  C   UNL     1       0.972  -0.459  -0.114  1.00  0.00     0.004 C 
ENDBRANCH  28  29
ENDBRANCH  27  28
ENDBRANCH  26  27
ENDBRANCH  25  26
ENDBRANCH  24  25
ENDBRANCH  21  24
ENDBRANCH  15  20
ENDBRANCH   8  14
ENDBRANCH   5   7
ENDBRANCH   3   5
ENDBRANCH   2   3
ENDBRANCH   1   2
BRANCH   1  31
ATOM     31  C   UNL     1      -9.095   6.010   4.370  1.00  0.00     0.202 C 
BRANCH  31  32
ATOM     32  O   UNL     1      -8.270   5.435   5.374  1.00  0.00    -0.376 OA
BRANCH  32  33
ATOM     33  C   UNL     1      -6.918   5.860   5.499  1.00  0.00     0.188 C 
BRANCH  33  34
ATOM     34  C   UNL     1      -6.131   6.287   4.251  1.00  0.00     0.188 C 
BRANCH  34  35
ATOM     35  O   UNL     1      -6.660   5.800   3.034  1.00  0.00    -0.376 OA
BRANCH  35  36
ATOM     36  C   UNL     1      -5.745   5.120   2.194  1.00  0.00     0.202 C 
BRANCH  36  37
ATOM     37  C   UNL     1      -5.516   3.679   2.663  1.00  0.00     0.261 C 
BRANCH  37  38
ATOM     38  O   UNL     1      -4.991   3.549   3.999  1.00  0.00    -0.460 OA
BRANCH  38  39
ATOM     39  C   UNL     1      -3.760   4.061   4.218  1.00  0.00     0.338 C 
ATOM     40  O   UNL     1      -3.031   4.594   3.402  1.00  0.00    -0.246 OA
BRANCH  39  41
ATOM     41  C   UNL     1      -3.503   4.081   5.671  1.00  0.00     0.060 A 
ATOM     42  C   UNL     1      -3.091   5.284   6.261  1.00  0.00     0.016 A 
ATOM     43  C   UNL     1      -3.652   2.926   6.440  1.00  0.00     0.016 A 
ATOM     44  C   UNL     1      -2.799   5.327   7.623  1.00  0.00     0.010 A 
ATOM     45  C   UNL     1      -3.341   2.966   7.800  1.00  0.00     0.010 A 
ATOM     46  C   UNL     1      -2.886   4.158   8.392  1.00  0.00    -0.014 A 
BRANCH  46  47
ATOM     47  C   UNL     1      -2.331   4.130   9.765  1.00  0.00     0.031 A 
ATOM     48  C   UNL     1      -0.942   3.589   9.964  1.00  0.00     0.074 A 
ATOM     49  C   UNL     1      -3.040   4.573  10.817  1.00  0.00     0.049 A 
ATOM     50  N   UNL     1      -0.276   3.393  11.073  1.00  0.00    -0.248 NA
ATOM     51  C   UNL     1      -0.206   3.217   8.744  1.00  0.00     0.031 C 
ATOM     52  C   UNL     1      -4.378   5.156  10.754  1.00  0.00     0.029 A 
ATOM     53  N   UNL     1      -2.728   4.587  12.154  1.00  0.00    -0.354 N 
ATOM     54  C   UNL     1       0.951   2.870  10.686  1.00  0.00     0.074 A 
ATOM     55  C   UNL     1       0.927   2.750   9.244  1.00  0.00     0.031 C 
ATOM     56  C   UNL     1      -4.780   5.459  12.001  1.00  0.00     0.029 A 
ATOM     57  C   UNL     1      -3.741   5.060  12.951  1.00  0.00     0.049 A 
ATOM     58  H   UNL     1      -1.860   4.287  12.508  1.00  0.00     0.167 HD
ATOM     59  C   UNL     1       2.007   2.528  11.461  1.00  0.00     0.037 A 
ATOM     60  C   UNL     1      -3.827   5.137  14.293  1.00  0.00     0.037 A 
ATOM     61  C   UNL     1       2.031   2.642  12.895  1.00  0.00     0.049 A 
ATOM     62  C   UNL     1      -2.669   4.672  15.140  1.00  0.00     0.074 A 
ATOM     63  C   UNL     1       3.058   2.329  13.768  1.00  0.00     0.029 A 
ATOM     64  N   UNL     1       0.974   3.100  13.667  1.00  0.00    -0.354 N 
ATOM     65  N   UNL     1      -1.506   4.197  14.766  1.00  0.00    -0.248 NA
ATOM     66  C   UNL     1      -2.839   4.756  16.598  1.00  0.00     0.031 C 
ATOM     67  C   UNL     1       2.606   2.552  15.072  1.00  0.00     0.029 A 
ATOM     68  C   UNL     1       1.317   3.056  15.009  1.00  0.00     0.049 A 
ATOM     69  H   UNL     1       0.109   3.410  13.315  1.00  0.00     0.167 HD
ATOM     70  C   UNL     1      -0.795   3.959  15.937  1.00  0.00     0.074 A 
ATOM     71  C   UNL     1      -1.654   4.352  17.034  1.00  0.00     0.031 C 
ATOM     72  C   UNL     1       0.457   3.463  16.091  1.00  0.00     0.037 A 
BRANCH  59  73
ATOM     73  C   UNL     1       3.217   1.974  10.770  1.00  0.00     0.057 A 
ATOM     74  C   UNL     1       4.058   2.780   9.991  1.00  0.00     0.134 A 
ATOM     75  C   UNL     1       3.560   0.623  10.906  1.00  0.00     0.134 A 
ATOM     76  F   UNL     1       3.776   4.079   9.808  1.00  0.00    -0.206 F 
ATOM     77  C   UNL     1       5.184   2.256   9.354  1.00  0.00     0.040 A 
ATOM     78  C   UNL     1       4.699   0.094  10.296  1.00  0.00     0.040 A 
ATOM     79  F   UNL     1       2.799  -0.203  11.640  1.00  0.00    -0.206 F 
ATOM     80  C   UNL     1       5.511   0.911   9.513  1.00  0.00     0.006 A 
ENDBRANCH  59  73
BRANCH  60  81
ATOM     81  C   UNL     1      -5.060   5.660  14.936  1.00  0.00     0.057 A 
ATOM     82  C   UNL     1      -5.054   6.872  15.636  1.00  0.00     0.134 A 
ATOM     83  C   UNL     1      -6.261   4.940  14.905  1.00  0.00     0.134 A 
ATOM     84  F   UNL     1      -3.927   7.594  15.726  1.00  0.00    -0.206 F 
ATOM     85  C   UNL     1      -6.190   7.340  16.299  1.00  0.00     0.040 A 
ATOM     86  C   UNL     1      -7.412   5.409  15.540  1.00  0.00     0.040 A 
ATOM     87  F   UNL     1      -6.332   3.769  14.255  1.00  0.00    -0.206 F 
ATOM     88  C   UNL     1      -7.375   6.609  16.248  1.00  0.00     0.006 A 
ENDBRANCH  60  81
BRANCH  72  89
ATOM     89  C   UNL     1       0.995   3.360  17.489  1.00  0.00     0.057 A 
ATOM     90  C   UNL     1       0.527   2.403  18.398  1.00  0.00     0.134 A 
ATOM     91  C   UNL     1       2.027   4.207  17.917  1.00  0.00     0.134 A 
ATOM     92  F   UNL     1      -0.467   1.570  18.056  1.00  0.00    -0.206 F 
ATOM     93  C   UNL     1       1.049   2.308  19.690  1.00  0.00     0.040 A 
ATOM     94  C   UNL     1       2.576   4.102  19.196  1.00  0.00     0.040 A 
ATOM     95  F   UNL     1       2.530   5.139  17.094  1.00  0.00    -0.206 F 
ATOM     96  C   UNL     1       2.082   3.154  20.089  1.00  0.00     0.006 A 
ENDBRANCH  72  89
ENDBRANCH  46  47
ENDBRANCH  39  41
ENDBRANCH  38  39
ENDBRANCH  37  38
ENDBRANCH  36  37
ENDBRANCH  35  36
ENDBRANCH  34  35
ENDBRANCH  33  34
ENDBRANCH  32  33
ENDBRANCH  31  32
ENDBRANCH   1  31
TORSDOF 26
