REMARK SMILES O=C(OCCOCCOCCOC(=O)[C@H]1CC2=c3ccccc3=N[C@H]2[C@@H](c2ccccc2)[NH2+]1)c1ccc(-c2c3nc(c(-c4c(F)cccc4F)c4ccc([nH]4)c(-c4c(F)cccc4F)c4nc(c(-c5c(F)cccc5F)c5ccc2[nH]5)C=C4)C=C3)cc1
REMARK SMILES IDX 7 1 6 2 5 3 4 4 3 5 2 6 1 7 34 8 35 9 87 10 36 11 86 12
REMARK SMILES IDX 37 13 38 14 39 15 80 16 40 17 85 18 79 19 81 20 41 21 84 22
REMARK SMILES IDX 78 23 77 24 42 26 68 27 51 28 67 29 52 30 55 31 66 32 82 33
REMARK SMILES IDX 53 34 54 35 65 37 83 38 56 39 43 40 44 41 49 42 45 43 46 44
REMARK SMILES IDX 48 45 50 46 47 47 69 48 70 49 75 50 71 51 72 52 74 53 76 54
REMARK SMILES IDX 73 55 57 56 58 57 63 58 59 59 60 60 62 61 64 62 61 63 8 64
REMARK SMILES IDX 9 65 10 66 11 67 12 68 13 69 14 70 15 71 16 72 33 73 17 74
REMARK SMILES IDX 26 75 18 78 25 79 19 80 23 81 24 82 20 83 22 84 21 85 27 86
REMARK SMILES IDX 28 87 32 88 29 89 31 90 30 91
REMARK H PARENT 81 25 55 36 33 76 33 77
REMARK Flexibility Score: inf
ROOT
ATOM      1  C   UNL     1       2.621   1.024  -1.195  1.00  0.00     0.188 C 
ENDROOT
BRANCH   1   2
ATOM      2  O   UNL     1       4.039   0.886  -1.182  1.00  0.00    -0.376 OA
BRANCH   2   3
ATOM      3  C   UNL     1       4.567  -0.322  -1.716  1.00  0.00     0.202 C 
BRANCH   3   4
ATOM      4  C   UNL     1       4.647  -1.494  -0.734  1.00  0.00     0.261 C 
BRANCH   4   5
ATOM      5  O   UNL     1       3.438  -1.711  -0.002  1.00  0.00    -0.460 OA
BRANCH   5   6
ATOM      6  C   UNL     1       3.081  -1.217   1.206  1.00  0.00     0.338 C 
ATOM      7  O   UNL     1       2.058  -1.676   1.719  1.00  0.00    -0.246 OA
BRANCH   6   8
ATOM      8  C   UNL     1       3.760  -0.074   1.918  1.00  0.00     0.060 A 
ATOM      9  C   UNL     1       3.078   0.413   3.038  1.00  0.00     0.016 A 
ATOM     10  C   UNL     1       4.950   0.584   1.579  1.00  0.00     0.016 A 
ATOM     11  C   UNL     1       3.547   1.530   3.737  1.00  0.00     0.010 A 
ATOM     12  C   UNL     1       5.429   1.703   2.289  1.00  0.00     0.010 A 
ATOM     13  C   UNL     1       4.721   2.216   3.366  1.00  0.00    -0.014 A 
BRANCH  13  14
ATOM     14  C   UNL     1       5.212   3.340   4.215  1.00  0.00     0.031 A 
ATOM     15  C   UNL     1       5.502   4.747   3.729  1.00  0.00     0.074 A 
ATOM     16  C   UNL     1       5.374   3.059   5.524  1.00  0.00     0.049 A 
ATOM     17  N   UNL     1       5.636   5.839   4.451  1.00  0.00    -0.248 NA
ATOM     18  C   UNL     1       5.676   4.983   2.289  1.00  0.00     0.031 C 
ATOM     19  C   UNL     1       5.264   1.720   6.114  1.00  0.00     0.029 A 
ATOM     20  N   UNL     1       5.653   3.868   6.591  1.00  0.00    -0.354 N 
ATOM     21  C   UNL     1       5.783   6.891   3.549  1.00  0.00     0.074 A 
ATOM     22  C   UNL     1       5.835   6.305   2.231  1.00  0.00     0.031 C 
ATOM     23  C   UNL     1       5.428   1.804   7.436  1.00  0.00     0.029 A 
ATOM     24  C   UNL     1       5.730   3.186   7.779  1.00  0.00     0.049 A 
ATOM     25  H   UNL     1       5.785   4.840   6.515  1.00  0.00     0.167 HD
ATOM     26  C   UNL     1       5.813   8.221   3.813  1.00  0.00     0.037 A 
ATOM     27  C   UNL     1       6.046   3.606   9.013  1.00  0.00     0.037 A 
ATOM     28  C   UNL     1       5.904   8.786   5.136  1.00  0.00     0.049 A 
ATOM     29  C   UNL     1       6.280   5.061   9.245  1.00  0.00     0.074 A 
ATOM     30  C   UNL     1       5.928  10.124   5.499  1.00  0.00     0.029 A 
ATOM     31  N   UNL     1       6.055   8.054   6.297  1.00  0.00    -0.354 N 
ATOM     32  N   UNL     1       6.173   6.056   8.401  1.00  0.00    -0.248 NA
ATOM     33  C   UNL     1       6.665   5.455  10.604  1.00  0.00     0.031 C 
ATOM     34  C   UNL     1       6.152  10.201   6.874  1.00  0.00     0.029 A 
ATOM     35  C   UNL     1       6.240   8.912   7.368  1.00  0.00     0.049 A 
ATOM     36  H   UNL     1       6.035   7.071   6.355  1.00  0.00     0.167 HD
ATOM     37  C   UNL     1       6.456   7.199   9.132  1.00  0.00     0.074 A 
ATOM     38  C   UNL     1       6.711   6.773  10.492  1.00  0.00     0.031 C 
ATOM     39  C   UNL     1       6.503   8.485   8.713  1.00  0.00     0.037 A 
BRANCH  26  40
ATOM     40  C   UNL     1       5.697   9.229   2.706  1.00  0.00     0.057 A 
ATOM     41  C   UNL     1       6.813   9.750   2.044  1.00  0.00     0.134 A 
ATOM     42  C   UNL     1       4.480   9.911   2.554  1.00  0.00     0.134 A 
ATOM     43  F   UNL     1       8.018   9.183   2.194  1.00  0.00    -0.206 F 
ATOM     44  C   UNL     1       6.722  10.913   1.270  1.00  0.00     0.040 A 
ATOM     45  C   UNL     1       4.391  11.094   1.824  1.00  0.00     0.040 A 
ATOM     46  F   UNL     1       3.375   9.482   3.185  1.00  0.00    -0.206 F 
ATOM     47  C   UNL     1       5.511  11.595   1.170  1.00  0.00     0.006 A 
ENDBRANCH  26  40
BRANCH  27  48
ATOM     48  C   UNL     1       6.205   2.608  10.095  1.00  0.00     0.057 A 
ATOM     49  C   UNL     1       7.231   1.654  10.037  1.00  0.00     0.134 A 
ATOM     50  C   UNL     1       5.338   2.562  11.189  1.00  0.00     0.134 A 
ATOM     51  F   UNL     1       8.085   1.638   9.002  1.00  0.00    -0.206 F 
ATOM     52  C   UNL     1       7.379   0.679  11.020  1.00  0.00     0.040 A 
ATOM     53  C   UNL     1       5.497   1.614  12.200  1.00  0.00     0.040 A 
ATOM     54  F   UNL     1       4.343   3.455  11.302  1.00  0.00    -0.206 F 
ATOM     55  C   UNL     1       6.515   0.665  12.112  1.00  0.00     0.006 A 
ENDBRANCH  27  48
BRANCH  39  56
ATOM     56  C   UNL     1       6.831   9.519   9.743  1.00  0.00     0.057 A 
ATOM     57  C   UNL     1       5.860  10.427  10.181  1.00  0.00     0.134 A 
ATOM     58  C   UNL     1       8.106   9.602  10.315  1.00  0.00     0.134 A 
ATOM     59  F   UNL     1       4.625  10.414   9.658  1.00  0.00    -0.206 F 
ATOM     60  C   UNL     1       6.141  11.368  11.170  1.00  0.00     0.040 A 
ATOM     61  C   UNL     1       8.388  10.513  11.331  1.00  0.00     0.040 A 
ATOM     62  F   UNL     1       9.077   8.755   9.938  1.00  0.00    -0.206 F 
ATOM     63  C   UNL     1       7.403  11.400  11.760  1.00  0.00     0.006 A 
ENDBRANCH  39  56
ENDBRANCH  13  14
ENDBRANCH   6   8
ENDBRANCH   5   6
ENDBRANCH   4   5
ENDBRANCH   3   4
ENDBRANCH   2   3
ENDBRANCH   1   2
BRANCH   1  64
ATOM     64  C   UNL     1       1.890   1.126  -2.542  1.00  0.00     0.188 C 
BRANCH  64  65
ATOM     65  O   UNL     1       2.589   1.395  -3.745  1.00  0.00    -0.376 OA
BRANCH  65  66
ATOM     66  C   UNL     1       3.690   2.282  -3.736  1.00  0.00     0.202 C 
BRANCH  66  67
ATOM     67  C   UNL     1       3.506   3.715  -3.235  1.00  0.00     0.261 C 
BRANCH  67  68
ATOM     68  O   UNL     1       2.807   3.890  -1.995  1.00  0.00    -0.459 OA
BRANCH  68  69
ATOM     69  C   UNL     1       1.581   4.492  -2.133  1.00  0.00     0.365 C 
ATOM     70  O   UNL     1       0.745   4.162  -2.957  1.00  0.00    -0.245 OA
BRANCH  69  71
ATOM     71  C   UNL     1       1.443   5.744  -1.256  1.00  0.00     0.298 C 
ATOM     72  C   UNL     1       0.481   5.668   0.028  1.00  0.00     0.111 C 
ATOM     73  N   UNL     1       2.806   6.327  -1.050  1.00  0.00    -0.326 N 
ATOM     74  C   UNL     1       0.881   6.510   1.374  1.00  0.00    -0.024 C 
ATOM     75  C   UNL     1       2.564   7.423  -0.121  1.00  0.00     0.243 C 
ATOM     76  H   UNL     1       3.194   6.670  -1.929  1.00  0.00     0.347 HD
ATOM     77  H   UNL     1       3.482   5.647  -0.699  1.00  0.00     0.347 HD
ATOM     78  C   UNL     1       0.850   5.912   2.567  1.00  0.00     0.002 A 
ATOM     79  C   UNL     1       2.381   6.832   1.283  1.00  0.00     0.196 C 
ATOM     80  C   UNL     1      -0.070   5.696   3.630  1.00  0.00     0.010 A 
ATOM     81  C   UNL     1       1.944   4.970   2.288  1.00  0.00     0.066 A 
ATOM     82  N   UNL     1       2.903   5.417   1.516  1.00  0.00    -0.270 NA
ATOM     83  C   UNL     1      -0.073   4.496   4.233  1.00  0.00     0.001 A 
ATOM     84  C   UNL     1       1.633   3.596   2.725  1.00  0.00     0.028 A 
ATOM     85  C   UNL     1       0.667   3.395   3.642  1.00  0.00     0.002 A 
BRANCH  75  86
ATOM     86  C   UNL     1       3.145   8.764  -0.495  1.00  0.00     0.012 A 
ATOM     87  C   UNL     1       2.301   9.883  -0.287  1.00  0.00     0.010 A 
ATOM     88  C   UNL     1       4.256   8.911  -1.329  1.00  0.00     0.010 A 
ATOM     89  C   UNL     1       2.486  11.068  -0.988  1.00  0.00     0.001 A 
ATOM     90  C   UNL     1       4.455  10.117  -2.011  1.00  0.00     0.001 A 
ATOM     91  C   UNL     1       3.557  11.178  -1.864  1.00  0.00     0.000 A 
ENDBRANCH  75  86
ENDBRANCH  69  71
ENDBRANCH  68  69
ENDBRANCH  67  68
ENDBRANCH  66  67
ENDBRANCH  65  66
ENDBRANCH  64  65
ENDBRANCH   1  64
TORSDOF 18
