REMARK SMILES CC(=O)N[C@@H](Cc1c(OCC(C)C)ccc2ccccc12)C(=O)OCCOCCOCCOC(=O)c1ccc(-c2c3nc(c(-c4c(F)cccc4F)c4ccc([nH]4)c(-c4c(F)cccc4F)c4nc(c(-c5c(F)cccc5F)c5ccc2[nH]5)C=C4)C=C3)cc1
REMARK SMILES IDX 27 1 26 2 25 3 24 4 22 5 23 6 5 7 4 8 1 9 2 10 3 11 6 13
REMARK SMILES IDX 7 14 8 15 21 16 14 17 16 18 20 19 15 20 17 21 19 22 18 23
REMARK SMILES IDX 9 24 10 25 11 26 12 27 13 28 28 29 29 30 30 31 31 32 32 33
REMARK SMILES IDX 33 34 34 35 35 36 36 37 37 38 89 39 38 40 88 41 39 42 40 43
REMARK SMILES IDX 41 44 82 45 42 46 87 47 81 48 83 49 43 50 86 51 80 52 79 53
REMARK SMILES IDX 44 55 70 56 53 57 69 58 54 59 57 60 68 61 84 62 55 63 56 64
REMARK SMILES IDX 67 66 85 67 58 68 45 69 46 70 51 71 47 72 48 73 50 74 52 75
REMARK SMILES IDX 49 76 71 77 72 78 77 79 73 80 74 81 76 82 78 83 75 84 59 85
REMARK SMILES IDX 60 86 65 87 61 88 62 89 64 90 66 91 63 92
REMARK H PARENT 4 12 83 54 57 65
REMARK Flexibility Score: inf
ROOT
ATOM      1  O   UNL     1      -0.909  -3.190  -4.699  1.00  0.00    -0.376 OA
ENDROOT
BRANCH   1   2
ATOM      2  C   UNL     1      -0.660  -4.575  -4.504  1.00  0.00     0.202 C 
BRANCH   2   3
ATOM      3  C   UNL     1       0.666  -4.984  -3.844  1.00  0.00     0.261 C 
BRANCH   3   4
ATOM      4  O   UNL     1       0.991  -4.280  -2.627  1.00  0.00    -0.462 OA
BRANCH   4   5
ATOM      5  C   UNL     1       2.104  -3.497  -2.643  1.00  0.00     0.329 C 
ATOM      6  O   UNL     1       2.855  -3.379  -3.607  1.00  0.00    -0.250 OA
BRANCH   5   7
ATOM      7  C   UNL     1       2.420  -2.832  -1.284  1.00  0.00     0.196 C 
BRANCH   7   8
ATOM      8  N   UNL     1       1.312  -2.559  -0.367  1.00  0.00    -0.343 N 
ATOM      9  C   UNL     1       1.669  -0.139  -0.071  1.00  0.00     0.114 C 
ATOM     10  C   UNL     1       0.961  -1.415   0.279  1.00  0.00     0.217 C 
ATOM     11  O   UNL     1       0.051  -1.438   1.106  1.00  0.00    -0.275 OA
ATOM     12  H   UNL     1       0.726  -3.330  -0.188  1.00  0.00     0.164 HD
ENDBRANCH   7   8
BRANCH   7  13
ATOM     13  C   UNL     1       3.479  -3.661  -0.540  1.00  0.00     0.077 C 
BRANCH  13  14
ATOM     14  C   UNL     1       3.163  -5.144  -0.329  1.00  0.00     0.005 A 
ATOM     15  C   UNL     1       2.311  -5.552   0.731  1.00  0.00     0.123 A 
ATOM     16  C   UNL     1       3.737  -6.138  -1.190  1.00  0.00    -0.011 A 
ATOM     17  C   UNL     1       2.232  -6.898   1.069  1.00  0.00     0.047 A 
ATOM     18  C   UNL     1       3.517  -7.504  -0.891  1.00  0.00    -0.018 A 
ATOM     19  C   UNL     1       4.495  -5.861  -2.357  1.00  0.00     0.009 A 
ATOM     20  C   UNL     1       2.815  -7.864   0.259  1.00  0.00     0.012 A 
ATOM     21  C   UNL     1       3.997  -8.512  -1.741  1.00  0.00     0.009 A 
ATOM     22  C   UNL     1       4.959  -6.872  -3.202  1.00  0.00     0.001 A 
ATOM     23  C   UNL     1       4.703  -8.199  -2.898  1.00  0.00     0.001 A 
BRANCH  15  24
ATOM     24  O   UNL     1       1.555  -4.586   1.338  1.00  0.00    -0.493 OA
BRANCH  24  25
ATOM     25  C   UNL     1       0.491  -4.928   2.241  1.00  0.00     0.232 C 
BRANCH  25  26
ATOM     26  C   UNL     1      -0.868  -5.278   1.581  1.00  0.00     0.020 C 
ATOM     27  C   UNL     1      -0.873  -6.556   0.740  1.00  0.00     0.011 C 
ATOM     28  C   UNL     1      -1.941  -5.413   2.670  1.00  0.00     0.011 C 
ENDBRANCH  25  26
ENDBRANCH  24  25
ENDBRANCH  15  24
ENDBRANCH  13  14
ENDBRANCH   7  13
ENDBRANCH   5   7
ENDBRANCH   4   5
ENDBRANCH   3   4
ENDBRANCH   2   3
ENDBRANCH   1   2
BRANCH   1  29
ATOM     29  C   UNL     1      -0.895  -2.314  -3.574  1.00  0.00     0.188 C 
BRANCH  29  30
ATOM     30  C   UNL     1      -1.385  -2.818  -2.204  1.00  0.00     0.188 C 
BRANCH  30  31
ATOM     31  O   UNL     1      -2.075  -4.045  -2.257  1.00  0.00    -0.376 OA
BRANCH  31  32
ATOM     32  C   UNL     1      -3.390  -4.059  -1.748  1.00  0.00     0.202 C 
BRANCH  32  33
ATOM     33  C   UNL     1      -4.405  -3.168  -2.479  1.00  0.00     0.261 C 
BRANCH  33  34
ATOM     34  O   UNL     1      -3.955  -1.847  -2.836  1.00  0.00    -0.460 OA
BRANCH  34  35
ATOM     35  C   UNL     1      -3.959  -0.901  -1.870  1.00  0.00     0.338 C 
ATOM     36  O   UNL     1      -4.327  -1.038  -0.711  1.00  0.00    -0.246 OA
BRANCH  35  37
ATOM     37  C   UNL     1      -3.265   0.297  -2.395  1.00  0.00     0.060 A 
ATOM     38  C   UNL     1      -2.056   0.717  -1.816  1.00  0.00     0.016 A 
ATOM     39  C   UNL     1      -3.814   1.011  -3.461  1.00  0.00     0.016 A 
ATOM     40  C   UNL     1      -1.408   1.865  -2.286  1.00  0.00     0.010 A 
ATOM     41  C   UNL     1      -3.181   2.174  -3.911  1.00  0.00     0.010 A 
ATOM     42  C   UNL     1      -1.992   2.626  -3.308  1.00  0.00    -0.014 A 
BRANCH  42  43
ATOM     43  C   UNL     1      -1.519   4.004  -3.605  1.00  0.00     0.031 A 
ATOM     44  C   UNL     1      -2.278   5.152  -2.995  1.00  0.00     0.074 A 
ATOM     45  C   UNL     1      -0.479   4.251  -4.421  1.00  0.00     0.049 A 
ATOM     46  N   UNL     1      -2.202   6.433  -3.245  1.00  0.00    -0.248 NA
ATOM     47  C   UNL     1      -3.270   4.794  -1.967  1.00  0.00     0.031 C 
ATOM     48  C   UNL     1       0.386   3.242  -5.025  1.00  0.00     0.029 A 
ATOM     49  N   UNL     1       0.005   5.444  -4.903  1.00  0.00    -0.354 N 
ATOM     50  C   UNL     1      -3.154   7.031  -2.428  1.00  0.00     0.074 A 
ATOM     51  C   UNL     1      -3.807   5.972  -1.691  1.00  0.00     0.031 C 
ATOM     52  C   UNL     1       1.281   3.857  -5.819  1.00  0.00     0.029 A 
ATOM     53  C   UNL     1       1.017   5.296  -5.819  1.00  0.00     0.049 A 
ATOM     54  H   UNL     1      -0.341   6.321  -4.618  1.00  0.00     0.167 HD
ATOM     55  C   UNL     1      -3.459   8.345  -2.304  1.00  0.00     0.037 A 
ATOM     56  C   UNL     1       1.629   6.212  -6.598  1.00  0.00     0.037 A 
ATOM     57  C   UNL     1      -2.812   9.396  -3.042  1.00  0.00     0.049 A 
ATOM     58  C   UNL     1       1.209   7.660  -6.518  1.00  0.00     0.074 A 
ATOM     59  C   UNL     1      -3.047  10.759  -2.987  1.00  0.00     0.029 A 
ATOM     60  N   UNL     1      -1.805   9.201  -3.975  1.00  0.00    -0.354 N 
ATOM     61  N   UNL     1       0.304   8.220  -5.752  1.00  0.00    -0.248 NA
ATOM     62  C   UNL     1       1.894   8.603  -7.416  1.00  0.00     0.031 C 
ATOM     63  C   UNL     1      -2.224  11.382  -3.929  1.00  0.00     0.029 A 
ATOM     64  C   UNL     1      -1.425  10.416  -4.520  1.00  0.00     0.049 A 
ATOM     65  H   UNL     1      -1.419   8.328  -4.215  1.00  0.00     0.167 HD
ATOM     66  C   UNL     1       0.343   9.580  -6.043  1.00  0.00     0.074 A 
ATOM     67  C   UNL     1       1.359   9.761  -7.057  1.00  0.00     0.031 C 
ATOM     68  C   UNL     1      -0.393  10.588  -5.512  1.00  0.00     0.037 A 
BRANCH  55  69
ATOM     69  C   UNL     1      -4.574   8.707  -1.366  1.00  0.00     0.057 A 
ATOM     70  C   UNL     1      -4.452   8.575   0.024  1.00  0.00     0.134 A 
ATOM     71  C   UNL     1      -5.787   9.202  -1.862  1.00  0.00     0.134 A 
ATOM     72  F   UNL     1      -3.323   8.092   0.565  1.00  0.00    -0.206 F 
ATOM     73  C   UNL     1      -5.506   8.891   0.883  1.00  0.00     0.040 A 
ATOM     74  C   UNL     1      -6.836   9.553  -1.012  1.00  0.00     0.040 A 
ATOM     75  F   UNL     1      -5.971   9.358  -3.182  1.00  0.00    -0.206 F 
ATOM     76  C   UNL     1      -6.701   9.388   0.365  1.00  0.00     0.006 A 
ENDBRANCH  55  69
BRANCH  56  77
ATOM     77  C   UNL     1       2.694   5.795  -7.548  1.00  0.00     0.057 A 
ATOM     78  C   UNL     1       4.023   6.196  -7.368  1.00  0.00     0.134 A 
ATOM     79  C   UNL     1       2.407   5.013  -8.674  1.00  0.00     0.134 A 
ATOM     80  F   UNL     1       4.358   6.971  -6.326  1.00  0.00    -0.206 F 
ATOM     81  C   UNL     1       5.024   5.850  -8.278  1.00  0.00     0.040 A 
ATOM     82  C   UNL     1       3.403   4.635  -9.577  1.00  0.00     0.040 A 
ATOM     83  F   UNL     1       1.153   4.600  -8.911  1.00  0.00    -0.206 F 
ATOM     84  C   UNL     1       4.715   5.061  -9.384  1.00  0.00     0.006 A 
ENDBRANCH  56  77
BRANCH  68  85
ATOM     85  C   UNL     1      -0.084  11.992  -5.953  1.00  0.00     0.057 A 
ATOM     86  C   UNL     1      -0.416  12.468  -7.227  1.00  0.00     0.134 A 
ATOM     87  C   UNL     1       0.497  12.900  -5.056  1.00  0.00     0.134 A 
ATOM     88  F   UNL     1      -0.965  11.650  -8.138  1.00  0.00    -0.206 F 
ATOM     89  C   UNL     1      -0.165  13.791  -7.599  1.00  0.00     0.040 A 
ATOM     90  C   UNL     1       0.724  14.232  -5.406  1.00  0.00     0.040 A 
ATOM     91  F   UNL     1       0.830  12.514  -3.815  1.00  0.00    -0.206 F 
ATOM     92  C   UNL     1       0.397  14.680  -6.684  1.00  0.00     0.006 A 
ENDBRANCH  68  85
ENDBRANCH  42  43
ENDBRANCH  35  37
ENDBRANCH  34  35
ENDBRANCH  33  34
ENDBRANCH  32  33
ENDBRANCH  31  32
ENDBRANCH  30  31
ENDBRANCH  29  30
ENDBRANCH   1  29
TORSDOF 23
