REMARK SMILES Cc1cc(=O)c(Oc2ccc(C(=O)OCCOCCOCCOC(=O)c3ccc(-c4c5nc(c(-c6c(F)cccc6F)c6ccc([nH]6)c(-c6c(F)cccc6F)c6nc(c(-c7c(F)cccc7F)c7ccc4[nH]7)C=C6)C=C5)cc3)cc2)c(-c2ccc(S(C)(=O)=O)cc2)o1
REMARK SMILES IDX 18 1 17 2 16 3 15 4 14 5 12 6 13 7 11 8 8 9 9 10 81 11 10 12
REMARK SMILES IDX 80 13 7 14 6 15 1 16 2 17 3 18 93 19 4 20 82 21 5 22 83 23
REMARK SMILES IDX 84 24 92 25 85 26 91 27 86 28 87 29 88 30 89 31 90 32 19 33
REMARK SMILES IDX 20 34 21 35 22 36 23 37 24 38 25 39 26 40 27 41 79 42 28 43
REMARK SMILES IDX 78 44 29 45 30 46 31 47 72 48 32 49 77 50 71 51 73 52 33 53
REMARK SMILES IDX 76 54 70 55 69 56 34 58 60 59 43 60 59 61 44 62 47 63 58 64
REMARK SMILES IDX 74 65 45 66 46 67 57 69 75 70 48 71 35 72 36 73 41 74 37 75
REMARK SMILES IDX 38 76 40 77 42 78 39 79 61 80 62 81 67 82 63 83 64 84 66 85
REMARK SMILES IDX 68 86 65 87 49 88 50 89 55 90 51 91 52 92 54 93 56 94 53 95
REMARK H PARENT 73 57 47 68
REMARK Flexibility Score: inf
ROOT
ATOM      1  C   UNL     1      -3.119   6.623  -6.519  1.00  0.00     0.188 C 
ENDROOT
BRANCH   1   2
ATOM      2  O   UNL     1      -2.285   7.535  -7.216  1.00  0.00    -0.376 OA
BRANCH   2   3
ATOM      3  C   UNL     1      -2.816   8.059  -8.413  1.00  0.00     0.202 C 
BRANCH   3   4
ATOM      4  C   UNL     1      -2.751   7.086  -9.598  1.00  0.00     0.261 C 
BRANCH   4   5
ATOM      5  O   UNL     1      -2.607   5.715  -9.180  1.00  0.00    -0.460 OA
BRANCH   5   6
ATOM      6  C   UNL     1      -1.328   5.254  -9.133  1.00  0.00     0.338 C 
ATOM      7  O   UNL     1      -0.355   5.781  -9.649  1.00  0.00    -0.246 OA
BRANCH   6   8
ATOM      8  C   UNL     1      -1.236   4.024  -8.289  1.00  0.00     0.060 A 
ATOM      9  C   UNL     1      -0.935   1.846  -6.536  1.00  0.00     0.127 A 
ATOM     10  C   UNL     1       0.184   2.418  -7.134  1.00  0.00     0.048 A 
ATOM     11  C   UNL     1      -2.211   2.298  -6.882  1.00  0.00     0.048 A 
ATOM     12  C   UNL     1       0.038   3.530  -7.973  1.00  0.00     0.019 A 
ATOM     13  C   UNL     1      -2.363   3.375  -7.765  1.00  0.00     0.019 A 
BRANCH   9  14
ATOM     14  O   UNL     1      -0.846   0.727  -5.758  1.00  0.00    -0.449 OA
BRANCH  14  15
ATOM     15  C   UNL     1      -0.302   0.680  -4.482  1.00  0.00     0.217 A 
ATOM     16  C   UNL     1       0.951   0.095  -0.378  1.00  0.00     0.088 C 
ATOM     17  C   UNL     1       0.532   0.172  -1.813  1.00  0.00     0.105 A 
ATOM     18  C   UNL     1      -0.001  -0.862  -2.467  1.00  0.00     0.098 A 
ATOM     19  O   UNL     1       0.727   1.403  -2.408  1.00  0.00    -0.457 OA
ATOM     20  C   UNL     1      -0.414  -0.684  -3.866  1.00  0.00     0.228 A 
ATOM     21  C   UNL     1       0.271   1.635  -3.704  1.00  0.00     0.180 A 
ATOM     22  O   UNL     1      -0.863  -1.647  -4.482  1.00  0.00    -0.285 OA
BRANCH  21  23
ATOM     23  C   UNL     1       0.462   3.047  -4.061  1.00  0.00     0.021 A 
ATOM     24  C   UNL     1       1.691   3.533  -4.528  1.00  0.00     0.013 A 
ATOM     25  C   UNL     1      -0.598   3.937  -3.937  1.00  0.00     0.013 A 
ATOM     26  C   UNL     1       1.822   4.869  -4.954  1.00  0.00     0.021 A 
ATOM     27  C   UNL     1      -0.425   5.282  -4.286  1.00  0.00     0.021 A 
ATOM     28  C   UNL     1       0.781   5.783  -4.781  1.00  0.00     0.067 A 
BRANCH  28  29
ATOM     29  S   UNL     1       0.847   7.443  -5.483  1.00  0.00     0.175 S 
ATOM     30  C   UNL     1       1.541   8.679  -4.457  1.00  0.00     0.163 C 
ATOM     31  O   UNL     1       1.708   7.337  -6.653  1.00  0.00    -0.224 OA
ATOM     32  O   UNL     1      -0.510   7.895  -5.578  1.00  0.00    -0.224 OA
ENDBRANCH  28  29
ENDBRANCH  21  23
ENDBRANCH  14  15
ENDBRANCH   9  14
ENDBRANCH   6   8
ENDBRANCH   5   6
ENDBRANCH   4   5
ENDBRANCH   3   4
ENDBRANCH   2   3
ENDBRANCH   1   2
BRANCH   1  33
ATOM     33  C   UNL     1      -3.399   7.035  -5.078  1.00  0.00     0.188 C 
BRANCH  33  34
ATOM     34  O   UNL     1      -4.120   8.242  -4.889  1.00  0.00    -0.376 OA
BRANCH  34  35
ATOM     35  C   UNL     1      -4.317   8.458  -3.480  1.00  0.00     0.202 C 
BRANCH  35  36
ATOM     36  C   UNL     1      -3.162   9.138  -2.703  1.00  0.00     0.261 C 
BRANCH  36  37
ATOM     37  O   UNL     1      -1.863   8.495  -2.558  1.00  0.00    -0.460 OA
BRANCH  37  38
ATOM     38  C   UNL     1      -1.671   7.474  -1.678  1.00  0.00     0.338 C 
ATOM     39  O   UNL     1      -2.542   6.764  -1.209  1.00  0.00    -0.246 OA
BRANCH  38  40
ATOM     40  C   UNL     1      -0.187   7.292  -1.453  1.00  0.00     0.060 A 
ATOM     41  C   UNL     1       0.668   8.388  -1.309  1.00  0.00     0.016 A 
ATOM     42  C   UNL     1       0.398   6.022  -1.455  1.00  0.00     0.016 A 
ATOM     43  C   UNL     1       2.074   8.226  -1.381  1.00  0.00     0.010 A 
ATOM     44  C   UNL     1       1.804   5.864  -1.577  1.00  0.00     0.010 A 
ATOM     45  C   UNL     1       2.667   6.971  -1.623  1.00  0.00    -0.014 A 
BRANCH  45  46
ATOM     46  C   UNL     1       4.167   6.814  -1.641  1.00  0.00     0.031 A 
ATOM     47  C   UNL     1       5.078   6.759  -2.865  1.00  0.00     0.074 A 
ATOM     48  C   UNL     1       4.756   6.721  -0.439  1.00  0.00     0.049 A 
ATOM     49  N   UNL     1       6.391   6.686  -2.956  1.00  0.00    -0.248 NA
ATOM     50  C   UNL     1       4.441   6.782  -4.172  1.00  0.00     0.031 C 
ATOM     51  C   UNL     1       4.048   6.745   0.839  1.00  0.00     0.029 A 
ATOM     52  N   UNL     1       6.075   6.587  -0.103  1.00  0.00    -0.354 N 
ATOM     53  C   UNL     1       6.706   6.671  -4.323  1.00  0.00     0.074 A 
ATOM     54  C   UNL     1       5.450   6.723  -5.027  1.00  0.00     0.031 C 
ATOM     55  C   UNL     1       4.944   6.636   1.827  1.00  0.00     0.029 A 
ATOM     56  C   UNL     1       6.278   6.507   1.248  1.00  0.00     0.049 A 
ATOM     57  H   UNL     1       6.804   6.553  -0.764  1.00  0.00     0.167 HD
ATOM     58  C   UNL     1       7.913   6.614  -4.947  1.00  0.00     0.037 A 
ATOM     59  C   UNL     1       7.407   6.341   1.955  1.00  0.00     0.037 A 
ATOM     60  C   UNL     1       9.180   6.549  -4.261  1.00  0.00     0.049 A 
ATOM     61  C   UNL     1       8.731   6.265   1.261  1.00  0.00     0.074 A 
ATOM     62  C   UNL     1      10.459   6.565  -4.795  1.00  0.00     0.029 A 
ATOM     63  N   UNL     1       9.326   6.436  -2.890  1.00  0.00    -0.354 N 
ATOM     64  N   UNL     1       9.005   6.325  -0.018  1.00  0.00    -0.248 NA
ATOM     65  C   UNL     1       9.908   6.115   2.125  1.00  0.00     0.031 C 
ATOM     66  C   UNL     1      11.377   6.407  -3.750  1.00  0.00     0.029 A 
ATOM     67  C   UNL     1      10.670   6.354  -2.562  1.00  0.00     0.049 A 
ATOM     68  H   UNL     1       8.584   6.418  -2.242  1.00  0.00     0.167 HD
ATOM     69  C   UNL     1      10.389   6.242  -0.111  1.00  0.00     0.074 A 
ATOM     70  C   UNL     1      10.894   6.153   1.242  1.00  0.00     0.031 C 
ATOM     71  C   UNL     1      11.171   6.240  -1.218  1.00  0.00     0.037 A 
BRANCH  58  72
ATOM     72  C   UNL     1       7.959   6.616  -6.461  1.00  0.00     0.057 A 
ATOM     73  C   UNL     1       8.446   5.506  -7.170  1.00  0.00     0.134 A 
ATOM     74  C   UNL     1       7.638   7.755  -7.213  1.00  0.00     0.134 A 
ATOM     75  F   UNL     1       8.796   4.385  -6.522  1.00  0.00    -0.206 F 
ATOM     76  C   UNL     1       8.622   5.533  -8.558  1.00  0.00     0.040 A 
ATOM     77  C   UNL     1       7.781   7.784  -8.605  1.00  0.00     0.040 A 
ATOM     78  F   UNL     1       7.177   8.860  -6.608  1.00  0.00    -0.206 F 
ATOM     79  C   UNL     1       8.284   6.674  -9.280  1.00  0.00     0.006 A 
ENDBRANCH  58  72
BRANCH  59  80
ATOM     80  C   UNL     1       7.308   6.269   3.428  1.00  0.00     0.057 A 
ATOM     81  C   UNL     1       6.720   5.167   4.061  1.00  0.00     0.134 A 
ATOM     82  C   UNL     1       7.751   7.325   4.228  1.00  0.00     0.134 A 
ATOM     83  F   UNL     1       6.253   4.139   3.337  1.00  0.00    -0.206 F 
ATOM     84  C   UNL     1       6.561   5.127   5.444  1.00  0.00     0.040 A 
ATOM     85  C   UNL     1       7.628   7.284   5.614  1.00  0.00     0.040 A 
ATOM     86  F   UNL     1       8.324   8.401   3.669  1.00  0.00    -0.206 F 
ATOM     87  C   UNL     1       7.023   6.184   6.224  1.00  0.00     0.006 A 
ENDBRANCH  59  80
BRANCH  71  88
ATOM     88  C   UNL     1      12.653   6.154  -1.003  1.00  0.00     0.057 A 
ATOM     89  C   UNL     1      13.479   7.257  -1.254  1.00  0.00     0.134 A 
ATOM     90  C   UNL     1      13.263   4.987  -0.523  1.00  0.00     0.134 A 
ATOM     91  F   UNL     1      12.964   8.402  -1.726  1.00  0.00    -0.206 F 
ATOM     92  C   UNL     1      14.854   7.207  -1.020  1.00  0.00     0.040 A 
ATOM     93  C   UNL     1      14.632   4.935  -0.255  1.00  0.00     0.040 A 
ATOM     94  F   UNL     1      12.526   3.899  -0.250  1.00  0.00    -0.206 F 
ATOM     95  C   UNL     1      15.432   6.048  -0.505  1.00  0.00     0.006 A 
ENDBRANCH  71  88
ENDBRANCH  45  46
ENDBRANCH  38  40
ENDBRANCH  37  38
ENDBRANCH  36  37
ENDBRANCH  35  36
ENDBRANCH  34  35
ENDBRANCH  33  34
ENDBRANCH   1  33
TORSDOF 21
