REMARK SMILES Cc1cc(S(F)(F)(F)(F)F)cc2c1O[C@H](C(F)(F)F)C(C(=O)OCCOCCOCCOC(=O)c1ccc(-c3c4nc(c(-c5c(F)cccc5F)c5ccc([nH]5)c(-c5c(F)cccc5F)c5nc(c(-c6c(F)cccc6F)c6ccc3[nH]6)C=C5)C=C4)cc1)=C2
REMARK SMILES IDX 28 1 27 2 26 3 25 4 24 5 23 6 21 7 22 8 20 9 1 10 2 11 3 12
REMARK SMILES IDX 13 13 4 14 12 15 14 16 11 17 89 18 15 19 5 20 6 21 7 22 8 23
REMARK SMILES IDX 9 24 10 25 16 26 17 27 18 28 19 29 29 30 30 31 31 32 32 33
REMARK SMILES IDX 33 34 34 35 35 36 36 37 88 38 37 39 87 40 38 41 39 42 40 43
REMARK SMILES IDX 81 44 41 45 86 46 80 47 82 48 42 49 85 50 79 51 78 52 43 54
REMARK SMILES IDX 69 55 52 56 68 57 53 58 56 59 67 60 83 61 54 62 55 63 66 65
REMARK SMILES IDX 84 66 57 67 44 68 45 69 50 70 46 71 47 72 49 73 51 74 48 75
REMARK SMILES IDX 70 76 71 77 76 78 72 79 73 80 75 81 77 82 74 83 58 84 59 85
REMARK SMILES IDX 64 86 60 87 61 88 63 89 65 90 62 91
REMARK H PARENT 82 53 56 64
REMARK Flexibility Score: inf
ROOT
ATOM      1  C   UNL     1      -3.983  -1.550  -5.134  1.00  0.00     0.188 C 
ENDROOT
BRANCH   1   2
ATOM      2  C   UNL     1      -3.048  -1.395  -6.322  1.00  0.00     0.188 C 
BRANCH   2   3
ATOM      3  O   UNL     1      -3.585  -2.087  -7.440  1.00  0.00    -0.376 OA
BRANCH   3   4
ATOM      4  C   UNL     1      -3.724  -3.464  -7.123  1.00  0.00     0.202 C 
BRANCH   4   5
ATOM      5  C   UNL     1      -2.362  -4.043  -6.775  1.00  0.00     0.261 C 
BRANCH   5   6
ATOM      6  O   UNL     1      -1.825  -3.352  -5.657  1.00  0.00    -0.460 OA
BRANCH   6   7
ATOM      7  C   UNL     1      -1.594  -1.953  -5.732  1.00  0.00     0.338 C 
ATOM      8  O   UNL     1      -1.867  -1.320  -6.799  1.00  0.00    -0.246 OA
BRANCH   7   9
ATOM      9  C   UNL     1      -1.019  -1.212  -4.535  1.00  0.00     0.087 C 
ATOM     10  C   UNL     1       1.069   0.069   0.022  1.00  0.00     0.048 C 
ATOM     11  C   UNL     1       0.563   0.789  -1.217  1.00  0.00    -0.007 A 
ATOM     12  C   UNL     1       0.779   2.146  -1.308  1.00  0.00     0.031 A 
ATOM     13  C   UNL     1       0.037   0.105  -2.313  1.00  0.00     0.130 A 
ATOM     14  C   UNL     1       0.475   2.837  -2.474  1.00  0.00     0.108 A 
ATOM     15  C   UNL     1      -0.266   0.810  -3.499  1.00  0.00     0.019 A 
ATOM     16  O   UNL     1      -0.218  -1.341  -2.279  1.00  0.00    -0.475 OA
ATOM     17  C   UNL     1      -0.035   2.186  -3.562  1.00  0.00     0.036 A 
ATOM     18  C   UNL     1      -0.818   0.068  -4.632  1.00  0.00     0.027 C 
ATOM     19  C   UNL     1      -0.730  -1.935  -3.377  1.00  0.00     0.316 C 
BRANCH  14  20
ATOM     20  S   UNL     1       0.759   4.623  -2.554  1.00  0.00     0.310 S 
ATOM     21  F   UNL     1       1.472   4.637  -1.137  1.00  0.00    -0.094 F 
ATOM     22  F   UNL     1      -0.604   4.840  -1.794  1.00  0.00    -0.094 F 
ATOM     23  F   UNL     1       0.999   6.158  -2.622  1.00  0.00    -0.094 F 
ATOM     24  F   UNL     1       2.186   4.381  -3.188  1.00  0.00    -0.094 F 
ATOM     25  F   UNL     1       0.583   3.060  -2.391  1.00  0.00    -0.094 F 
ENDBRANCH  14  20
BRANCH  19  26
ATOM     26  C   UNL     1       0.419  -2.822  -3.829  1.00  0.00     0.430 C 
ATOM     27  F   UNL     1       0.766  -3.638  -2.837  1.00  0.00    -0.167 F 
ATOM     28  F   UNL     1       0.037  -3.541  -4.881  1.00  0.00    -0.167 F 
ATOM     29  F   UNL     1       1.459  -2.064  -4.165  1.00  0.00    -0.167 F 
ENDBRANCH  19  26
ENDBRANCH   7   9
ENDBRANCH   6   7
ENDBRANCH   5   6
ENDBRANCH   4   5
ENDBRANCH   3   4
ENDBRANCH   2   3
ENDBRANCH   1   2
BRANCH   1  30
ATOM     30  O   UNL     1      -4.122  -2.927  -4.817  1.00  0.00    -0.376 OA
BRANCH  30  31
ATOM     31  C   UNL     1      -4.659  -3.619  -5.935  1.00  0.00     0.202 C 
BRANCH  31  32
ATOM     32  C   UNL     1      -6.020  -3.039  -6.283  1.00  0.00     0.261 C 
BRANCH  32  33
ATOM     33  O   UNL     1      -5.882  -1.662  -6.601  1.00  0.00    -0.460 OA
BRANCH  33  34
ATOM     34  C   UNL     1      -5.362  -0.760  -5.635  1.00  0.00     0.338 C 
ATOM     35  O   UNL     1      -5.020  -1.185  -4.487  1.00  0.00    -0.246 OA
BRANCH  34  36
ATOM     36  C   UNL     1      -5.213   0.714  -5.975  1.00  0.00     0.060 A 
ATOM     37  C   UNL     1      -4.039   1.369  -5.621  1.00  0.00     0.016 A 
ATOM     38  C   UNL     1      -6.154   1.404  -6.585  1.00  0.00     0.016 A 
ATOM     39  C   UNL     1      -3.719   2.534  -6.354  1.00  0.00     0.010 A 
ATOM     40  C   UNL     1      -5.979   2.764  -6.860  1.00  0.00     0.010 A 
ATOM     41  C   UNL     1      -4.794   3.326  -6.753  1.00  0.00    -0.014 A 
BRANCH  41  42
ATOM     42  C   UNL     1      -4.601   4.803  -7.056  1.00  0.00     0.031 A 
ATOM     43  C   UNL     1      -5.343   5.691  -6.274  1.00  0.00     0.074 A 
ATOM     44  C   UNL     1      -3.776   5.192  -8.098  1.00  0.00     0.049 A 
ATOM     45  N   UNL     1      -5.368   7.022  -6.357  1.00  0.00    -0.248 NA
ATOM     46  C   UNL     1      -6.246   5.278  -5.190  1.00  0.00     0.031 C 
ATOM     47  C   UNL     1      -3.019   4.303  -8.885  1.00  0.00     0.029 A 
ATOM     48  N   UNL     1      -3.539   6.469  -8.556  1.00  0.00    -0.354 N 
ATOM     49  C   UNL     1      -6.182   7.527  -5.427  1.00  0.00     0.074 A 
ATOM     50  C   UNL     1      -6.763   6.412  -4.667  1.00  0.00     0.031 C 
ATOM     51  C   UNL     1      -2.344   5.032  -9.812  1.00  0.00     0.029 A 
ATOM     52  C   UNL     1      -2.667   6.389  -9.620  1.00  0.00     0.049 A 
ATOM     53  H   UNL     1      -3.925   7.296  -8.187  1.00  0.00     0.167 HD
ATOM     54  C   UNL     1      -6.461   8.872  -5.183  1.00  0.00     0.037 A 
ATOM     55  C   UNL     1      -2.172   7.428 -10.391  1.00  0.00     0.037 A 
ATOM     56  C   UNL     1      -5.932   9.914  -5.927  1.00  0.00     0.049 A 
ATOM     57  C   UNL     1      -2.497   8.771 -10.184  1.00  0.00     0.074 A 
ATOM     58  C   UNL     1      -6.197  11.277  -5.689  1.00  0.00     0.029 A 
ATOM     59  N   UNL     1      -5.079   9.833  -7.006  1.00  0.00    -0.354 N 
ATOM     60  N   UNL     1      -3.280   9.277  -9.230  1.00  0.00    -0.248 NA
ATOM     61  C   UNL     1      -2.004   9.877 -11.015  1.00  0.00     0.031 C 
ATOM     62  C   UNL     1      -5.521  12.006  -6.617  1.00  0.00     0.029 A 
ATOM     63  C   UNL     1      -4.824  11.111  -7.450  1.00  0.00     0.049 A 
ATOM     64  H   UNL     1      -4.716   9.004  -7.393  1.00  0.00     0.167 HD
ATOM     65  C   UNL     1      -3.337  10.606  -9.339  1.00  0.00     0.074 A 
ATOM     66  C   UNL     1      -2.523  11.010 -10.494  1.00  0.00     0.031 C 
ATOM     67  C   UNL     1      -4.032  11.498  -8.521  1.00  0.00     0.037 A 
BRANCH  54  68
ATOM     68  C   UNL     1      -7.397   9.213  -4.035  1.00  0.00     0.057 A 
ATOM     69  C   UNL     1      -8.514   9.868  -4.274  1.00  0.00     0.134 A 
ATOM     70  C   UNL     1      -7.076   8.794  -2.739  1.00  0.00     0.134 A 
ATOM     71  F   UNL     1      -8.815  10.275  -5.503  1.00  0.00    -0.206 F 
ATOM     72  C   UNL     1      -9.370  10.124  -3.208  1.00  0.00     0.040 A 
ATOM     73  C   UNL     1      -7.979   8.814  -1.782  1.00  0.00     0.040 A 
ATOM     74  F   UNL     1      -5.844   8.370  -2.472  1.00  0.00    -0.206 F 
ATOM     75  C   UNL     1      -9.261   9.266  -2.091  1.00  0.00     0.006 A 
ENDBRANCH  54  68
BRANCH  55  76
ATOM     76  C   UNL     1      -1.223   7.088 -11.528  1.00  0.00     0.057 A 
ATOM     77  C   UNL     1      -1.616   6.297 -12.504  1.00  0.00     0.134 A 
ATOM     78  C   UNL     1       0.079   7.600 -11.502  1.00  0.00     0.134 A 
ATOM     79  F   UNL     1      -2.850   5.803 -12.525  1.00  0.00    -0.206 F 
ATOM     80  C   UNL     1      -0.709   5.991 -13.513  1.00  0.00     0.040 A 
ATOM     81  C   UNL     1       0.856   7.518 -12.561  1.00  0.00     0.040 A 
ATOM     82  F   UNL     1       0.537   8.176 -10.394  1.00  0.00    -0.206 F 
ATOM     83  C   UNL     1       0.351   6.905 -13.707  1.00  0.00     0.006 A 
ENDBRANCH  55  76
BRANCH  67  84
ATOM     84  C   UNL     1      -3.914  12.983  -8.821  1.00  0.00     0.057 A 
ATOM     85  C   UNL     1      -3.423  13.782  -7.898  1.00  0.00     0.134 A 
ATOM     86  C   UNL     1      -4.324  13.488 -10.060  1.00  0.00     0.134 A 
ATOM     87  F   UNL     1      -3.041  13.304  -6.717  1.00  0.00    -0.206 F 
ATOM     88  C   UNL     1      -3.313  15.137  -8.188  1.00  0.00     0.040 A 
ATOM     89  C   UNL     1      -4.002  14.709 -10.429  1.00  0.00     0.040 A 
ATOM     90  F   UNL     1      -5.048  12.724 -10.873  1.00  0.00    -0.206 F 
ATOM     91  C   UNL     1      -3.246  15.487  -9.555  1.00  0.00     0.006 A 
ENDBRANCH  67  84
ENDBRANCH  41  42
ENDBRANCH  34  36
ENDBRANCH  33  34
ENDBRANCH  32  33
ENDBRANCH  31  32
ENDBRANCH  30  31
ENDBRANCH   1  30
TORSDOF 19
