REMARK SMILES NS(=O)(=O)c1ccc(-n2nc(C(=O)NCCCCCCCCCCC(=O)OCCOCCOCCOC(=O)c3ccc(-c4c5nc(c(-c6c(F)cccc6F)c6ccc([nH]6)c(-c6c(F)cccc6F)c6nc(c(-c7c(F)cccc7F)c7ccc4[nH]7)C=C6)C=C5)cc3)cc2-c2ccccc2)cc1
REMARK SMILES IDX 24 1 23 2 22 3 21 4 20 5 19 6 18 7 17 8 16 9 15 10 14 11
REMARK SMILES IDX 12 12 13 13 11 15 9 16 10 17 94 18 93 19 8 20 5 21 6 22
REMARK SMILES IDX 102 23 7 24 101 25 2 26 3 27 4 28 1 29 95 32 96 33 100 34
REMARK SMILES IDX 97 35 99 36 98 37 25 38 26 39 27 40 28 41 29 42 30 43 31 44
REMARK SMILES IDX 32 45 33 46 34 47 35 48 36 49 37 50 38 51 39 52 40 53 92 54
REMARK SMILES IDX 41 55 91 56 42 57 43 58 44 59 85 60 45 61 90 62 84 63 86 64
REMARK SMILES IDX 46 65 89 66 83 67 82 68 47 70 73 71 56 72 72 73 57 74 60 75
REMARK SMILES IDX 71 76 87 77 58 78 59 79 70 81 88 82 61 83 48 84 49 85 54 86
REMARK SMILES IDX 50 87 51 88 53 89 55 90 52 91 74 92 75 93 80 94 76 95 77 96
REMARK SMILES IDX 79 97 81 98 78 99 62 100 63 101 68 102 64 103 65 104 67 105
REMARK SMILES IDX 69 106 66 107
REMARK H PARENT 14 14 1 30 1 31 86 69 60 80
REMARK Flexibility Score: inf
ROOT
ATOM      1  C   UNL     1       1.413 -13.554 -12.714  1.00  0.00     0.123 C 
ENDROOT
BRANCH   1   2
ATOM      2  C   UNL     1       1.359 -14.064 -11.270  1.00  0.00     0.012 C 
BRANCH   2   3
ATOM      3  C   UNL     1       2.646 -13.869 -10.470  1.00  0.00     0.001 C 
BRANCH   3   4
ATOM      4  C   UNL     1       3.111 -12.416 -10.479  1.00  0.00     0.000 C 
BRANCH   4   5
ATOM      5  C   UNL     1       2.188 -11.524  -9.649  1.00  0.00     0.000 C 
BRANCH   5   6
ATOM      6  C   UNL     1       2.125 -11.969  -8.185  1.00  0.00     0.000 C 
BRANCH   6   7
ATOM      7  C   UNL     1       3.520 -12.066  -7.554  1.00  0.00     0.000 C 
BRANCH   7   8
ATOM      8  C   UNL     1       4.258 -10.719  -7.544  1.00  0.00     0.002 C 
BRANCH   8   9
ATOM      9  C   UNL     1       3.444  -9.614  -6.871  1.00  0.00     0.021 C 
BRANCH   9  10
ATOM     10  C   UNL     1       3.136  -9.993  -5.428  1.00  0.00     0.116 C 
BRANCH  10  11
ATOM     11  N   UNL     1       4.194  -9.532  -4.570  1.00  0.00    -0.351 N 
ATOM     12  C   UNL     1       4.318  -8.424  -3.773  1.00  0.00     0.271 C 
ATOM     13  O   UNL     1       5.437  -8.248  -3.284  1.00  0.00    -0.267 OA
ATOM     14  H   UNL     1       4.979 -10.127  -4.551  1.00  0.00     0.163 HD
BRANCH  12  15
ATOM     15  C   UNL     1       3.171  -7.542  -3.478  1.00  0.00     0.151 A 
ATOM     16  N   UNL     1       2.088  -6.052  -2.376  1.00  0.00    -0.232 N 
ATOM     17  N   UNL     1       3.330  -6.509  -2.626  1.00  0.00    -0.162 NA
ATOM     18  C   UNL     1       1.134  -6.648  -3.173  1.00  0.00     0.075 A 
ATOM     19  C   UNL     1       1.833  -7.550  -3.939  1.00  0.00     0.065 A 
BRANCH  16  20
ATOM     20  C   UNL     1       1.875  -5.005  -1.463  1.00  0.00     0.065 A 
ATOM     21  C   UNL     1       1.179  -2.779   0.007  1.00  0.00     0.082 A 
ATOM     22  C   UNL     1       0.462  -3.967   0.184  1.00  0.00     0.024 A 
ATOM     23  C   UNL     1       2.267  -2.710  -0.872  1.00  0.00     0.024 A 
ATOM     24  C   UNL     1       0.808  -5.086  -0.560  1.00  0.00     0.030 A 
ATOM     25  C   UNL     1       2.639  -3.842  -1.592  1.00  0.00     0.030 A 
BRANCH  21  26
ATOM     26  S   UNL     1       0.625  -1.355   0.888  1.00  0.00     0.238 S 
ATOM     27  O   UNL     1       1.264  -1.354   2.190  1.00  0.00    -0.207 OA
ATOM     28  O   UNL     1      -0.797  -1.232   0.715  1.00  0.00    -0.207 OA
BRANCH  26  29
ATOM     29  N   UNL     1       1.288  -0.059   0.049  1.00  0.00    -0.225 NA
ATOM     30  H   UNL     1       1.012   0.814   0.498  1.00  0.00     0.137 HD
ATOM     31  H   UNL     1       0.948  -0.068  -0.913  1.00  0.00     0.137 HD
ENDBRANCH  26  29
ENDBRANCH  21  26
ENDBRANCH  16  20
BRANCH  18  32
ATOM     32  C   UNL     1      -0.276  -6.295  -3.281  1.00  0.00     0.000 A 
ATOM     33  C   UNL     1      -0.664  -4.993  -3.617  1.00  0.00     0.010 A 
ATOM     34  C   UNL     1      -1.254  -7.278  -3.092  1.00  0.00     0.010 A 
ATOM     35  C   UNL     1      -2.015  -4.672  -3.734  1.00  0.00     0.001 A 
ATOM     36  C   UNL     1      -2.605  -6.957  -3.215  1.00  0.00     0.001 A 
ATOM     37  C   UNL     1      -2.984  -5.654  -3.533  1.00  0.00     0.000 A 
ENDBRANCH  18  32
ENDBRANCH  12  15
ENDBRANCH  10  11
ENDBRANCH   9  10
ENDBRANCH   8   9
ENDBRANCH   7   8
ENDBRANCH   6   7
ENDBRANCH   5   6
ENDBRANCH   4   5
ENDBRANCH   3   4
ENDBRANCH   2   3
ENDBRANCH   1   2
BRANCH   1  38
ATOM     38  C   UNL     1       2.574 -13.999 -13.594  1.00  0.00     0.305 C 
ATOM     39  O   UNL     1       2.753 -13.546 -14.718  1.00  0.00    -0.252 OA
BRANCH  38  40
ATOM     40  O   UNL     1       3.303 -14.993 -13.038  1.00  0.00    -0.463 OA
BRANCH  40  41
ATOM     41  C   UNL     1       4.233 -15.707 -13.863  1.00  0.00     0.261 C 
BRANCH  41  42
ATOM     42  C   UNL     1       3.865 -17.192 -13.992  1.00  0.00     0.202 C 
BRANCH  42  43
ATOM     43  O   UNL     1       2.532 -17.470 -14.421  1.00  0.00    -0.376 OA
BRANCH  43  44
ATOM     44  C   UNL     1       1.481 -17.142 -13.507  1.00  0.00     0.188 C 
BRANCH  44  45
ATOM     45  C   UNL     1       1.659 -17.695 -12.092  1.00  0.00     0.188 C 
BRANCH  45  46
ATOM     46  O   UNL     1       2.701 -17.085 -11.350  1.00  0.00    -0.376 OA
BRANCH  46  47
ATOM     47  C   UNL     1       3.535 -17.805 -10.444  1.00  0.00     0.202 C 
BRANCH  47  48
ATOM     48  C   UNL     1       3.410 -19.293 -10.087  1.00  0.00     0.261 C 
BRANCH  48  49
ATOM     49  O   UNL     1       2.226 -19.950 -10.468  1.00  0.00    -0.460 OA
BRANCH  49  50
ATOM     50  C   UNL     1       1.068 -19.509  -9.945  1.00  0.00     0.338 C 
ATOM     51  O   UNL     1       0.912 -18.667  -9.081  1.00  0.00    -0.246 OA
BRANCH  50  52
ATOM     52  C   UNL     1       0.009 -20.266 -10.635  1.00  0.00     0.060 A 
ATOM     53  C   UNL     1      -1.283 -20.155 -10.133  1.00  0.00     0.016 A 
ATOM     54  C   UNL     1       0.352 -21.234 -11.598  1.00  0.00     0.016 A 
ATOM     55  C   UNL     1      -2.131 -21.217 -10.335  1.00  0.00     0.010 A 
ATOM     56  C   UNL     1      -0.482 -22.300 -11.783  1.00  0.00     0.010 A 
ATOM     57  C   UNL     1      -1.653 -22.329 -11.041  1.00  0.00    -0.014 A 
BRANCH  57  58
ATOM     58  C   UNL     1      -2.449 -23.531 -11.048  1.00  0.00     0.031 A 
ATOM     59  C   UNL     1      -3.623 -23.395 -11.927  1.00  0.00     0.074 A 
ATOM     60  C   UNL     1      -2.071 -24.638 -10.379  1.00  0.00     0.049 A 
ATOM     61  N   UNL     1      -4.857 -23.299 -11.567  1.00  0.00    -0.248 NA
ATOM     62  C   UNL     1      -3.383 -23.103 -13.352  1.00  0.00     0.031 C 
ATOM     63  C   UNL     1      -0.797 -24.904  -9.702  1.00  0.00     0.029 A 
ATOM     64  N   UNL     1      -2.735 -25.818 -10.240  1.00  0.00    -0.354 N 
ATOM     65  C   UNL     1      -5.567 -23.206 -12.755  1.00  0.00     0.074 A 
ATOM     66  C   UNL     1      -4.620 -22.851 -13.778  1.00  0.00     0.031 C 
ATOM     67  C   UNL     1      -0.696 -26.228  -9.436  1.00  0.00     0.029 A 
ATOM     68  C   UNL     1      -1.942 -26.878  -9.797  1.00  0.00     0.049 A 
ATOM     69  H   UNL     1      -3.695 -25.915 -10.435  1.00  0.00     0.167 HD
ATOM     70  C   UNL     1      -6.795 -23.777 -12.856  1.00  0.00     0.037 A 
ATOM     71  C   UNL     1      -2.300 -28.189  -9.827  1.00  0.00     0.037 A 
ATOM     72  C   UNL     1      -7.401 -23.945 -11.557  1.00  0.00     0.049 A 
ATOM     73  C   UNL     1      -3.783 -28.233  -9.946  1.00  0.00     0.074 A 
ATOM     74  C   UNL     1      -7.690 -23.084 -10.513  1.00  0.00     0.029 A 
ATOM     75  N   UNL     1      -7.420 -25.206 -11.012  1.00  0.00    -0.354 N 
ATOM     76  N   UNL     1      -4.595 -27.858  -8.997  1.00  0.00    -0.248 NA
ATOM     77  C   UNL     1      -4.339 -28.217 -11.292  1.00  0.00     0.031 C 
ATOM     78  C   UNL     1      -7.372 -23.815  -9.331  1.00  0.00     0.029 A 
ATOM     79  C   UNL     1      -6.996 -25.103  -9.711  1.00  0.00     0.049 A 
ATOM     80  H   UNL     1      -7.689 -26.034 -11.472  1.00  0.00     0.167 HD
ATOM     81  C   UNL     1      -5.590 -27.146  -9.650  1.00  0.00     0.074 A 
ATOM     82  C   UNL     1      -5.404 -27.444 -11.070  1.00  0.00     0.031 C 
ATOM     83  C   UNL     1      -6.276 -26.148  -9.021  1.00  0.00     0.037 A 
BRANCH  70  84
ATOM     84  C   UNL     1      -7.213 -24.558 -14.074  1.00  0.00     0.057 A 
ATOM     85  C   UNL     1      -8.547 -24.970 -14.197  1.00  0.00     0.134 A 
ATOM     86  C   UNL     1      -6.314 -25.154 -14.988  1.00  0.00     0.134 A 
ATOM     87  F   UNL     1      -9.487 -24.509 -13.358  1.00  0.00    -0.206 F 
ATOM     88  C   UNL     1      -8.947 -25.935 -15.129  1.00  0.00     0.040 A 
ATOM     89  C   UNL     1      -6.712 -26.071 -15.960  1.00  0.00     0.040 A 
ATOM     90  F   UNL     1      -4.990 -24.969 -14.929  1.00  0.00    -0.206 F 
ATOM     91  C   UNL     1      -8.029 -26.487 -16.015  1.00  0.00     0.006 A 
ENDBRANCH  70  84
BRANCH  71  92
ATOM     92  C   UNL     1      -1.471 -29.381 -10.143  1.00  0.00     0.057 A 
ATOM     93  C   UNL     1      -1.980 -30.678  -9.961  1.00  0.00     0.134 A 
ATOM     94  C   UNL     1      -0.299 -29.288 -10.913  1.00  0.00     0.134 A 
ATOM     95  F   UNL     1      -3.114 -30.874  -9.272  1.00  0.00    -0.206 F 
ATOM     96  C   UNL     1      -1.388 -31.806 -10.547  1.00  0.00     0.040 A 
ATOM     97  C   UNL     1       0.306 -30.407 -11.497  1.00  0.00     0.040 A 
ATOM     98  F   UNL     1       0.248 -28.100 -11.206  1.00  0.00    -0.206 F 
ATOM     99  C   UNL     1      -0.248 -31.670 -11.332  1.00  0.00     0.006 A 
ENDBRANCH  71  92
BRANCH  83 100
ATOM    100  C   UNL     1      -6.103 -25.994  -7.533  1.00  0.00     0.057 A 
ATOM    101  C   UNL     1      -4.885 -25.702  -6.897  1.00  0.00     0.134 A 
ATOM    102  C   UNL     1      -7.247 -26.002  -6.728  1.00  0.00     0.134 A 
ATOM    103  F   UNL     1      -3.749 -25.574  -7.595  1.00  0.00    -0.206 F 
ATOM    104  C   UNL     1      -4.810 -25.472  -5.517  1.00  0.00     0.040 A 
ATOM    105  C   UNL     1      -7.191 -25.739  -5.358  1.00  0.00     0.040 A 
ATOM    106  F   UNL     1      -8.454 -26.222  -7.273  1.00  0.00    -0.206 F 
ATOM    107  C   UNL     1      -5.968 -25.483  -4.745  1.00  0.00     0.006 A 
ENDBRANCH  83 100
ENDBRANCH  57  58
ENDBRANCH  50  52
ENDBRANCH  49  50
ENDBRANCH  48  49
ENDBRANCH  47  48
ENDBRANCH  46  47
ENDBRANCH  45  46
ENDBRANCH  44  45
ENDBRANCH  43  44
ENDBRANCH  42  43
ENDBRANCH  41  42
ENDBRANCH  40  41
ENDBRANCH  38  40
ENDBRANCH   1  38
TORSDOF 32
