REMARK SMILES NC(=O)c1c(-c2ccc(Cl)cc2)csc1NC(=O)[C@H]1[C@@H](C(=O)OCCOCCOCCOC(=O)c2ccc(-c3c4nc(c(-c5c(F)cccc5F)c5ccc([nH]5)c(-c5c(F)cccc5F)c5nc(c(-c6c(F)cccc6F)c6ccc3[nH]6)C=C5)C=C4)cc2)[C@@H]2CC[C@H]1O2
REMARK SMILES IDX 27 1 26 2 25 3 24 4 23 5 21 6 22 7 20 8 19 9 92 10 89 11
REMARK SMILES IDX 91 12 93 13 90 14 17 15 16 16 18 18 15 19 4 20 5 21 13 22
REMARK SMILES IDX 14 23 2 24 1 25 3 28 6 29 7 30 12 31 8 32 11 33 9 34 10 35
REMARK SMILES IDX 28 36 29 37 30 38 31 39 32 40 33 41 34 42 35 43 36 44 88 45
REMARK SMILES IDX 37 46 87 47 38 48 39 49 40 50 81 51 41 52 86 53 80 54 82 55
REMARK SMILES IDX 42 56 85 57 79 58 78 59 43 61 69 62 52 63 68 64 53 65 56 66
REMARK SMILES IDX 67 67 83 68 54 69 55 70 66 72 84 73 57 74 44 75 45 76 50 77
REMARK SMILES IDX 46 78 47 79 49 80 51 81 48 82 70 83 71 84 76 85 72 86 73 87
REMARK SMILES IDX 75 88 77 89 74 90 58 91 59 92 64 93 60 94 61 95 63 96 65 97
REMARK SMILES IDX 62 98
REMARK H PARENT 16 17 1 26 1 27 82 60 56 71
REMARK Flexibility Score: inf
ROOT
ATOM      1  C   UNL     1       1.773   0.667  10.280  1.00  0.00     0.188 C 
ENDROOT
BRANCH   1   2
ATOM      2  O   UNL     1       0.359   0.975  10.371  1.00  0.00    -0.376 OA
BRANCH   2   3
ATOM      3  C   UNL     1      -0.807   0.198  10.060  1.00  0.00     0.202 C 
BRANCH   3   4
ATOM      4  C   UNL     1      -1.992   1.159   9.477  1.00  0.00     0.261 C 
BRANCH   4   5
ATOM      5  O   UNL     1      -2.025   1.318   7.998  1.00  0.00    -0.463 OA
BRANCH   5   6
ATOM      6  C   UNL     1      -2.077   2.567   7.359  1.00  0.00     0.312 C 
ATOM      7  O   UNL     1      -2.562   3.572   7.856  1.00  0.00    -0.252 OA
BRANCH   6   8
ATOM      8  C   UNL     1      -1.400   2.482   5.937  1.00  0.00     0.143 C 
ATOM      9  C   UNL     1      -0.173   1.617   6.041  1.00  0.00     0.124 C 
ATOM     10  C   UNL     1       0.896   2.160   5.155  1.00  0.00     0.132 C 
ATOM     11  C   UNL     1      -0.710   3.643   5.158  1.00  0.00     0.133 C 
ATOM     12  C   UNL     1       0.461   2.110   3.706  1.00  0.00     0.035 C 
ATOM     13  O   UNL     1       0.720   3.541   5.464  1.00  0.00    -0.373 OA
ATOM     14  C   UNL     1      -0.517   3.298   3.664  1.00  0.00     0.036 C 
BRANCH   9  15
ATOM     15  C   UNL     1       0.380   1.569   7.412  1.00  0.00     0.231 C 
ATOM     16  N   UNL     1       0.484   2.494   8.400  1.00  0.00    -0.317 N 
ATOM     17  H   UNL     1       0.554   1.968   9.229  1.00  0.00     0.170 HD
ATOM     18  O   UNL     1       0.606   0.388   7.708  1.00  0.00    -0.274 OA
BRANCH  16  19
ATOM     19  C   UNL     1       0.541   3.815   8.814  1.00  0.00     0.108 A 
ATOM     20  C   UNL     1       0.582   4.253  10.148  1.00  0.00     0.082 A 
ATOM     21  C   UNL     1       0.927   5.645  10.242  1.00  0.00     0.007 A 
ATOM     22  C   UNL     1       0.973   6.248   9.012  1.00  0.00     0.076 A 
ATOM     23  S   UNL     1       0.705   5.123   7.764  1.00  0.00    -0.125 S 
BRANCH  20  24
ATOM     24  C   UNL     1       0.465   3.476  11.385  1.00  0.00     0.252 C 
ATOM     25  N   UNL     1      -0.787   3.439  11.937  1.00  0.00    -0.365 N 
ATOM     26  H   UNL     1      -0.944   2.937  12.768  1.00  0.00     0.159 HD
ATOM     27  H   UNL     1      -1.530   3.916  11.501  1.00  0.00     0.159 HD
ATOM     28  O   UNL     1       1.426   3.021  11.990  1.00  0.00    -0.269 OA
ENDBRANCH  20  24
BRANCH  21  29
ATOM     29  C   UNL     1       1.250   6.322  11.488  1.00  0.00    -0.017 A 
ATOM     30  C   UNL     1       0.326   7.173  12.095  1.00  0.00     0.010 A 
ATOM     31  C   UNL     1       2.416   5.948  12.178  1.00  0.00     0.010 A 
ATOM     32  C   UNL     1       0.566   7.643  13.389  1.00  0.00     0.021 A 
ATOM     33  C   UNL     1       2.648   6.409  13.473  1.00  0.00     0.021 A 
ATOM     34  C   UNL     1       1.720   7.254  14.073  1.00  0.00     0.041 A 
ATOM     35  Cl  UNL     1       1.982   7.798  15.684  1.00  0.00    -0.084 Cl
ENDBRANCH  21  29
ENDBRANCH  16  19
ENDBRANCH   9  15
ENDBRANCH   6   8
ENDBRANCH   5   6
ENDBRANCH   4   5
ENDBRANCH   3   4
ENDBRANCH   2   3
ENDBRANCH   1   2
BRANCH   1  36
ATOM     36  C   UNL     1       2.469  -0.371   9.369  1.00  0.00     0.188 C 
BRANCH  36  37
ATOM     37  O   UNL     1       3.121  -1.448  10.027  1.00  0.00    -0.376 OA
BRANCH  37  38
ATOM     38  C   UNL     1       3.797  -1.135  11.229  1.00  0.00     0.202 C 
BRANCH  38  39
ATOM     39  C   UNL     1       5.046  -0.243  11.118  1.00  0.00     0.261 C 
BRANCH  39  40
ATOM     40  O   UNL     1       4.872   1.062  10.511  1.00  0.00    -0.460 OA
BRANCH  40  41
ATOM     41  C   UNL     1       5.544   1.255   9.346  1.00  0.00     0.338 C 
ATOM     42  O   UNL     1       6.159   0.404   8.711  1.00  0.00    -0.246 OA
BRANCH  41  43
ATOM     43  C   UNL     1       5.492   2.653   8.859  1.00  0.00     0.060 A 
ATOM     44  C   UNL     1       4.870   2.923   7.631  1.00  0.00     0.016 A 
ATOM     45  C   UNL     1       6.297   3.630   9.453  1.00  0.00     0.016 A 
ATOM     46  C   UNL     1       5.104   4.139   6.966  1.00  0.00     0.010 A 
ATOM     47  C   UNL     1       6.527   4.846   8.786  1.00  0.00     0.010 A 
ATOM     48  C   UNL     1       5.981   5.088   7.511  1.00  0.00    -0.014 A 
BRANCH  48  49
ATOM     49  C   UNL     1       6.508   6.223   6.690  1.00  0.00     0.031 A 
ATOM     50  C   UNL     1       7.909   6.125   6.128  1.00  0.00     0.074 A 
ATOM     51  C   UNL     1       5.790   7.337   6.450  1.00  0.00     0.049 A 
ATOM     52  N   UNL     1       8.636   7.030   5.520  1.00  0.00    -0.248 NA
ATOM     53  C   UNL     1       8.580   4.824   6.282  1.00  0.00     0.031 C 
ATOM     54  C   UNL     1       4.410   7.561   6.868  1.00  0.00     0.029 A 
ATOM     55  N   UNL     1       6.142   8.504   5.809  1.00  0.00    -0.354 N 
ATOM     56  C   UNL     1       9.855   6.418   5.243  1.00  0.00     0.074 A 
ATOM     57  C   UNL     1       9.776   5.072   5.769  1.00  0.00     0.031 C 
ATOM     58  C   UNL     1       4.037   8.798   6.493  1.00  0.00     0.029 A 
ATOM     59  C   UNL     1       5.164   9.470   5.845  1.00  0.00     0.049 A 
ATOM     60  H   UNL     1       7.011   8.634   5.365  1.00  0.00     0.167 HD
ATOM     61  C   UNL     1      10.941   6.922   4.606  1.00  0.00     0.037 A 
ATOM     62  C   UNL     1       5.185  10.755   5.434  1.00  0.00     0.037 A 
ATOM     63  C   UNL     1      11.026   8.257   4.070  1.00  0.00     0.049 A 
ATOM     64  C   UNL     1       6.433  11.325   4.802  1.00  0.00     0.074 A 
ATOM     65  C   UNL     1      12.080   8.850   3.395  1.00  0.00     0.029 A 
ATOM     66  N   UNL     1      10.021   9.207   4.152  1.00  0.00    -0.354 N 
ATOM     67  N   UNL     1       7.576  10.737   4.543  1.00  0.00    -0.248 NA
ATOM     68  C   UNL     1       6.391  12.742   4.407  1.00  0.00     0.031 C 
ATOM     69  C   UNL     1      11.734  10.176   3.118  1.00  0.00     0.029 A 
ATOM     70  C   UNL     1      10.440  10.390   3.563  1.00  0.00     0.049 A 
ATOM     71  H   UNL     1       9.140   9.064   4.567  1.00  0.00     0.167 HD
ATOM     72  C   UNL     1       8.370  11.697   3.924  1.00  0.00     0.074 A 
ATOM     73  C   UNL     1       7.577  12.904   3.837  1.00  0.00     0.031 C 
ATOM     74  C   UNL     1       9.642  11.586   3.466  1.00  0.00     0.037 A 
BRANCH  61  75
ATOM     75  C   UNL     1      12.148   6.034   4.479  1.00  0.00     0.057 A 
ATOM     76  C   UNL     1      12.167   4.920   3.630  1.00  0.00     0.134 A 
ATOM     77  C   UNL     1      13.321   6.321   5.191  1.00  0.00     0.134 A 
ATOM     78  F   UNL     1      11.076   4.583   2.925  1.00  0.00    -0.206 F 
ATOM     79  C   UNL     1      13.297   4.108   3.515  1.00  0.00     0.040 A 
ATOM     80  C   UNL     1      14.467   5.534   5.061  1.00  0.00     0.040 A 
ATOM     81  F   UNL     1      13.377   7.379   6.014  1.00  0.00    -0.206 F 
ATOM     82  C   UNL     1      14.454   4.419   4.227  1.00  0.00     0.006 A 
ENDBRANCH  61  75
BRANCH  62  83
ATOM     83  C   UNL     1       3.990  11.621   5.623  1.00  0.00     0.057 A 
ATOM     84  C   UNL     1       3.260  12.101   4.529  1.00  0.00     0.134 A 
ATOM     85  C   UNL     1       3.575  12.027   6.898  1.00  0.00     0.134 A 
ATOM     86  F   UNL     1       3.627  11.778   3.280  1.00  0.00    -0.206 F 
ATOM     87  C   UNL     1       2.175  12.965   4.692  1.00  0.00     0.040 A 
ATOM     88  C   UNL     1       2.474  12.867   7.078  1.00  0.00     0.040 A 
ATOM     89  F   UNL     1       4.234  11.611   7.990  1.00  0.00    -0.206 F 
ATOM     90  C   UNL     1       1.775  13.345   5.971  1.00  0.00     0.006 A 
ENDBRANCH  62  83
BRANCH  74  91
ATOM     91  C   UNL     1      10.245  12.781   2.779  1.00  0.00     0.057 A 
ATOM     92  C   UNL     1      10.609  13.939   3.478  1.00  0.00     0.134 A 
ATOM     93  C   UNL     1      10.504  12.753   1.402  1.00  0.00     0.134 A 
ATOM     94  F   UNL     1      10.381  14.039   4.796  1.00  0.00    -0.206 F 
ATOM     95  C   UNL     1      11.183  15.035   2.828  1.00  0.00     0.040 A 
ATOM     96  C   UNL     1      11.105  13.830   0.747  1.00  0.00     0.040 A 
ATOM     97  F   UNL     1      10.193  11.672   0.671  1.00  0.00    -0.206 F 
ATOM     98  C   UNL     1      11.439  14.979   1.460  1.00  0.00     0.006 A 
ENDBRANCH  74  91
ENDBRANCH  48  49
ENDBRANCH  41  43
ENDBRANCH  40  41
ENDBRANCH  39  40
ENDBRANCH  38  39
ENDBRANCH  37  38
ENDBRANCH  36  37
ENDBRANCH   1  36
TORSDOF 21
