REMARK SMILES CC(C)n1c2c(c3ccccc31)[C@@H](c1ccccc1)N(CC(=O)OCCOCCOCCOC(=O)c1ccc(-c3c4nc(c(-c5c(F)cccc5F)c5ccc([nH]5)c(-c5c(F)cccc5F)c5nc(c(-c6c(F)cccc6F)c6ccc3[nH]6)C=C5)C=C4)cc1)C2=O
REMARK SMILES IDX 28 1 27 2 26 3 25 4 24 5 22 6 23 7 21 8 20 9 4 10 5 11 12 12
REMARK SMILES IDX 6 13 90 14 7 15 11 16 13 17 91 18 8 19 10 20 9 21 2 22 1 23
REMARK SMILES IDX 3 24 14 25 15 26 19 27 16 28 18 29 17 30 29 31 30 32 31 33
REMARK SMILES IDX 32 34 33 35 34 36 35 37 36 38 37 39 89 40 38 41 88 42 39 43
REMARK SMILES IDX 40 44 41 45 82 46 42 47 87 48 81 49 83 50 43 51 86 52 80 53
REMARK SMILES IDX 79 54 44 56 70 57 53 58 69 59 54 60 57 61 68 62 84 63 55 64
REMARK SMILES IDX 56 65 67 67 85 68 58 69 45 70 46 71 51 72 47 73 48 74 50 75
REMARK SMILES IDX 52 76 49 77 71 78 72 79 77 80 73 81 74 82 76 83 78 84 75 85
REMARK SMILES IDX 59 86 60 87 65 88 61 89 62 90 64 91 66 92 63 93
REMARK H PARENT 83 55 57 66
REMARK Flexibility Score: inf
ROOT
ATOM      1  C   UNL     1      -6.393  -1.511   4.030  1.00  0.00     0.188 C 
ENDROOT
BRANCH   1   2
ATOM      2  O   UNL     1      -6.170  -1.312   5.408  1.00  0.00    -0.376 OA
BRANCH   2   3
ATOM      3  C   UNL     1      -4.826  -1.300   5.872  1.00  0.00     0.202 C 
BRANCH   3   4
ATOM      4  C   UNL     1      -3.848  -2.316   5.261  1.00  0.00     0.261 C 
BRANCH   4   5
ATOM      5  O   UNL     1      -3.362  -1.918   3.944  1.00  0.00    -0.462 OA
BRANCH   5   6
ATOM      6  C   UNL     1      -3.175  -2.941   3.068  1.00  0.00     0.325 C 
ATOM      7  O   UNL     1      -3.271  -4.119   3.416  1.00  0.00    -0.250 OA
BRANCH   6   8
ATOM      8  C   UNL     1      -3.088  -2.574   1.542  1.00  0.00     0.243 C 
BRANCH   8   9
ATOM      9  N   UNL     1      -2.719  -1.348   0.890  1.00  0.00    -0.315 N 
ATOM     10  N   UNL     1      -0.741   1.573   0.500  1.00  0.00    -0.334 N 
ATOM     11  C   UNL     1      -1.500   0.452   0.558  1.00  0.00     0.114 A 
ATOM     12  C   UNL     1      -1.638   2.655   0.520  1.00  0.00     0.049 A 
ATOM     13  C   UNL     1      -2.783   0.763   0.204  1.00  0.00     0.018 A 
ATOM     14  C   UNL     1      -1.410  -0.903   0.990  1.00  0.00     0.272 C 
ATOM     15  C   UNL     1      -2.933   2.149   0.298  1.00  0.00     0.006 A 
ATOM     16  C   UNL     1      -1.453   4.029   0.741  1.00  0.00     0.027 A 
ATOM     17  C   UNL     1      -3.633  -0.441   0.136  1.00  0.00     0.150 C 
ATOM     18  O   UNL     1      -0.489  -1.523   1.482  1.00  0.00    -0.267 OA
ATOM     19  C   UNL     1      -4.046   3.012   0.277  1.00  0.00     0.011 A 
ATOM     20  C   UNL     1      -2.573   4.873   0.702  1.00  0.00     0.002 A 
ATOM     21  C   UNL     1      -3.851   4.377   0.469  1.00  0.00     0.001 A 
BRANCH  10  22
ATOM     22  C   UNL     1       0.722   1.637   0.461  1.00  0.00     0.082 C 
ATOM     23  C   UNL     1       1.423   0.291   0.198  1.00  0.00     0.031 C 
ATOM     24  C   UNL     1       1.221   2.596  -0.627  1.00  0.00     0.031 C 
ENDBRANCH  10  22
BRANCH  17  25
ATOM     25  C   UNL     1      -3.902  -0.698  -1.365  1.00  0.00    -0.021 A 
ATOM     26  C   UNL     1      -3.987  -1.989  -1.916  1.00  0.00     0.006 A 
ATOM     27  C   UNL     1      -4.329   0.358  -2.213  1.00  0.00     0.006 A 
ATOM     28  C   UNL     1      -4.577  -2.211  -3.182  1.00  0.00     0.000 A 
ATOM     29  C   UNL     1      -4.889   0.144  -3.479  1.00  0.00     0.000 A 
ATOM     30  C   UNL     1      -5.053  -1.149  -3.948  1.00  0.00     0.000 A 
ENDBRANCH  17  25
ENDBRANCH   8   9
ENDBRANCH   6   8
ENDBRANCH   5   6
ENDBRANCH   4   5
ENDBRANCH   3   4
ENDBRANCH   2   3
ENDBRANCH   1   2
BRANCH   1  31
ATOM     31  C   UNL     1      -5.642  -0.634   3.028  1.00  0.00     0.188 C 
BRANCH  31  32
ATOM     32  O   UNL     1      -5.010   0.564   3.406  1.00  0.00    -0.376 OA
BRANCH  32  33
ATOM     33  C   UNL     1      -5.833   1.569   3.975  1.00  0.00     0.202 C 
BRANCH  33  34
ATOM     34  C   UNL     1      -7.147   1.960   3.256  1.00  0.00     0.261 C 
BRANCH  34  35
ATOM     35  O   UNL     1      -7.945   0.835   2.815  1.00  0.00    -0.460 OA
BRANCH  35  36
ATOM     36  C   UNL     1      -8.310   0.830   1.496  1.00  0.00     0.338 C 
ATOM     37  O   UNL     1      -8.370   1.809   0.770  1.00  0.00    -0.246 OA
BRANCH  36  38
ATOM     38  C   UNL     1      -8.211  -0.574   0.972  1.00  0.00     0.060 A 
ATOM     39  C   UNL     1      -8.623  -1.713   1.673  1.00  0.00     0.016 A 
ATOM     40  C   UNL     1      -7.390  -0.753  -0.140  1.00  0.00     0.016 A 
ATOM     41  C   UNL     1      -8.065  -2.984   1.372  1.00  0.00     0.010 A 
ATOM     42  C   UNL     1      -6.876  -2.024  -0.437  1.00  0.00     0.010 A 
ATOM     43  C   UNL     1      -7.103  -3.148   0.359  1.00  0.00    -0.014 A 
BRANCH  43  44
ATOM     44  C   UNL     1      -6.725  -4.499  -0.166  1.00  0.00     0.031 A 
ATOM     45  C   UNL     1      -7.860  -5.041  -0.920  1.00  0.00     0.074 A 
ATOM     46  C   UNL     1      -5.622  -5.300  -0.191  1.00  0.00     0.049 A 
ATOM     47  N   UNL     1      -8.707  -5.873  -0.422  1.00  0.00    -0.248 NA
ATOM     48  C   UNL     1      -8.205  -4.504  -2.236  1.00  0.00     0.031 C 
ATOM     49  C   UNL     1      -4.324  -5.090   0.401  1.00  0.00     0.029 A 
ATOM     50  N   UNL     1      -5.415  -6.535  -0.782  1.00  0.00    -0.354 N 
ATOM     51  C   UNL     1      -9.570  -6.163  -1.454  1.00  0.00     0.074 A 
ATOM     52  C   UNL     1      -9.348  -5.155  -2.462  1.00  0.00     0.031 C 
ATOM     53  C   UNL     1      -3.377  -5.925  -0.081  1.00  0.00     0.029 A 
ATOM     54  C   UNL     1      -4.076  -6.964  -0.810  1.00  0.00     0.049 A 
ATOM     55  H   UNL     1      -6.150  -7.073  -1.155  1.00  0.00     0.167 HD
ATOM     56  C   UNL     1     -10.175  -7.376  -1.490  1.00  0.00     0.037 A 
ATOM     57  C   UNL     1      -3.538  -8.176  -1.123  1.00  0.00     0.037 A 
ATOM     58  C   UNL     1     -10.102  -8.050  -0.208  1.00  0.00     0.049 A 
ATOM     59  C   UNL     1      -4.585  -9.181  -0.879  1.00  0.00     0.074 A 
ATOM     60  C   UNL     1     -10.435  -7.716   1.094  1.00  0.00     0.029 A 
ATOM     61  N   UNL     1      -9.270  -9.136  -0.093  1.00  0.00    -0.354 N 
ATOM     62  N   UNL     1      -4.981  -9.546   0.305  1.00  0.00    -0.248 NA
ATOM     63  C   UNL     1      -5.480  -9.494  -1.973  1.00  0.00     0.031 C 
ATOM     64  C   UNL     1      -9.417  -8.298   1.910  1.00  0.00     0.029 A 
ATOM     65  C   UNL     1      -8.556  -9.002   1.071  1.00  0.00     0.049 A 
ATOM     66  H   UNL     1      -9.199  -9.881  -0.733  1.00  0.00     0.167 HD
ATOM     67  C   UNL     1      -6.351  -9.677   0.172  1.00  0.00     0.074 A 
ATOM     68  C   UNL     1      -6.584  -9.746  -1.269  1.00  0.00     0.031 C 
ATOM     69  C   UNL     1      -7.184  -9.434   1.226  1.00  0.00     0.037 A 
BRANCH  56  70
ATOM     70  C   UNL     1     -10.455  -8.096  -2.777  1.00  0.00     0.057 A 
ATOM     71  C   UNL     1      -9.753  -7.880  -3.983  1.00  0.00     0.134 A 
ATOM     72  C   UNL     1     -11.261  -9.243  -2.746  1.00  0.00     0.134 A 
ATOM     73  F   UNL     1      -8.865  -6.890  -4.137  1.00  0.00    -0.206 F 
ATOM     74  C   UNL     1      -9.842  -8.744  -5.074  1.00  0.00     0.040 A 
ATOM     75  C   UNL     1     -11.311 -10.146  -3.811  1.00  0.00     0.040 A 
ATOM     76  F   UNL     1     -11.952  -9.565  -1.643  1.00  0.00    -0.206 F 
ATOM     77  C   UNL     1     -10.598  -9.900  -4.978  1.00  0.00     0.006 A 
ENDBRANCH  56  70
BRANCH  57  78
ATOM     78  C   UNL     1      -2.212  -8.566  -1.671  1.00  0.00     0.057 A 
ATOM     79  C   UNL     1      -1.515  -7.704  -2.532  1.00  0.00     0.134 A 
ATOM     80  C   UNL     1      -1.752  -9.896  -1.636  1.00  0.00     0.134 A 
ATOM     81  F   UNL     1      -1.898  -6.427  -2.675  1.00  0.00    -0.206 F 
ATOM     82  C   UNL     1      -0.466  -8.148  -3.351  1.00  0.00     0.040 A 
ATOM     83  C   UNL     1      -0.704 -10.353  -2.450  1.00  0.00     0.040 A 
ATOM     84  F   UNL     1      -2.357 -10.811  -0.864  1.00  0.00    -0.206 F 
ATOM     85  C   UNL     1      -0.071  -9.481  -3.328  1.00  0.00     0.006 A 
ENDBRANCH  57  78
BRANCH  69  86
ATOM     86  C   UNL     1      -6.585  -9.393   2.610  1.00  0.00     0.057 A 
ATOM     87  C   UNL     1      -7.110 -10.250   3.586  1.00  0.00     0.134 A 
ATOM     88  C   UNL     1      -5.592  -8.495   3.034  1.00  0.00     0.134 A 
ATOM     89  F   UNL     1      -8.093 -11.109   3.271  1.00  0.00    -0.206 F 
ATOM     90  C   UNL     1      -6.666 -10.231   4.911  1.00  0.00     0.040 A 
ATOM     91  C   UNL     1      -5.114  -8.489   4.351  1.00  0.00     0.040 A 
ATOM     92  F   UNL     1      -5.089  -7.572   2.204  1.00  0.00    -0.206 F 
ATOM     93  C   UNL     1      -5.654  -9.357   5.295  1.00  0.00     0.006 A 
ENDBRANCH  69  86
ENDBRANCH  43  44
ENDBRANCH  36  38
ENDBRANCH  35  36
ENDBRANCH  34  35
ENDBRANCH  33  34
ENDBRANCH  32  33
ENDBRANCH  31  32
ENDBRANCH   1  31
TORSDOF 20
