REMARK SMILES CC1=C[C@H](C)[C@@H](C(=O)OCCOCCOCCOC(=O)c2ccc(-c3c4nc(c(-c5c(F)cccc5F)c5ccc([nH]5)c(-c5c(F)cccc5F)c5nc(c(-c6c(F)cccc6F)c6ccc3[nH]6)C=C5)C=C4)cc2)[C@H](C(=O)Nc2cccnc2)C1
REMARK SMILES IDX 13 1 12 2 11 3 10 4 9 5 7 6 8 7 6 8 1 9 2 10 3 11 85 12 4 13
REMARK SMILES IDX 75 14 5 15 76 16 77 17 78 18 79 20 80 21 84 22 81 23 83 24
REMARK SMILES IDX 82 25 14 26 15 27 16 28 17 29 18 30 19 31 20 32 21 33 22 34
REMARK SMILES IDX 74 35 23 36 73 37 24 38 25 39 26 40 67 41 27 42 72 43 66 44
REMARK SMILES IDX 68 45 28 46 71 47 65 48 64 49 29 51 55 52 38 53 54 54 39 55
REMARK SMILES IDX 42 56 53 57 69 58 40 59 41 60 52 62 70 63 43 64 30 65 31 66
REMARK SMILES IDX 36 67 32 68 33 69 35 70 37 71 34 72 56 73 57 74 62 75 58 76
REMARK SMILES IDX 59 77 61 78 63 79 60 80 44 81 45 82 50 83 46 84 47 85 49 86
REMARK SMILES IDX 51 87 48 88
REMARK H PARENT 78 19 68 50 42 61
REMARK Flexibility Score: inf
ROOT
ATOM      1  C   UNL     1       0.498  -4.405   6.114  1.00  0.00     0.188 C 
ENDROOT
BRANCH   1   2
ATOM      2  O   UNL     1       1.818  -4.832   6.420  1.00  0.00    -0.376 OA
BRANCH   2   3
ATOM      3  C   UNL     1       2.932  -4.043   6.038  1.00  0.00     0.202 C 
BRANCH   3   4
ATOM      4  C   UNL     1       3.187  -3.784   4.544  1.00  0.00     0.261 C 
BRANCH   4   5
ATOM      5  O   UNL     1       2.084  -3.304   3.748  1.00  0.00    -0.463 OA
BRANCH   5   6
ATOM      6  C   UNL     1       1.372  -4.268   3.110  1.00  0.00     0.310 C 
ATOM      7  O   UNL     1       1.532  -5.473   3.285  1.00  0.00    -0.252 OA
BRANCH   6   8
ATOM      8  C   UNL     1       0.497  -3.746   1.970  1.00  0.00     0.118 C 
ATOM      9  C   UNL     1       1.417  -0.165  -0.538  1.00  0.00     0.039 C 
ATOM     10  C   UNL     1       1.093  -1.399   0.255  1.00  0.00    -0.076 C 
ATOM     11  C   UNL     1       1.561  -2.608  -0.095  1.00  0.00    -0.024 C 
ATOM     12  C   UNL     1       0.296  -1.160   1.496  1.00  0.00     0.044 C 
ATOM     13  C   UNL     1       1.465  -3.836   0.764  1.00  0.00     0.023 C 
ATOM     14  C   UNL     1      -0.232  -2.405   2.204  1.00  0.00     0.097 C 
ATOM     15  C   UNL     1       1.258  -5.160   0.006  1.00  0.00     0.013 C 
BRANCH  14  16
ATOM     16  C   UNL     1      -1.784  -2.499   2.231  1.00  0.00     0.228 C 
ATOM     17  O   UNL     1      -2.352  -2.800   3.289  1.00  0.00    -0.274 OA
ATOM     18  N   UNL     1      -2.571  -2.147   1.165  1.00  0.00    -0.324 N 
ATOM     19  H   UNL     1      -3.466  -1.805   1.391  1.00  0.00     0.169 HD
BRANCH  18  20
ATOM     20  C   UNL     1      -2.274  -2.207  -0.201  1.00  0.00     0.059 A 
ATOM     21  C   UNL     1      -1.569  -3.275  -0.725  1.00  0.00     0.029 A 
ATOM     22  C   UNL     1      -2.727  -1.247  -1.097  1.00  0.00     0.137 A 
ATOM     23  C   UNL     1      -1.184  -3.275  -2.062  1.00  0.00     0.022 A 
ATOM     24  N   UNL     1      -2.377  -1.216  -2.408  1.00  0.00    -0.263 NA
ATOM     25  C   UNL     1      -1.580  -2.213  -2.850  1.00  0.00     0.111 A 
ENDBRANCH  18  20
ENDBRANCH  14  16
ENDBRANCH   6   8
ENDBRANCH   5   6
ENDBRANCH   4   5
ENDBRANCH   3   4
ENDBRANCH   2   3
ENDBRANCH   1   2
BRANCH   1  26
ATOM     26  C   UNL     1       0.173  -2.922   5.919  1.00  0.00     0.188 C 
BRANCH  26  27
ATOM     27  O   UNL     1       1.217  -2.020   6.195  1.00  0.00    -0.376 OA
BRANCH  27  28
ATOM     28  C   UNL     1       0.945  -0.934   7.066  1.00  0.00     0.202 C 
BRANCH  28  29
ATOM     29  C   UNL     1       0.481  -1.275   8.497  1.00  0.00     0.261 C 
BRANCH  29  30
ATOM     30  O   UNL     1      -0.620  -2.201   8.620  1.00  0.00    -0.460 OA
BRANCH  30  31
ATOM     31  C   UNL     1      -1.843  -1.778   8.194  1.00  0.00     0.338 C 
ATOM     32  O   UNL     1      -2.131  -0.661   7.830  1.00  0.00    -0.246 OA
BRANCH  31  33
ATOM     33  C   UNL     1      -2.680  -2.995   7.961  1.00  0.00     0.060 A 
ATOM     34  C   UNL     1      -3.229  -3.199   6.684  1.00  0.00     0.016 A 
ATOM     35  C   UNL     1      -2.860  -3.961   8.951  1.00  0.00     0.016 A 
ATOM     36  C   UNL     1      -3.979  -4.347   6.402  1.00  0.00     0.010 A 
ATOM     37  C   UNL     1      -3.641  -5.094   8.679  1.00  0.00     0.010 A 
ATOM     38  C   UNL     1      -4.233  -5.280   7.414  1.00  0.00    -0.014 A 
BRANCH  38  39
ATOM     39  C   UNL     1      -5.302  -6.302   7.242  1.00  0.00     0.031 A 
ATOM     40  C   UNL     1      -6.662  -5.995   7.814  1.00  0.00     0.074 A 
ATOM     41  C   UNL     1      -5.106  -7.467   6.597  1.00  0.00     0.049 A 
ATOM     42  N   UNL     1      -7.727  -6.751   7.900  1.00  0.00    -0.248 NA
ATOM     43  C   UNL     1      -6.835  -4.644   8.371  1.00  0.00     0.031 C 
ATOM     44  C   UNL     1      -3.875  -7.874   5.927  1.00  0.00     0.029 A 
ATOM     45  N   UNL     1      -5.958  -8.532   6.413  1.00  0.00    -0.354 N 
ATOM     46  C   UNL     1      -8.690  -5.972   8.531  1.00  0.00     0.074 A 
ATOM     47  C   UNL     1      -8.072  -4.701   8.837  1.00  0.00     0.031 C 
ATOM     48  C   UNL     1      -4.047  -9.106   5.413  1.00  0.00     0.029 A 
ATOM     49  C   UNL     1      -5.385  -9.592   5.754  1.00  0.00     0.049 A 
ATOM     50  H   UNL     1      -6.892  -8.533   6.725  1.00  0.00     0.167 HD
ATOM     51  C   UNL     1      -9.976  -6.280   8.825  1.00  0.00     0.037 A 
ATOM     52  C   UNL     1      -5.874 -10.820   5.483  1.00  0.00     0.037 A 
ATOM     53  C   UNL     1     -10.595  -7.545   8.534  1.00  0.00     0.049 A 
ATOM     54  C   UNL     1      -7.270 -11.187   5.926  1.00  0.00     0.074 A 
ATOM     55  C   UNL     1     -11.890  -7.953   8.800  1.00  0.00     0.029 A 
ATOM     56  N   UNL     1      -9.959  -8.613   7.918  1.00  0.00    -0.354 N 
ATOM     57  N   UNL     1      -8.173 -10.449   6.526  1.00  0.00    -0.248 NA
ATOM     58  C   UNL     1      -7.712 -12.564   5.655  1.00  0.00     0.031 C 
ATOM     59  C   UNL     1     -12.021  -9.287   8.398  1.00  0.00     0.029 A 
ATOM     60  C   UNL     1     -10.827  -9.689   7.822  1.00  0.00     0.049 A 
ATOM     61  H   UNL     1      -9.028  -8.607   7.598  1.00  0.00     0.167 HD
ATOM     62  C   UNL     1      -9.297 -11.258   6.670  1.00  0.00     0.074 A 
ATOM     63  C   UNL     1      -8.965 -12.540   6.087  1.00  0.00     0.031 C 
ATOM     64  C   UNL     1     -10.496 -10.961   7.230  1.00  0.00     0.037 A 
BRANCH  51  65
ATOM     65  C   UNL     1     -10.781  -5.231   9.539  1.00  0.00     0.057 A 
ATOM     66  C   UNL     1     -11.168  -4.038   8.915  1.00  0.00     0.134 A 
ATOM     67  C   UNL     1     -11.167  -5.416  10.873  1.00  0.00     0.134 A 
ATOM     68  F   UNL     1     -10.817  -3.789   7.644  1.00  0.00    -0.206 F 
ATOM     69  C   UNL     1     -11.876  -3.050   9.603  1.00  0.00     0.040 A 
ATOM     70  C   UNL     1     -11.904  -4.451  11.561  1.00  0.00     0.040 A 
ATOM     71  F   UNL     1     -10.836  -6.538  11.530  1.00  0.00    -0.206 F 
ATOM     72  C   UNL     1     -12.250  -3.258  10.929  1.00  0.00     0.006 A 
ENDBRANCH  51  65
BRANCH  52  73
ATOM     73  C   UNL     1      -5.039 -11.817   4.761  1.00  0.00     0.057 A 
ATOM     74  C   UNL     1      -5.378 -12.247   3.472  1.00  0.00     0.134 A 
ATOM     75  C   UNL     1      -3.908 -12.394   5.353  1.00  0.00     0.134 A 
ATOM     76  F   UNL     1      -6.470 -11.760   2.864  1.00  0.00    -0.206 F 
ATOM     77  C   UNL     1      -4.632 -13.220   2.803  1.00  0.00     0.040 A 
ATOM     78  C   UNL     1      -3.137 -13.347   4.685  1.00  0.00     0.040 A 
ATOM     79  F   UNL     1      -3.535 -12.038   6.591  1.00  0.00    -0.206 F 
ATOM     80  C   UNL     1      -3.503 -13.767   3.408  1.00  0.00     0.006 A 
ENDBRANCH  52  73
BRANCH  64  81
ATOM     81  C   UNL     1     -11.564 -12.020   7.199  1.00  0.00     0.057 A 
ATOM     82  C   UNL     1     -11.492 -13.177   7.984  1.00  0.00     0.134 A 
ATOM     83  C   UNL     1     -12.705 -11.855   6.401  1.00  0.00     0.134 A 
ATOM     84  F   UNL     1     -10.424 -13.405   8.764  1.00  0.00    -0.206 F 
ATOM     85  C   UNL     1     -12.502 -14.142   7.959  1.00  0.00     0.040 A 
ATOM     86  C   UNL     1     -13.735 -12.797   6.390  1.00  0.00     0.040 A 
ATOM     87  F   UNL     1     -12.847 -10.765   5.631  1.00  0.00    -0.206 F 
ATOM     88  C   UNL     1     -13.632 -13.949   7.166  1.00  0.00     0.006 A 
ENDBRANCH  64  81
ENDBRANCH  38  39
ENDBRANCH  31  33
ENDBRANCH  30  31
ENDBRANCH  29  30
ENDBRANCH  28  29
ENDBRANCH  27  28
ENDBRANCH  26  27
ENDBRANCH   1  26
TORSDOF 19
