REMARK SMILES O=C(OCCOCCOCCOC(=O)[C@@H]1CC=CC[C@H]1C(=O)N1CC[NH+](Cc2ccc3c(c2)OCO3)CC1)c1ccc(-c2c3nc(c(-c4c(F)cccc4F)c4ccc([nH]4)c(-c4c(F)cccc4F)c4nc(c(-c5c(F)cccc5F)c5ccc2[nH]5)C=C4)C=C3)cc1
REMARK SMILES IDX 8 1 7 2 6 3 5 4 4 5 3 6 2 7 1 8 39 9 40 10 92 11 41 12 91 13
REMARK SMILES IDX 42 14 43 15 44 16 85 17 45 18 90 19 84 20 86 21 46 22 89 23
REMARK SMILES IDX 83 24 82 25 47 27 73 28 56 29 72 30 57 31 60 32 71 33 87 34
REMARK SMILES IDX 58 35 59 36 70 38 88 39 61 40 48 41 49 42 54 43 50 44 51 45
REMARK SMILES IDX 53 46 55 47 52 48 74 49 75 50 80 51 76 52 77 53 79 54 81 55
REMARK SMILES IDX 78 56 62 57 63 58 68 59 64 60 65 61 67 62 69 63 66 64 9 65
REMARK SMILES IDX 10 66 11 67 12 68 13 69 14 70 15 71 16 72 20 73 17 74 19 75
REMARK SMILES IDX 18 76 21 77 22 78 23 79 24 80 38 81 25 82 37 83 26 84 27 86
REMARK SMILES IDX 28 87 29 88 33 89 30 90 32 91 31 92 34 93 36 94 35 95
REMARK H PARENT 86 26 60 37 26 85
REMARK Flexibility Score: inf
ROOT
ATOM      1  C   UNL     1       3.214  -2.490   1.909  1.00  0.00     0.188 C 
ENDROOT
BRANCH   1   2
ATOM      2  C   UNL     1       2.629  -1.729   0.717  1.00  0.00     0.188 C 
BRANCH   2   3
ATOM      3  O   UNL     1       1.242  -1.418   0.874  1.00  0.00    -0.376 OA
BRANCH   3   4
ATOM      4  C   UNL     1       0.443  -1.725  -0.264  1.00  0.00     0.202 C 
BRANCH   4   5
ATOM      5  C   UNL     1       0.559  -0.762  -1.441  1.00  0.00     0.261 C 
BRANCH   5   6
ATOM      6  O   UNL     1       1.462   0.331  -1.295  1.00  0.00    -0.460 OA
BRANCH   6   7
ATOM      7  C   UNL     1       1.651   1.070  -0.182  1.00  0.00     0.338 C 
ATOM      8  O   UNL     1       2.805   1.411   0.087  1.00  0.00    -0.246 OA
BRANCH   7   9
ATOM      9  C   UNL     1       0.491   1.683   0.556  1.00  0.00     0.060 A 
ATOM     10  C   UNL     1      -0.849   1.314   0.671  1.00  0.00     0.016 A 
ATOM     11  C   UNL     1       0.846   2.857   1.193  1.00  0.00     0.016 A 
ATOM     12  C   UNL     1      -1.780   2.131   1.380  1.00  0.00     0.010 A 
ATOM     13  C   UNL     1      -0.064   3.703   1.809  1.00  0.00     0.010 A 
ATOM     14  C   UNL     1      -1.393   3.354   1.934  1.00  0.00    -0.014 A 
BRANCH  14  15
ATOM     15  C   UNL     1      -2.190   4.287   2.778  1.00  0.00     0.031 A 
ATOM     16  C   UNL     1      -2.512   5.671   2.287  1.00  0.00     0.074 A 
ATOM     17  C   UNL     1      -2.260   4.041   4.094  1.00  0.00     0.049 A 
ATOM     18  N   UNL     1      -2.615   6.820   2.910  1.00  0.00    -0.248 NA
ATOM     19  C   UNL     1      -2.635   5.771   0.838  1.00  0.00     0.031 C 
ATOM     20  C   UNL     1      -1.837   2.810   4.752  1.00  0.00     0.029 A 
ATOM     21  N   UNL     1      -2.620   4.868   5.117  1.00  0.00    -0.354 N 
ATOM     22  C   UNL     1      -2.740   7.773   1.899  1.00  0.00     0.074 A 
ATOM     23  C   UNL     1      -2.499   7.079   0.666  1.00  0.00     0.031 C 
ATOM     24  C   UNL     1      -1.871   2.990   6.081  1.00  0.00     0.029 A 
ATOM     25  C   UNL     1      -2.376   4.330   6.352  1.00  0.00     0.049 A 
ATOM     26  H   UNL     1      -3.015   5.760   4.981  1.00  0.00     0.167 HD
ATOM     27  C   UNL     1      -3.218   9.045   1.935  1.00  0.00     0.037 A 
ATOM     28  C   UNL     1      -2.588   4.868   7.562  1.00  0.00     0.037 A 
ATOM     29  C   UNL     1      -3.868   9.549   3.110  1.00  0.00     0.049 A 
ATOM     30  C   UNL     1      -3.351   6.158   7.598  1.00  0.00     0.074 A 
ATOM     31  C   UNL     1      -4.727  10.623   3.235  1.00  0.00     0.029 A 
ATOM     32  N   UNL     1      -3.839   8.900   4.335  1.00  0.00    -0.354 N 
ATOM     33  N   UNL     1      -3.549   7.028   6.633  1.00  0.00    -0.248 NA
ATOM     34  C   UNL     1      -4.042   6.474   8.850  1.00  0.00     0.031 C 
ATOM     35  C   UNL     1      -5.286  10.570   4.517  1.00  0.00     0.029 A 
ATOM     36  C   UNL     1      -4.741   9.489   5.196  1.00  0.00     0.049 A 
ATOM     37  H   UNL     1      -3.262   8.134   4.557  1.00  0.00     0.167 HD
ATOM     38  C   UNL     1      -4.460   7.946   7.133  1.00  0.00     0.074 A 
ATOM     39  C   UNL     1      -4.756   7.531   8.491  1.00  0.00     0.031 C 
ATOM     40  C   UNL     1      -5.022   9.021   6.526  1.00  0.00     0.037 A 
BRANCH  27  41
ATOM     41  C   UNL     1      -3.321   9.835   0.642  1.00  0.00     0.057 A 
ATOM     42  C   UNL     1      -4.085   9.369  -0.443  1.00  0.00     0.134 A 
ATOM     43  C   UNL     1      -2.682  11.070   0.464  1.00  0.00     0.134 A 
ATOM     44  F   UNL     1      -4.786   8.229  -0.342  1.00  0.00    -0.206 F 
ATOM     45  C   UNL     1      -4.100  10.014  -1.681  1.00  0.00     0.040 A 
ATOM     46  C   UNL     1      -2.746  11.764  -0.754  1.00  0.00     0.040 A 
ATOM     47  F   UNL     1      -1.988  11.634   1.464  1.00  0.00    -0.206 F 
ATOM     48  C   UNL     1      -3.428  11.219  -1.840  1.00  0.00     0.006 A 
ENDBRANCH  27  41
BRANCH  28  49
ATOM     49  C   UNL     1      -2.303   4.060   8.765  1.00  0.00     0.057 A 
ATOM     50  C   UNL     1      -3.324   3.337   9.391  1.00  0.00     0.134 A 
ATOM     51  C   UNL     1      -1.003   3.908   9.258  1.00  0.00     0.134 A 
ATOM     52  F   UNL     1      -4.583   3.418   8.935  1.00  0.00    -0.206 F 
ATOM     53  C   UNL     1      -3.075   2.526  10.496  1.00  0.00     0.040 A 
ATOM     54  C   UNL     1      -0.736   3.087  10.355  1.00  0.00     0.040 A 
ATOM     55  F   UNL     1       0.027   4.529   8.663  1.00  0.00    -0.206 F 
ATOM     56  C   UNL     1      -1.776   2.401  10.982  1.00  0.00     0.006 A 
ENDBRANCH  28  49
BRANCH  40  57
ATOM     57  C   UNL     1      -6.032   9.785   7.317  1.00  0.00     0.057 A 
ATOM     58  C   UNL     1      -5.641  10.608   8.377  1.00  0.00     0.134 A 
ATOM     59  C   UNL     1      -7.393   9.729   6.992  1.00  0.00     0.134 A 
ATOM     60  F   UNL     1      -4.350  10.688   8.734  1.00  0.00    -0.206 F 
ATOM     61  C   UNL     1      -6.577  11.331   9.112  1.00  0.00     0.040 A 
ATOM     62  C   UNL     1      -8.334  10.472   7.700  1.00  0.00     0.040 A 
ATOM     63  F   UNL     1      -7.823   8.967   5.974  1.00  0.00    -0.206 F 
ATOM     64  C   UNL     1      -7.927  11.269   8.769  1.00  0.00     0.006 A 
ENDBRANCH  40  57
ENDBRANCH  14  15
ENDBRANCH   7   9
ENDBRANCH   6   7
ENDBRANCH   5   6
ENDBRANCH   4   5
ENDBRANCH   3   4
ENDBRANCH   2   3
ENDBRANCH   1   2
BRANCH   1  65
ATOM     65  O   UNL     1       2.611  -3.729   2.272  1.00  0.00    -0.376 OA
BRANCH  65  66
ATOM     66  C   UNL     1       1.199  -3.748   2.454  1.00  0.00     0.202 C 
BRANCH  66  67
ATOM     67  C   UNL     1       0.568  -2.861   3.548  1.00  0.00     0.261 C 
BRANCH  67  68
ATOM     68  O   UNL     1       1.293  -1.654   3.823  1.00  0.00    -0.463 OA
BRANCH  68  69
ATOM     69  C   UNL     1       1.705  -1.443   5.099  1.00  0.00     0.310 C 
ATOM     70  O   UNL     1       1.366  -2.129   6.068  1.00  0.00    -0.252 OA
BRANCH  69  71
ATOM     71  C   UNL     1       2.686  -0.275   5.183  1.00  0.00     0.115 C 
ATOM     72  C   UNL     1       3.956  -0.770   5.894  1.00  0.00     0.043 C 
ATOM     73  C   UNL     1       1.978   0.967   5.767  1.00  0.00     0.097 C 
ATOM     74  C   UNL     1       4.537   0.135   6.928  1.00  0.00    -0.030 C 
ATOM     75  C   UNL     1       2.527   1.604   7.042  1.00  0.00     0.041 C 
ATOM     76  C   UNL     1       3.901   1.191   7.440  1.00  0.00    -0.030 C 
BRANCH  73  77
ATOM     77  C   UNL     1       1.730   1.969   4.639  1.00  0.00     0.227 C 
ATOM     78  O   UNL     1       0.818   1.711   3.854  1.00  0.00    -0.275 OA
ATOM     79  N   UNL     1       2.599   3.046   4.438  1.00  0.00    -0.331 N 
ATOM     80  C   UNL     1       1.984   4.391   4.472  1.00  0.00     0.181 C 
ATOM     81  C   UNL     1       3.680   2.811   3.470  1.00  0.00     0.181 C 
ATOM     82  C   UNL     1       2.481   5.463   3.443  1.00  0.00     0.284 C 
ATOM     83  C   UNL     1       4.115   3.999   2.566  1.00  0.00     0.284 C 
ATOM     84  N   UNL     1       2.986   4.861   2.205  1.00  0.00    -0.328 N 
ATOM     85  H   UNL     1       2.230   4.302   1.808  1.00  0.00     0.348 HD
BRANCH  84  86
ATOM     86  C   UNL     1       3.175   5.728   1.025  1.00  0.00     0.299 C 
BRANCH  86  87
ATOM     87  C   UNL     1       2.178   5.435  -0.119  1.00  0.00     0.010 A 
ATOM     88  C   UNL     1       0.930   6.096  -0.142  1.00  0.00     0.013 A 
ATOM     89  C   UNL     1       2.399   4.418  -1.086  1.00  0.00     0.060 A 
ATOM     90  C   UNL     1      -0.078   5.698  -1.032  1.00  0.00     0.051 A 
ATOM     91  C   UNL     1       1.331   3.988  -1.877  1.00  0.00     0.166 A 
ATOM     92  C   UNL     1       0.110   4.593  -1.812  1.00  0.00     0.165 A 
ATOM     93  O   UNL     1       1.282   2.897  -2.697  1.00  0.00    -0.454 OA
ATOM     94  O   UNL     1      -0.864   3.953  -2.513  1.00  0.00    -0.454 OA
ATOM     95  C   UNL     1      -0.147   2.764  -2.886  1.00  0.00     0.468 C 
ENDBRANCH  86  87
ENDBRANCH  84  86
ENDBRANCH  73  77
ENDBRANCH  69  71
ENDBRANCH  68  69
ENDBRANCH  67  68
ENDBRANCH  66  67
ENDBRANCH  65  66
ENDBRANCH   1  65
TORSDOF 20
