REMARK SMILES CCOC(=O)NC(=O)COc1csc(C(=O)OCCOCCOCCOC(=O)c2ccc(-c3c4nc(c(-c5c(F)cccc5F)c5ccc([nH]5)c(-c5c(F)cccc5F)c5nc(c(-c6c(F)cccc6F)c6ccc3[nH]6)C=C5)C=C4)cc2)c1
REMARK SMILES IDX 20 1 19 2 18 3 17 4 15 5 16 6 14 7 11 8 12 9 83 10 13 11
REMARK SMILES IDX 10 12 9 13 7 14 4 15 5 16 6 17 8 19 3 20 2 21 1 22 21 23
REMARK SMILES IDX 22 24 23 25 24 26 25 27 26 28 27 29 28 30 29 31 30 32 82 33
REMARK SMILES IDX 31 34 81 35 32 36 33 37 34 38 75 39 35 40 80 41 74 42 76 43
REMARK SMILES IDX 36 44 79 45 73 46 72 47 37 49 63 50 46 51 62 52 47 53 50 54
REMARK SMILES IDX 61 55 77 56 48 57 49 58 60 60 78 61 51 62 38 63 39 64 44 65
REMARK SMILES IDX 40 66 41 67 43 68 45 69 42 70 64 71 65 72 70 73 66 74 67 75
REMARK SMILES IDX 69 76 71 77 68 78 52 79 53 80 58 81 54 82 55 83 57 84 59 85
REMARK SMILES IDX 56 86
REMARK H PARENT 6 18 76 48 50 59
REMARK Flexibility Score: inf
ROOT
ATOM      1  O   UNL     1      -1.716   8.472  -2.831  1.00  0.00    -0.376 OA
ENDROOT
BRANCH   1   2
ATOM      2  C   UNL     1      -2.595   7.520  -3.416  1.00  0.00     0.202 C 
BRANCH   2   3
ATOM      3  C   UNL     1      -2.112   6.071  -3.565  1.00  0.00     0.261 C 
BRANCH   3   4
ATOM      4  O   UNL     1      -1.639   5.474  -2.346  1.00  0.00    -0.459 OA
BRANCH   4   5
ATOM      5  C   UNL     1      -0.304   5.180  -2.309  1.00  0.00     0.348 C 
ATOM      6  O   UNL     1       0.459   5.282  -3.262  1.00  0.00    -0.245 OA
BRANCH   5   7
ATOM      7  C   UNL     1       0.089   4.861  -0.951  1.00  0.00     0.116 A 
ATOM      8  C   UNL     1       0.161   4.089   1.258  1.00  0.00     0.131 A 
ATOM      9  C   UNL     1       1.288   4.876   1.207  1.00  0.00     0.112 A 
ATOM     10  C   UNL     1      -0.562   4.131   0.025  1.00  0.00     0.074 A 
ATOM     11  S   UNL     1       1.567   5.499  -0.362  1.00  0.00    -0.133 S 
BRANCH   8  12
ATOM     12  O   UNL     1      -0.279   3.325   2.287  1.00  0.00    -0.483 OA
BRANCH  12  13
ATOM     13  C   UNL     1       0.373   3.428   3.534  1.00  0.00     0.329 C 
BRANCH  13  14
ATOM     14  C   UNL     1       1.891   3.290   3.735  1.00  0.00     0.267 C 
ATOM     15  C   UNL     1       2.269   1.091   2.525  1.00  0.00     0.413 C 
ATOM     16  O   UNL     1       3.137   0.300   2.175  1.00  0.00    -0.224 OA
ATOM     17  N   UNL     1       2.597   2.225   3.231  1.00  0.00    -0.258 N 
ATOM     18  H   UNL     1       3.562   2.289   3.418  1.00  0.00     0.176 HD
ATOM     19  O   UNL     1       2.513   4.139   4.385  1.00  0.00    -0.271 OA
BRANCH  15  20
ATOM     20  O   UNL     1       0.950   0.952   2.279  1.00  0.00    -0.450 OA
BRANCH  20  21
ATOM     21  C   UNL     1       0.571  -0.185   1.489  1.00  0.00     0.231 C 
ATOM     22  C   UNL     1       0.857   0.051   0.016  1.00  0.00     0.049 C 
ENDBRANCH  20  21
ENDBRANCH  15  20
ENDBRANCH  13  14
ENDBRANCH  12  13
ENDBRANCH   8  12
ENDBRANCH   5   7
ENDBRANCH   4   5
ENDBRANCH   3   4
ENDBRANCH   2   3
ENDBRANCH   1   2
BRANCH   1  23
ATOM     23  C   UNL     1      -1.229   8.276  -1.508  1.00  0.00     0.188 C 
BRANCH  23  24
ATOM     24  C   UNL     1      -2.164   7.743  -0.402  1.00  0.00     0.188 C 
BRANCH  24  25
ATOM     25  O   UNL     1      -3.516   7.635  -0.804  1.00  0.00    -0.376 OA
BRANCH  25  26
ATOM     26  C   UNL     1      -4.441   8.519  -0.194  1.00  0.00     0.202 C 
BRANCH  26  27
ATOM     27  C   UNL     1      -4.263  10.024  -0.451  1.00  0.00     0.261 C 
BRANCH  27  28
ATOM     28  O   UNL     1      -2.934  10.544  -0.286  1.00  0.00    -0.460 OA
BRANCH  28  29
ATOM     29  C   UNL     1      -2.504  10.762   0.976  1.00  0.00     0.338 C 
ATOM     30  O   UNL     1      -3.100  10.524   2.010  1.00  0.00    -0.246 OA
BRANCH  29  31
ATOM     31  C   UNL     1      -1.097  11.209   0.897  1.00  0.00     0.060 A 
ATOM     32  C   UNL     1      -0.096  10.418   1.474  1.00  0.00     0.016 A 
ATOM     33  C   UNL     1      -0.770  12.407   0.255  1.00  0.00     0.016 A 
ATOM     34  C   UNL     1       1.237  10.839   1.431  1.00  0.00     0.010 A 
ATOM     35  C   UNL     1       0.561  12.833   0.227  1.00  0.00     0.010 A 
ATOM     36  C   UNL     1       1.568  12.066   0.838  1.00  0.00    -0.014 A 
BRANCH  36  37
ATOM     37  C   UNL     1       2.932  12.629   0.997  1.00  0.00     0.031 A 
ATOM     38  C   UNL     1       3.176  13.630   2.092  1.00  0.00     0.074 A 
ATOM     39  C   UNL     1       3.941  12.262   0.188  1.00  0.00     0.049 A 
ATOM     40  N   UNL     1       4.268  14.282   2.398  1.00  0.00    -0.248 NA
ATOM     41  C   UNL     1       2.026  13.936   2.958  1.00  0.00     0.031 C 
ATOM     42  C   UNL     1       3.850  11.277  -0.886  1.00  0.00     0.029 A 
ATOM     43  N   UNL     1       5.246  12.689   0.147  1.00  0.00    -0.354 N 
ATOM     44  C   UNL     1       3.938  15.076   3.489  1.00  0.00     0.074 A 
ATOM     45  C   UNL     1       2.536  14.851   3.768  1.00  0.00     0.031 C 
ATOM     46  C   UNL     1       5.050  11.175  -1.484  1.00  0.00     0.029 A 
ATOM     47  C   UNL     1       5.983  12.109  -0.855  1.00  0.00     0.049 A 
ATOM     48  H   UNL     1       5.617  13.348   0.777  1.00  0.00     0.167 HD
ATOM     49  C   UNL     1       4.731  15.912   4.201  1.00  0.00     0.037 A 
ATOM     50  C   UNL     1       7.259  12.322  -1.230  1.00  0.00     0.037 A 
ATOM     51  C   UNL     1       6.121  16.151   3.916  1.00  0.00     0.049 A 
ATOM     52  C   UNL     1       8.098  13.327  -0.485  1.00  0.00     0.074 A 
ATOM     53  C   UNL     1       7.013  16.968   4.589  1.00  0.00     0.029 A 
ATOM     54  N   UNL     1       6.817  15.585   2.859  1.00  0.00    -0.354 N 
ATOM     55  N   UNL     1       7.787  14.052   0.562  1.00  0.00    -0.248 NA
ATOM     56  C   UNL     1       9.466  13.543  -0.979  1.00  0.00     0.031 C 
ATOM     57  C   UNL     1       8.236  16.935   3.908  1.00  0.00     0.029 A 
ATOM     58  C   UNL     1       8.120  16.057   2.841  1.00  0.00     0.049 A 
ATOM     59  H   UNL     1       6.441  14.941   2.215  1.00  0.00     0.167 HD
ATOM     60  C   UNL     1       8.927  14.785   0.872  1.00  0.00     0.074 A 
ATOM     61  C   UNL     1       9.938  14.414  -0.097  1.00  0.00     0.031 C 
ATOM     62  C   UNL     1       9.119  15.680   1.873  1.00  0.00     0.037 A 
BRANCH  49  63
ATOM     63  C   UNL     1       4.089  16.654   5.338  1.00  0.00     0.057 A 
ATOM     64  C   UNL     1       3.683  16.004   6.511  1.00  0.00     0.134 A 
ATOM     65  C   UNL     1       3.860  18.032   5.250  1.00  0.00     0.134 A 
ATOM     66  F   UNL     1       3.857  14.681   6.652  1.00  0.00    -0.206 F 
ATOM     67  C   UNL     1       3.037  16.693   7.541  1.00  0.00     0.040 A 
ATOM     68  C   UNL     1       3.241  18.736   6.285  1.00  0.00     0.040 A 
ATOM     69  F   UNL     1       4.227  18.717   4.157  1.00  0.00    -0.206 F 
ATOM     70  C   UNL     1       2.818  18.064   7.429  1.00  0.00     0.006 A 
ENDBRANCH  49  63
BRANCH  50  71
ATOM     71  C   UNL     1       7.832  11.560  -2.368  1.00  0.00     0.057 A 
ATOM     72  C   UNL     1       8.801  10.572  -2.159  1.00  0.00     0.134 A 
ATOM     73  C   UNL     1       7.430  11.801  -3.687  1.00  0.00     0.134 A 
ATOM     74  F   UNL     1       9.246  10.316  -0.920  1.00  0.00    -0.206 F 
ATOM     75  C   UNL     1       9.354   9.854  -3.220  1.00  0.00     0.040 A 
ATOM     76  C   UNL     1       7.959  11.076  -4.756  1.00  0.00     0.040 A 
ATOM     77  F   UNL     1       6.510  12.739  -3.954  1.00  0.00    -0.206 F 
ATOM     78  C   UNL     1       8.927  10.101  -4.524  1.00  0.00     0.006 A 
ENDBRANCH  50  71
BRANCH  62  79
ATOM     79  C   UNL     1      10.484  16.295   1.998  1.00  0.00     0.057 A 
ATOM     80  C   UNL     1      10.950  17.257   1.093  1.00  0.00     0.134 A 
ATOM     81  C   UNL     1      11.325  15.950   3.064  1.00  0.00     0.134 A 
ATOM     82  F   UNL     1      10.199  17.624   0.043  1.00  0.00    -0.206 F 
ATOM     83  C   UNL     1      12.212  17.839   1.232  1.00  0.00     0.040 A 
ATOM     84  C   UNL     1      12.578  16.544   3.228  1.00  0.00     0.040 A 
ATOM     85  F   UNL     1      10.937  15.042   3.972  1.00  0.00    -0.206 F 
ATOM     86  C   UNL     1      13.027  17.488   2.307  1.00  0.00     0.006 A 
ENDBRANCH  62  79
ENDBRANCH  36  37
ENDBRANCH  29  31
ENDBRANCH  28  29
ENDBRANCH  27  28
ENDBRANCH  26  27
ENDBRANCH  25  26
ENDBRANCH  24  25
ENDBRANCH  23  24
ENDBRANCH   1  23
TORSDOF 22
