REMARK SMILES CCc1ccnc(C(=O)c2[nH]c3ccc(OC(F)(F)F)cc3c2CC(=O)OCCOCCOCCOC(=O)c2ccc(-c3c4nc(c(-c5c(F)cccc5F)c5ccc([nH]5)c(-c5c(F)cccc5F)c5nc(c(-c6c(F)cccc6F)c6ccc3[nH]6)C=C5)C=C4)cc2)c1
REMARK SMILES IDX 31 1 30 2 29 3 28 4 27 5 25 6 26 7 24 8 23 9 10 10 11 11
REMARK SMILES IDX 12 12 22 14 13 15 21 16 14 17 15 18 8 19 9 20 7 21 3 22 4 23
REMARK SMILES IDX 93 24 5 25 6 26 2 27 1 28 16 29 17 30 18 31 19 32 20 33
REMARK SMILES IDX 32 34 33 35 34 36 35 37 36 38 37 39 38 40 39 41 40 42 92 43
REMARK SMILES IDX 41 44 91 45 42 46 43 47 44 48 85 49 45 50 90 51 84 52 86 53
REMARK SMILES IDX 46 54 89 55 83 56 82 57 47 59 73 60 56 61 72 62 57 63 60 64
REMARK SMILES IDX 71 65 87 66 58 67 59 68 70 70 88 71 61 72 48 73 49 74 54 75
REMARK SMILES IDX 50 76 51 77 53 78 55 79 52 80 74 81 75 82 80 83 76 84 77 85
REMARK SMILES IDX 79 86 81 87 78 88 62 89 63 90 68 91 64 92 65 93 67 94 69 95
REMARK SMILES IDX 66 96
REMARK H PARENT 11 13 86 58 60 69
REMARK Flexibility Score: inf
ROOT
ATOM      1  C   UNL     1       0.799   8.066   2.207  1.00  0.00     0.188 C 
ENDROOT
BRANCH   1   2
ATOM      2  O   UNL     1       0.734   9.486   2.168  1.00  0.00    -0.376 OA
BRANCH   2   3
ATOM      3  C   UNL     1      -0.216  10.084   1.298  1.00  0.00     0.202 C 
BRANCH   3   4
ATOM      4  C   UNL     1      -0.009   9.822  -0.195  1.00  0.00     0.261 C 
BRANCH   4   5
ATOM      5  O   UNL     1      -0.210   8.435  -0.558  1.00  0.00    -0.463 OA
BRANCH   5   6
ATOM      6  C   UNL     1       0.716   7.907  -1.397  1.00  0.00     0.310 C 
ATOM      7  O   UNL     1       1.641   8.562  -1.878  1.00  0.00    -0.252 OA
BRANCH   6   8
ATOM      8  C   UNL     1       0.578   6.434  -1.728  1.00  0.00     0.161 C 
BRANCH   8   9
ATOM      9  C   UNL     1      -0.603   5.624  -1.240  1.00  0.00     0.000 A 
ATOM     10  C   UNL     1      -0.628   4.688  -0.198  1.00  0.00     0.093 A 
ATOM     11  N   UNL     1      -1.919   4.219  -0.106  1.00  0.00    -0.352 N 
ATOM     12  C   UNL     1      -2.605   4.518  -1.254  1.00  0.00     0.046 A 
ATOM     13  H   UNL     1      -2.292   3.740   0.669  1.00  0.00     0.167 HD
ATOM     14  C   UNL     1      -1.826   5.423  -1.967  1.00  0.00     0.008 A 
ATOM     15  C   UNL     1      -3.831   4.034  -1.716  1.00  0.00     0.030 A 
ATOM     16  C   UNL     1      -2.296   5.859  -3.221  1.00  0.00     0.057 A 
ATOM     17  C   UNL     1      -4.241   4.432  -2.994  1.00  0.00     0.049 A 
ATOM     18  C   UNL     1      -3.477   5.317  -3.752  1.00  0.00     0.130 A 
BRANCH  10  19
ATOM     19  C   UNL     1       0.462   4.256   0.658  1.00  0.00     0.227 C 
ATOM     20  O   UNL     1       1.518   4.879   0.739  1.00  0.00    -0.285 OA
BRANCH  19  21
ATOM     21  C   UNL     1       0.342   2.978   1.423  1.00  0.00     0.113 A 
ATOM     22  C   UNL     1       0.473   0.585   1.487  1.00  0.00    -0.044 A 
ATOM     23  C   UNL     1       0.670   0.688   2.869  1.00  0.00     0.024 A 
ATOM     24  C   UNL     1       0.283   1.764   0.752  1.00  0.00     0.036 A 
ATOM     25  C   UNL     1       0.642   1.940   3.457  1.00  0.00     0.112 A 
ATOM     26  N   UNL     1       0.466   3.083   2.765  1.00  0.00    -0.253 NA
BRANCH  22  27
ATOM     27  C   UNL     1       0.466  -0.776   0.836  1.00  0.00     0.032 C 
ATOM     28  C   UNL     1       1.246  -0.843  -0.471  1.00  0.00     0.009 C 
ENDBRANCH  22  27
ENDBRANCH  19  21
ENDBRANCH  10  19
BRANCH  18  29
ATOM     29  O   UNL     1      -3.750   5.726  -5.029  1.00  0.00    -0.406 OA
BRANCH  29  30
ATOM     30  C   UNL     1      -4.715   4.985  -5.756  1.00  0.00     0.573 C 
ATOM     31  F   UNL     1      -4.438   3.663  -5.749  1.00  0.00    -0.132 F 
ATOM     32  F   UNL     1      -5.952   5.188  -5.256  1.00  0.00    -0.132 F 
ATOM     33  F   UNL     1      -4.706   5.406  -7.040  1.00  0.00    -0.132 F 
ENDBRANCH  29  30
ENDBRANCH  18  29
ENDBRANCH   8   9
ENDBRANCH   6   8
ENDBRANCH   5   6
ENDBRANCH   4   5
ENDBRANCH   3   4
ENDBRANCH   2   3
ENDBRANCH   1   2
BRANCH   1  34
ATOM     34  C   UNL     1      -0.515   7.257   2.204  1.00  0.00     0.188 C 
BRANCH  34  35
ATOM     35  O   UNL     1      -1.685   7.824   2.779  1.00  0.00    -0.376 OA
BRANCH  35  36
ATOM     36  C   UNL     1      -1.581   8.314   4.109  1.00  0.00     0.202 C 
BRANCH  36  37
ATOM     37  C   UNL     1      -1.208   7.251   5.138  1.00  0.00     0.261 C 
BRANCH  37  38
ATOM     38  O   UNL     1       0.170   6.863   4.987  1.00  0.00    -0.460 OA
BRANCH  38  39
ATOM     39  C   UNL     1       0.448   5.624   5.451  1.00  0.00     0.338 C 
ATOM     40  O   UNL     1      -0.314   4.879   6.045  1.00  0.00    -0.246 OA
BRANCH  39  41
ATOM     41  C   UNL     1       1.843   5.242   5.157  1.00  0.00     0.060 A 
ATOM     42  C   UNL     1       2.278   5.109   3.842  1.00  0.00     0.016 A 
ATOM     43  C   UNL     1       2.635   4.758   6.194  1.00  0.00     0.016 A 
ATOM     44  C   UNL     1       3.409   4.345   3.547  1.00  0.00     0.010 A 
ATOM     45  C   UNL     1       3.827   4.085   5.903  1.00  0.00     0.010 A 
ATOM     46  C   UNL     1       4.189   3.803   4.573  1.00  0.00    -0.014 A 
BRANCH  46  47
ATOM     47  C   UNL     1       5.320   2.876   4.281  1.00  0.00     0.031 A 
ATOM     48  C   UNL     1       5.330   1.486   4.869  1.00  0.00     0.074 A 
ATOM     49  C   UNL     1       6.343   3.257   3.492  1.00  0.00     0.049 A 
ATOM     50  N   UNL     1       6.303   0.611   4.926  1.00  0.00    -0.248 NA
ATOM     51  C   UNL     1       4.073   1.018   5.474  1.00  0.00     0.031 C 
ATOM     52  C   UNL     1       6.434   4.526   2.772  1.00  0.00     0.029 A 
ATOM     53  N   UNL     1       7.519   2.613   3.183  1.00  0.00    -0.354 N 
ATOM     54  C   UNL     1       5.792  -0.486   5.610  1.00  0.00     0.074 A 
ATOM     55  C   UNL     1       4.421  -0.170   5.948  1.00  0.00     0.031 C 
ATOM     56  C   UNL     1       7.600   4.574   2.113  1.00  0.00     0.029 A 
ATOM     57  C   UNL     1       8.381   3.389   2.448  1.00  0.00     0.049 A 
ATOM     58  H   UNL     1       7.721   1.690   3.461  1.00  0.00     0.167 HD
ATOM     59  C   UNL     1       6.414  -1.643   5.943  1.00  0.00     0.037 A 
ATOM     60  C   UNL     1       9.682   3.216   2.144  1.00  0.00     0.037 A 
ATOM     61  C   UNL     1       7.781  -1.954   5.608  1.00  0.00     0.049 A 
ATOM     62  C   UNL     1      10.395   1.987   2.624  1.00  0.00     0.074 A 
ATOM     63  C   UNL     1       8.507  -3.094   5.906  1.00  0.00     0.029 A 
ATOM     64  N   UNL     1       8.633  -1.110   4.911  1.00  0.00    -0.354 N 
ATOM     65  N   UNL     1       9.923   0.975   3.311  1.00  0.00    -0.248 NA
ATOM     66  C   UNL     1      11.825   1.884   2.305  1.00  0.00     0.031 C 
ATOM     67  C   UNL     1       9.817  -2.911   5.449  1.00  0.00     0.029 A 
ATOM     68  C   UNL     1       9.891  -1.683   4.810  1.00  0.00     0.049 A 
ATOM     69  H   UNL     1       8.382  -0.232   4.543  1.00  0.00     0.167 HD
ATOM     70  C   UNL     1      10.993   0.111   3.501  1.00  0.00     0.074 A 
ATOM     71  C   UNL     1      12.135   0.711   2.841  1.00  0.00     0.031 C 
ATOM     72  C   UNL     1      11.025  -1.071   4.163  1.00  0.00     0.037 A 
BRANCH  59  73
ATOM     73  C   UNL     1       5.644  -2.625   6.779  1.00  0.00     0.057 A 
ATOM     74  C   UNL     1       4.585  -3.386   6.268  1.00  0.00     0.134 A 
ATOM     75  C   UNL     1       5.979  -2.813   8.128  1.00  0.00     0.134 A 
ATOM     76  F   UNL     1       4.199  -3.243   4.991  1.00  0.00    -0.206 F 
ATOM     77  C   UNL     1       3.870  -4.276   7.074  1.00  0.00     0.040 A 
ATOM     78  C   UNL     1       5.288  -3.716   8.936  1.00  0.00     0.040 A 
ATOM     79  F   UNL     1       6.984  -2.119   8.682  1.00  0.00    -0.206 F 
ATOM     80  C   UNL     1       4.224  -4.446   8.411  1.00  0.00     0.006 A 
ENDBRANCH  59  73
BRANCH  60  81
ATOM     81  C   UNL     1      10.401   4.293   1.419  1.00  0.00     0.057 A 
ATOM     82  C   UNL     1      10.826   4.129   0.098  1.00  0.00     0.134 A 
ATOM     83  C   UNL     1      10.634   5.538   2.022  1.00  0.00     0.134 A 
ATOM     84  F   UNL     1      10.658   2.953  -0.524  1.00  0.00    -0.206 F 
ATOM     85  C   UNL     1      11.445   5.166  -0.603  1.00  0.00     0.040 A 
ATOM     86  C   UNL     1      11.223   6.592   1.325  1.00  0.00     0.040 A 
ATOM     87  F   UNL     1      10.252   5.758   3.289  1.00  0.00    -0.206 F 
ATOM     88  C   UNL     1      11.632   6.406   0.007  1.00  0.00     0.006 A 
ENDBRANCH  60  81
BRANCH  72  89
ATOM     89  C   UNL     1      12.333  -1.805   4.190  1.00  0.00     0.057 A 
ATOM     90  C   UNL     1      13.410  -1.368   4.971  1.00  0.00     0.134 A 
ATOM     91  C   UNL     1      12.507  -2.980   3.446  1.00  0.00     0.134 A 
ATOM     92  F   UNL     1      13.313  -0.243   5.695  1.00  0.00    -0.206 F 
ATOM     93  C   UNL     1      14.622  -2.061   4.994  1.00  0.00     0.040 A 
ATOM     94  C   UNL     1      13.705  -3.695   3.481  1.00  0.00     0.040 A 
ATOM     95  F   UNL     1      11.512  -3.457   2.683  1.00  0.00    -0.206 F 
ATOM     96  C   UNL     1      14.769  -3.232   4.252  1.00  0.00     0.006 A 
ENDBRANCH  72  89
ENDBRANCH  46  47
ENDBRANCH  39  41
ENDBRANCH  38  39
ENDBRANCH  37  38
ENDBRANCH  36  37
ENDBRANCH  35  36
ENDBRANCH  34  35
ENDBRANCH   1  34
TORSDOF 23
