REMARK SMILES COc1ccc([C@H]2CC(c3ccc(S(C)(=O)=O)cc3)=NN2c2ccc(C(=O)OCCOCCOCCOC(=O)c3ccc(-c4c5nc(c(-c6c(F)cccc6F)c6ccc([nH]6)c(-c6c(F)cccc6F)c6nc(c(-c7c(F)cccc7F)c7ccc4[nH]7)C=C6)C=C5)cc3)cc2)cc1
REMARK SMILES IDX 32 1 31 2 30 3 29 4 28 5 26 6 27 7 25 8 22 9 23 10 95 11
REMARK SMILES IDX 24 12 94 13 21 14 7 15 8 16 9 17 20 18 6 19 3 20 4 21 97 22
REMARK SMILES IDX 5 23 96 24 2 25 1 26 10 27 11 28 19 29 12 30 18 31 13 32
REMARK SMILES IDX 14 33 15 34 16 35 17 36 33 37 34 38 35 39 36 40 37 41 38 42
REMARK SMILES IDX 39 43 40 44 41 45 93 46 42 47 92 48 43 49 44 50 45 51 86 52
REMARK SMILES IDX 46 53 91 54 85 55 87 56 47 57 90 58 84 59 83 60 48 62 74 63
REMARK SMILES IDX 57 64 73 65 58 66 61 67 72 68 88 69 59 70 60 71 71 73 89 74
REMARK SMILES IDX 62 75 49 76 50 77 55 78 51 79 52 80 54 81 56 82 53 83 75 84
REMARK SMILES IDX 76 85 81 86 77 87 78 88 80 89 82 90 79 91 63 92 64 93 69 94
REMARK SMILES IDX 65 95 66 96 68 97 70 98 67 99
REMARK H PARENT 87 61 61 72
REMARK Flexibility Score: inf
ROOT
ATOM      1  C   UNL     1       4.894   1.958  10.049  1.00  0.00     0.188 C 
ENDROOT
BRANCH   1   2
ATOM      2  O   UNL     1       4.559   3.232  10.559  1.00  0.00    -0.376 OA
BRANCH   2   3
ATOM      3  C   UNL     1       3.202   3.608  10.726  1.00  0.00     0.202 C 
BRANCH   3   4
ATOM      4  C   UNL     1       2.082   3.198   9.756  1.00  0.00     0.261 C 
BRANCH   4   5
ATOM      5  O   UNL     1       2.139   1.861   9.245  1.00  0.00    -0.460 OA
BRANCH   5   6
ATOM      6  C   UNL     1       2.431   1.764   7.924  1.00  0.00     0.338 C 
ATOM      7  O   UNL     1       2.619   2.687   7.148  1.00  0.00    -0.246 OA
BRANCH   6   8
ATOM      8  C   UNL     1       2.684   0.354   7.559  1.00  0.00     0.060 A 
ATOM      9  C   UNL     1       3.158  -2.262   6.646  1.00  0.00     0.060 A 
ATOM     10  C   UNL     1       4.073  -1.239   6.373  1.00  0.00     0.029 A 
ATOM     11  C   UNL     1       2.055  -1.970   7.466  1.00  0.00     0.029 A 
ATOM     12  C   UNL     1       3.822   0.068   6.795  1.00  0.00     0.018 A 
ATOM     13  C   UNL     1       1.823  -0.674   7.940  1.00  0.00     0.018 A 
BRANCH   9  14
ATOM     14  N   UNL     1       3.275  -3.502   6.025  1.00  0.00    -0.257 N 
ATOM     15  C   UNL     1       2.231  -4.024   5.138  1.00  0.00     0.144 C 
ATOM     16  C   UNL     1       2.881  -5.277   4.551  1.00  0.00     0.091 C 
ATOM     17  C   UNL     1       4.230  -5.217   5.214  1.00  0.00     0.071 C 
ATOM     18  N   UNL     1       4.440  -4.206   6.001  1.00  0.00    -0.176 NA
BRANCH  15  19
ATOM     19  C   UNL     1       1.802  -3.021   4.074  1.00  0.00    -0.023 A 
ATOM     20  C   UNL     1       0.959  -1.140   2.139  1.00  0.00     0.118 A 
ATOM     21  C   UNL     1       0.076  -1.595   3.119  1.00  0.00     0.047 A 
ATOM     22  C   UNL     1       2.274  -1.600   2.142  1.00  0.00     0.047 A 
ATOM     23  C   UNL     1       0.488  -2.531   4.072  1.00  0.00     0.010 A 
ATOM     24  C   UNL     1       2.694  -2.527   3.106  1.00  0.00     0.010 A 
BRANCH  20  25
ATOM     25  O   UNL     1       0.435  -0.219   1.274  1.00  0.00    -0.497 OA
ATOM     26  C   UNL     1       1.077  -0.108   0.010  1.00  0.00     0.278 C 
ENDBRANCH  20  25
ENDBRANCH  15  19
BRANCH  17  27
ATOM     27  C   UNL     1       5.195  -6.304   4.998  1.00  0.00    -0.002 A 
ATOM     28  C   UNL     1       5.634  -7.046   6.099  1.00  0.00     0.011 A 
ATOM     29  C   UNL     1       5.607  -6.635   3.704  1.00  0.00     0.011 A 
ATOM     30  C   UNL     1       6.480  -8.141   5.905  1.00  0.00     0.021 A 
ATOM     31  C   UNL     1       6.474  -7.713   3.510  1.00  0.00     0.021 A 
ATOM     32  C   UNL     1       6.905  -8.461   4.611  1.00  0.00     0.067 A 
BRANCH  32  33
ATOM     33  S   UNL     1       7.965  -9.870   4.366  1.00  0.00     0.175 S 
ATOM     34  C   UNL     1       9.446  -9.470   5.257  1.00  0.00     0.163 C 
ATOM     35  O   UNL     1       7.323 -10.993   5.022  1.00  0.00    -0.224 OA
ATOM     36  O   UNL     1       8.303  -9.924   2.956  1.00  0.00    -0.224 OA
ENDBRANCH  32  33
ENDBRANCH  17  27
ENDBRANCH   9  14
ENDBRANCH   6   8
ENDBRANCH   5   6
ENDBRANCH   4   5
ENDBRANCH   3   4
ENDBRANCH   2   3
ENDBRANCH   1   2
BRANCH   1  37
ATOM     37  C   UNL     1       4.397   0.678  10.752  1.00  0.00     0.188 C 
BRANCH  37  38
ATOM     38  O   UNL     1       3.490   0.807  11.820  1.00  0.00    -0.376 OA
BRANCH  38  39
ATOM     39  C   UNL     1       3.924   1.241  13.097  1.00  0.00     0.202 C 
BRANCH  39  40
ATOM     40  C   UNL     1       5.386   1.388  13.561  1.00  0.00     0.261 C 
BRANCH  40  41
ATOM     41  O   UNL     1       6.405   1.469  12.565  1.00  0.00    -0.460 OA
BRANCH  41  42
ATOM     42  C   UNL     1       7.186   0.366  12.443  1.00  0.00     0.338 C 
ATOM     43  O   UNL     1       7.098  -0.680  13.057  1.00  0.00    -0.246 OA
BRANCH  42  44
ATOM     44  C   UNL     1       8.103   0.563  11.307  1.00  0.00     0.060 A 
ATOM     45  C   UNL     1       7.929  -0.216  10.156  1.00  0.00     0.016 A 
ATOM     46  C   UNL     1       9.149   1.481  11.397  1.00  0.00     0.016 A 
ATOM     47  C   UNL     1       8.820  -0.090   9.091  1.00  0.00     0.010 A 
ATOM     48  C   UNL     1      10.053   1.590  10.338  1.00  0.00     0.010 A 
ATOM     49  C   UNL     1       9.908   0.786   9.192  1.00  0.00    -0.014 A 
BRANCH  49  50
ATOM     50  C   UNL     1      10.992   0.741   8.182  1.00  0.00     0.031 A 
ATOM     51  C   UNL     1      12.237  -0.039   8.496  1.00  0.00     0.074 A 
ATOM     52  C   UNL     1      10.872   1.374   7.004  1.00  0.00     0.049 A 
ATOM     53  N   UNL     1      13.333  -0.177   7.796  1.00  0.00    -0.248 NA
ATOM     54  C   UNL     1      12.245  -0.759   9.780  1.00  0.00     0.031 C 
ATOM     55  C   UNL     1       9.698   2.122   6.560  1.00  0.00     0.029 A 
ATOM     56  N   UNL     1      11.762   1.492   5.966  1.00  0.00    -0.354 N 
ATOM     57  C   UNL     1      14.163  -0.993   8.554  1.00  0.00     0.074 A 
ATOM     58  C   UNL     1      13.459  -1.286   9.784  1.00  0.00     0.031 C 
ATOM     59  C   UNL     1       9.942   2.626   5.338  1.00  0.00     0.029 A 
ATOM     60  C   UNL     1      11.301   2.267   4.932  1.00  0.00     0.049 A 
ATOM     61  H   UNL     1      12.648   1.061   5.964  1.00  0.00     0.167 HD
ATOM     62  C   UNL     1      15.396  -1.465   8.250  1.00  0.00     0.037 A 
ATOM     63  C   UNL     1      11.915   2.656   3.798  1.00  0.00     0.037 A 
ATOM     64  C   UNL     1      16.103  -1.154   7.035  1.00  0.00     0.049 A 
ATOM     65  C   UNL     1      13.328   2.209   3.529  1.00  0.00     0.074 A 
ATOM     66  C   UNL     1      17.354  -1.584   6.629  1.00  0.00     0.029 A 
ATOM     67  N   UNL     1      15.625  -0.319   6.035  1.00  0.00    -0.354 N 
ATOM     68  N   UNL     1      14.099   1.420   4.237  1.00  0.00    -0.248 NA
ATOM     69  C   UNL     1      13.957   2.712   2.298  1.00  0.00     0.031 C 
ATOM     70  C   UNL     1      17.657  -0.963   5.413  1.00  0.00     0.029 A 
ATOM     71  C   UNL     1      16.569  -0.196   5.028  1.00  0.00     0.049 A 
ATOM     72  H   UNL     1      14.744   0.122   6.041  1.00  0.00     0.167 HD
ATOM     73  C   UNL     1      15.287   1.302   3.524  1.00  0.00     0.074 A 
ATOM     74  C   UNL     1      15.131   2.097   2.323  1.00  0.00     0.031 C 
ATOM     75  C   UNL     1      16.402   0.595   3.833  1.00  0.00     0.037 A 
BRANCH  62  76
ATOM     76  C   UNL     1      16.065  -2.334   9.276  1.00  0.00     0.057 A 
ATOM     77  C   UNL     1      15.594  -3.619   9.584  1.00  0.00     0.134 A 
ATOM     78  C   UNL     1      17.187  -1.876   9.978  1.00  0.00     0.134 A 
ATOM     79  F   UNL     1      14.515  -4.115   8.959  1.00  0.00    -0.206 F 
ATOM     80  C   UNL     1      16.187  -4.396  10.581  1.00  0.00     0.040 A 
ATOM     81  C   UNL     1      17.808  -2.657  10.954  1.00  0.00     0.040 A 
ATOM     82  F   UNL     1      17.695  -0.659   9.731  1.00  0.00    -0.206 F 
ATOM     83  C   UNL     1      17.300  -3.916  11.267  1.00  0.00     0.006 A 
ENDBRANCH  62  76
BRANCH  63  84
ATOM     84  C   UNL     1      11.195   3.512   2.822  1.00  0.00     0.057 A 
ATOM     85  C   UNL     1      10.811   3.012   1.573  1.00  0.00     0.134 A 
ATOM     86  C   UNL     1      10.881   4.847   3.107  1.00  0.00     0.134 A 
ATOM     87  F   UNL     1      11.106   1.749   1.232  1.00  0.00    -0.206 F 
ATOM     88  C   UNL     1      10.149   3.810   0.638  1.00  0.00     0.040 A 
ATOM     89  C   UNL     1      10.197   5.648   2.192  1.00  0.00     0.040 A 
ATOM     90  F   UNL     1      11.226   5.387   4.285  1.00  0.00    -0.206 F 
ATOM     91  C   UNL     1       9.834   5.131   0.950  1.00  0.00     0.006 A 
ENDBRANCH  63  84
BRANCH  75  92
ATOM     92  C   UNL     1      17.528   0.607   2.837  1.00  0.00     0.057 A 
ATOM     93  C   UNL     1      18.317   1.744   2.617  1.00  0.00     0.134 A 
ATOM     94  C   UNL     1      17.853  -0.551   2.117  1.00  0.00     0.134 A 
ATOM     95  F   UNL     1      18.055   2.889   3.263  1.00  0.00    -0.206 F 
ATOM     96  C   UNL     1      19.370   1.735   1.699  1.00  0.00     0.040 A 
ATOM     97  C   UNL     1      18.922  -0.580   1.220  1.00  0.00     0.040 A 
ATOM     98  F   UNL     1      17.146  -1.679   2.285  1.00  0.00    -0.206 F 
ATOM     99  C   UNL     1      19.680   0.568   1.003  1.00  0.00     0.006 A 
ENDBRANCH  75  92
ENDBRANCH  49  50
ENDBRANCH  42  44
ENDBRANCH  41  42
ENDBRANCH  40  41
ENDBRANCH  39  40
ENDBRANCH  38  39
ENDBRANCH  37  38
ENDBRANCH   1  37
TORSDOF 22
