REMARK SMILES CC[C@@H](C(=O)Nc1ccc(OC(C)=O)cc1C(=O)OCCOCCOCCOC(=O)c1ccc(-c2c3nc(c(-c4c(F)cccc4F)c4ccc([nH]4)c(-c4c(F)cccc4F)c4nc(c(-c5c(F)cccc5F)c5ccc2[nH]5)C=C4)C=C3)cc1)c1ccccc1
REMARK SMILES IDX 23 1 22 2 21 3 20 4 19 5 17 6 18 7 16 8 7 9 8 10 9 11 15 12
REMARK SMILES IDX 10 13 6 14 4 15 5 16 3 18 2 19 1 20 85 21 86 22 90 23 87 24
REMARK SMILES IDX 89 25 88 26 11 27 12 28 13 29 14 30 24 31 25 32 26 33 27 34
REMARK SMILES IDX 28 35 29 36 30 37 31 38 32 39 84 40 33 41 83 42 34 43 35 44
REMARK SMILES IDX 36 45 77 46 37 47 82 48 76 49 78 50 38 51 81 52 75 53 74 54
REMARK SMILES IDX 39 56 65 57 48 58 64 59 49 60 52 61 63 62 79 63 50 64 51 65
REMARK SMILES IDX 62 67 80 68 53 69 40 70 41 71 46 72 42 73 43 74 45 75 47 76
REMARK SMILES IDX 44 77 66 78 67 79 72 80 68 81 69 82 71 83 73 84 70 85 54 86
REMARK SMILES IDX 55 87 60 88 56 89 57 90 59 91 61 92 58 93
REMARK H PARENT 6 17 78 55 52 66
REMARK Flexibility Score: inf
ROOT
ATOM      1  C   UNL     1      -2.295  -1.080   0.356  1.00  0.00     0.188 C 
ENDROOT
BRANCH   1   2
ATOM      2  O   UNL     1      -3.046  -0.129   1.085  1.00  0.00    -0.376 OA
BRANCH   2   3
ATOM      3  C   UNL     1      -2.310   0.782   1.875  1.00  0.00     0.202 C 
BRANCH   3   4
ATOM      4  C   UNL     1      -1.409   1.776   1.140  1.00  0.00     0.261 C 
BRANCH   4   5
ATOM      5  O   UNL     1      -0.548   1.286   0.098  1.00  0.00    -0.460 OA
BRANCH   5   6
ATOM      6  C   UNL     1       0.412   0.405   0.413  1.00  0.00     0.340 C 
ATOM      7  O   UNL     1       0.513  -0.235   1.454  1.00  0.00    -0.246 OA
BRANCH   6   8
ATOM      8  C   UNL     1       1.338   0.199  -0.713  1.00  0.00     0.087 A 
ATOM      9  C   UNL     1       2.015   1.230  -1.384  1.00  0.00     0.056 A 
ATOM     10  C   UNL     1       2.922   0.894  -2.403  1.00  0.00     0.031 A 
ATOM     11  C   UNL     1       3.301  -0.436  -2.600  1.00  0.00     0.049 A 
ATOM     12  C   UNL     1       1.640  -1.140  -0.998  1.00  0.00     0.065 A 
ATOM     13  C   UNL     1       2.697  -1.437  -1.844  1.00  0.00     0.131 A 
BRANCH   9  14
ATOM     14  N   UNL     1       1.893   2.603  -1.121  1.00  0.00    -0.325 N 
ATOM     15  C   UNL     1       1.406   3.239  -0.016  1.00  0.00     0.231 C 
ATOM     16  O   UNL     1       0.510   4.062  -0.244  1.00  0.00    -0.274 OA
ATOM     17  H   UNL     1       2.207   3.196  -1.841  1.00  0.00     0.169 HD
BRANCH  15  18
ATOM     18  C   UNL     1       2.189   3.206   1.357  1.00  0.00     0.108 C 
BRANCH  18  19
ATOM     19  C   UNL     1       2.608   1.912   2.097  1.00  0.00     0.015 C 
ATOM     20  C   UNL     1       3.660   0.976   1.533  1.00  0.00     0.005 C 
ENDBRANCH  18  19
BRANCH  18  21
ATOM     21  C   UNL     1       1.452   4.131   2.371  1.00  0.00    -0.036 A 
ATOM     22  C   UNL     1       1.359   5.506   2.097  1.00  0.00     0.004 A 
ATOM     23  C   UNL     1       0.828   3.658   3.543  1.00  0.00     0.004 A 
ATOM     24  C   UNL     1       0.664   6.365   2.950  1.00  0.00     0.000 A 
ATOM     25  C   UNL     1       0.153   4.522   4.408  1.00  0.00     0.000 A 
ATOM     26  C   UNL     1       0.069   5.875   4.109  1.00  0.00     0.000 A 
ENDBRANCH  18  21
ENDBRANCH  15  18
ENDBRANCH   9  14
BRANCH  13  27
ATOM     27  O   UNL     1       3.216  -2.742  -1.967  1.00  0.00    -0.427 OA
BRANCH  27  28
ATOM     28  C   UNL     1       3.777  -3.465  -0.906  1.00  0.00     0.308 C 
ATOM     29  C   UNL     1       3.130  -3.314   0.442  1.00  0.00     0.139 C 
ATOM     30  O   UNL     1       4.696  -4.256  -1.098  1.00  0.00    -0.252 OA
ENDBRANCH  27  28
ENDBRANCH  13  27
ENDBRANCH   6   8
ENDBRANCH   5   6
ENDBRANCH   4   5
ENDBRANCH   3   4
ENDBRANCH   2   3
ENDBRANCH   1   2
BRANCH   1  31
ATOM     31  C   UNL     1      -2.188  -0.763  -1.153  1.00  0.00     0.188 C 
BRANCH  31  32
ATOM     32  O   UNL     1      -3.070   0.176  -1.743  1.00  0.00    -0.376 OA
BRANCH  32  33
ATOM     33  C   UNL     1      -4.423   0.178  -1.316  1.00  0.00     0.202 C 
BRANCH  33  34
ATOM     34  C   UNL     1      -5.222  -1.141  -1.367  1.00  0.00     0.261 C 
BRANCH  34  35
ATOM     35  O   UNL     1      -4.577  -2.316  -0.820  1.00  0.00    -0.460 OA
BRANCH  35  36
ATOM     36  C   UNL     1      -4.102  -3.228  -1.710  1.00  0.00     0.338 C 
ATOM     37  O   UNL     1      -4.250  -3.207  -2.920  1.00  0.00    -0.246 OA
BRANCH  36  38
ATOM     38  C   UNL     1      -3.153  -4.172  -1.049  1.00  0.00     0.060 A 
ATOM     39  C   UNL     1      -1.828  -4.231  -1.520  1.00  0.00     0.016 A 
ATOM     40  C   UNL     1      -3.554  -5.028  -0.024  1.00  0.00     0.016 A 
ATOM     41  C   UNL     1      -0.917  -5.155  -0.997  1.00  0.00     0.010 A 
ATOM     42  C   UNL     1      -2.653  -5.990   0.467  1.00  0.00     0.010 A 
ATOM     43  C   UNL     1      -1.343  -6.085  -0.043  1.00  0.00    -0.014 A 
BRANCH  43  44
ATOM     44  C   UNL     1      -0.519  -7.299   0.211  1.00  0.00     0.031 A 
ATOM     45  C   UNL     1      -0.823  -8.537  -0.597  1.00  0.00     0.074 A 
ATOM     46  C   UNL     1       0.488  -7.321   1.103  1.00  0.00     0.049 A 
ATOM     47  N   UNL     1      -0.322  -9.742  -0.499  1.00  0.00    -0.248 NA
ATOM     48  C   UNL     1      -1.837  -8.392  -1.655  1.00  0.00     0.031 C 
ATOM     49  C   UNL     1       0.930  -6.188   1.911  1.00  0.00     0.029 A 
ATOM     50  N   UNL     1       1.317  -8.350   1.486  1.00  0.00    -0.354 N 
ATOM     51  C   UNL     1      -0.978 -10.502  -1.461  1.00  0.00     0.074 A 
ATOM     52  C   UNL     1      -1.917  -9.626  -2.127  1.00  0.00     0.031 C 
ATOM     53  C   UNL     1       1.942  -6.586   2.705  1.00  0.00     0.029 A 
ATOM     54  C   UNL     1       2.187  -8.014   2.496  1.00  0.00     0.049 A 
ATOM     55  H   UNL     1       1.290  -9.244   1.075  1.00  0.00     0.167 HD
ATOM     56  C   UNL     1      -0.820 -11.812  -1.760  1.00  0.00     0.037 A 
ATOM     57  C   UNL     1       3.051  -8.778   3.196  1.00  0.00     0.037 A 
ATOM     58  C   UNL     1       0.117 -12.687  -1.108  1.00  0.00     0.049 A 
ATOM     59  C   UNL     1       3.163 -10.254   2.887  1.00  0.00     0.074 A 
ATOM     60  C   UNL     1       0.360 -14.027  -1.356  1.00  0.00     0.029 A 
ATOM     61  N   UNL     1       0.962 -12.311  -0.076  1.00  0.00    -0.354 N 
ATOM     62  N   UNL     1       2.541 -10.960   1.974  1.00  0.00    -0.248 NA
ATOM     63  C   UNL     1       4.091 -11.040   3.716  1.00  0.00     0.031 C 
ATOM     64  C   UNL     1       1.308 -14.477  -0.434  1.00  0.00     0.029 A 
ATOM     65  C   UNL     1       1.704 -13.402   0.345  1.00  0.00     0.049 A 
ATOM     66  H   UNL     1       1.025 -11.405   0.302  1.00  0.00     0.167 HD
ATOM     67  C   UNL     1       3.024 -12.260   2.099  1.00  0.00     0.074 A 
ATOM     68  C   UNL     1       4.003 -12.242   3.164  1.00  0.00     0.031 C 
ATOM     69  C   UNL     1       2.685 -13.370   1.399  1.00  0.00     0.037 A 
BRANCH  56  70
ATOM     70  C   UNL     1      -1.712 -12.400  -2.814  1.00  0.00     0.057 A 
ATOM     71  C   UNL     1      -1.552 -12.108  -4.175  1.00  0.00     0.134 A 
ATOM     72  C   UNL     1      -2.713 -13.315  -2.462  1.00  0.00     0.134 A 
ATOM     73  F   UNL     1      -0.624 -11.227  -4.577  1.00  0.00    -0.206 F 
ATOM     74  C   UNL     1      -2.365 -12.697  -5.146  1.00  0.00     0.040 A 
ATOM     75  C   UNL     1      -3.512 -13.931  -3.426  1.00  0.00     0.040 A 
ATOM     76  F   UNL     1      -2.917 -13.640  -1.177  1.00  0.00    -0.206 F 
ATOM     77  C   UNL     1      -3.341 -13.619  -4.773  1.00  0.00     0.006 A 
ENDBRANCH  56  70
BRANCH  57  78
ATOM     78  C   UNL     1       3.854  -8.192   4.305  1.00  0.00     0.057 A 
ATOM     79  C   UNL     1       5.253  -8.133   4.245  1.00  0.00     0.134 A 
ATOM     80  C   UNL     1       3.246  -7.739   5.483  1.00  0.00     0.134 A 
ATOM     81  F   UNL     1       5.901  -8.585   3.161  1.00  0.00    -0.206 F 
ATOM     82  C   UNL     1       6.016  -7.672   5.320  1.00  0.00     0.040 A 
ATOM     83  C   UNL     1       3.995  -7.244   6.553  1.00  0.00     0.040 A 
ATOM     84  F   UNL     1       1.912  -7.773   5.613  1.00  0.00    -0.206 F 
ATOM     85  C   UNL     1       5.385  -7.221   6.477  1.00  0.00     0.006 A 
ENDBRANCH  57  78
BRANCH  69  86
ATOM     86  C   UNL     1       3.405 -14.649   1.726  1.00  0.00     0.057 A 
ATOM     87  C   UNL     1       3.182 -15.343   2.922  1.00  0.00     0.134 A 
ATOM     88  C   UNL     1       4.301 -15.215   0.810  1.00  0.00     0.134 A 
ATOM     89  F   UNL     1       2.343 -14.853   3.847  1.00  0.00    -0.206 F 
ATOM     90  C   UNL     1       3.845 -16.539   3.206  1.00  0.00     0.040 A 
ATOM     91  C   UNL     1       4.947 -16.425   1.069  1.00  0.00     0.040 A 
ATOM     92  F   UNL     1       4.551 -14.611  -0.362  1.00  0.00    -0.206 F 
ATOM     93  C   UNL     1       4.725 -17.087   2.275  1.00  0.00     0.006 A 
ENDBRANCH  69  86
ENDBRANCH  43  44
ENDBRANCH  36  38
ENDBRANCH  35  36
ENDBRANCH  34  35
ENDBRANCH  33  34
ENDBRANCH  32  33
ENDBRANCH  31  32
ENDBRANCH   1  31
TORSDOF 23
