REMARK SMILES CC(C)C[C@H](C(=O)OCCOCCOCCOC(=O)c1ccc(-c2c3nc(c(-c4c(F)cccc4F)c4ccc([nH]4)c(-c4c(F)cccc4F)c4nc(c(-c5c(F)cccc5F)c5ccc2[nH]5)C=C4)C=C3)cc1)N1C(=O)/C(=C2\C(=O)Nc3ccc(Br)cc32)SC1=S
REMARK SMILES IDX 12 1 11 2 10 3 9 4 8 5 6 6 7 7 5 8 4 9 2 10 1 11 3 12 74 13
REMARK SMILES IDX 75 14 90 15 76 16 77 17 89 18 91 19 78 20 79 21 88 22 80 23
REMARK SMILES IDX 81 24 82 25 87 26 83 28 85 29 84 30 86 31 13 32 14 33 15 34
REMARK SMILES IDX 16 35 17 36 18 37 19 38 20 39 21 40 73 41 22 42 72 43 23 44
REMARK SMILES IDX 24 45 25 46 66 47 26 48 71 49 65 50 67 51 27 52 70 53 64 54
REMARK SMILES IDX 63 55 28 57 54 58 37 59 53 60 38 61 41 62 52 63 68 64 39 65
REMARK SMILES IDX 40 66 51 68 69 69 42 70 29 71 30 72 35 73 31 74 32 75 34 76
REMARK SMILES IDX 36 77 33 78 55 79 56 80 61 81 57 82 58 83 60 84 62 85 59 86
REMARK SMILES IDX 43 87 44 88 49 89 45 90 46 91 48 92 50 93 47 94
REMARK H PARENT 81 27 67 56 41 67
REMARK Flexibility Score: inf
ROOT
ATOM      1  C   UNL     1       1.270  -1.136   0.152  1.00  0.00     0.188 C 
ENDROOT
BRANCH   1   2
ATOM      2  O   UNL     1       1.323  -2.525   0.441  1.00  0.00    -0.376 OA
BRANCH   2   3
ATOM      3  C   UNL     1       0.628  -3.446  -0.396  1.00  0.00     0.202 C 
BRANCH   3   4
ATOM      4  C   UNL     1      -0.886  -3.260  -0.556  1.00  0.00     0.261 C 
BRANCH   4   5
ATOM      5  O   UNL     1      -1.268  -2.089  -1.310  1.00  0.00    -0.462 OA
BRANCH   5   6
ATOM      6  C   UNL     1      -1.982  -1.135  -0.650  1.00  0.00     0.329 C 
ATOM      7  O   UNL     1      -2.227  -1.151   0.552  1.00  0.00    -0.250 OA
BRANCH   6   8
ATOM      8  C   UNL     1      -2.496  -0.003  -1.581  1.00  0.00     0.202 C 
BRANCH   8   9
ATOM      9  C   UNL     1      -1.871   0.105  -3.009  1.00  0.00     0.040 C 
BRANCH   9  10
ATOM     10  C   UNL     1      -1.701   1.554  -3.546  1.00  0.00    -0.015 C 
ATOM     11  C   UNL     1      -0.835   2.457  -2.668  1.00  0.00     0.007 C 
ATOM     12  C   UNL     1      -1.077   1.548  -4.947  1.00  0.00     0.007 C 
ENDBRANCH   9  10
ENDBRANCH   8   9
BRANCH   8  13
ATOM     13  N   UNL     1      -3.962  -0.031  -1.698  1.00  0.00    -0.278 N 
ATOM     14  C   UNL     1      -4.558  -1.254  -1.883  1.00  0.00     0.267 C 
ATOM     15  C   UNL     1      -4.789   1.042  -1.914  1.00  0.00     0.149 C 
ATOM     16  O   UNL     1      -4.352  -2.240  -1.196  1.00  0.00    -0.268 OA
ATOM     17  C   UNL     1      -5.651  -1.134  -2.865  1.00  0.00     0.093 C 
ATOM     18  S   UNL     1      -6.191   0.501  -2.855  1.00  0.00    -0.053 SA
ATOM     19  S   UNL     1      -4.572   2.623  -1.439  1.00  0.00    -0.052 S 
ATOM     20  C   UNL     1      -6.090  -2.182  -3.568  1.00  0.00     0.069 C 
ATOM     21  C   UNL     1      -5.492  -3.563  -3.432  1.00  0.00     0.257 C 
ATOM     22  C   UNL     1      -7.254  -2.330  -4.445  1.00  0.00     0.013 A 
ATOM     23  O   UNL     1      -4.350  -3.877  -3.159  1.00  0.00    -0.269 OA
ATOM     24  N   UNL     1      -6.485  -4.417  -3.866  1.00  0.00    -0.321 N 
ATOM     25  C   UNL     1      -7.500  -3.710  -4.499  1.00  0.00     0.049 A 
ATOM     26  C   UNL     1      -8.009  -1.461  -5.209  1.00  0.00     0.026 A 
ATOM     27  H   UNL     1      -6.476  -5.394  -3.743  1.00  0.00     0.170 HD
ATOM     28  C   UNL     1      -8.547  -4.261  -5.202  1.00  0.00     0.028 A 
ATOM     29  C   UNL     1      -9.046  -2.009  -5.973  1.00  0.00     0.018 A 
ATOM     30  C   UNL     1      -9.335  -3.387  -5.949  1.00  0.00     0.018 A 
ATOM     31  Br  UNL     1     -10.058  -0.881  -7.106  1.00  0.00    -0.051 Br
ENDBRANCH   8  13
ENDBRANCH   6   8
ENDBRANCH   5   6
ENDBRANCH   4   5
ENDBRANCH   3   4
ENDBRANCH   2   3
ENDBRANCH   1   2
BRANCH   1  32
ATOM     32  C   UNL     1       1.322  -0.684  -1.308  1.00  0.00     0.188 C 
BRANCH  32  33
ATOM     33  O   UNL     1       1.832  -1.656  -2.195  1.00  0.00    -0.376 OA
BRANCH  33  34
ATOM     34  C   UNL     1       2.821  -1.215  -3.112  1.00  0.00     0.202 C 
BRANCH  34  35
ATOM     35  C   UNL     1       4.178  -0.944  -2.445  1.00  0.00     0.261 C 
BRANCH  35  36
ATOM     36  O   UNL     1       4.171   0.092  -1.440  1.00  0.00    -0.460 OA
BRANCH  36  37
ATOM     37  C   UNL     1       3.912   1.352  -1.873  1.00  0.00     0.338 C 
ATOM     38  O   UNL     1       3.742   1.712  -3.016  1.00  0.00    -0.246 OA
BRANCH  37  39
ATOM     39  C   UNL     1       3.601   2.183  -0.684  1.00  0.00     0.060 A 
ATOM     40  C   UNL     1       2.313   2.719  -0.572  1.00  0.00     0.016 A 
ATOM     41  C   UNL     1       4.550   2.437   0.302  1.00  0.00     0.016 A 
ATOM     42  C   UNL     1       1.960   3.521   0.507  1.00  0.00     0.010 A 
ATOM     43  C   UNL     1       4.209   3.269   1.375  1.00  0.00     0.010 A 
ATOM     44  C   UNL     1       2.921   3.833   1.470  1.00  0.00    -0.014 A 
BRANCH  44  45
ATOM     45  C   UNL     1       2.641   4.907   2.452  1.00  0.00     0.031 A 
ATOM     46  C   UNL     1       3.234   6.265   2.203  1.00  0.00     0.074 A 
ATOM     47  C   UNL     1       1.838   4.705   3.512  1.00  0.00     0.049 A 
ATOM     48  N   UNL     1       3.263   7.316   2.978  1.00  0.00    -0.248 NA
ATOM     49  C   UNL     1       3.884   6.459   0.896  1.00  0.00     0.031 C 
ATOM     50  C   UNL     1       1.113   3.471   3.806  1.00  0.00     0.029 A 
ATOM     51  N   UNL     1       1.505   5.547   4.543  1.00  0.00    -0.354 N 
ATOM     52  C   UNL     1       3.965   8.283   2.270  1.00  0.00     0.074 A 
ATOM     53  C   UNL     1       4.349   7.694   1.006  1.00  0.00     0.031 C 
ATOM     54  C   UNL     1       0.430   3.631   4.953  1.00  0.00     0.029 A 
ATOM     55  C   UNL     1       0.716   4.956   5.500  1.00  0.00     0.049 A 
ATOM     56  H   UNL     1       1.803   6.484   4.593  1.00  0.00     0.167 HD
ATOM     57  C   UNL     1       4.265   9.549   2.643  1.00  0.00     0.037 A 
ATOM     58  C   UNL     1       0.310   5.420   6.698  1.00  0.00     0.037 A 
ATOM     59  C   UNL     1       3.859  10.136   3.892  1.00  0.00     0.049 A 
ATOM     60  C   UNL     1       0.736   6.798   7.135  1.00  0.00     0.074 A 
ATOM     61  C   UNL     1       4.117  11.408   4.371  1.00  0.00     0.029 A 
ATOM     62  N   UNL     1       3.104   9.488   4.857  1.00  0.00    -0.354 N 
ATOM     63  N   UNL     1       1.441   7.693   6.486  1.00  0.00    -0.248 NA
ATOM     64  C   UNL     1       0.319   7.226   8.479  1.00  0.00     0.031 C 
ATOM     65  C   UNL     1       3.555  11.514   5.647  1.00  0.00     0.029 A 
ATOM     66  C   UNL     1       2.904  10.326   5.940  1.00  0.00     0.049 A 
ATOM     67  H   UNL     1       2.761   8.568   4.783  1.00  0.00     0.167 HD
ATOM     68  C   UNL     1       1.528   8.796   7.327  1.00  0.00     0.074 A 
ATOM     69  C   UNL     1       0.795   8.462   8.530  1.00  0.00     0.031 C 
ATOM     70  C   UNL     1       2.158   9.979   7.123  1.00  0.00     0.037 A 
BRANCH  57  71
ATOM     71  C   UNL     1       5.114  10.359   1.710  1.00  0.00     0.057 A 
ATOM     72  C   UNL     1       4.622  10.863   0.499  1.00  0.00     0.134 A 
ATOM     73  C   UNL     1       6.445  10.646   2.037  1.00  0.00     0.134 A 
ATOM     74  F   UNL     1       3.363  10.604   0.116  1.00  0.00    -0.206 F 
ATOM     75  C   UNL     1       5.431  11.605  -0.363  1.00  0.00     0.040 A 
ATOM     76  C   UNL     1       7.256  11.409   1.196  1.00  0.00     0.040 A 
ATOM     77  F   UNL     1       6.978  10.192   3.181  1.00  0.00    -0.206 F 
ATOM     78  C   UNL     1       6.751  11.886  -0.011  1.00  0.00     0.006 A 
ENDBRANCH  57  71
BRANCH  58  79
ATOM     79  C   UNL     1      -0.505   4.563   7.597  1.00  0.00     0.057 A 
ATOM     80  C   UNL     1      -1.832   4.886   7.904  1.00  0.00     0.134 A 
ATOM     81  C   UNL     1       0.033   3.418   8.198  1.00  0.00     0.134 A 
ATOM     82  F   UNL     1      -2.395   5.987   7.385  1.00  0.00    -0.206 F 
ATOM     83  C   UNL     1      -2.588   4.112   8.786  1.00  0.00     0.040 A 
ATOM     84  C   UNL     1      -0.720   2.620   9.061  1.00  0.00     0.040 A 
ATOM     85  F   UNL     1       1.301   3.057   7.953  1.00  0.00    -0.206 F 
ATOM     86  C   UNL     1      -2.034   2.971   9.363  1.00  0.00     0.006 A 
ENDBRANCH  58  79
BRANCH  70  87
ATOM     87  C   UNL     1       2.044  11.016   8.203  1.00  0.00     0.057 A 
ATOM     88  C   UNL     1       2.732  10.901   9.417  1.00  0.00     0.134 A 
ATOM     89  C   UNL     1       1.271  12.167   8.002  1.00  0.00     0.134 A 
ATOM     90  F   UNL     1       3.480   9.818   9.675  1.00  0.00    -0.206 F 
ATOM     91  C   UNL     1       2.638  11.886  10.402  1.00  0.00     0.040 A 
ATOM     92  C   UNL     1       1.191  13.170   8.968  1.00  0.00     0.040 A 
ATOM     93  F   UNL     1       0.596  12.344   6.856  1.00  0.00    -0.206 F 
ATOM     94  C   UNL     1       1.871  13.028  10.176  1.00  0.00     0.006 A 
ENDBRANCH  70  87
ENDBRANCH  44  45
ENDBRANCH  37  39
ENDBRANCH  36  37
ENDBRANCH  35  36
ENDBRANCH  34  35
ENDBRANCH  33  34
ENDBRANCH  32  33
ENDBRANCH   1  32
TORSDOF 20
