REMARK SMILES O=C(OCCOCCOCCOC(=O)[C@@H]1CS[C@H](c2cccc([N+](=O)[O-])c2)[NH2+]1)c1ccc(-c2c3nc(c(-c4c(F)cccc4F)c4ccc([nH]4)c(-c4c(F)cccc4F)c4nc(c(-c5c(F)cccc5F)c5ccc2[nH]5)C=C4)C=C3)cc1
REMARK SMILES IDX 7 1 6 2 5 3 4 4 3 5 2 6 1 7 29 8 30 9 82 10 31 11 81 12
REMARK SMILES IDX 32 13 33 14 34 15 75 16 35 17 80 18 74 19 76 20 36 21 79 22
REMARK SMILES IDX 73 23 72 24 37 26 63 27 46 28 62 29 47 30 50 31 61 32 77 33
REMARK SMILES IDX 48 34 49 35 60 37 78 38 51 39 38 40 39 41 44 42 40 43 41 44
REMARK SMILES IDX 43 45 45 46 42 47 64 48 65 49 70 50 66 51 67 52 69 53 71 54
REMARK SMILES IDX 68 55 52 56 53 57 58 58 54 59 55 60 57 61 59 62 56 63 8 64
REMARK SMILES IDX 9 65 10 66 11 67 12 68 13 69 14 70 15 71 16 72 28 73 17 74
REMARK SMILES IDX 18 75 19 78 20 79 27 80 21 81 23 82 22 83 24 84 25 85 26 86
REMARK H PARENT 76 25 50 36 28 76 28 77
REMARK Flexibility Score: inf
ROOT
ATOM      1  C   UNL     1      -1.350   3.387   1.016  1.00  0.00     0.188 C 
ENDROOT
BRANCH   1   2
ATOM      2  O   UNL     1      -0.805   4.704   1.084  1.00  0.00    -0.376 OA
BRANCH   2   3
ATOM      3  C   UNL     1      -1.460   5.650   0.231  1.00  0.00     0.202 C 
BRANCH   3   4
ATOM      4  C   UNL     1      -1.299   5.413  -1.283  1.00  0.00     0.261 C 
BRANCH   4   5
ATOM      5  O   UNL     1      -0.914   4.073  -1.649  1.00  0.00    -0.460 OA
BRANCH   5   6
ATOM      6  C   UNL     1       0.320   3.526  -1.775  1.00  0.00     0.338 C 
ATOM      7  O   UNL     1       0.415   2.362  -2.161  1.00  0.00    -0.246 OA
BRANCH   6   8
ATOM      8  C   UNL     1       1.583   4.253  -1.463  1.00  0.00     0.060 A 
ATOM      9  C   UNL     1       1.682   5.308  -0.563  1.00  0.00     0.016 A 
ATOM     10  C   UNL     1       2.765   3.793  -2.067  1.00  0.00     0.016 A 
ATOM     11  C   UNL     1       2.871   5.981  -0.356  1.00  0.00     0.010 A 
ATOM     12  C   UNL     1       3.987   4.429  -1.825  1.00  0.00     0.010 A 
ATOM     13  C   UNL     1       4.026   5.559  -1.002  1.00  0.00    -0.014 A 
BRANCH  13  14
ATOM     14  C   UNL     1       5.195   6.450  -0.928  1.00  0.00     0.031 A 
ATOM     15  C   UNL     1       5.518   7.275  -2.137  1.00  0.00     0.074 A 
ATOM     16  C   UNL     1       5.811   6.642   0.251  1.00  0.00     0.049 A 
ATOM     17  N   UNL     1       6.494   8.118  -2.329  1.00  0.00    -0.248 NA
ATOM     18  C   UNL     1       4.601   7.145  -3.285  1.00  0.00     0.031 C 
ATOM     19  C   UNL     1       5.444   5.989   1.513  1.00  0.00     0.029 A 
ATOM     20  N   UNL     1       6.843   7.470   0.594  1.00  0.00    -0.354 N 
ATOM     21  C   UNL     1       6.321   8.600  -3.620  1.00  0.00     0.074 A 
ATOM     22  C   UNL     1       5.163   7.943  -4.177  1.00  0.00     0.031 C 
ATOM     23  C   UNL     1       6.229   6.459   2.495  1.00  0.00     0.029 A 
ATOM     24  C   UNL     1       7.199   7.382   1.918  1.00  0.00     0.049 A 
ATOM     25  H   UNL     1       7.288   8.072  -0.046  1.00  0.00     0.167 HD
ATOM     26  C   UNL     1       7.070   9.515  -4.275  1.00  0.00     0.037 A 
ATOM     27  C   UNL     1       8.227   7.958   2.568  1.00  0.00     0.037 A 
ATOM     28  C   UNL     1       8.219  10.146  -3.687  1.00  0.00     0.049 A 
ATOM     29  C   UNL     1       9.126   8.869   1.776  1.00  0.00     0.074 A 
ATOM     30  C   UNL     1       9.121  11.019  -4.261  1.00  0.00     0.029 A 
ATOM     31  N   UNL     1       8.616   9.961  -2.368  1.00  0.00    -0.354 N 
ATOM     32  N   UNL     1       9.017   9.256   0.526  1.00  0.00    -0.248 NA
ATOM     33  C   UNL     1      10.296   9.413   2.474  1.00  0.00     0.031 C 
ATOM     34  C   UNL     1      10.091  11.327  -3.301  1.00  0.00     0.029 A 
ATOM     35  C   UNL     1       9.761  10.691  -2.112  1.00  0.00     0.049 A 
ATOM     36  H   UNL     1       8.151   9.393  -1.712  1.00  0.00     0.167 HD
ATOM     37  C   UNL     1      10.088  10.107   0.293  1.00  0.00     0.074 A 
ATOM     38  C   UNL     1      10.821  10.194   1.542  1.00  0.00     0.031 C 
ATOM     39  C   UNL     1      10.444  10.755  -0.844  1.00  0.00     0.037 A 
BRANCH  26  40
ATOM     40  C   UNL     1       6.698   9.812  -5.698  1.00  0.00     0.057 A 
ATOM     41  C   UNL     1       5.535  10.518  -6.036  1.00  0.00     0.134 A 
ATOM     42  C   UNL     1       7.493   9.341  -6.750  1.00  0.00     0.134 A 
ATOM     43  F   UNL     1       4.709  10.966  -5.078  1.00  0.00    -0.206 F 
ATOM     44  C   UNL     1       5.163  10.719  -7.367  1.00  0.00     0.040 A 
ATOM     45  C   UNL     1       7.146   9.558  -8.085  1.00  0.00     0.040 A 
ATOM     46  F   UNL     1       8.614   8.648  -6.499  1.00  0.00    -0.206 F 
ATOM     47  C   UNL     1       5.972  10.241  -8.396  1.00  0.00     0.006 A 
ENDBRANCH  26  40
BRANCH  27  48
ATOM     48  C   UNL     1       8.499   7.640   3.995  1.00  0.00     0.057 A 
ATOM     49  C   UNL     1       8.464   8.625   4.989  1.00  0.00     0.134 A 
ATOM     50  C   UNL     1       8.843   6.341   4.397  1.00  0.00     0.134 A 
ATOM     51  F   UNL     1       8.158   9.892   4.673  1.00  0.00    -0.206 F 
ATOM     52  C   UNL     1       8.789   8.339   6.318  1.00  0.00     0.040 A 
ATOM     53  C   UNL     1       9.139   6.034   5.726  1.00  0.00     0.040 A 
ATOM     54  F   UNL     1       8.890   5.344   3.501  1.00  0.00    -0.206 F 
ATOM     55  C   UNL     1       9.125   7.039   6.689  1.00  0.00     0.006 A 
ENDBRANCH  27  48
BRANCH  39  56
ATOM     56  C   UNL     1      11.649  11.643  -0.762  1.00  0.00     0.057 A 
ATOM     57  C   UNL     1      12.945  11.124  -0.662  1.00  0.00     0.134 A 
ATOM     58  C   UNL     1      11.505  13.034  -0.827  1.00  0.00     0.134 A 
ATOM     59  F   UNL     1      13.144   9.800  -0.583  1.00  0.00    -0.206 F 
ATOM     60  C   UNL     1      14.058  11.963  -0.604  1.00  0.00     0.040 A 
ATOM     61  C   UNL     1      12.612  13.881  -0.802  1.00  0.00     0.040 A 
ATOM     62  F   UNL     1      10.289  13.590  -0.934  1.00  0.00    -0.206 F 
ATOM     63  C   UNL     1      13.893  13.345  -0.682  1.00  0.00     0.006 A 
ENDBRANCH  39  56
ENDBRANCH  13  14
ENDBRANCH   6   8
ENDBRANCH   5   6
ENDBRANCH   4   5
ENDBRANCH   3   4
ENDBRANCH   2   3
ENDBRANCH   1   2
BRANCH   1  64
ATOM     64  C   UNL     1      -1.409   2.683   2.366  1.00  0.00     0.188 C 
BRANCH  64  65
ATOM     65  O   UNL     1      -2.170   3.290   3.401  1.00  0.00    -0.376 OA
BRANCH  65  66
ATOM     66  C   UNL     1      -1.986   4.675   3.655  1.00  0.00     0.202 C 
BRANCH  66  67
ATOM     67  C   UNL     1      -0.658   5.161   4.260  1.00  0.00     0.261 C 
BRANCH  67  68
ATOM     68  O   UNL     1       0.561   4.700   3.656  1.00  0.00    -0.459 OA
BRANCH  68  69
ATOM     69  C   UNL     1       1.060   3.545   4.181  1.00  0.00     0.365 C 
ATOM     70  O   UNL     1       0.451   2.844   4.989  1.00  0.00    -0.245 OA
BRANCH  69  71
ATOM     71  C   UNL     1       2.445   3.211   3.611  1.00  0.00     0.304 C 
ATOM     72  C   UNL     1       2.599   1.702   3.410  1.00  0.00     0.153 C 
ATOM     73  N   UNL     1       3.560   3.730   4.467  1.00  0.00    -0.319 N 
ATOM     74  S   UNL     1       3.820   1.155   4.634  1.00  0.00    -0.087 SA
ATOM     75  C   UNL     1       3.823   2.736   5.532  1.00  0.00     0.274 C 
ATOM     76  H   UNL     1       3.290   4.621   4.885  1.00  0.00     0.348 HD
ATOM     77  H   UNL     1       4.399   3.876   3.905  1.00  0.00     0.348 HD
BRANCH  75  78
ATOM     78  C   UNL     1       2.841   2.822   6.697  1.00  0.00     0.027 A 
ATOM     79  C   UNL     1       2.462   1.693   7.448  1.00  0.00     0.011 A 
ATOM     80  C   UNL     1       2.219   4.050   7.000  1.00  0.00     0.096 A 
ATOM     81  C   UNL     1       1.389   1.747   8.345  1.00  0.00     0.008 A 
ATOM     82  C   UNL     1       1.101   4.082   7.846  1.00  0.00     0.269 A 
ATOM     83  C   UNL     1       0.677   2.932   8.516  1.00  0.00     0.085 A 
BRANCH  82  84
ATOM     84  N   UNL     1       0.292   5.302   7.912  1.00  0.00     0.062 N 
ATOM     85  O   UNL     1      -0.855   5.214   8.373  1.00  0.00    -0.258 OA
ATOM     86  O   UNL     1       0.788   6.350   7.470  1.00  0.00    -0.258 OA
ENDBRANCH  82  84
ENDBRANCH  75  78
ENDBRANCH  69  71
ENDBRANCH  68  69
ENDBRANCH  67  68
ENDBRANCH  66  67
ENDBRANCH  65  66
ENDBRANCH  64  65
ENDBRANCH   1  64
TORSDOF 19
