REMARK SMILES CC1=C[C@H](C)[C@H](CN2C[C@@]34C=C[C@@H](O3)[C@H](C(=O)OCCOCCOCCOC(=O)c3ccc(-c5c6nc(c(-c7c(F)cccc7F)c7ccc([nH]7)c(-c7c(F)cccc7F)c7nc(c(-c8c(F)cccc8F)c8ccc5[nH]8)C=C7)C=C6)cc3)[C@@H]4C2=O)[C@H](C)C1
REMARK SMILES IDX 22 1 21 2 20 3 19 4 18 5 16 6 17 7 15 8 8 9 9 10 85 11 10 12
REMARK SMILES IDX 84 13 86 14 11 15 14 16 12 17 13 18 7 19 6 20 1 21 2 22 3 23
REMARK SMILES IDX 89 24 4 25 87 26 5 27 88 28 23 29 24 30 25 31 26 32 27 33
REMARK SMILES IDX 28 34 29 35 30 36 31 37 83 38 32 39 82 40 33 41 34 42 35 43
REMARK SMILES IDX 76 44 36 45 81 46 75 47 77 48 37 49 80 50 74 51 73 52 38 54
REMARK SMILES IDX 64 55 47 56 63 57 48 58 51 59 62 60 78 61 49 62 50 63 61 65
REMARK SMILES IDX 79 66 52 67 39 68 40 69 45 70 41 71 42 72 44 73 46 74 43 75
REMARK SMILES IDX 65 76 66 77 71 78 67 79 68 80 70 81 72 82 69 83 53 84 54 85
REMARK SMILES IDX 59 86 55 87 56 88 58 89 60 90 57 91
REMARK H PARENT 77 53 51 64
REMARK Flexibility Score: inf
ROOT
ATOM      1  C   UNL     1      -4.338   6.038   8.023  1.00  0.00     0.188 C 
ENDROOT
BRANCH   1   2
ATOM      2  O   UNL     1      -5.344   7.041   7.967  1.00  0.00    -0.376 OA
BRANCH   2   3
ATOM      3  C   UNL     1      -6.671   6.610   7.624  1.00  0.00     0.202 C 
BRANCH   3   4
ATOM      4  C   UNL     1      -6.793   5.693   6.393  1.00  0.00     0.261 C 
BRANCH   4   5
ATOM      5  O   UNL     1      -6.402   4.353   6.755  1.00  0.00    -0.463 OA
BRANCH   5   6
ATOM      6  C   UNL     1      -5.834   3.603   5.761  1.00  0.00     0.312 C 
ATOM      7  O   UNL     1      -6.062   3.738   4.573  1.00  0.00    -0.252 OA
BRANCH   6   8
ATOM      8  C   UNL     1      -4.728   2.803   6.383  1.00  0.00     0.148 C 
ATOM      9  N   UNL     1      -2.030   1.366   4.191  1.00  0.00    -0.339 N 
ATOM     10  C   UNL     1      -2.051   0.527   5.415  1.00  0.00     0.160 C 
ATOM     11  C   UNL     1      -3.214   2.182   4.137  1.00  0.00     0.230 C 
ATOM     12  C   UNL     1      -3.416   0.852   6.012  1.00  0.00     0.117 C 
ATOM     13  C   UNL     1      -3.560   2.309   5.576  1.00  0.00     0.133 C 
ATOM     14  O   UNL     1      -3.592   2.866   3.207  1.00  0.00    -0.274 OA
ATOM     15  C   UNL     1      -4.623   0.028   5.651  1.00  0.00     0.009 C 
ATOM     16  O   UNL     1      -3.662   1.044   7.418  1.00  0.00    -0.360 OA
ATOM     17  C   UNL     1      -5.624   0.483   6.416  1.00  0.00     0.004 C 
ATOM     18  C   UNL     1      -5.045   1.584   7.244  1.00  0.00     0.157 C 
BRANCH   9  19
ATOM     19  C   UNL     1      -0.828   2.061   3.770  1.00  0.00     0.124 C 
BRANCH  19  20
ATOM     20  C   UNL     1       0.212   1.411   2.837  1.00  0.00     0.018 C 
ATOM     21  C   UNL     1       2.133  -0.210  -0.825  1.00  0.00     0.039 C 
ATOM     22  C   UNL     1       1.368   0.287   0.364  1.00  0.00    -0.077 C 
ATOM     23  C   UNL     1       0.991  -0.515   1.370  1.00  0.00    -0.025 C 
ATOM     24  C   UNL     1       0.921   1.714   0.319  1.00  0.00     0.034 C 
ATOM     25  C   UNL     1       0.015  -0.073   2.434  1.00  0.00     0.014 C 
ATOM     26  C   UNL     1       0.742   2.371   1.697  1.00  0.00    -0.005 C 
ATOM     27  C   UNL     1      -1.387  -0.461   1.957  1.00  0.00     0.012 C 
ATOM     28  C   UNL     1       0.006   3.704   1.482  1.00  0.00     0.008 C 
ENDBRANCH  19  20
ENDBRANCH   9  19
ENDBRANCH   6   8
ENDBRANCH   5   6
ENDBRANCH   4   5
ENDBRANCH   3   4
ENDBRANCH   2   3
ENDBRANCH   1   2
BRANCH   1  29
ATOM     29  C   UNL     1      -4.420   5.053   9.197  1.00  0.00     0.188 C 
BRANCH  29  30
ATOM     30  O   UNL     1      -5.735   4.781   9.656  1.00  0.00    -0.376 OA
BRANCH  30  31
ATOM     31  C   UNL     1      -5.809   4.335  11.017  1.00  0.00     0.202 C 
BRANCH  31  32
ATOM     32  C   UNL     1      -5.549   5.458  12.045  1.00  0.00     0.261 C 
BRANCH  32  33
ATOM     33  O   UNL     1      -4.186   5.933  12.089  1.00  0.00    -0.460 OA
BRANCH  33  34
ATOM     34  C   UNL     1      -3.228   5.008  12.361  1.00  0.00     0.338 C 
ATOM     35  O   UNL     1      -3.401   3.886  12.781  1.00  0.00    -0.246 OA
BRANCH  34  36
ATOM     36  C   UNL     1      -1.942   5.498  11.795  1.00  0.00     0.060 A 
ATOM     37  C   UNL     1      -1.198   4.625  10.987  1.00  0.00     0.016 A 
ATOM     38  C   UNL     1      -1.500   6.807  12.001  1.00  0.00     0.016 A 
ATOM     39  C   UNL     1       0.006   5.048  10.413  1.00  0.00     0.010 A 
ATOM     40  C   UNL     1      -0.287   7.223  11.442  1.00  0.00     0.010 A 
ATOM     41  C   UNL     1       0.486   6.341  10.666  1.00  0.00    -0.014 A 
BRANCH  41  42
ATOM     42  C   UNL     1       1.863   6.733  10.272  1.00  0.00     0.031 A 
ATOM     43  C   UNL     1       2.967   6.585  11.282  1.00  0.00     0.074 A 
ATOM     44  C   UNL     1       2.136   7.245   9.058  1.00  0.00     0.049 A 
ATOM     45  N   UNL     1       4.216   6.970  11.213  1.00  0.00    -0.248 NA
ATOM     46  C   UNL     1       2.610   5.916  12.543  1.00  0.00     0.031 C 
ATOM     47  C   UNL     1       1.176   7.412   7.970  1.00  0.00     0.029 A 
ATOM     48  N   UNL     1       3.312   7.743   8.550  1.00  0.00    -0.354 N 
ATOM     49  C   UNL     1       4.792   6.597  12.420  1.00  0.00     0.074 A 
ATOM     50  C   UNL     1       3.753   5.972  13.211  1.00  0.00     0.031 C 
ATOM     51  C   UNL     1       1.796   7.999   6.930  1.00  0.00     0.029 A 
ATOM     52  C   UNL     1       3.186   8.279   7.292  1.00  0.00     0.049 A 
ATOM     53  H   UNL     1       4.165   7.718   9.042  1.00  0.00     0.167 HD
ATOM     54  C   UNL     1       6.070   6.759  12.836  1.00  0.00     0.037 A 
ATOM     55  C   UNL     1       4.078   8.949   6.535  1.00  0.00     0.037 A 
ATOM     56  C   UNL     1       7.108   7.387  12.064  1.00  0.00     0.049 A 
ATOM     57  C   UNL     1       5.471   9.197   7.056  1.00  0.00     0.074 A 
ATOM     58  C   UNL     1       8.438   7.572  12.399  1.00  0.00     0.029 A 
ATOM     59  N   UNL     1       6.930   7.943  10.809  1.00  0.00    -0.354 N 
ATOM     60  N   UNL     1       6.012   8.820   8.189  1.00  0.00    -0.248 NA
ATOM     61  C   UNL     1       6.374   9.975   6.193  1.00  0.00     0.031 C 
ATOM     62  C   UNL     1       9.056   8.279  11.363  1.00  0.00     0.029 A 
ATOM     63  C   UNL     1       8.119   8.498  10.366  1.00  0.00     0.049 A 
ATOM     64  H   UNL     1       6.083   7.945  10.306  1.00  0.00     0.167 HD
ATOM     65  C   UNL     1       7.319   9.293   8.164  1.00  0.00     0.074 A 
ATOM     66  C   UNL     1       7.495   9.976   6.901  1.00  0.00     0.031 C 
ATOM     67  C   UNL     1       8.287   9.172   9.106  1.00  0.00     0.037 A 
BRANCH  54  68
ATOM     68  C   UNL     1       6.410   6.265  14.208  1.00  0.00     0.057 A 
ATOM     69  C   UNL     1       6.556   4.900  14.484  1.00  0.00     0.134 A 
ATOM     70  C   UNL     1       6.626   7.168  15.257  1.00  0.00     0.134 A 
ATOM     71  F   UNL     1       6.345   3.987  13.524  1.00  0.00    -0.206 F 
ATOM     72  C   UNL     1       6.890   4.448  15.761  1.00  0.00     0.040 A 
ATOM     73  C   UNL     1       6.980   6.729  16.533  1.00  0.00     0.040 A 
ATOM     74  F   UNL     1       6.502   8.488  15.055  1.00  0.00    -0.206 F 
ATOM     75  C   UNL     1       7.110   5.365  16.788  1.00  0.00     0.006 A 
ENDBRANCH  54  68
BRANCH  55  76
ATOM     76  C   UNL     1       3.682   9.476   5.205  1.00  0.00     0.057 A 
ATOM     77  C   UNL     1       4.202   8.930   4.026  1.00  0.00     0.134 A 
ATOM     78  C   UNL     1       2.815  10.568   5.084  1.00  0.00     0.134 A 
ATOM     79  F   UNL     1       5.064   7.904   4.081  1.00  0.00    -0.206 F 
ATOM     80  C   UNL     1       3.887   9.460   2.774  1.00  0.00     0.040 A 
ATOM     81  C   UNL     1       2.473  11.095   3.837  1.00  0.00     0.040 A 
ATOM     82  F   UNL     1       2.291  11.141   6.177  1.00  0.00    -0.206 F 
ATOM     83  C   UNL     1       3.016  10.544   2.678  1.00  0.00     0.006 A 
ENDBRANCH  55  76
BRANCH  67  84
ATOM     84  C   UNL     1       9.631   9.765   8.799  1.00  0.00     0.057 A 
ATOM     85  C   UNL     1       9.853  11.147   8.838  1.00  0.00     0.134 A 
ATOM     86  C   UNL     1      10.726   8.941   8.508  1.00  0.00     0.134 A 
ATOM     87  F   UNL     1       8.844  11.991   9.099  1.00  0.00    -0.206 F 
ATOM     88  C   UNL     1      11.114  11.690   8.582  1.00  0.00     0.040 A 
ATOM     89  C   UNL     1      11.995   9.471   8.272  1.00  0.00     0.040 A 
ATOM     90  F   UNL     1      10.582   7.608   8.464  1.00  0.00    -0.206 F 
ATOM     91  C   UNL     1      12.191  10.850   8.304  1.00  0.00     0.006 A 
ENDBRANCH  67  84
ENDBRANCH  41  42
ENDBRANCH  34  36
ENDBRANCH  33  34
ENDBRANCH  32  33
ENDBRANCH  31  32
ENDBRANCH  30  31
ENDBRANCH  29  30
ENDBRANCH   1  29
TORSDOF 19
