REMARK SMILES C[C@@H]1[C@H](C(=O)OCCOCCOCCOC(=O)c2ccc(-c3c4nc(c(-c5c(F)cccc5F)c5ccc([nH]5)c(-c5c(F)cccc5F)c5nc(c(-c6c(F)cccc6F)c6ccc3[nH]6)C=C5)C=C4)cc2)CC[N@@H+]1[C@@H](C)c1cc(F)cc(F)c1
REMARK SMILES IDX 10 1 9 2 8 3 7 4 6 5 4 6 5 7 3 8 1 9 2 10 74 11 72 12 73 13
REMARK SMILES IDX 75 15 76 16 77 17 78 18 84 19 79 20 82 21 80 22 81 23 83 24
REMARK SMILES IDX 11 25 12 26 13 27 14 28 15 29 16 30 17 31 18 32 19 33 71 34
REMARK SMILES IDX 20 35 70 36 21 37 22 38 23 39 64 40 24 41 69 42 63 43 65 44
REMARK SMILES IDX 25 45 68 46 62 47 61 48 26 50 52 51 35 52 51 53 36 54 39 55
REMARK SMILES IDX 50 56 66 57 37 58 38 59 49 61 67 62 40 63 27 64 28 65 33 66
REMARK SMILES IDX 29 67 30 68 32 69 34 70 31 71 53 72 54 73 59 74 55 75 56 76
REMARK SMILES IDX 58 77 60 78 57 79 41 80 42 81 47 82 43 83 44 84 46 85 48 86
REMARK SMILES IDX 45 87
REMARK H PARENT 74 14 65 49 39 60
REMARK Flexibility Score: inf
ROOT
ATOM      1  C   UNL     1       2.122   3.841  -1.513  1.00  0.00     0.188 C 
ENDROOT
BRANCH   1   2
ATOM      2  O   UNL     1       2.642   4.920  -0.769  1.00  0.00    -0.376 OA
BRANCH   2   3
ATOM      3  C   UNL     1       2.555   4.844   0.652  1.00  0.00     0.202 C 
BRANCH   3   4
ATOM      4  C   UNL     1       1.254   4.348   1.287  1.00  0.00     0.261 C 
BRANCH   4   5
ATOM      5  O   UNL     1       0.989   2.973   0.943  1.00  0.00    -0.463 OA
BRANCH   5   6
ATOM      6  C   UNL     1      -0.291   2.658   0.652  1.00  0.00     0.315 C 
ATOM      7  O   UNL     1      -1.212   3.470   0.690  1.00  0.00    -0.252 OA
BRANCH   6   8
ATOM      8  C   UNL     1      -0.515   1.228   0.180  1.00  0.00     0.162 C 
ATOM      9  C   UNL     1       1.653   0.292   1.286  1.00  0.00     0.076 C 
ATOM     10  C   UNL     1       0.503   0.073   0.319  1.00  0.00     0.196 C 
ATOM     11  N   UNL     1      -0.322  -1.134   0.559  1.00  0.00    -0.326 N 
ATOM     12  C   UNL     1      -1.745   0.705   0.908  1.00  0.00     0.083 C 
ATOM     13  C   UNL     1      -1.728  -0.783   0.668  1.00  0.00     0.264 C 
ATOM     14  H   UNL     1      -0.162  -1.667  -0.296  1.00  0.00     0.348 HD
BRANCH  11  15
ATOM     15  C   UNL     1       0.169  -2.311   1.286  1.00  0.00     0.212 C 
ATOM     16  C   UNL     1       0.569  -2.060   2.756  1.00  0.00     0.081 C 
BRANCH  15  17
ATOM     17  C   UNL     1      -0.791  -3.510   1.193  1.00  0.00     0.015 A 
ATOM     18  C   UNL     1      -1.541  -3.957   2.300  1.00  0.00     0.049 A 
ATOM     19  C   UNL     1      -0.926  -4.218  -0.012  1.00  0.00     0.049 A 
ATOM     20  C   UNL     1      -2.325  -5.103   2.219  1.00  0.00     0.126 A 
ATOM     21  C   UNL     1      -1.736  -5.354  -0.074  1.00  0.00     0.126 A 
ATOM     22  F   UNL     1      -2.979  -5.524   3.310  1.00  0.00    -0.207 F 
ATOM     23  C   UNL     1      -2.425  -5.816   1.039  1.00  0.00     0.078 A 
ATOM     24  F   UNL     1      -1.841  -6.024  -1.230  1.00  0.00    -0.207 F 
ENDBRANCH  15  17
ENDBRANCH  11  15
ENDBRANCH   6   8
ENDBRANCH   5   6
ENDBRANCH   4   5
ENDBRANCH   3   4
ENDBRANCH   2   3
ENDBRANCH   1   2
BRANCH   1  25
ATOM     25  C   UNL     1       2.851   2.494  -1.485  1.00  0.00     0.188 C 
BRANCH  25  26
ATOM     26  O   UNL     1       3.744   2.098  -0.465  1.00  0.00    -0.376 OA
BRANCH  26  27
ATOM     27  C   UNL     1       5.047   2.651  -0.360  1.00  0.00     0.202 C 
BRANCH  27  28
ATOM     28  C   UNL     1       6.055   2.626  -1.522  1.00  0.00     0.261 C 
BRANCH  28  29
ATOM     29  O   UNL     1       5.499   2.755  -2.829  1.00  0.00    -0.460 OA
BRANCH  29  30
ATOM     30  C   UNL     1       5.275   1.579  -3.472  1.00  0.00     0.338 C 
ATOM     31  O   UNL     1       5.577   0.458  -3.096  1.00  0.00    -0.246 OA
BRANCH  30  32
ATOM     32  C   UNL     1       4.359   1.854  -4.600  1.00  0.00     0.060 A 
ATOM     33  C   UNL     1       3.177   1.101  -4.692  1.00  0.00     0.016 A 
ATOM     34  C   UNL     1       4.607   2.899  -5.491  1.00  0.00     0.016 A 
ATOM     35  C   UNL     1       2.250   1.375  -5.697  1.00  0.00     0.010 A 
ATOM     36  C   UNL     1       3.692   3.154  -6.513  1.00  0.00     0.010 A 
ATOM     37  C   UNL     1       2.527   2.374  -6.638  1.00  0.00    -0.014 A 
BRANCH  37  38
ATOM     38  C   UNL     1       1.743   2.450  -7.892  1.00  0.00     0.031 A 
ATOM     39  C   UNL     1       2.303   1.754  -9.102  1.00  0.00     0.074 A 
ATOM     40  C   UNL     1       0.579   3.116  -7.969  1.00  0.00     0.049 A 
ATOM     41  N   UNL     1       1.881   1.765 -10.339  1.00  0.00    -0.248 NA
ATOM     42  C   UNL     1       3.512   0.942  -8.882  1.00  0.00     0.031 C 
ATOM     43  C   UNL     1      -0.097   3.784  -6.859  1.00  0.00     0.029 A 
ATOM     44  N   UNL     1      -0.234   3.351  -9.051  1.00  0.00    -0.354 N 
ATOM     45  C   UNL     1       2.776   0.970 -11.043  1.00  0.00     0.074 A 
ATOM     46  C   UNL     1       3.781   0.521 -10.106  1.00  0.00     0.031 C 
ATOM     47  C   UNL     1      -1.216   4.370  -7.322  1.00  0.00     0.029 A 
ATOM     48  C   UNL     1      -1.313   4.152  -8.765  1.00  0.00     0.049 A 
ATOM     49  H   UNL     1      -0.060   2.980  -9.946  1.00  0.00     0.167 HD
ATOM     50  C   UNL     1       2.757   0.634 -12.354  1.00  0.00     0.037 A 
ATOM     51  C   UNL     1      -2.249   4.669  -9.585  1.00  0.00     0.037 A 
ATOM     52  C   UNL     1       1.763   1.089 -13.287  1.00  0.00     0.049 A 
ATOM     53  C   UNL     1      -2.190   4.365 -11.063  1.00  0.00     0.074 A 
ATOM     54  C   UNL     1       1.658   0.808 -14.637  1.00  0.00     0.029 A 
ATOM     55  N   UNL     1       0.705   1.925 -12.966  1.00  0.00    -0.354 N 
ATOM     56  N   UNL     1      -1.348   3.605 -11.722  1.00  0.00    -0.248 NA
ATOM     57  C   UNL     1      -3.214   4.995 -11.911  1.00  0.00     0.031 C 
ATOM     58  C   UNL     1       0.565   1.517 -15.145  1.00  0.00     0.029 A 
ATOM     59  C   UNL     1      -0.046   2.189 -14.099  1.00  0.00     0.049 A 
ATOM     60  H   UNL     1       0.515   2.277 -12.067  1.00  0.00     0.167 HD
ATOM     61  C   UNL     1      -1.764   3.635 -13.049  1.00  0.00     0.074 A 
ATOM     62  C   UNL     1      -2.938   4.480 -13.100  1.00  0.00     0.031 C 
ATOM     63  C   UNL     1      -1.225   3.017 -14.130  1.00  0.00     0.037 A 
BRANCH  50  64
ATOM     64  C   UNL     1       3.863  -0.246 -12.854  1.00  0.00     0.057 A 
ATOM     65  C   UNL     1       3.951  -1.598 -12.499  1.00  0.00     0.134 A 
ATOM     66  C   UNL     1       4.840   0.260 -13.721  1.00  0.00     0.134 A 
ATOM     67  F   UNL     1       3.059  -2.139 -11.655  1.00  0.00    -0.206 F 
ATOM     68  C   UNL     1       4.984  -2.410 -12.970  1.00  0.00     0.040 A 
ATOM     69  C   UNL     1       5.860  -0.549 -14.222  1.00  0.00     0.040 A 
ATOM     70  F   UNL     1       4.815   1.547 -14.100  1.00  0.00    -0.206 F 
ATOM     71  C   UNL     1       5.937  -1.887 -13.842  1.00  0.00     0.006 A 
ENDBRANCH  50  64
BRANCH  51  72
ATOM     72  C   UNL     1      -3.319   5.551  -9.048  1.00  0.00     0.057 A 
ATOM     73  C   UNL     1      -4.662   5.156  -9.072  1.00  0.00     0.134 A 
ATOM     74  C   UNL     1      -3.034   6.829  -8.553  1.00  0.00     0.134 A 
ATOM     75  F   UNL     1      -5.004   3.955  -9.562  1.00  0.00    -0.206 F 
ATOM     76  C   UNL     1      -5.684   6.007  -8.648  1.00  0.00     0.040 A 
ATOM     77  C   UNL     1      -4.043   7.680  -8.098  1.00  0.00     0.040 A 
ATOM     78  F   UNL     1      -1.769   7.272  -8.506  1.00  0.00    -0.206 F 
ATOM     79  C   UNL     1      -5.375   7.273  -8.155  1.00  0.00     0.006 A 
ENDBRANCH  51  72
BRANCH  63  80
ATOM     80  C   UNL     1      -1.927   3.180 -15.448  1.00  0.00     0.057 A 
ATOM     81  C   UNL     1      -1.916   4.390 -16.154  1.00  0.00     0.134 A 
ATOM     82  C   UNL     1      -2.581   2.092 -16.043  1.00  0.00     0.134 A 
ATOM     83  F   UNL     1      -1.317   5.473 -15.637  1.00  0.00    -0.206 F 
ATOM     84  C   UNL     1      -2.551   4.518 -17.391  1.00  0.00     0.040 A 
ATOM     85  C   UNL     1      -3.192   2.200 -17.292  1.00  0.00     0.040 A 
ATOM     86  F   UNL     1      -2.618   0.900 -15.428  1.00  0.00    -0.206 F 
ATOM     87  C   UNL     1      -3.184   3.418 -17.967  1.00  0.00     0.006 A 
ENDBRANCH  63  80
ENDBRANCH  37  38
ENDBRANCH  30  32
ENDBRANCH  29  30
ENDBRANCH  28  29
ENDBRANCH  27  28
ENDBRANCH  26  27
ENDBRANCH  25  26
ENDBRANCH   1  25
TORSDOF 19
