REMARK SMILES Nc1c(C(=O)NCC(=O)OCCOCCOCCOC(=O)c2ccc(-c3c4nc(c(-c5c(F)cccc5F)c5ccc([nH]5)c(-c5c(F)cccc5F)c5nc(c(-c6c(F)cccc6F)c6ccc3[nH]6)C=C5)C=C4)cc2)cnn1-c1ccccc1
REMARK SMILES IDX 14 1 13 2 12 3 11 4 10 5 8 6 9 7 7 8 6 9 4 10 5 11 3 13 2 14
REMARK SMILES IDX 78 15 76 16 77 17 1 18 79 21 80 22 84 23 81 24 83 25 82 26
REMARK SMILES IDX 15 27 16 28 17 29 18 30 19 31 20 32 21 33 22 34 23 35 75 36
REMARK SMILES IDX 24 37 74 38 25 39 26 40 27 41 68 42 28 43 73 44 67 45 69 46
REMARK SMILES IDX 29 47 72 48 66 49 65 50 30 52 56 53 39 54 55 55 40 56 43 57
REMARK SMILES IDX 54 58 70 59 41 60 42 61 53 63 71 64 44 65 31 66 32 67 37 68
REMARK SMILES IDX 33 69 34 70 36 71 38 72 35 73 57 74 58 75 63 76 59 77 60 78
REMARK SMILES IDX 62 79 64 80 61 81 45 82 46 83 51 84 47 85 48 86 50 87 52 88
REMARK SMILES IDX 49 89
REMARK H PARENT 6 12 1 19 1 20 69 51 43 62
REMARK Flexibility Score: inf
ROOT
ATOM      1  C   UNL     1       3.099   5.052   6.148  1.00  0.00     0.188 C 
ENDROOT
BRANCH   1   2
ATOM      2  O   UNL     1       3.691   4.501   7.299  1.00  0.00    -0.376 OA
BRANCH   2   3
ATOM      3  C   UNL     1       3.574   3.104   7.529  1.00  0.00     0.202 C 
BRANCH   3   4
ATOM      4  C   UNL     1       2.358   2.288   7.037  1.00  0.00     0.261 C 
BRANCH   4   5
ATOM      5  O   UNL     1       2.011   2.488   5.654  1.00  0.00    -0.462 OA
BRANCH   5   6
ATOM      6  C   UNL     1       0.726   2.863   5.389  1.00  0.00     0.325 C 
ATOM      7  O   UNL     1      -0.168   2.915   6.225  1.00  0.00    -0.250 OA
BRANCH   6   8
ATOM      8  C   UNL     1       0.564   3.460   3.985  1.00  0.00     0.239 C 
BRANCH   8   9
ATOM      9  N   UNL     1       1.512   3.021   2.980  1.00  0.00    -0.341 N 
ATOM     10  C   UNL     1       1.475   2.012   2.066  1.00  0.00     0.257 C 
ATOM     11  O   UNL     1       2.426   1.942   1.284  1.00  0.00    -0.269 OA
ATOM     12  H   UNL     1       2.340   3.553   2.953  1.00  0.00     0.164 HD
BRANCH  10  13
ATOM     13  C   UNL     1       0.363   1.083   2.005  1.00  0.00     0.102 A 
ATOM     14  C   UNL     1       0.232   0.106   1.027  1.00  0.00     0.140 A 
ATOM     15  N   UNL     1      -0.949  -0.573   1.299  1.00  0.00    -0.217 N 
ATOM     16  C   UNL     1      -0.783   0.896   2.805  1.00  0.00     0.151 A 
ATOM     17  N   UNL     1      -1.635  -0.003   2.317  1.00  0.00    -0.174 NA
BRANCH  14  18
ATOM     18  N   UNL     1       1.024  -0.145  -0.045  1.00  0.00    -0.383 N 
ATOM     19  H   UNL     1       1.850   0.374  -0.180  1.00  0.00     0.158 HD
ATOM     20  H   UNL     1       0.774  -0.846  -0.689  1.00  0.00     0.158 HD
ENDBRANCH  14  18
BRANCH  15  21
ATOM     21  C   UNL     1      -1.443  -1.752   0.708  1.00  0.00     0.067 A 
ATOM     22  C   UNL     1      -2.816  -1.865   0.468  1.00  0.00     0.028 A 
ATOM     23  C   UNL     1      -0.575  -2.813   0.431  1.00  0.00     0.028 A 
ATOM     24  C   UNL     1      -3.317  -3.035  -0.093  1.00  0.00     0.002 A 
ATOM     25  C   UNL     1      -1.093  -3.999  -0.085  1.00  0.00     0.002 A 
ATOM     26  C   UNL     1      -2.459  -4.104  -0.358  1.00  0.00     0.000 A 
ENDBRANCH  15  21
ENDBRANCH  10  13
ENDBRANCH   8   9
ENDBRANCH   6   8
ENDBRANCH   5   6
ENDBRANCH   4   5
ENDBRANCH   3   4
ENDBRANCH   2   3
ENDBRANCH   1   2
BRANCH   1  27
ATOM     27  C   UNL     1       3.717   4.777   4.774  1.00  0.00     0.188 C 
BRANCH  27  28
ATOM     28  O   UNL     1       4.162   3.505   4.348  1.00  0.00    -0.376 OA
BRANCH  28  29
ATOM     29  C   UNL     1       5.391   2.884   4.718  1.00  0.00     0.202 C 
BRANCH  29  30
ATOM     30  C   UNL     1       6.688   3.622   5.061  1.00  0.00     0.261 C 
BRANCH  30  31
ATOM     31  O   UNL     1       6.553   5.012   5.189  1.00  0.00    -0.460 OA
BRANCH  31  32
ATOM     32  C   UNL     1       6.535   5.663   4.010  1.00  0.00     0.338 C 
ATOM     33  O   UNL     1       6.612   5.188   2.887  1.00  0.00    -0.246 OA
BRANCH  32  34
ATOM     34  C   UNL     1       6.351   7.084   4.309  1.00  0.00     0.060 A 
ATOM     35  C   UNL     1       6.103   7.932   3.231  1.00  0.00     0.016 A 
ATOM     36  C   UNL     1       6.649   7.555   5.597  1.00  0.00     0.016 A 
ATOM     37  C   UNL     1       6.481   9.242   3.361  1.00  0.00     0.010 A 
ATOM     38  C   UNL     1       7.051   8.851   5.720  1.00  0.00     0.010 A 
ATOM     39  C   UNL     1       7.079   9.623   4.563  1.00  0.00    -0.014 A 
BRANCH  39  40
ATOM     40  C   UNL     1       7.838  10.846   4.579  1.00  0.00     0.031 A 
ATOM     41  C   UNL     1       7.000  12.037   4.775  1.00  0.00     0.074 A 
ATOM     42  C   UNL     1       9.183  10.794   4.533  1.00  0.00     0.049 A 
ATOM     43  N   UNL     1       6.776  12.993   3.939  1.00  0.00    -0.248 NA
ATOM     44  C   UNL     1       6.152  12.072   5.979  1.00  0.00     0.031 C 
ATOM     45  C   UNL     1      10.045   9.607   4.623  1.00  0.00     0.029 A 
ATOM     46  N   UNL     1      10.076  11.814   4.516  1.00  0.00    -0.354 N 
ATOM     47  C   UNL     1       5.944  13.873   4.619  1.00  0.00     0.074 A 
ATOM     48  C   UNL     1       5.410  13.151   5.739  1.00  0.00     0.031 C 
ATOM     49  C   UNL     1      11.312   9.996   4.889  1.00  0.00     0.029 A 
ATOM     50  C   UNL     1      11.369  11.446   4.866  1.00  0.00     0.049 A 
ATOM     51  H   UNL     1       9.829  12.737   4.277  1.00  0.00     0.167 HD
ATOM     52  C   UNL     1       6.035  15.210   4.398  1.00  0.00     0.037 A 
ATOM     53  C   UNL     1      12.363  12.302   5.209  1.00  0.00     0.037 A 
ATOM     54  C   UNL     1       6.663  15.481   3.127  1.00  0.00     0.049 A 
ATOM     55  C   UNL     1      11.966  13.652   4.730  1.00  0.00     0.074 A 
ATOM     56  C   UNL     1       6.383  15.153   1.814  1.00  0.00     0.029 A 
ATOM     57  N   UNL     1       7.974  15.891   3.141  1.00  0.00    -0.354 N 
ATOM     58  N   UNL     1      11.892  13.987   3.471  1.00  0.00    -0.248 NA
ATOM     59  C   UNL     1      11.201  14.493   5.641  1.00  0.00     0.031 C 
ATOM     60  C   UNL     1       7.654  14.958   1.197  1.00  0.00     0.029 A 
ATOM     61  C   UNL     1       8.640  15.223   2.148  1.00  0.00     0.049 A 
ATOM     62  H   UNL     1       8.366  16.551   3.757  1.00  0.00     0.167 HD
ATOM     63  C   UNL     1      10.762  14.790   3.381  1.00  0.00     0.074 A 
ATOM     64  C   UNL     1      10.434  15.141   4.760  1.00  0.00     0.031 C 
ATOM     65  C   UNL     1      10.033  14.846   2.227  1.00  0.00     0.037 A 
BRANCH  52  66
ATOM     66  C   UNL     1       5.979  16.234   5.510  1.00  0.00     0.057 A 
ATOM     67  C   UNL     1       6.029  17.595   5.164  1.00  0.00     0.134 A 
ATOM     68  C   UNL     1       6.189  15.961   6.881  1.00  0.00     0.134 A 
ATOM     69  F   UNL     1       5.842  17.989   3.896  1.00  0.00    -0.206 F 
ATOM     70  C   UNL     1       6.369  18.591   6.086  1.00  0.00     0.040 A 
ATOM     71  C   UNL     1       6.476  16.954   7.818  1.00  0.00     0.040 A 
ATOM     72  F   UNL     1       6.227  14.723   7.385  1.00  0.00    -0.206 F 
ATOM     73  C   UNL     1       6.608  18.270   7.416  1.00  0.00     0.006 A 
ENDBRANCH  52  66
BRANCH  53  74
ATOM     74  C   UNL     1      13.436  12.102   6.210  1.00  0.00     0.057 A 
ATOM     75  C   UNL     1      14.549  12.953   6.253  1.00  0.00     0.134 A 
ATOM     76  C   UNL     1      13.274  11.246   7.314  1.00  0.00     0.134 A 
ATOM     77  F   UNL     1      14.767  13.836   5.268  1.00  0.00    -0.206 F 
ATOM     78  C   UNL     1      15.434  12.970   7.340  1.00  0.00     0.040 A 
ATOM     79  C   UNL     1      14.155  11.245   8.401  1.00  0.00     0.040 A 
ATOM     80  F   UNL     1      12.205  10.444   7.422  1.00  0.00    -0.206 F 
ATOM     81  C   UNL     1      15.232  12.120   8.423  1.00  0.00     0.006 A 
ENDBRANCH  53  74
BRANCH  65  82
ATOM     82  C   UNL     1      10.637  14.242   0.990  1.00  0.00     0.057 A 
ATOM     83  C   UNL     1      10.901  12.873   0.833  1.00  0.00     0.134 A 
ATOM     84  C   UNL     1      10.814  15.054  -0.135  1.00  0.00     0.134 A 
ATOM     85  F   UNL     1      10.667  12.005   1.825  1.00  0.00    -0.206 F 
ATOM     86  C   UNL     1      11.360  12.345  -0.378  1.00  0.00     0.040 A 
ATOM     87  C   UNL     1      11.238  14.534  -1.360  1.00  0.00     0.040 A 
ATOM     88  F   UNL     1      10.526  16.364  -0.075  1.00  0.00    -0.206 F 
ATOM     89  C   UNL     1      11.522  13.176  -1.482  1.00  0.00     0.006 A 
ENDBRANCH  65  82
ENDBRANCH  39  40
ENDBRANCH  32  34
ENDBRANCH  31  32
ENDBRANCH  30  31
ENDBRANCH  29  30
ENDBRANCH  28  29
ENDBRANCH  27  28
ENDBRANCH   1  27
TORSDOF 21
