REMARK SMILES C[C@@H](c1ccc(C(=O)OCCOCCOCCOC(=O)c2ccc(-c3c4nc(c(-c5c(F)cccc5F)c5ccc([nH]5)c(-c5c(F)cccc5F)c5nc(c(-c6c(F)cccc6F)c6ccc3[nH]6)C=C5)C=C4)cc2)o1)[N@@H+](C)Cc1ccoc1
REMARK SMILES IDX 13 1 12 2 11 3 10 4 9 5 7 6 8 7 6 8 3 9 4 10 75 11 5 12 2 13
REMARK SMILES IDX 1 14 76 15 77 16 78 18 79 19 80 20 83 21 81 22 82 23 14 24
REMARK SMILES IDX 15 25 16 26 17 27 18 28 19 29 20 30 21 31 22 32 74 33 23 34
REMARK SMILES IDX 73 35 24 36 25 37 26 38 67 39 27 40 72 41 66 42 68 43 28 44
REMARK SMILES IDX 71 45 65 46 64 47 29 49 55 50 38 51 54 52 39 53 42 54 53 55
REMARK SMILES IDX 69 56 40 57 41 58 52 60 70 61 43 62 30 63 31 64 36 65 32 66
REMARK SMILES IDX 33 67 35 68 37 69 34 70 56 71 57 72 62 73 58 74 59 75 61 76
REMARK SMILES IDX 63 77 60 78 44 79 45 80 50 81 46 82 47 83 49 84 51 85 48 86
REMARK H PARENT 76 17 68 48 42 59
REMARK Flexibility Score: inf
ROOT
ATOM      1  C   UNL     1       1.616  -1.195   7.310  1.00  0.00     0.188 C 
ENDROOT
BRANCH   1   2
ATOM      2  O   UNL     1       2.793  -1.187   8.112  1.00  0.00    -0.376 OA
BRANCH   2   3
ATOM      3  C   UNL     1       3.372   0.035   8.536  1.00  0.00     0.202 C 
BRANCH   3   4
ATOM      4  C   UNL     1       4.246   0.756   7.509  1.00  0.00     0.261 C 
BRANCH   4   5
ATOM      5  O   UNL     1       3.546   1.131   6.315  1.00  0.00    -0.457 OA
BRANCH   5   6
ATOM      6  C   UNL     1       3.678   0.272   5.260  1.00  0.00     0.374 C 
ATOM      7  O   UNL     1       4.356  -0.747   5.266  1.00  0.00    -0.242 OA
BRANCH   6   8
ATOM      8  C   UNL     1       2.844   0.718   4.171  1.00  0.00     0.212 A 
ATOM      9  C   UNL     1       1.516   0.422   2.426  1.00  0.00     0.162 A 
ATOM     10  C   UNL     1       1.678   1.785   2.581  1.00  0.00     0.053 A 
ATOM     11  O   UNL     1       2.252  -0.230   3.377  1.00  0.00    -0.448 OA
ATOM     12  C   UNL     1       2.474   1.976   3.735  1.00  0.00     0.059 A 
BRANCH   9  13
ATOM     13  C   UNL     1       0.793  -0.441   1.433  1.00  0.00     0.248 C 
ATOM     14  C   UNL     1       1.158  -0.046  -0.002  1.00  0.00     0.084 C 
BRANCH  13  15
ATOM     15  N   UNL     1      -0.664  -0.530   1.593  1.00  0.00    -0.325 N 
ATOM     16  C   UNL     1      -1.128  -1.626   2.417  1.00  0.00     0.333 C 
ATOM     17  H   UNL     1      -0.876  -0.800   0.632  1.00  0.00     0.348 HD
BRANCH  15  18
ATOM     18  C   UNL     1      -1.506   0.657   1.540  1.00  0.00     0.302 C 
BRANCH  18  19
ATOM     19  C   UNL     1      -1.521   1.519   2.764  1.00  0.00     0.044 A 
ATOM     20  C   UNL     1      -1.474   1.172   4.146  1.00  0.00     0.051 A 
ATOM     21  C   UNL     1      -1.628   2.900   2.759  1.00  0.00     0.204 A 
ATOM     22  C   UNL     1      -1.490   2.348   4.858  1.00  0.00     0.195 A 
ATOM     23  O   UNL     1      -1.591   3.405   4.016  1.00  0.00    -0.472 OA
ENDBRANCH  18  19
ENDBRANCH  15  18
ENDBRANCH  13  15
ENDBRANCH   9  13
ENDBRANCH   6   8
ENDBRANCH   5   6
ENDBRANCH   4   5
ENDBRANCH   3   4
ENDBRANCH   2   3
ENDBRANCH   1   2
BRANCH   1  24
ATOM     24  C   UNL     1       0.677   0.023   7.250  1.00  0.00     0.188 C 
BRANCH  24  25
ATOM     25  O   UNL     1       0.509   0.688   8.496  1.00  0.00    -0.376 OA
BRANCH  25  26
ATOM     26  C   UNL     1      -0.787   0.613   9.076  1.00  0.00     0.202 C 
BRANCH  26  27
ATOM     27  C   UNL     1      -0.964  -0.647   9.927  1.00  0.00     0.261 C 
BRANCH  27  28
ATOM     28  O   UNL     1      -0.932  -1.874   9.180  1.00  0.00    -0.460 OA
BRANCH  28  29
ATOM     29  C   UNL     1      -1.913  -2.054   8.269  1.00  0.00     0.338 C 
ATOM     30  O   UNL     1      -2.834  -1.299   8.013  1.00  0.00    -0.246 OA
BRANCH  29  31
ATOM     31  C   UNL     1      -1.601  -3.269   7.496  1.00  0.00     0.060 A 
ATOM     32  C   UNL     1      -1.562  -3.182   6.101  1.00  0.00     0.016 A 
ATOM     33  C   UNL     1      -1.359  -4.484   8.142  1.00  0.00     0.016 A 
ATOM     34  C   UNL     1      -1.302  -4.323   5.341  1.00  0.00     0.010 A 
ATOM     35  C   UNL     1      -1.114  -5.628   7.380  1.00  0.00     0.010 A 
ATOM     36  C   UNL     1      -1.108  -5.557   5.976  1.00  0.00    -0.014 A 
BRANCH  36  37
ATOM     37  C   UNL     1      -1.057  -6.806   5.181  1.00  0.00     0.031 A 
ATOM     38  C   UNL     1      -2.320  -7.601   5.006  1.00  0.00     0.074 A 
ATOM     39  C   UNL     1       0.093  -7.235   4.632  1.00  0.00     0.049 A 
ATOM     40  N   UNL     1      -2.501  -8.752   4.413  1.00  0.00    -0.248 NA
ATOM     41  C   UNL     1      -3.543  -7.016   5.579  1.00  0.00     0.031 C 
ATOM     42  C   UNL     1       1.377  -6.542   4.702  1.00  0.00     0.029 A 
ATOM     43  N   UNL     1       0.361  -8.374   3.916  1.00  0.00    -0.354 N 
ATOM     44  C   UNL     1      -3.854  -9.033   4.544  1.00  0.00     0.074 A 
ATOM     45  C   UNL     1      -4.444  -7.944   5.292  1.00  0.00     0.031 C 
ATOM     46  C   UNL     1       2.304  -7.281   4.068  1.00  0.00     0.029 A 
ATOM     47  C   UNL     1       1.683  -8.509   3.573  1.00  0.00     0.049 A 
ATOM     48  H   UNL     1      -0.330  -9.032   3.671  1.00  0.00     0.167 HD
ATOM     49  C   UNL     1      -4.546 -10.099   4.079  1.00  0.00     0.037 A 
ATOM     50  C   UNL     1       2.321  -9.521   2.953  1.00  0.00     0.037 A 
ATOM     51  C   UNL     1      -3.963 -11.189   3.344  1.00  0.00     0.049 A 
ATOM     52  C   UNL     1       1.543 -10.732   2.509  1.00  0.00     0.074 A 
ATOM     53  C   UNL     1      -4.587 -12.308   2.821  1.00  0.00     0.029 A 
ATOM     54  N   UNL     1      -2.616 -11.299   3.035  1.00  0.00    -0.354 N 
ATOM     55  N   UNL     1       0.259 -10.976   2.614  1.00  0.00    -0.248 NA
ATOM     56  C   UNL     1       2.305 -11.809   1.859  1.00  0.00     0.031 C 
ATOM     57  C   UNL     1      -3.610 -13.116   2.229  1.00  0.00     0.029 A 
ATOM     58  C   UNL     1      -2.385 -12.478   2.347  1.00  0.00     0.049 A 
ATOM     59  H   UNL     1      -1.926 -10.637   3.270  1.00  0.00     0.167 HD
ATOM     60  C   UNL     1       0.057 -12.217   2.020  1.00  0.00     0.074 A 
ATOM     61  C   UNL     1       1.348 -12.673   1.552  1.00  0.00     0.031 C 
ATOM     62  C   UNL     1      -1.097 -12.914   1.875  1.00  0.00     0.037 A 
BRANCH  49  63
ATOM     63  C   UNL     1      -6.013 -10.144   4.375  1.00  0.00     0.057 A 
ATOM     64  C   UNL     1      -6.925  -9.316   3.708  1.00  0.00     0.134 A 
ATOM     65  C   UNL     1      -6.522 -11.038   5.325  1.00  0.00     0.134 A 
ATOM     66  F   UNL     1      -6.496  -8.426   2.801  1.00  0.00    -0.206 F 
ATOM     67  C   UNL     1      -8.291  -9.363   3.989  1.00  0.00     0.040 A 
ATOM     68  C   UNL     1      -7.888 -11.109   5.599  1.00  0.00     0.040 A 
ATOM     69  F   UNL     1      -5.700 -11.858   5.998  1.00  0.00    -0.206 F 
ATOM     70  C   UNL     1      -8.776 -10.267   4.933  1.00  0.00     0.006 A 
ENDBRANCH  49  63
BRANCH  50  71
ATOM     71  C   UNL     1       3.785  -9.449   2.724  1.00  0.00     0.057 A 
ATOM     72  C   UNL     1       4.309  -9.287   1.437  1.00  0.00     0.134 A 
ATOM     73  C   UNL     1       4.694  -9.572   3.782  1.00  0.00     0.134 A 
ATOM     74  F   UNL     1       3.488  -9.193   0.381  1.00  0.00    -0.206 F 
ATOM     75  C   UNL     1       5.686  -9.266   1.207  1.00  0.00     0.040 A 
ATOM     76  C   UNL     1       6.072  -9.530   3.569  1.00  0.00     0.040 A 
ATOM     77  F   UNL     1       4.252  -9.736   5.038  1.00  0.00    -0.206 F 
ATOM     78  C   UNL     1       6.572  -9.383   2.276  1.00  0.00     0.006 A 
ENDBRANCH  50  71
BRANCH  62  79
ATOM     79  C   UNL     1      -1.027 -14.223   1.145  1.00  0.00     0.057 A 
ATOM     80  C   UNL     1      -0.488 -15.371   1.737  1.00  0.00     0.134 A 
ATOM     81  C   UNL     1      -1.552 -14.345  -0.148  1.00  0.00     0.134 A 
ATOM     82  F   UNL     1       0.041 -15.317   2.969  1.00  0.00    -0.206 F 
ATOM     83  C   UNL     1      -0.460 -16.593   1.063  1.00  0.00     0.040 A 
ATOM     84  C   UNL     1      -1.549 -15.566  -0.824  1.00  0.00     0.040 A 
ATOM     85  F   UNL     1      -2.091 -13.284  -0.767  1.00  0.00    -0.206 F 
ATOM     86  C   UNL     1      -0.998 -16.694  -0.219  1.00  0.00     0.006 A 
ENDBRANCH  62  79
ENDBRANCH  36  37
ENDBRANCH  29  31
ENDBRANCH  28  29
ENDBRANCH  27  28
ENDBRANCH  26  27
ENDBRANCH  25  26
ENDBRANCH  24  25
ENDBRANCH   1  24
TORSDOF 21
