REMARK SMILES Cc1c(C(=O)OCCOCCOCCOC(=O)c2ccc(-c3c4nc(c(-c5c(F)cccc5F)c5ccc([nH]5)c(-c5c(F)cccc5F)c5nc(c(-c6c(F)cccc6F)c6ccc3[nH]6)C=C5)C=C4)cc2)ccc2c1N[C@@H](c1ccc(S(=O)(=O)N3CCOCC3)cc1)[C@@H]1CC=C[C@H]21
REMARK SMILES IDX 10 1 9 2 8 3 7 4 6 5 4 6 5 7 3 8 1 9 2 10 75 11 72 12 74 13
REMARK SMILES IDX 76 14 73 15 97 16 77 17 93 19 96 20 94 21 95 22 78 23 79 24
REMARK SMILES IDX 92 25 80 26 91 27 81 28 82 29 83 30 84 31 85 32 86 33 90 34
REMARK SMILES IDX 87 35 89 36 88 37 11 38 12 39 13 40 14 41 15 42 16 43 17 44
REMARK SMILES IDX 18 45 19 46 71 47 20 48 70 49 21 50 22 51 23 52 64 53 24 54
REMARK SMILES IDX 69 55 63 56 65 57 25 58 68 59 62 60 61 61 26 63 52 64 35 65
REMARK SMILES IDX 51 66 36 67 39 68 50 69 66 70 37 71 38 72 49 74 67 75 40 76
REMARK SMILES IDX 27 77 28 78 33 79 29 80 30 81 32 82 34 83 31 84 53 85 54 86
REMARK SMILES IDX 59 87 55 88 56 89 58 90 60 91 57 92 41 93 42 94 47 95 43 96
REMARK SMILES IDX 44 97 46 98 48 99 45 100
REMARK H PARENT 76 18 65 62 39 73
REMARK Flexibility Score: inf
ROOT
ATOM      1  C   UNL     1       3.728  -3.312   1.687  1.00  0.00     0.188 C 
ENDROOT
BRANCH   1   2
ATOM      2  O   UNL     1       5.064  -2.914   1.918  1.00  0.00    -0.376 OA
BRANCH   2   3
ATOM      3  C   UNL     1       5.557  -1.696   1.379  1.00  0.00     0.202 C 
BRANCH   3   4
ATOM      4  C   UNL     1       5.041  -1.101   0.065  1.00  0.00     0.261 C 
BRANCH   4   5
ATOM      5  O   UNL     1       3.627  -1.197  -0.104  1.00  0.00    -0.460 OA
BRANCH   5   6
ATOM      6  C   UNL     1       3.210  -1.831  -1.226  1.00  0.00     0.338 C 
ATOM      7  O   UNL     1       3.916  -2.291  -2.109  1.00  0.00    -0.246 OA
BRANCH   6   8
ATOM      8  C   UNL     1       1.755  -2.097  -1.148  1.00  0.00     0.065 A 
ATOM      9  C   UNL     1       1.150   0.275  -0.397  1.00  0.00     0.047 C 
ATOM     10  C   UNL     1       0.788  -1.132  -0.806  1.00  0.00    -0.013 A 
ATOM     11  C   UNL     1      -0.578  -1.503  -0.840  1.00  0.00     0.042 A 
ATOM     12  C   UNL     1       1.375  -3.417  -1.438  1.00  0.00     0.016 A 
ATOM     13  C   UNL     1      -0.946  -2.800  -1.235  1.00  0.00    -0.017 A 
ATOM     14  N   UNL     1      -1.546  -0.543  -0.619  1.00  0.00    -0.377 N 
ATOM     15  C   UNL     1       0.035  -3.771  -1.466  1.00  0.00     0.007 A 
ATOM     16  C   UNL     1      -2.375  -3.140  -1.539  1.00  0.00     0.049 C 
ATOM     17  C   UNL     1      -2.965  -0.805  -0.741  1.00  0.00     0.114 C 
ATOM     18  H   UNL     1      -1.258   0.364  -0.367  1.00  0.00     0.161 HD
ATOM     19  C   UNL     1      -3.274  -1.914  -1.783  1.00  0.00     0.031 C 
ATOM     20  C   UNL     1      -3.150  -3.896  -0.495  1.00  0.00    -0.023 C 
ATOM     21  C   UNL     1      -4.676  -2.548  -1.636  1.00  0.00     0.034 C 
ATOM     22  C   UNL     1      -4.450  -3.578  -0.570  1.00  0.00    -0.030 C 
BRANCH  17  23
ATOM     23  C   UNL     1      -3.658   0.511  -1.072  1.00  0.00    -0.025 A 
ATOM     24  C   UNL     1      -3.039   1.621  -1.693  1.00  0.00     0.007 A 
ATOM     25  C   UNL     1      -5.000   0.618  -0.741  1.00  0.00     0.007 A 
ATOM     26  C   UNL     1      -3.760   2.795  -1.976  1.00  0.00     0.022 A 
ATOM     27  C   UNL     1      -5.715   1.742  -1.097  1.00  0.00     0.022 A 
ATOM     28  C   UNL     1      -5.121   2.841  -1.688  1.00  0.00     0.082 A 
BRANCH  28  29
ATOM     29  S   UNL     1      -6.093   4.287  -2.042  1.00  0.00     0.243 S 
ATOM     30  O   UNL     1      -5.650   5.307  -1.120  1.00  0.00    -0.207 OA
ATOM     31  O   UNL     1      -6.029   4.476  -3.478  1.00  0.00    -0.207 OA
BRANCH  29  32
ATOM     32  N   UNL     1      -7.685   3.891  -1.648  1.00  0.00    -0.193 NA
ATOM     33  C   UNL     1      -8.206   3.964  -0.265  1.00  0.00     0.131 C 
ATOM     34  C   UNL     1      -8.591   3.217  -2.598  1.00  0.00     0.131 C 
ATOM     35  C   UNL     1      -8.757   2.612   0.221  1.00  0.00     0.177 C 
ATOM     36  C   UNL     1      -9.060   1.864  -2.054  1.00  0.00     0.177 C 
ATOM     37  O   UNL     1      -9.608   1.960  -0.731  1.00  0.00    -0.379 OA
ENDBRANCH  29  32
ENDBRANCH  28  29
ENDBRANCH  17  23
ENDBRANCH   6   8
ENDBRANCH   5   6
ENDBRANCH   4   5
ENDBRANCH   3   4
ENDBRANCH   2   3
ENDBRANCH   1   2
BRANCH   1  38
ATOM     38  C   UNL     1       2.557  -2.501   2.288  1.00  0.00     0.188 C 
BRANCH  38  39
ATOM     39  O   UNL     1       2.797  -1.272   2.935  1.00  0.00    -0.376 OA
BRANCH  39  40
ATOM     40  C   UNL     1       3.556  -1.250   4.133  1.00  0.00     0.202 C 
BRANCH  40  41
ATOM     41  C   UNL     1       3.582  -2.404   5.152  1.00  0.00     0.261 C 
BRANCH  41  42
ATOM     42  O   UNL     1       3.554  -3.735   4.622  1.00  0.00    -0.460 OA
BRANCH  42  43
ATOM     43  C   UNL     1       2.442  -4.456   4.906  1.00  0.00     0.338 C 
ATOM     44  O   UNL     1       1.474  -4.109   5.566  1.00  0.00    -0.246 OA
BRANCH  43  45
ATOM     45  C   UNL     1       2.479  -5.717   4.145  1.00  0.00     0.060 A 
ATOM     46  C   UNL     1       1.632  -5.873   3.037  1.00  0.00     0.016 A 
ATOM     47  C   UNL     1       3.314  -6.755   4.555  1.00  0.00     0.016 A 
ATOM     48  C   UNL     1       1.622  -7.073   2.328  1.00  0.00     0.010 A 
ATOM     49  C   UNL     1       3.267  -7.974   3.874  1.00  0.00     0.010 A 
ATOM     50  C   UNL     1       2.404  -8.144   2.776  1.00  0.00    -0.014 A 
BRANCH  50  51
ATOM     51  C   UNL     1       2.126  -9.509   2.272  1.00  0.00     0.031 A 
ATOM     52  C   UNL     1       1.088 -10.321   2.995  1.00  0.00     0.074 A 
ATOM     53  C   UNL     1       2.772 -10.021   1.212  1.00  0.00     0.049 A 
ATOM     54  N   UNL     1       0.724 -11.563   2.813  1.00  0.00    -0.248 NA
ATOM     55  C   UNL     1       0.360  -9.630   4.074  1.00  0.00     0.031 C 
ATOM     56  C   UNL     1       3.751  -9.316   0.388  1.00  0.00     0.029 A 
ATOM     57  N   UNL     1       2.704 -11.275   0.658  1.00  0.00    -0.354 N 
ATOM     58  C   UNL     1      -0.274 -11.802   3.749  1.00  0.00     0.074 A 
ATOM     59  C   UNL     1      -0.439 -10.587   4.516  1.00  0.00     0.031 C 
ATOM     60  C   UNL     1       4.211 -10.158  -0.555  1.00  0.00     0.029 A 
ATOM     61  C   UNL     1       3.587 -11.469  -0.375  1.00  0.00     0.049 A 
ATOM     62  H   UNL     1       2.081 -11.970   0.972  1.00  0.00     0.167 HD
ATOM     63  C   UNL     1      -0.991 -12.931   3.953  1.00  0.00     0.037 A 
ATOM     64  C   UNL     1       3.875 -12.588  -1.068  1.00  0.00     0.037 A 
ATOM     65  C   UNL     1      -0.796 -14.153   3.220  1.00  0.00     0.049 A 
ATOM     66  C   UNL     1       3.156 -13.872  -0.732  1.00  0.00     0.074 A 
ATOM     67  C   UNL     1      -1.456 -15.360   3.362  1.00  0.00     0.029 A 
ATOM     68  N   UNL     1       0.147 -14.326   2.219  1.00  0.00    -0.354 N 
ATOM     69  N   UNL     1       2.204 -14.089   0.144  1.00  0.00    -0.248 NA
ATOM     70  C   UNL     1       3.560 -15.071  -1.483  1.00  0.00     0.031 C 
ATOM     71  C   UNL     1      -0.873 -16.281   2.486  1.00  0.00     0.029 A 
ATOM     72  C   UNL     1       0.106 -15.629   1.752  1.00  0.00     0.049 A 
ATOM     73  H   UNL     1       0.756 -13.626   1.888  1.00  0.00     0.167 HD
ATOM     74  C   UNL     1       1.871 -15.434   0.022  1.00  0.00     0.074 A 
ATOM     75  C   UNL     1       2.715 -15.980  -1.020  1.00  0.00     0.031 C 
ATOM     76  C   UNL     1       0.947 -16.154   0.706  1.00  0.00     0.037 A 
BRANCH  63  77
ATOM     77  C   UNL     1      -2.016 -12.897   5.048  1.00  0.00     0.057 A 
ATOM     78  C   UNL     1      -1.822 -13.622   6.230  1.00  0.00     0.134 A 
ATOM     79  C   UNL     1      -3.190 -12.138   4.940  1.00  0.00     0.134 A 
ATOM     80  F   UNL     1      -0.720 -14.368   6.399  1.00  0.00    -0.206 F 
ATOM     81  C   UNL     1      -2.757 -13.592   7.266  1.00  0.00     0.040 A 
ATOM     82  C   UNL     1      -4.117 -12.076   5.981  1.00  0.00     0.040 A 
ATOM     83  F   UNL     1      -3.426 -11.403   3.842  1.00  0.00    -0.206 F 
ATOM     84  C   UNL     1      -3.904 -12.810   7.147  1.00  0.00     0.006 A 
ENDBRANCH  63  77
BRANCH  64  85
ATOM     85  C   UNL     1       4.912 -12.574  -2.133  1.00  0.00     0.057 A 
ATOM     86  C   UNL     1       6.269 -12.409  -1.830  1.00  0.00     0.134 A 
ATOM     87  C   UNL     1       4.575 -12.798  -3.473  1.00  0.00     0.134 A 
ATOM     88  F   UNL     1       6.661 -12.197  -0.565  1.00  0.00    -0.206 F 
ATOM     89  C   UNL     1       7.252 -12.468  -2.820  1.00  0.00     0.040 A 
ATOM     90  C   UNL     1       5.550 -12.888  -4.469  1.00  0.00     0.040 A 
ATOM     91  F   UNL     1       3.295 -12.993  -3.823  1.00  0.00    -0.206 F 
ATOM     92  C   UNL     1       6.894 -12.720  -4.142  1.00  0.00     0.006 A 
ENDBRANCH  64  85
BRANCH  76  93
ATOM     93  C   UNL     1       0.763 -17.594   0.313  1.00  0.00     0.057 A 
ATOM     94  C   UNL     1      -0.416 -18.010  -0.319  1.00  0.00     0.134 A 
ATOM     95  C   UNL     1       1.729 -18.571   0.582  1.00  0.00     0.134 A 
ATOM     96  F   UNL     1      -1.390 -17.129  -0.596  1.00  0.00    -0.206 F 
ATOM     97  C   UNL     1      -0.627 -19.345  -0.670  1.00  0.00     0.040 A 
ATOM     98  C   UNL     1       1.544 -19.904   0.207  1.00  0.00     0.040 A 
ATOM     99  F   UNL     1       2.886 -18.240   1.175  1.00  0.00    -0.206 F 
ATOM    100  C   UNL     1       0.359 -20.294  -0.415  1.00  0.00     0.006 A 
ENDBRANCH  76  93
ENDBRANCH  50  51
ENDBRANCH  43  45
ENDBRANCH  42  43
ENDBRANCH  41  42
ENDBRANCH  40  41
ENDBRANCH  39  40
ENDBRANCH  38  39
ENDBRANCH   1  38
TORSDOF 20
