REMARK SMILES C[NH+]1CCN(C(=O)c2ccc3c(c2)N(CC(=O)OCCOCCOCCOC(=O)c2ccc(-c4c5nc(c(-c6c(F)cccc6F)c6ccc([nH]6)c(-c6c(F)cccc6F)c6nc(c(-c7c(F)cccc7F)c7ccc4[nH]7)C=C6)C=C5)cc2)C(=O)CO3)CC1
REMARK SMILES IDX 22 1 21 2 20 3 19 4 18 5 16 6 17 7 15 8 14 9 8 10 9 11 13 12
REMARK SMILES IDX 10 13 12 14 11 15 87 16 84 17 86 18 85 19 6 20 1 21 2 22
REMARK SMILES IDX 3 23 89 24 4 26 88 27 5 28 7 29 23 30 24 31 25 32 26 33
REMARK SMILES IDX 27 34 28 35 29 36 30 37 31 38 83 39 32 40 82 41 33 42 34 43
REMARK SMILES IDX 35 44 76 45 36 46 81 47 75 48 77 49 37 50 80 51 74 52 73 53
REMARK SMILES IDX 38 55 64 56 47 57 63 58 48 59 51 60 62 61 78 62 49 63 50 64
REMARK SMILES IDX 61 66 79 67 52 68 39 69 40 70 45 71 41 72 42 73 44 74 46 75
REMARK SMILES IDX 43 76 65 77 66 78 71 79 67 80 68 81 70 82 72 83 69 84 53 85
REMARK SMILES IDX 54 86 59 87 55 88 56 89 58 90 60 91 57 92
REMARK H PARENT 2 25 77 54 51 65
REMARK Flexibility Score: inf
ROOT
ATOM      1  C   UNL     1       1.335  -4.150   0.547  1.00  0.00     0.188 C 
ENDROOT
BRANCH   1   2
ATOM      2  O   UNL     1       1.795  -5.477   0.498  1.00  0.00    -0.376 OA
BRANCH   2   3
ATOM      3  C   UNL     1       0.809  -6.503   0.624  1.00  0.00     0.202 C 
BRANCH   3   4
ATOM      4  C   UNL     1      -0.071  -6.516   1.904  1.00  0.00     0.261 C 
BRANCH   4   5
ATOM      5  O   UNL     1      -1.322  -5.730   1.873  1.00  0.00    -0.462 OA
BRANCH   5   6
ATOM      6  C   UNL     1      -1.593  -4.998   3.001  1.00  0.00     0.326 C 
ATOM      7  O   UNL     1      -0.790  -4.914   3.935  1.00  0.00    -0.250 OA
BRANCH   6   8
ATOM      8  C   UNL     1      -2.947  -4.166   3.076  1.00  0.00     0.248 C 
BRANCH   8   9
ATOM      9  N   UNL     1      -4.198  -4.283   2.313  1.00  0.00    -0.295 N 
ATOM     10  C   UNL     1      -4.649  -1.317  -0.205  1.00  0.00     0.042 A 
ATOM     11  C   UNL     1      -5.839  -1.762  -0.778  1.00  0.00     0.018 A 
ATOM     12  C   UNL     1      -4.379  -1.993   1.059  1.00  0.00     0.044 A 
ATOM     13  C   UNL     1      -6.542  -2.880  -0.252  1.00  0.00     0.049 A 
ATOM     14  C   UNL     1      -4.870  -3.285   1.452  1.00  0.00     0.087 A 
ATOM     15  C   UNL     1      -6.032  -3.668   0.797  1.00  0.00     0.143 A 
ATOM     16  O   UNL     1      -6.728  -4.815   1.071  1.00  0.00    -0.482 OA
ATOM     17  C   UNL     1      -4.867  -5.476   2.604  1.00  0.00     0.265 C 
ATOM     18  C   UNL     1      -6.342  -5.463   2.269  1.00  0.00     0.330 C 
ATOM     19  O   UNL     1      -4.346  -6.413   3.209  1.00  0.00    -0.270 OA
BRANCH  10  20
ATOM     20  C   UNL     1      -3.959  -0.021  -0.881  1.00  0.00     0.254 C 
ATOM     21  C   UNL     1       1.496   1.230  -0.666  1.00  0.00     0.332 C 
ATOM     22  N   UNL     1       0.332   1.020  -1.556  1.00  0.00    -0.334 N 
ATOM     23  C   UNL     1      -0.744   1.997  -1.281  1.00  0.00     0.283 C 
ATOM     24  C   UNL     1      -0.149  -0.365  -1.431  1.00  0.00     0.283 C 
ATOM     25  H   UNL     1       0.628   1.173  -2.520  1.00  0.00     0.347 HD
ATOM     26  C   UNL     1      -2.209   1.636  -1.800  1.00  0.00     0.181 C 
ATOM     27  C   UNL     1      -1.540  -0.635  -2.106  1.00  0.00     0.181 C 
ATOM     28  N   UNL     1      -2.638   0.214  -1.548  1.00  0.00    -0.327 N 
ATOM     29  O   UNL     1      -4.718   0.961  -0.814  1.00  0.00    -0.269 OA
ENDBRANCH  10  20
ENDBRANCH   8   9
ENDBRANCH   6   8
ENDBRANCH   5   6
ENDBRANCH   4   5
ENDBRANCH   3   4
ENDBRANCH   2   3
ENDBRANCH   1   2
BRANCH   1  30
ATOM     30  C   UNL     1       0.065  -3.858  -0.202  1.00  0.00     0.188 C 
BRANCH  30  31
ATOM     31  O   UNL     1      -0.270  -4.426  -1.439  1.00  0.00    -0.376 OA
BRANCH  31  32
ATOM     32  C   UNL     1      -1.682  -4.297  -1.610  1.00  0.00     0.202 C 
BRANCH  32  33
ATOM     33  C   UNL     1      -2.502  -3.303  -0.715  1.00  0.00     0.261 C 
BRANCH  33  34
ATOM     34  O   UNL     1      -1.993  -2.058   0.068  1.00  0.00    -0.460 OA
BRANCH  34  35
ATOM     35  C   UNL     1      -1.453  -1.829   1.317  1.00  0.00     0.338 C 
ATOM     36  O   UNL     1      -0.813  -2.650   1.966  1.00  0.00    -0.246 OA
BRANCH  35  37
ATOM     37  C   UNL     1      -1.803  -0.549   2.062  1.00  0.00     0.060 A 
ATOM     38  C   UNL     1      -1.987  -0.582   3.449  1.00  0.00     0.016 A 
ATOM     39  C   UNL     1      -2.122   0.645   1.448  1.00  0.00     0.016 A 
ATOM     40  C   UNL     1      -2.517   0.521   4.143  1.00  0.00     0.010 A 
ATOM     41  C   UNL     1      -2.576   1.784   2.112  1.00  0.00     0.010 A 
ATOM     42  C   UNL     1      -2.749   1.743   3.484  1.00  0.00    -0.014 A 
BRANCH  42  43
ATOM     43  C   UNL     1      -2.805   3.029   4.222  1.00  0.00     0.031 A 
ATOM     44  C   UNL     1      -3.900   4.046   4.040  1.00  0.00     0.074 A 
ATOM     45  C   UNL     1      -1.682   3.342   4.902  1.00  0.00     0.049 A 
ATOM     46  N   UNL     1      -4.014   5.232   4.583  1.00  0.00    -0.248 NA
ATOM     47  C   UNL     1      -4.965   3.732   3.075  1.00  0.00     0.031 C 
ATOM     48  C   UNL     1      -0.465   2.519   4.921  1.00  0.00     0.029 A 
ATOM     49  N   UNL     1      -1.360   4.408   5.693  1.00  0.00    -0.354 N 
ATOM     50  C   UNL     1      -5.131   5.822   3.998  1.00  0.00     0.074 A 
ATOM     51  C   UNL     1      -5.641   4.875   3.031  1.00  0.00     0.031 C 
ATOM     52  C   UNL     1       0.424   3.050   5.762  1.00  0.00     0.029 A 
ATOM     53  C   UNL     1      -0.129   4.282   6.293  1.00  0.00     0.049 A 
ATOM     54  H   UNL     1      -1.948   5.187   5.820  1.00  0.00     0.167 HD
ATOM     55  C   UNL     1      -5.669   7.041   4.261  1.00  0.00     0.037 A 
ATOM     56  C   UNL     1       0.482   5.065   7.195  1.00  0.00     0.037 A 
ATOM     57  C   UNL     1      -5.138   7.929   5.271  1.00  0.00     0.049 A 
ATOM     58  C   UNL     1      -0.246   6.287   7.641  1.00  0.00     0.074 A 
ATOM     59  C   UNL     1      -5.656   9.124   5.740  1.00  0.00     0.029 A 
ATOM     60  N   UNL     1      -3.958   7.705   5.971  1.00  0.00    -0.354 N 
ATOM     61  N   UNL     1      -1.373   6.776   7.179  1.00  0.00    -0.248 NA
ATOM     62  C   UNL     1       0.355   7.055   8.731  1.00  0.00     0.031 C 
ATOM     63  C   UNL     1      -4.779   9.630   6.708  1.00  0.00     0.029 A 
ATOM     64  C   UNL     1      -3.735   8.733   6.872  1.00  0.00     0.049 A 
ATOM     65  H   UNL     1      -3.367   6.928   5.845  1.00  0.00     0.167 HD
ATOM     66  C   UNL     1      -1.619   7.918   7.918  1.00  0.00     0.074 A 
ATOM     67  C   UNL     1      -0.540   8.021   8.886  1.00  0.00     0.031 C 
ATOM     68  C   UNL     1      -2.633   8.808   7.799  1.00  0.00     0.037 A 
BRANCH  55  69
ATOM     69  C   UNL     1      -6.893   7.478   3.493  1.00  0.00     0.057 A 
ATOM     70  C   UNL     1      -8.128   6.829   3.628  1.00  0.00     0.134 A 
ATOM     71  C   UNL     1      -6.862   8.612   2.666  1.00  0.00     0.134 A 
ATOM     72  F   UNL     1      -8.243   5.741   4.404  1.00  0.00    -0.206 F 
ATOM     73  C   UNL     1      -9.273   7.270   2.956  1.00  0.00     0.040 A 
ATOM     74  C   UNL     1      -8.007   9.080   2.011  1.00  0.00     0.040 A 
ATOM     75  F   UNL     1      -5.724   9.300   2.492  1.00  0.00    -0.206 F 
ATOM     76  C   UNL     1      -9.217   8.405   2.151  1.00  0.00     0.006 A 
ENDBRANCH  55  69
BRANCH  56  77
ATOM     77  C   UNL     1       1.769   4.616   7.780  1.00  0.00     0.057 A 
ATOM     78  C   UNL     1       1.808   4.069   9.067  1.00  0.00     0.134 A 
ATOM     79  C   UNL     1       2.947   4.572   7.023  1.00  0.00     0.134 A 
ATOM     80  F   UNL     1       0.709   4.071   9.835  1.00  0.00    -0.206 F 
ATOM     81  C   UNL     1       2.970   3.491   9.581  1.00  0.00     0.040 A 
ATOM     82  C   UNL     1       4.109   3.974   7.515  1.00  0.00     0.040 A 
ATOM     83  F   UNL     1       2.961   5.039   5.766  1.00  0.00    -0.206 F 
ATOM     84  C   UNL     1       4.122   3.431   8.798  1.00  0.00     0.006 A 
ENDBRANCH  56  77
BRANCH  68  85
ATOM     85  C   UNL     1      -2.591   9.965   8.745  1.00  0.00     0.057 A 
ATOM     86  C   UNL     1      -1.669  11.006   8.582  1.00  0.00     0.134 A 
ATOM     87  C   UNL     1      -3.467  10.027   9.833  1.00  0.00     0.134 A 
ATOM     88  F   UNL     1      -0.793  10.986   7.565  1.00  0.00    -0.206 F 
ATOM     89  C   UNL     1      -1.596  12.056   9.494  1.00  0.00     0.040 A 
ATOM     90  C   UNL     1      -3.420  11.086  10.738  1.00  0.00     0.040 A 
ATOM     91  F   UNL     1      -4.373   9.059  10.036  1.00  0.00    -0.206 F 
ATOM     92  C   UNL     1      -2.475  12.098  10.575  1.00  0.00     0.006 A 
ENDBRANCH  68  85
ENDBRANCH  42  43
ENDBRANCH  35  37
ENDBRANCH  34  35
ENDBRANCH  33  34
ENDBRANCH  32  33
ENDBRANCH  31  32
ENDBRANCH  30  31
ENDBRANCH   1  30
TORSDOF 19
