REMARK SMILES O=C(OCCOCCOCCOC(=O)c1ccccc1C(=O)Nc1ccc(N2C(=O)[C@H]3[C@@H]4CC[C@@H](C4)[C@@H]3C2=O)cc1)c1ccc(-c2c3nc(c(-c4c(F)cccc4F)c4ccc([nH]4)c(-c4c(F)cccc4F)c4nc(c(-c5c(F)cccc5F)c5ccc2[nH]5)C=C4)C=C3)cc1
REMARK SMILES IDX 8 1 7 2 6 3 5 4 4 5 3 6 2 7 1 8 42 9 43 10 95 11 44 12 94 13
REMARK SMILES IDX 45 14 46 15 47 16 88 17 48 18 93 19 87 20 89 21 49 22 92 23
REMARK SMILES IDX 86 24 85 25 50 27 76 28 59 29 75 30 60 31 63 32 74 33 90 34
REMARK SMILES IDX 61 35 62 36 73 38 91 39 64 40 51 41 52 42 57 43 53 44 54 45
REMARK SMILES IDX 56 46 58 47 55 48 77 49 78 50 83 51 79 52 80 53 82 54 84 55
REMARK SMILES IDX 81 56 65 57 66 58 71 59 67 60 68 61 70 62 72 63 69 64 9 65
REMARK SMILES IDX 10 66 11 67 12 68 13 69 14 70 15 71 16 72 20 73 17 74 19 75
REMARK SMILES IDX 18 76 21 77 22 78 23 79 24 81 25 82 41 83 26 84 40 85 27 86
REMARK SMILES IDX 28 87 29 88 38 89 30 90 31 91 37 92 39 93 32 94 35 95 33 96
REMARK SMILES IDX 36 97 34 98
REMARK H PARENT 89 26 63 37 23 80
REMARK Flexibility Score: inf
ROOT
ATOM      1  C   UNL     1       4.438   0.837  -1.484  1.00  0.00     0.188 C 
ENDROOT
BRANCH   1   2
ATOM      2  C   UNL     1       4.540   0.426  -0.025  1.00  0.00     0.188 C 
BRANCH   2   3
ATOM      3  O   UNL     1       5.802  -0.110   0.286  1.00  0.00    -0.376 OA
BRANCH   3   4
ATOM      4  C   UNL     1       6.136  -1.301  -0.415  1.00  0.00     0.202 C 
BRANCH   4   5
ATOM      5  C   UNL     1       5.064  -2.417  -0.381  1.00  0.00     0.261 C 
BRANCH   5   6
ATOM      6  O   UNL     1       4.725  -2.749   0.984  1.00  0.00    -0.460 OA
BRANCH   6   7
ATOM      7  C   UNL     1       3.498  -2.368   1.439  1.00  0.00     0.338 C 
ATOM      8  O   UNL     1       2.436  -2.480   0.852  1.00  0.00    -0.246 OA
BRANCH   7   9
ATOM      9  C   UNL     1       3.680  -1.560   2.677  1.00  0.00     0.060 A 
ATOM     10  C   UNL     1       4.918  -0.936   2.842  1.00  0.00     0.016 A 
ATOM     11  C   UNL     1       2.651  -1.292   3.592  1.00  0.00     0.016 A 
ATOM     12  C   UNL     1       5.129  -0.002   3.815  1.00  0.00     0.010 A 
ATOM     13  C   UNL     1       2.924  -0.489   4.715  1.00  0.00     0.010 A 
ATOM     14  C   UNL     1       4.184   0.118   4.827  1.00  0.00    -0.014 A 
BRANCH  14  15
ATOM     15  C   UNL     1       4.843   0.507   6.086  1.00  0.00     0.031 A 
ATOM     16  C   UNL     1       5.644  -0.594   6.744  1.00  0.00     0.074 A 
ATOM     17  C   UNL     1       5.125   1.807   6.280  1.00  0.00     0.049 A 
ATOM     18  N   UNL     1       6.609  -0.517   7.616  1.00  0.00    -0.248 NA
ATOM     19  C   UNL     1       5.412  -1.964   6.236  1.00  0.00     0.031 C 
ATOM     20  C   UNL     1       4.637   2.902   5.437  1.00  0.00     0.029 A 
ATOM     21  N   UNL     1       5.967   2.415   7.165  1.00  0.00    -0.354 N 
ATOM     22  C   UNL     1       7.108  -1.810   7.731  1.00  0.00     0.074 A 
ATOM     23  C   UNL     1       6.387  -2.647   6.808  1.00  0.00     0.031 C 
ATOM     24  C   UNL     1       5.193   4.053   5.850  1.00  0.00     0.029 A 
ATOM     25  C   UNL     1       6.020   3.780   7.017  1.00  0.00     0.049 A 
ATOM     26  H   UNL     1       6.486   1.924   7.842  1.00  0.00     0.167 HD
ATOM     27  C   UNL     1       8.056  -2.265   8.579  1.00  0.00     0.037 A 
ATOM     28  C   UNL     1       6.640   4.692   7.787  1.00  0.00     0.037 A 
ATOM     29  C   UNL     1       8.652  -1.412   9.564  1.00  0.00     0.049 A 
ATOM     30  C   UNL     1       7.475   4.154   8.919  1.00  0.00     0.074 A 
ATOM     31  C   UNL     1       9.409  -1.741  10.668  1.00  0.00     0.029 A 
ATOM     32  N   UNL     1       8.502  -0.029   9.563  1.00  0.00    -0.354 N 
ATOM     33  N   UNL     1       7.819   2.909   9.162  1.00  0.00    -0.248 NA
ATOM     34  C   UNL     1       7.980   5.122   9.896  1.00  0.00     0.031 C 
ATOM     35  C   UNL     1       9.655  -0.557  11.376  1.00  0.00     0.029 A 
ATOM     36  C   UNL     1       9.112   0.512  10.674  1.00  0.00     0.049 A 
ATOM     37  H   UNL     1       8.030   0.488   8.870  1.00  0.00     0.167 HD
ATOM     38  C   UNL     1       8.585   2.939  10.316  1.00  0.00     0.074 A 
ATOM     39  C   UNL     1       8.672   4.335  10.710  1.00  0.00     0.031 C 
ATOM     40  C   UNL     1       9.159   1.917  11.001  1.00  0.00     0.037 A 
BRANCH  27  41
ATOM     41  C   UNL     1       8.296  -3.747   8.576  1.00  0.00     0.057 A 
ATOM     42  C   UNL     1       9.027  -4.393   7.571  1.00  0.00     0.134 A 
ATOM     43  C   UNL     1       7.651  -4.555   9.523  1.00  0.00     0.134 A 
ATOM     44  F   UNL     1       9.627  -3.684   6.602  1.00  0.00    -0.206 F 
ATOM     45  C   UNL     1       9.086  -5.789   7.493  1.00  0.00     0.040 A 
ATOM     46  C   UNL     1       7.714  -5.949   9.463  1.00  0.00     0.040 A 
ATOM     47  F   UNL     1       6.907  -4.003  10.493  1.00  0.00    -0.206 F 
ATOM     48  C   UNL     1       8.424  -6.570   8.439  1.00  0.00     0.006 A 
ENDBRANCH  27  41
BRANCH  28  49
ATOM     49  C   UNL     1       6.383   6.147   7.600  1.00  0.00     0.057 A 
ATOM     50  C   UNL     1       7.404   7.069   7.350  1.00  0.00     0.134 A 
ATOM     51  C   UNL     1       5.080   6.662   7.711  1.00  0.00     0.134 A 
ATOM     52  F   UNL     1       8.677   6.658   7.253  1.00  0.00    -0.206 F 
ATOM     53  C   UNL     1       7.145   8.440   7.231  1.00  0.00     0.040 A 
ATOM     54  C   UNL     1       4.802   8.023   7.566  1.00  0.00     0.040 A 
ATOM     55  F   UNL     1       4.045   5.845   7.959  1.00  0.00    -0.206 F 
ATOM     56  C   UNL     1       5.840   8.919   7.335  1.00  0.00     0.006 A 
ENDBRANCH  28  49
BRANCH  40  57
ATOM     57  C   UNL     1       9.942   2.288  12.217  1.00  0.00     0.057 A 
ATOM     58  C   UNL     1       9.314   2.662  13.409  1.00  0.00     0.134 A 
ATOM     59  C   UNL     1      11.338   2.193  12.207  1.00  0.00     0.134 A 
ATOM     60  F   UNL     1       7.978   2.776  13.469  1.00  0.00    -0.206 F 
ATOM     61  C   UNL     1      10.054   2.946  14.555  1.00  0.00     0.040 A 
ATOM     62  C   UNL     1      12.086   2.448  13.353  1.00  0.00     0.040 A 
ATOM     63  F   UNL     1      11.989   1.826  11.093  1.00  0.00    -0.206 F 
ATOM     64  C   UNL     1      11.443   2.830  14.530  1.00  0.00     0.006 A 
ENDBRANCH  40  57
ENDBRANCH  14  15
ENDBRANCH   7   9
ENDBRANCH   6   7
ENDBRANCH   5   6
ENDBRANCH   4   5
ENDBRANCH   3   4
ENDBRANCH   2   3
ENDBRANCH   1   2
BRANCH   1  65
ATOM     65  O   UNL     1       5.225   2.005  -1.780  1.00  0.00    -0.376 OA
BRANCH  65  66
ATOM     66  C   UNL     1       4.753   2.904  -2.813  1.00  0.00     0.202 C 
BRANCH  66  67
ATOM     67  C   UNL     1       4.083   4.433  -2.442  1.00  0.00     0.261 C 
BRANCH  67  68
ATOM     68  O   UNL     1       2.625   4.873  -1.123  1.00  0.00    -0.460 OA
BRANCH  68  69
ATOM     69  C   UNL     1       1.566   5.162  -0.268  1.00  0.00     0.339 C 
ATOM     70  O   UNL     1       0.383   5.133  -0.594  1.00  0.00    -0.246 OA
BRANCH  69  71
ATOM     71  C   UNL     1       1.923   5.219   1.208  1.00  0.00     0.072 A 
ATOM     72  C   UNL     1       1.185   4.276   1.975  1.00  0.00     0.016 A 
ATOM     73  C   UNL     1       2.831   6.076   1.879  1.00  0.00     0.054 A 
ATOM     74  C   UNL     1       1.257   4.226   3.369  1.00  0.00     0.001 A 
ATOM     75  C   UNL     1       2.854   6.018   3.301  1.00  0.00     0.015 A 
ATOM     76  C   UNL     1       2.068   5.126   4.035  1.00  0.00     0.001 A 
BRANCH  73  77
ATOM     77  C   UNL     1       3.792   7.112   1.322  1.00  0.00     0.256 C 
ATOM     78  O   UNL     1       4.287   7.945   2.085  1.00  0.00    -0.269 OA
ATOM     79  N   UNL     1       4.133   7.194  -0.007  1.00  0.00    -0.322 N 
ATOM     80  H   UNL     1       4.478   8.054  -0.342  1.00  0.00     0.170 HD
BRANCH  79  81
ATOM     81  C   UNL     1       4.022   6.144  -0.908  1.00  0.00     0.041 A 
ATOM     82  C   UNL     1       4.257   4.487  -0.223  1.00  0.00     0.028 A 
ATOM     83  C   UNL     1       2.895   6.405  -2.285  1.00  0.00     0.028 A 
ATOM     84  C   UNL     1       3.213   3.137  -0.852  1.00  0.00     0.029 A 
ATOM     85  C   UNL     1       1.940   5.028  -2.954  1.00  0.00     0.029 A 
ATOM     86  C   UNL     1       2.111   3.376  -2.285  1.00  0.00     0.052 A 
BRANCH  86  87
ATOM     87  N   UNL     1       1.388   2.288  -2.904  1.00  0.00    -0.250 N 
ATOM     88  C   UNL     1       0.154   2.416  -3.551  1.00  0.00     0.237 C 
ATOM     89  C   UNL     1       1.889   1.039  -3.286  1.00  0.00     0.237 C 
ATOM     90  O   UNL     1      -0.371   3.367  -4.093  1.00  0.00    -0.274 OA
ATOM     91  C   UNL     1      -0.420   1.030  -3.404  1.00  0.00     0.095 C 
ATOM     92  C   UNL     1       0.777   0.260  -3.860  1.00  0.00     0.095 C 
ATOM     93  O   UNL     1       3.015   0.659  -3.579  1.00  0.00    -0.274 OA
ATOM     94  C   UNL     1      -1.512   0.096  -3.956  1.00  0.00     0.002 C 
ATOM     95  C   UNL     1       0.334  -1.190  -3.709  1.00  0.00     0.002 C 
ATOM     96  C   UNL     1      -1.877  -0.769  -2.725  1.00  0.00     0.005 C 
ATOM     97  C   UNL     1      -0.796  -1.053  -4.744  1.00  0.00     0.009 C 
ATOM     98  C   UNL     1      -0.516  -1.481  -2.434  1.00  0.00     0.005 C 
ENDBRANCH  86  87
ENDBRANCH  79  81
ENDBRANCH  73  77
ENDBRANCH  69  71
ENDBRANCH  68  69
ENDBRANCH  67  68
ENDBRANCH  66  67
ENDBRANCH  65  66
ENDBRANCH   1  65
TORSDOF 20
