REMARK SMILES O=C(OCCOCCOCCOC(=O)c1cc(F)c(O[C@H]2CCCCNC2=O)c(F)c1)c1ccc(-c2c3nc(c(-c4c(F)cccc4F)c4ccc([nH]4)c(-c4c(F)cccc4F)c4nc(c(-c5c(F)cccc5F)c5ccc2[nH]5)C=C4)C=C3)cc1
REMARK SMILES IDX 9 1 8 2 7 3 6 4 5 5 4 6 3 7 2 8 1 9 32 10 33 11 85 12 34 13
REMARK SMILES IDX 84 14 35 15 36 16 37 17 78 18 38 19 83 20 77 21 79 22 39 23
REMARK SMILES IDX 82 24 76 25 75 26 40 28 66 29 49 30 65 31 50 32 53 33 64 34
REMARK SMILES IDX 80 35 51 36 52 37 63 39 81 40 54 41 41 42 42 43 47 44 43 45
REMARK SMILES IDX 44 46 46 47 48 48 45 49 67 50 68 51 73 52 69 53 70 54 72 55
REMARK SMILES IDX 74 56 71 57 55 58 56 59 61 60 57 61 58 62 60 63 62 64 59 65
REMARK SMILES IDX 10 66 11 67 12 68 13 69 14 70 15 71 16 72 31 73 17 74 29 75
REMARK SMILES IDX 18 76 19 77 30 78 20 79 21 80 22 81 23 82 27 84 26 85 28 86
REMARK SMILES IDX 25 88 24 89
REMARK H PARENT 79 27 53 38 26 87
REMARK Flexibility Score: 90.00
ROOT
ATOM      1  O   UNL     1       2.675   1.182   4.379  1.00  0.00    -0.376 OA
ENDROOT
BRANCH   1   2
ATOM      2  C   UNL     1       1.957   0.672   3.254  1.00  0.00     0.188 C 
BRANCH   2   3
ATOM      3  C   UNL     1       2.452   1.161   1.889  1.00  0.00     0.188 C 
BRANCH   3   4
ATOM      4  O   UNL     1       3.717   0.569   1.558  1.00  0.00    -0.376 OA
BRANCH   4   5
ATOM      5  C   UNL     1       4.562   1.430   0.787  1.00  0.00     0.202 C 
BRANCH   5   6
ATOM      6  C   UNL     1       4.375   1.296  -0.729  1.00  0.00     0.261 C 
BRANCH   6   7
ATOM      7  O   UNL     1       3.012   1.014  -1.083  1.00  0.00    -0.460 OA
BRANCH   7   8
ATOM      8  C   UNL     1       2.433  -0.193  -1.302  1.00  0.00     0.338 C 
ATOM      9  O   UNL     1       1.247  -0.219  -1.629  1.00  0.00    -0.246 OA
BRANCH   8  10
ATOM     10  C   UNL     1       3.159  -1.502  -1.224  1.00  0.00     0.060 A 
ATOM     11  C   UNL     1       4.312  -1.743  -0.476  1.00  0.00     0.016 A 
ATOM     12  C   UNL     1       2.603  -2.586  -1.928  1.00  0.00     0.016 A 
ATOM     13  C   UNL     1       4.967  -2.970  -0.527  1.00  0.00     0.010 A 
ATOM     14  C   UNL     1       3.216  -3.847  -1.926  1.00  0.00     0.010 A 
ATOM     15  C   UNL     1       4.428  -4.032  -1.252  1.00  0.00    -0.014 A 
BRANCH  15  16
ATOM     16  C   UNL     1       5.213  -5.283  -1.377  1.00  0.00     0.031 A 
ATOM     17  C   UNL     1       5.897  -5.565  -2.685  1.00  0.00     0.074 A 
ATOM     18  C   UNL     1       5.458  -6.042  -0.290  1.00  0.00     0.049 A 
ATOM     19  N   UNL     1       6.632  -6.588  -3.031  1.00  0.00    -0.248 NA
ATOM     20  C   UNL     1       5.780  -4.530  -3.730  1.00  0.00     0.031 C 
ATOM     21  C   UNL     1       5.024  -5.715   1.069  1.00  0.00     0.029 A 
ATOM     22  N   UNL     1       6.183  -7.196  -0.130  1.00  0.00    -0.354 N 
ATOM     23  C   UNL     1       7.078  -6.311  -4.318  1.00  0.00     0.074 A 
ATOM     24  C   UNL     1       6.506  -5.045  -4.711  1.00  0.00     0.031 C 
ATOM     25  C   UNL     1       5.565  -6.594   1.928  1.00  0.00     0.029 A 
ATOM     26  C   UNL     1       6.269  -7.626   1.178  1.00  0.00     0.049 A 
ATOM     27  H   UNL     1       6.603  -7.674  -0.881  1.00  0.00     0.167 HD
ATOM     28  C   UNL     1       7.913  -7.044  -5.089  1.00  0.00     0.037 A 
ATOM     29  C   UNL     1       6.822  -8.748   1.688  1.00  0.00     0.037 A 
ATOM     30  C   UNL     1       8.469  -8.302  -4.676  1.00  0.00     0.049 A 
ATOM     31  C   UNL     1       7.399  -9.717   0.684  1.00  0.00     0.074 A 
ATOM     32  C   UNL     1       9.274  -9.172  -5.386  1.00  0.00     0.029 A 
ATOM     33  N   UNL     1       8.266  -8.865  -3.425  1.00  0.00    -0.354 N 
ATOM     34  N   UNL     1       7.747  -9.505  -0.564  1.00  0.00    -0.248 NA
ATOM     35  C   UNL     1       7.596 -11.102   1.133  1.00  0.00     0.031 C 
ATOM     36  C   UNL     1       9.524 -10.285  -4.575  1.00  0.00     0.029 A 
ATOM     37  C   UNL     1       8.898 -10.091  -3.353  1.00  0.00     0.049 A 
ATOM     38  H   UNL     1       7.749  -8.452  -2.696  1.00  0.00     0.167 HD
ATOM     39  C   UNL     1       8.287 -10.700  -1.018  1.00  0.00     0.074 A 
ATOM     40  C   UNL     1       8.179 -11.647   0.073  1.00  0.00     0.031 C 
ATOM     41  C   UNL     1       8.840 -10.982  -2.223  1.00  0.00     0.037 A 
BRANCH  28  42
ATOM     42  C   UNL     1       8.246  -6.515  -6.449  1.00  0.00     0.057 A 
ATOM     43  C   UNL     1       7.654  -7.060  -7.594  1.00  0.00     0.134 A 
ATOM     44  C   UNL     1       9.166  -5.474  -6.628  1.00  0.00     0.134 A 
ATOM     45  F   UNL     1       6.760  -8.055  -7.490  1.00  0.00    -0.206 F 
ATOM     46  C   UNL     1       7.969  -6.593  -8.871  1.00  0.00     0.040 A 
ATOM     47  C   UNL     1       9.480  -4.989  -7.899  1.00  0.00     0.040 A 
ATOM     48  F   UNL     1       9.751  -4.895  -5.569  1.00  0.00    -0.206 F 
ATOM     49  C   UNL     1       8.884  -5.553  -9.026  1.00  0.00     0.006 A 
ENDBRANCH  28  42
BRANCH  29  50
ATOM     50  C   UNL     1       6.803  -9.087   3.149  1.00  0.00     0.057 A 
ATOM     51  C   UNL     1       5.619  -9.101   3.894  1.00  0.00     0.134 A 
ATOM     52  C   UNL     1       7.949  -9.497   3.838  1.00  0.00     0.134 A 
ATOM     53  F   UNL     1       4.471  -8.756   3.317  1.00  0.00    -0.206 F 
ATOM     54  C   UNL     1       5.552  -9.484   5.234  1.00  0.00     0.040 A 
ATOM     55  C   UNL     1       7.903  -9.920   5.175  1.00  0.00     0.040 A 
ATOM     56  F   UNL     1       9.133  -9.541   3.211  1.00  0.00    -0.206 F 
ATOM     57  C   UNL     1       6.701  -9.911   5.879  1.00  0.00     0.006 A 
ENDBRANCH  29  50
BRANCH  41  58
ATOM     58  C   UNL     1       9.492 -12.319  -2.377  1.00  0.00     0.057 A 
ATOM     59  C   UNL     1      10.890 -12.419  -2.362  1.00  0.00     0.134 A 
ATOM     60  C   UNL     1       8.755 -13.483  -2.613  1.00  0.00     0.134 A 
ATOM     61  F   UNL     1      11.648 -11.332  -2.150  1.00  0.00    -0.206 F 
ATOM     62  C   UNL     1      11.534 -13.632  -2.594  1.00  0.00     0.040 A 
ATOM     63  C   UNL     1       9.388 -14.707  -2.825  1.00  0.00     0.040 A 
ATOM     64  F   UNL     1       7.414 -13.448  -2.621  1.00  0.00    -0.206 F 
ATOM     65  C   UNL     1      10.781 -14.782  -2.826  1.00  0.00     0.006 A 
ENDBRANCH  41  58
ENDBRANCH  15  16
ENDBRANCH   8  10
ENDBRANCH   7   8
ENDBRANCH   6   7
ENDBRANCH   5   6
ENDBRANCH   4   5
ENDBRANCH   3   4
ENDBRANCH   2   3
ENDBRANCH   1   2
BRANCH   1  66
ATOM     66  C   UNL     1       4.056   0.843   4.470  1.00  0.00     0.202 C 
BRANCH  66  67
ATOM     67  C   UNL     1       4.378  -0.591   4.903  1.00  0.00     0.261 C 
BRANCH  67  68
ATOM     68  O   UNL     1       3.780  -1.614   4.084  1.00  0.00    -0.460 OA
BRANCH  68  69
ATOM     69  C   UNL     1       2.930  -2.431   4.753  1.00  0.00     0.338 C 
ATOM     70  O   UNL     1       2.596  -2.357   5.923  1.00  0.00    -0.246 OA
BRANCH  69  71
ATOM     71  C   UNL     1       2.509  -3.567   3.920  1.00  0.00     0.066 A 
ATOM     72  C   UNL     1       2.924  -4.835   4.318  1.00  0.00     0.059 A 
ATOM     73  C   UNL     1       1.583  -3.432   2.889  1.00  0.00     0.059 A 
ATOM     74  C   UNL     1       2.380  -5.968   3.715  1.00  0.00     0.169 A 
ATOM     75  C   UNL     1       1.029  -4.585   2.322  1.00  0.00     0.169 A 
ATOM     76  F   UNL     1       2.855  -7.145   4.135  1.00  0.00    -0.203 F 
ATOM     77  C   UNL     1       1.382  -5.875   2.745  1.00  0.00     0.191 A 
ATOM     78  F   UNL     1       0.102  -4.429   1.364  1.00  0.00    -0.203 F 
BRANCH  77  79
ATOM     79  O   UNL     1       0.655  -6.888   2.178  1.00  0.00    -0.474 OA
BRANCH  79  80
ATOM     80  C   UNL     1       0.874  -8.279   2.483  1.00  0.00     0.262 C 
BRANCH  80  81
ATOM     81  C   UNL     1       2.069  -8.742   1.644  1.00  0.00     0.055 C 
BRANCH  81  82
ATOM     82  C   UNL     1       2.302 -10.240   1.473  1.00  0.00     0.006 CG0
ATOM     83  G   UNL     1       2.522 -11.057   2.738  1.00  0.00     0.000 G0
ENDBRANCH  81  82
ENDBRANCH  80  81
BRANCH  80  84
ATOM     84  C   UNL     1       0.791  -8.653   3.987  1.00  0.00     0.261 C 
ATOM     85  N   UNL     1       1.131  -9.899   4.418  1.00  0.00    -0.353 N 
ATOM     86  O   UNL     1       0.359  -7.875   4.843  1.00  0.00    -0.271 OA
ATOM     87  H   UNL     1       1.277  -9.993   5.387  1.00  0.00     0.163 HD
BRANCH  85  88
ATOM     88  C   UNL     1       1.306 -11.095   3.637  1.00  0.00     0.116 C 
BRANCH  88  89
ATOM     89  C   UNL     1       2.522 -11.057   2.738  1.00  0.00     0.021 CG0
ATOM     90  G   UNL     1       2.302 -10.240   1.473  1.00  0.00     0.000 G0
ENDBRANCH  88  89
ENDBRANCH  85  88
ENDBRANCH  80  84
ENDBRANCH  79  80
ENDBRANCH  77  79
ENDBRANCH  69  71
ENDBRANCH  68  69
ENDBRANCH  67  68
ENDBRANCH  66  67
ENDBRANCH   1  66
TORSDOF 19
