REMARK SMILES CN(C)S(=O)(=O)c1ccc(N(CC(=O)OCCOCCOCCOC(=O)c2ccc(-c3c4nc(c(-c5c(F)cccc5F)c5ccc([nH]5)c(-c5c(F)cccc5F)c5nc(c(-c6c(F)cccc6F)c6ccc3[nH]6)C=C5)C=C4)cc2)C(C)(C)C)cc1
REMARK SMILES IDX 19 1 18 2 17 3 16 4 15 5 13 6 14 7 12 8 11 9 10 10 7 11 8 12
REMARK SMILES IDX 86 13 9 14 85 15 4 16 5 17 6 18 2 19 1 20 3 21 81 22 82 23
REMARK SMILES IDX 83 24 84 25 20 26 21 27 22 28 23 29 24 30 25 31 26 32 27 33
REMARK SMILES IDX 28 34 80 35 29 36 79 37 30 38 31 39 32 40 73 41 33 42 78 43
REMARK SMILES IDX 72 44 74 45 34 46 77 47 71 48 70 49 35 51 61 52 44 53 60 54
REMARK SMILES IDX 45 55 48 56 59 57 75 58 46 59 47 60 58 62 76 63 49 64 36 65
REMARK SMILES IDX 37 66 42 67 38 68 39 69 41 70 43 71 40 72 62 73 63 74 68 75
REMARK SMILES IDX 64 76 65 77 67 78 69 79 66 80 50 81 51 82 56 83 52 84 53 85
REMARK SMILES IDX 55 86 57 87 54 88
REMARK H PARENT 74 50 48 61
REMARK Flexibility Score: inf
ROOT
ATOM      1  C   UNL     1       0.736   5.453 -10.661  1.00  0.00     0.188 C 
ENDROOT
BRANCH   1   2
ATOM      2  O   UNL     1       1.980   6.141 -10.685  1.00  0.00    -0.376 OA
BRANCH   2   3
ATOM      3  C   UNL     1       2.951   5.843  -9.690  1.00  0.00     0.202 C 
BRANCH   3   4
ATOM      4  C   UNL     1       2.665   6.411  -8.295  1.00  0.00     0.261 C 
BRANCH   4   5
ATOM      5  O   UNL     1       1.536   5.776  -7.660  1.00  0.00    -0.462 OA
BRANCH   5   6
ATOM      6  C   UNL     1       0.727   6.580  -6.925  1.00  0.00     0.325 C 
ATOM      7  O   UNL     1       0.919   7.786  -6.777  1.00  0.00    -0.250 OA
BRANCH   6   8
ATOM      8  C   UNL     1      -0.554   5.920  -6.402  1.00  0.00     0.239 C 
BRANCH   8   9
ATOM      9  N   UNL     1      -0.585   4.426  -6.238  1.00  0.00    -0.356 N 
BRANCH   9  10
ATOM     10  C   UNL     1       0.050   3.893  -5.091  1.00  0.00     0.038 A 
ATOM     11  C   UNL     1       0.980   2.804  -2.618  1.00  0.00     0.082 A 
ATOM     12  C   UNL     1       1.015   4.176  -2.836  1.00  0.00     0.024 A 
ATOM     13  C   UNL     1       0.598   1.959  -3.646  1.00  0.00     0.024 A 
ATOM     14  C   UNL     1       0.583   4.702  -4.067  1.00  0.00     0.027 A 
ATOM     15  C   UNL     1       0.153   2.507  -4.855  1.00  0.00     0.027 A 
BRANCH  11  16
ATOM     16  S   UNL     1       1.382   2.162  -1.016  1.00  0.00     0.242 S 
ATOM     17  O   UNL     1       0.785   3.035  -0.028  1.00  0.00    -0.207 OA
ATOM     18  O   UNL     1       2.804   1.892  -1.027  1.00  0.00    -0.207 OA
BRANCH  16  19
ATOM     19  N   UNL     1       0.551   0.660  -0.921  1.00  0.00    -0.204 NA
ATOM     20  C   UNL     1       1.083  -0.225   0.141  1.00  0.00     0.124 C 
ATOM     21  C   UNL     1      -0.927   0.755  -0.846  1.00  0.00     0.124 C 
ENDBRANCH  16  19
ENDBRANCH  11  16
ENDBRANCH   9  10
BRANCH   9  22
ATOM     22  C   UNL     1      -1.683   3.632  -6.936  1.00  0.00     0.032 C 
ATOM     23  C   UNL     1      -1.111   2.414  -7.707  1.00  0.00     0.034 C 
ATOM     24  C   UNL     1      -2.774   3.173  -5.942  1.00  0.00     0.034 C 
ATOM     25  C   UNL     1      -2.452   4.479  -7.972  1.00  0.00     0.034 C 
ENDBRANCH   9  22
ENDBRANCH   8   9
ENDBRANCH   6   8
ENDBRANCH   5   6
ENDBRANCH   4   5
ENDBRANCH   3   4
ENDBRANCH   2   3
ENDBRANCH   1   2
BRANCH   1  26
ATOM     26  C   UNL     1       0.637   4.076  -9.991  1.00  0.00     0.188 C 
BRANCH  26  27
ATOM     27  O   UNL     1       1.634   3.104 -10.258  1.00  0.00    -0.376 OA
BRANCH  27  28
ATOM     28  C   UNL     1       1.836   2.743 -11.617  1.00  0.00     0.202 C 
BRANCH  28  29
ATOM     29  C   UNL     1       0.622   2.100 -12.291  1.00  0.00     0.261 C 
BRANCH  29  30
ATOM     30  O   UNL     1      -0.416   3.074 -12.530  1.00  0.00    -0.460 OA
BRANCH  30  31
ATOM     31  C   UNL     1      -1.674   2.582 -12.441  1.00  0.00     0.338 C 
ATOM     32  O   UNL     1      -2.006   1.427 -12.235  1.00  0.00    -0.246 OA
BRANCH  31  33
ATOM     33  C   UNL     1      -2.665   3.664 -12.557  1.00  0.00     0.060 A 
ATOM     34  C   UNL     1      -2.907   4.483 -11.457  1.00  0.00     0.016 A 
ATOM     35  C   UNL     1      -3.507   3.721 -13.663  1.00  0.00     0.016 A 
ATOM     36  C   UNL     1      -4.040   5.295 -11.408  1.00  0.00     0.010 A 
ATOM     37  C   UNL     1      -4.605   4.589 -13.646  1.00  0.00     0.010 A 
ATOM     38  C   UNL     1      -4.911   5.350 -12.500  1.00  0.00    -0.014 A 
BRANCH  38  39
ATOM     39  C   UNL     1      -6.191   6.108 -12.426  1.00  0.00     0.031 A 
ATOM     40  C   UNL     1      -7.494   5.372 -12.604  1.00  0.00     0.074 A 
ATOM     41  C   UNL     1      -6.211   7.435 -12.197  1.00  0.00     0.049 A 
ATOM     42  N   UNL     1      -8.687   5.843 -12.864  1.00  0.00    -0.248 NA
ATOM     43  C   UNL     1      -7.439   3.906 -12.485  1.00  0.00     0.031 C 
ATOM     44  C   UNL     1      -5.044   8.268 -11.905  1.00  0.00     0.029 A 
ATOM     45  N   UNL     1      -7.262   8.321 -12.187  1.00  0.00    -0.354 N 
ATOM     46  C   UNL     1      -9.507   4.731 -13.012  1.00  0.00     0.074 A 
ATOM     47  C   UNL     1      -8.680   3.562 -12.797  1.00  0.00     0.031 C 
ATOM     48  C   UNL     1      -5.442   9.539 -11.738  1.00  0.00     0.029 A 
ATOM     49  C   UNL     1      -6.873   9.627 -12.009  1.00  0.00     0.049 A 
ATOM     50  H   UNL     1      -8.201   8.047 -12.297  1.00  0.00     0.167 HD
ATOM     51  C   UNL     1     -10.828   4.692 -13.313  1.00  0.00     0.037 A 
ATOM     52  C   UNL     1      -7.572  10.773 -12.118  1.00  0.00     0.037 A 
ATOM     53  C   UNL     1     -11.654   5.861 -13.468  1.00  0.00     0.049 A 
ATOM     54  C   UNL     1      -9.022  10.713 -12.511  1.00  0.00     0.074 A 
ATOM     55  C   UNL     1     -13.001   5.933 -13.776  1.00  0.00     0.029 A 
ATOM     56  N   UNL     1     -11.210   7.164 -13.306  1.00  0.00    -0.354 N 
ATOM     57  N   UNL     1      -9.773   9.664 -12.745  1.00  0.00    -0.248 NA
ATOM     58  C   UNL     1      -9.715  11.998 -12.683  1.00  0.00     0.031 C 
ATOM     59  C   UNL     1     -13.364   7.284 -13.834  1.00  0.00     0.029 A 
ATOM     60  C   UNL     1     -12.253   8.049 -13.520  1.00  0.00     0.049 A 
ATOM     61  H   UNL     1     -10.289   7.422 -13.074  1.00  0.00     0.167 HD
ATOM     62  C   UNL     1     -11.027  10.160 -13.078  1.00  0.00     0.074 A 
ATOM     63  C   UNL     1     -10.941  11.604 -12.998  1.00  0.00     0.031 C 
ATOM     64  C   UNL     1     -12.148   9.482 -13.427  1.00  0.00     0.037 A 
BRANCH  51  65
ATOM     65  C   UNL     1     -11.447   3.345 -13.548  1.00  0.00     0.057 A 
ATOM     66  C   UNL     1     -11.712   2.447 -12.507  1.00  0.00     0.134 A 
ATOM     67  C   UNL     1     -11.804   2.951 -14.845  1.00  0.00     0.134 A 
ATOM     68  F   UNL     1     -11.380   2.754 -11.244  1.00  0.00    -0.206 F 
ATOM     69  C   UNL     1     -12.287   1.198 -12.750  1.00  0.00     0.040 A 
ATOM     70  C   UNL     1     -12.402   1.716 -15.098  1.00  0.00     0.040 A 
ATOM     71  F   UNL     1     -11.582   3.765 -15.889  1.00  0.00    -0.206 F 
ATOM     72  C   UNL     1     -12.639   0.832 -14.048  1.00  0.00     0.006 A 
ENDBRANCH  51  65
BRANCH  52  73
ATOM     73  C   UNL     1      -6.892  12.080 -11.925  1.00  0.00     0.057 A 
ATOM     74  C   UNL     1      -7.195  12.901 -10.835  1.00  0.00     0.134 A 
ATOM     75  C   UNL     1      -5.926  12.540 -12.830  1.00  0.00     0.134 A 
ATOM     76  F   UNL     1      -8.131  12.529  -9.949  1.00  0.00    -0.206 F 
ATOM     77  C   UNL     1      -6.569  14.136 -10.653  1.00  0.00     0.040 A 
ATOM     78  C   UNL     1      -5.271  13.758 -12.645  1.00  0.00     0.040 A 
ATOM     79  F   UNL     1      -5.591  11.801 -13.898  1.00  0.00    -0.206 F 
ATOM     80  C   UNL     1      -5.597  14.563 -11.556  1.00  0.00     0.006 A 
ENDBRANCH  52  73
BRANCH  64  81
ATOM     81  C   UNL     1     -13.376  10.295 -13.710  1.00  0.00     0.057 A 
ATOM     82  C   UNL     1     -13.517  11.029 -14.894  1.00  0.00     0.134 A 
ATOM     83  C   UNL     1     -14.440  10.316 -12.801  1.00  0.00     0.134 A 
ATOM     84  F   UNL     1     -12.526  11.061 -15.797  1.00  0.00    -0.206 F 
ATOM     85  C   UNL     1     -14.669  11.773 -15.155  1.00  0.00     0.040 A 
ATOM     86  C   UNL     1     -15.606  11.037 -13.061  1.00  0.00     0.040 A 
ATOM     87  F   UNL     1     -14.369   9.628 -11.652  1.00  0.00    -0.206 F 
ATOM     88  C   UNL     1     -15.720  11.773 -14.239  1.00  0.00     0.006 A 
ENDBRANCH  64  81
ENDBRANCH  38  39
ENDBRANCH  31  33
ENDBRANCH  30  31
ENDBRANCH  29  30
ENDBRANCH  28  29
ENDBRANCH  27  28
ENDBRANCH  26  27
ENDBRANCH   1  26
TORSDOF 22
