REMARK SMILES CC(C)CN(C)c1cc2c(cc1Cl)C=C(C(=O)OCCOCCOCCOC(=O)c1ccc(-c3c4nc(c(-c5c(F)cccc5F)c5ccc([nH]5)c(-c5c(F)cccc5F)c5nc(c(-c6c(F)cccc6F)c6ccc3[nH]6)C=C5)C=C4)cc1)[C@H](C(F)(F)F)O2
REMARK SMILES IDX 22 1 21 2 20 3 19 4 18 5 16 6 17 7 15 8 7 9 8 10 12 11 9 12
REMARK SMILES IDX 11 13 13 14 10 15 89 16 14 17 84 18 5 19 6 20 4 21 2 22 1 23
REMARK SMILES IDX 3 24 85 25 86 26 87 27 88 28 23 29 24 30 25 31 26 32 27 33
REMARK SMILES IDX 28 34 29 35 30 36 31 37 83 38 32 39 82 40 33 41 34 42 35 43
REMARK SMILES IDX 76 44 36 45 81 46 75 47 77 48 37 49 80 50 74 51 73 52 38 54
REMARK SMILES IDX 64 55 47 56 63 57 48 58 51 59 62 60 78 61 49 62 50 63 61 65
REMARK SMILES IDX 79 66 52 67 39 68 40 69 45 70 41 71 42 72 44 73 46 74 43 75
REMARK SMILES IDX 65 76 66 77 71 78 67 79 68 80 70 81 72 82 69 83 53 84 54 85
REMARK SMILES IDX 59 86 55 87 56 88 58 89 60 90 57 91
REMARK H PARENT 77 53 51 64
REMARK Flexibility Score: inf
ROOT
ATOM      1  C   UNL     1       0.840  -7.646  -3.176  1.00  0.00     0.188 C 
ENDROOT
BRANCH   1   2
ATOM      2  O   UNL     1       1.004  -9.010  -3.484  1.00  0.00    -0.376 OA
BRANCH   2   3
ATOM      3  C   UNL     1       0.482 -10.015  -2.626  1.00  0.00     0.202 C 
BRANCH   3   4
ATOM      4  C   UNL     1      -0.224  -9.754  -1.283  1.00  0.00     0.261 C 
BRANCH   4   5
ATOM      5  O   UNL     1      -0.824  -8.465  -1.115  1.00  0.00    -0.460 OA
BRANCH   5   6
ATOM      6  C   UNL     1      -0.457  -7.798  -0.001  1.00  0.00     0.338 C 
ATOM      7  O   UNL     1       0.279  -8.219   0.880  1.00  0.00    -0.246 OA
BRANCH   6   8
ATOM      8  C   UNL     1      -0.896  -6.390  -0.040  1.00  0.00     0.087 C 
ATOM      9  C   UNL     1      -0.765  -1.532   1.326  1.00  0.00     0.059 A 
ATOM     10  C   UNL     1      -1.781  -2.412   0.893  1.00  0.00     0.074 A 
ATOM     11  C   UNL     1       0.546  -2.054   1.364  1.00  0.00     0.065 A 
ATOM     12  C   UNL     1      -1.499  -3.733   0.515  1.00  0.00     0.130 A 
ATOM     13  C   UNL     1       0.843  -3.319   0.852  1.00  0.00     0.034 A 
ATOM     14  Cl  UNL     1       1.852  -1.265   2.184  1.00  0.00    -0.082 Cl
ATOM     15  C   UNL     1      -0.181  -4.164   0.438  1.00  0.00     0.019 A 
ATOM     16  O   UNL     1      -2.566  -4.552   0.277  1.00  0.00    -0.475 OA
ATOM     17  C   UNL     1       0.126  -5.531   0.075  1.00  0.00     0.027 C 
ATOM     18  C   UNL     1      -2.345  -5.989   0.081  1.00  0.00     0.316 C 
BRANCH   9  19
ATOM     19  N   UNL     1      -1.070  -0.229   1.747  1.00  0.00    -0.373 N 
ATOM     20  C   UNL     1      -2.145  -0.112   2.731  1.00  0.00     0.143 C 
BRANCH  19  21
ATOM     21  C   UNL     1      -0.946   0.885   0.775  1.00  0.00     0.119 C 
BRANCH  21  22
ATOM     22  C   UNL     1       0.511   1.324   0.518  1.00  0.00     0.002 C 
ATOM     23  C   UNL     1       1.099   0.647  -0.724  1.00  0.00     0.009 C 
ATOM     24  C   UNL     1       0.643   2.842   0.359  1.00  0.00     0.009 C 
ENDBRANCH  21  22
ENDBRANCH  19  21
ENDBRANCH   9  19
BRANCH  18  25
ATOM     25  C   UNL     1      -3.270  -6.402  -1.078  1.00  0.00     0.430 C 
ATOM     26  F   UNL     1      -2.968  -5.753  -2.224  1.00  0.00    -0.167 F 
ATOM     27  F   UNL     1      -3.251  -7.730  -1.313  1.00  0.00    -0.167 F 
ATOM     28  F   UNL     1      -4.560  -6.093  -0.779  1.00  0.00    -0.167 F 
ENDBRANCH  18  25
ENDBRANCH   6   8
ENDBRANCH   5   6
ENDBRANCH   4   5
ENDBRANCH   3   4
ENDBRANCH   2   3
ENDBRANCH   1   2
BRANCH   1  29
ATOM     29  C   UNL     1      -0.508  -6.993  -3.539  1.00  0.00     0.188 C 
BRANCH  29  30
ATOM     30  O   UNL     1      -1.609  -7.776  -3.956  1.00  0.00    -0.376 OA
BRANCH  30  31
ATOM     31  C   UNL     1      -1.473  -8.630  -5.081  1.00  0.00     0.202 C 
BRANCH  31  32
ATOM     32  C   UNL     1      -0.827  -8.146  -6.389  1.00  0.00     0.261 C 
BRANCH  32  33
ATOM     33  O   UNL     1       0.379  -7.388  -6.239  1.00  0.00    -0.460 OA
BRANCH  33  34
ATOM     34  C   UNL     1       0.281  -6.068  -6.540  1.00  0.00     0.338 C 
ATOM     35  O   UNL     1      -0.701  -5.464  -6.937  1.00  0.00    -0.246 OA
BRANCH  34  36
ATOM     36  C   UNL     1       1.524  -5.405  -6.107  1.00  0.00     0.060 A 
ATOM     37  C   UNL     1       2.748  -5.778  -6.661  1.00  0.00     0.016 A 
ATOM     38  C   UNL     1       1.457  -4.405  -5.125  1.00  0.00     0.016 A 
ATOM     39  C   UNL     1       3.910  -5.133  -6.239  1.00  0.00     0.010 A 
ATOM     40  C   UNL     1       2.623  -3.776  -4.690  1.00  0.00     0.010 A 
ATOM     41  C   UNL     1       3.854  -4.122  -5.261  1.00  0.00    -0.014 A 
BRANCH  41  42
ATOM     42  C   UNL     1       5.064  -3.319  -4.976  1.00  0.00     0.031 A 
ATOM     43  C   UNL     1       5.904  -3.549  -3.760  1.00  0.00     0.074 A 
ATOM     44  C   UNL     1       5.402  -2.364  -5.861  1.00  0.00     0.049 A 
ATOM     45  N   UNL     1       7.067  -3.032  -3.456  1.00  0.00    -0.248 NA
ATOM     46  C   UNL     1       5.366  -4.469  -2.750  1.00  0.00     0.031 C 
ATOM     47  C   UNL     1       4.635  -2.026  -7.061  1.00  0.00     0.029 A 
ATOM     48  N   UNL     1       6.481  -1.522  -5.902  1.00  0.00    -0.354 N 
ATOM     49  C   UNL     1       7.418  -3.578  -2.230  1.00  0.00     0.074 A 
ATOM     50  C   UNL     1       6.314  -4.426  -1.822  1.00  0.00     0.031 C 
ATOM     51  C   UNL     1       5.294  -1.082  -7.748  1.00  0.00     0.029 A 
ATOM     52  C   UNL     1       6.512  -0.733  -7.025  1.00  0.00     0.049 A 
ATOM     53  H   UNL     1       7.167  -1.486  -5.197  1.00  0.00     0.167 HD
ATOM     54  C   UNL     1       8.561  -3.398  -1.522  1.00  0.00     0.037 A 
ATOM     55  C   UNL     1       7.431   0.159  -7.434  1.00  0.00     0.037 A 
ATOM     56  C   UNL     1       9.635  -2.520  -1.921  1.00  0.00     0.049 A 
ATOM     57  C   UNL     1       8.658   0.384  -6.599  1.00  0.00     0.074 A 
ATOM     58  C   UNL     1      10.856  -2.308  -1.301  1.00  0.00     0.029 A 
ATOM     59  N   UNL     1       9.605  -1.682  -3.027  1.00  0.00    -0.354 N 
ATOM     60  N   UNL     1       9.034  -0.220  -5.498  1.00  0.00    -0.248 NA
ATOM     61  C   UNL     1       9.591   1.415  -7.072  1.00  0.00     0.031 C 
ATOM     62  C   UNL     1      11.532  -1.295  -1.993  1.00  0.00     0.029 A 
ATOM     63  C   UNL     1      10.763  -0.919  -3.082  1.00  0.00     0.049 A 
ATOM     64  H   UNL     1       8.868  -1.635  -3.679  1.00  0.00     0.167 HD
ATOM     65  C   UNL     1      10.260   0.338  -5.160  1.00  0.00     0.074 A 
ATOM     66  C   UNL     1      10.570   1.313  -6.186  1.00  0.00     0.031 C 
ATOM     67  C   UNL     1      11.057   0.064  -4.097  1.00  0.00     0.037 A 
BRANCH  54  68
ATOM     68  C   UNL     1       8.692  -4.152  -0.227  1.00  0.00     0.057 A 
ATOM     69  C   UNL     1       8.703  -3.476   1.000  1.00  0.00     0.134 A 
ATOM     70  C   UNL     1       8.818  -5.548  -0.193  1.00  0.00     0.134 A 
ATOM     71  F   UNL     1       8.603  -2.139   1.043  1.00  0.00    -0.206 F 
ATOM     72  C   UNL     1       8.818  -4.161   2.211  1.00  0.00     0.040 A 
ATOM     73  C   UNL     1       8.904  -6.246   1.014  1.00  0.00     0.040 A 
ATOM     74  F   UNL     1       8.813  -6.260  -1.330  1.00  0.00    -0.206 F 
ATOM     75  C   UNL     1       8.906  -5.551   2.221  1.00  0.00     0.006 A 
ENDBRANCH  54  68
BRANCH  55  76
ATOM     76  C   UNL     1       7.248   0.871  -8.722  1.00  0.00     0.057 A 
ATOM     77  C   UNL     1       6.245   1.832  -8.893  1.00  0.00     0.134 A 
ATOM     78  C   UNL     1       8.082   0.604  -9.814  1.00  0.00     0.134 A 
ATOM     79  F   UNL     1       5.408   2.123  -7.886  1.00  0.00    -0.206 F 
ATOM     80  C   UNL     1       6.074   2.500 -10.105  1.00  0.00     0.040 A 
ATOM     81  C   UNL     1       7.940   1.283 -11.024  1.00  0.00     0.040 A 
ATOM     82  F   UNL     1       9.069  -0.298  -9.705  1.00  0.00    -0.206 F 
ATOM     83  C   UNL     1       6.930   2.232 -11.172  1.00  0.00     0.006 A 
ENDBRANCH  55  76
BRANCH  67  84
ATOM     84  C   UNL     1      12.352   0.824  -4.008  1.00  0.00     0.057 A 
ATOM     85  C   UNL     1      13.577   0.173  -4.204  1.00  0.00     0.134 A 
ATOM     86  C   UNL     1      12.390   2.198  -3.733  1.00  0.00     0.134 A 
ATOM     87  F   UNL     1      13.617  -1.142  -4.465  1.00  0.00    -0.206 F 
ATOM     88  C   UNL     1      14.790   0.861  -4.134  1.00  0.00     0.040 A 
ATOM     89  C   UNL     1      13.595   2.903  -3.693  1.00  0.00     0.040 A 
ATOM     90  F   UNL     1      11.253   2.887  -3.553  1.00  0.00    -0.206 F 
ATOM     91  C   UNL     1      14.800   2.232  -3.889  1.00  0.00     0.006 A 
ENDBRANCH  67  84
ENDBRANCH  41  42
ENDBRANCH  34  36
ENDBRANCH  33  34
ENDBRANCH  32  33
ENDBRANCH  31  32
ENDBRANCH  30  31
ENDBRANCH  29  30
ENDBRANCH   1  29
TORSDOF 21
