REMARK SMILES O=C(OCCOCCOCCOC(=O)c1cccc(N2C(=O)C[C@H]([NH+]3CCOCC3)C2=O)c1)c1ccc(-c2c3nc(c(-c4c(F)cccc4F)c4ccc([nH]4)c(-c4c(F)cccc4F)c4nc(c(-c5c(F)cccc5F)c5ccc2[nH]5)C=C4)C=C3)cc1
REMARK SMILES IDX 7 1 6 2 5 3 4 4 3 5 2 6 1 7 34 8 35 9 87 10 36 11 86 12
REMARK SMILES IDX 37 13 38 14 39 15 80 16 40 17 85 18 79 19 81 20 41 21 84 22
REMARK SMILES IDX 78 23 77 24 42 26 68 27 51 28 67 29 52 30 55 31 66 32 82 33
REMARK SMILES IDX 53 34 54 35 65 37 83 38 56 39 43 40 44 41 49 42 45 43 46 44
REMARK SMILES IDX 48 45 50 46 47 47 69 48 70 49 75 50 71 51 72 52 74 53 76 54
REMARK SMILES IDX 73 55 57 56 58 57 63 58 59 59 60 60 62 61 64 62 61 63 8 64
REMARK SMILES IDX 9 65 10 66 11 67 12 68 13 69 14 70 15 71 16 72 33 73 17 74
REMARK SMILES IDX 19 75 18 76 20 77 21 78 31 79 22 80 23 81 24 82 32 83 25 84
REMARK SMILES IDX 26 85 30 86 27 88 29 89 28 90
REMARK H PARENT 81 25 55 36 25 87
REMARK Flexibility Score: inf
ROOT
ATOM      1  C   UNL     1       2.607  -0.793   1.889  1.00  0.00     0.188 C 
ENDROOT
BRANCH   1   2
ATOM      2  O   UNL     1       3.892  -1.096   1.344  1.00  0.00    -0.376 OA
BRANCH   2   3
ATOM      3  C   UNL     1       4.838  -0.025   1.419  1.00  0.00     0.202 C 
BRANCH   3   4
ATOM      4  C   UNL     1       4.507   1.237   0.603  1.00  0.00     0.261 C 
BRANCH   4   5
ATOM      5  O   UNL     1       3.135   1.345   0.182  1.00  0.00    -0.460 OA
BRANCH   5   6
ATOM      6  C   UNL     1       2.538   0.894  -0.948  1.00  0.00     0.338 C 
ATOM      7  O   UNL     1       1.361   1.188  -1.148  1.00  0.00    -0.246 OA
BRANCH   6   8
ATOM      8  C   UNL     1       3.223   0.052  -1.971  1.00  0.00     0.060 A 
ATOM      9  C   UNL     1       4.267  -0.832  -1.709  1.00  0.00     0.016 A 
ATOM     10  C   UNL     1       2.707   0.081  -3.276  1.00  0.00     0.016 A 
ATOM     11  C   UNL     1       4.861  -1.589  -2.712  1.00  0.00     0.010 A 
ATOM     12  C   UNL     1       3.260  -0.717  -4.284  1.00  0.00     0.010 A 
ATOM     13  C   UNL     1       4.369  -1.531  -4.009  1.00  0.00    -0.014 A 
BRANCH  13  14
ATOM     14  C   UNL     1       5.108  -2.220  -5.086  1.00  0.00     0.031 A 
ATOM     15  C   UNL     1       5.872  -1.385  -6.067  1.00  0.00     0.074 A 
ATOM     16  C   UNL     1       5.149  -3.564  -5.155  1.00  0.00     0.049 A 
ATOM     17  N   UNL     1       6.517  -1.755  -7.140  1.00  0.00    -0.248 NA
ATOM     18  C   UNL     1       5.943   0.061  -5.788  1.00  0.00     0.031 C 
ATOM     19  C   UNL     1       4.565  -4.485  -4.182  1.00  0.00     0.029 A 
ATOM     20  N   UNL     1       5.688  -4.392  -6.108  1.00  0.00    -0.354 N 
ATOM     21  C   UNL     1       7.048  -0.591  -7.675  1.00  0.00     0.074 A 
ATOM     22  C   UNL     1       6.647   0.501  -6.819  1.00  0.00     0.031 C 
ATOM     23  C   UNL     1       4.694  -5.740  -4.641  1.00  0.00     0.029 A 
ATOM     24  C   UNL     1       5.325  -5.710  -5.946  1.00  0.00     0.049 A 
ATOM     25  H   UNL     1       6.274  -4.076  -6.832  1.00  0.00     0.167 HD
ATOM     26  C   UNL     1       7.804  -0.456  -8.787  1.00  0.00     0.037 A 
ATOM     27  C   UNL     1       5.445  -6.747  -6.794  1.00  0.00     0.037 A 
ATOM     28  C   UNL     1       8.213  -1.553  -9.618  1.00  0.00     0.049 A 
ATOM     29  C   UNL     1       6.217  -6.536  -8.058  1.00  0.00     0.074 A 
ATOM     30  C   UNL     1       8.997  -1.530 -10.758  1.00  0.00     0.029 A 
ATOM     31  N   UNL     1       7.851  -2.872  -9.405  1.00  0.00    -0.354 N 
ATOM     32  N   UNL     1       6.809  -5.454  -8.493  1.00  0.00    -0.248 NA
ATOM     33  C   UNL     1       6.386  -7.713  -8.921  1.00  0.00     0.031 C 
ATOM     34  C   UNL     1       9.052  -2.828 -11.274  1.00  0.00     0.029 A 
ATOM     35  C   UNL     1       8.344  -3.662 -10.428  1.00  0.00     0.049 A 
ATOM     36  H   UNL     1       7.322  -3.199  -8.641  1.00  0.00     0.167 HD
ATOM     37  C   UNL     1       7.443  -5.832  -9.662  1.00  0.00     0.074 A 
ATOM     38  C   UNL     1       7.228  -7.252  -9.826  1.00  0.00     0.031 C 
ATOM     39  C   UNL     1       8.119  -5.071 -10.550  1.00  0.00     0.037 A 
BRANCH  26  40
ATOM     40  C   UNL     1       8.170   0.931  -9.206  1.00  0.00     0.057 A 
ATOM     41  C   UNL     1       9.138   1.690  -8.538  1.00  0.00     0.134 A 
ATOM     42  C   UNL     1       7.549   1.504 -10.323  1.00  0.00     0.134 A 
ATOM     43  F   UNL     1       9.748   1.207  -7.445  1.00  0.00    -0.206 F 
ATOM     44  C   UNL     1       9.470   2.977  -8.963  1.00  0.00     0.040 A 
ATOM     45  C   UNL     1       7.889   2.778 -10.771  1.00  0.00     0.040 A 
ATOM     46  F   UNL     1       6.607   0.828 -10.998  1.00  0.00    -0.206 F 
ATOM     47  C   UNL     1       8.850   3.520 -10.089  1.00  0.00     0.006 A 
ENDBRANCH  26  40
BRANCH  27  48
ATOM     48  C   UNL     1       4.784  -8.062  -6.604  1.00  0.00     0.057 A 
ATOM     49  C   UNL     1       5.529  -9.227  -6.399  1.00  0.00     0.134 A 
ATOM     50  C   UNL     1       3.426  -8.215  -6.909  1.00  0.00     0.134 A 
ATOM     51  F   UNL     1       6.852  -9.151  -6.181  1.00  0.00    -0.206 F 
ATOM     52  C   UNL     1       4.957 -10.495  -6.537  1.00  0.00     0.040 A 
ATOM     53  C   UNL     1       2.828  -9.478  -6.981  1.00  0.00     0.040 A 
ATOM     54  F   UNL     1       2.665  -7.141  -7.170  1.00  0.00    -0.206 F 
ATOM     55  C   UNL     1       3.597 -10.625  -6.804  1.00  0.00     0.006 A 
ENDBRANCH  27  48
BRANCH  39  56
ATOM     56  C   UNL     1       8.653  -5.793 -11.742  1.00  0.00     0.057 A 
ATOM     57  C   UNL     1       7.796  -6.306 -12.726  1.00  0.00     0.134 A 
ATOM     58  C   UNL     1      10.023  -6.036 -11.871  1.00  0.00     0.134 A 
ATOM     59  F   UNL     1       6.468  -6.140 -12.626  1.00  0.00    -0.206 F 
ATOM     60  C   UNL     1       8.284  -7.075 -13.778  1.00  0.00     0.040 A 
ATOM     61  C   UNL     1      10.525  -6.773 -12.940  1.00  0.00     0.040 A 
ATOM     62  F   UNL     1      10.887  -5.580 -10.951  1.00  0.00    -0.206 F 
ATOM     63  C   UNL     1       9.653  -7.305 -13.890  1.00  0.00     0.006 A 
ENDBRANCH  39  56
ENDBRANCH  13  14
ENDBRANCH   6   8
ENDBRANCH   5   6
ENDBRANCH   4   5
ENDBRANCH   3   4
ENDBRANCH   2   3
ENDBRANCH   1   2
BRANCH   1  64
ATOM     64  C   UNL     1       1.959  -1.973   2.608  1.00  0.00     0.188 C 
BRANCH  64  65
ATOM     65  O   UNL     1       2.622  -2.489   3.757  1.00  0.00    -0.376 OA
BRANCH  65  66
ATOM     66  C   UNL     1       4.014  -2.759   3.665  1.00  0.00     0.202 C 
BRANCH  66  67
ATOM     67  C   UNL     1       4.491  -3.904   2.761  1.00  0.00     0.261 C 
BRANCH  67  68
ATOM     68  O   UNL     1       3.910  -3.959   1.453  1.00  0.00    -0.460 OA
BRANCH  68  69
ATOM     69  C   UNL     1       2.833  -4.775   1.389  1.00  0.00     0.338 C 
ATOM     70  O   UNL     1       2.277  -5.351   2.308  1.00  0.00    -0.246 OA
BRANCH  69  71
ATOM     71  C   UNL     1       2.505  -5.061  -0.006  1.00  0.00     0.062 A 
ATOM     72  C   UNL     1       1.790  -4.216  -0.849  1.00  0.00     0.016 A 
ATOM     73  C   UNL     1       2.843  -6.349  -0.400  1.00  0.00     0.042 A 
ATOM     74  C   UNL     1       1.418  -4.695  -2.108  1.00  0.00     0.003 A 
ATOM     75  C   UNL     1       2.452  -6.857  -1.634  1.00  0.00     0.053 A 
ATOM     76  C   UNL     1       1.755  -6.004  -2.503  1.00  0.00     0.027 A 
BRANCH  75  77
ATOM     77  N   UNL     1       2.815  -8.191  -1.933  1.00  0.00    -0.245 N 
ATOM     78  C   UNL     1       2.955  -9.177  -0.986  1.00  0.00     0.240 C 
ATOM     79  C   UNL     1       3.016  -8.705  -3.181  1.00  0.00     0.292 C 
ATOM     80  O   UNL     1       2.717  -9.132   0.213  1.00  0.00    -0.274 OA
ATOM     81  C   UNL     1       3.346 -10.451  -1.653  1.00  0.00     0.176 C 
ATOM     82  C   UNL     1       3.776 -10.019  -3.034  1.00  0.00     0.284 C 
ATOM     83  O   UNL     1       2.644  -8.228  -4.243  1.00  0.00    -0.267 OA
BRANCH  82  84
ATOM     84  N   UNL     1       5.220  -9.900  -3.325  1.00  0.00    -0.320 N 
ATOM     85  C   UNL     1       5.912 -11.197  -3.473  1.00  0.00     0.291 C 
ATOM     86  C   UNL     1       6.074  -8.991  -2.542  1.00  0.00     0.291 C 
ATOM     87  H   UNL     1       5.120  -9.415  -4.217  1.00  0.00     0.348 HD
ATOM     88  C   UNL     1       6.488 -11.781  -2.178  1.00  0.00     0.221 C 
ATOM     89  C   UNL     1       6.668  -9.602  -1.260  1.00  0.00     0.221 C 
ATOM     90  O   UNL     1       7.336 -10.843  -1.513  1.00  0.00    -0.370 OA
ENDBRANCH  82  84
ENDBRANCH  75  77
ENDBRANCH  69  71
ENDBRANCH  68  69
ENDBRANCH  67  68
ENDBRANCH  66  67
ENDBRANCH  65  66
ENDBRANCH  64  65
ENDBRANCH   1  64
TORSDOF 19
