REMARK SMILES O=C(C[C@H](NC(=O)[C@]12C[C@H]3C[C@H](C[C@H](C3)C1)C2)c1cccc([N+](=O)[O-])c1)OCCOCCOCCOC(=O)c1ccc(-c2c3nc(c(-c4c(F)cccc4F)c4ccc([nH]4)c(-c4c(F)cccc4F)c4nc(c(-c5c(F)cccc5F)c5ccc2[nH]5)C=C4)C=C3)cc1
REMARK SMILES IDX 31 1 30 2 29 3 28 4 27 5 2 6 1 7 3 8 4 9 18 10 19 11 26 12
REMARK SMILES IDX 20 13 22 14 21 15 23 16 24 17 25 18 5 19 6 20 7 22 8 23 9 24
REMARK SMILES IDX 16 25 17 26 10 27 14 28 12 29 11 30 15 31 13 32 32 33 33 34
REMARK SMILES IDX 34 35 35 36 36 37 37 38 38 39 39 40 40 41 92 42 41 43 91 44
REMARK SMILES IDX 42 45 43 46 44 47 85 48 45 49 90 50 84 51 86 52 46 53 89 54
REMARK SMILES IDX 83 55 82 56 47 58 73 59 56 60 72 61 57 62 60 63 71 64 87 65
REMARK SMILES IDX 58 66 59 67 70 69 88 70 61 71 48 72 49 73 54 74 50 75 51 76
REMARK SMILES IDX 53 77 55 78 52 79 74 80 75 81 80 82 76 83 77 84 79 85 81 86
REMARK SMILES IDX 78 87 62 88 63 89 68 90 64 91 65 92 67 93 69 94 66 95
REMARK H PARENT 5 21 86 57 60 68
REMARK Flexibility Score: inf
ROOT
ATOM      1  C   UNL     1       4.691  -2.229  -1.087  1.00  0.00     0.188 C 
ENDROOT
BRANCH   1   2
ATOM      2  O   UNL     1       3.301  -2.389  -0.862  1.00  0.00    -0.376 OA
BRANCH   2   3
ATOM      3  C   UNL     1       2.617  -1.300  -0.262  1.00  0.00     0.202 C 
BRANCH   3   4
ATOM      4  C   UNL     1       2.704   0.031  -1.003  1.00  0.00     0.261 C 
BRANCH   4   5
ATOM      5  O   UNL     1       4.059   0.470  -1.250  1.00  0.00    -0.463 OA
BRANCH   5   6
ATOM      6  C   UNL     1       4.818   1.319  -0.541  1.00  0.00     0.308 C 
ATOM      7  O   UNL     1       5.355   2.269  -1.111  1.00  0.00    -0.252 OA
BRANCH   6   8
ATOM      8  C   UNL     1       5.320   0.913   0.826  1.00  0.00     0.152 C 
BRANCH   8   9
ATOM      9  C   UNL     1       4.373   0.623   1.994  1.00  0.00     0.123 C 
BRANCH   9  10
ATOM     10  C   UNL     1       5.063   1.028   3.286  1.00  0.00    -0.018 A 
ATOM     11  C   UNL     1       5.673   0.072   4.117  1.00  0.00     0.006 A 
ATOM     12  C   UNL     1       5.092   2.380   3.668  1.00  0.00     0.091 A 
ATOM     13  C   UNL     1       6.239   0.448   5.337  1.00  0.00     0.007 A 
ATOM     14  C   UNL     1       5.655   2.749   4.893  1.00  0.00     0.269 A 
ATOM     15  C   UNL     1       6.222   1.786   5.735  1.00  0.00     0.085 A 
BRANCH  14  16
ATOM     16  N   UNL     1       5.613   4.155   5.304  1.00  0.00     0.062 N 
ATOM     17  O   UNL     1       6.064   4.441   6.422  1.00  0.00    -0.258 OA
ATOM     18  O   UNL     1       5.125   4.973   4.511  1.00  0.00    -0.258 OA
ENDBRANCH  14  16
ENDBRANCH   9  10
BRANCH   9  19
ATOM     19  N   UNL     1       3.063   1.251   1.870  1.00  0.00    -0.348 N 
ATOM     20  C   UNL     1       1.830   0.973   2.371  1.00  0.00     0.226 C 
ATOM     21  H   UNL     1       3.073   2.052   1.298  1.00  0.00     0.164 HD
ATOM     22  O   UNL     1       0.907   1.524   1.759  1.00  0.00    -0.274 OA
BRANCH  20  23
ATOM     23  C   UNL     1       1.545   0.147   3.644  1.00  0.00     0.050 C 
ATOM     24  C   UNL     1       2.203  -1.245   3.720  1.00  0.00     0.020 C 
ATOM     25  C   UNL     1       0.003  -0.092   3.746  1.00  0.00     0.020 C 
ATOM     26  C   UNL     1       1.945   0.996   4.873  1.00  0.00     0.020 C 
ATOM     27  C   UNL     1       1.856  -1.952   5.044  1.00  0.00    -0.010 C 
ATOM     28  C   UNL     1      -0.371  -0.799   5.062  1.00  0.00    -0.010 C 
ATOM     29  C   UNL     1       1.599   0.282   6.185  1.00  0.00    -0.010 C 
ATOM     30  C   UNL     1       2.317  -1.076   6.222  1.00  0.00     0.007 C 
ATOM     31  C   UNL     1       0.338  -2.158   5.128  1.00  0.00     0.007 C 
ATOM     32  C   UNL     1       0.082   0.066   6.248  1.00  0.00     0.007 C 
ENDBRANCH  20  23
ENDBRANCH   9  19
ENDBRANCH   8   9
ENDBRANCH   6   8
ENDBRANCH   5   6
ENDBRANCH   4   5
ENDBRANCH   3   4
ENDBRANCH   2   3
ENDBRANCH   1   2
BRANCH   1  33
ATOM     33  C   UNL     1       5.091  -1.900  -2.542  1.00  0.00     0.188 C 
BRANCH  33  34
ATOM     34  O   UNL     1       4.135  -2.035  -3.585  1.00  0.00    -0.376 OA
BRANCH  34  35
ATOM     35  C   UNL     1       3.234  -3.132  -3.574  1.00  0.00     0.202 C 
BRANCH  35  36
ATOM     36  C   UNL     1       3.816  -4.552  -3.567  1.00  0.00     0.261 C 
BRANCH  36  37
ATOM     37  O   UNL     1       4.693  -4.841  -2.460  1.00  0.00    -0.460 OA
BRANCH  37  38
ATOM     38  C   UNL     1       5.991  -5.056  -2.790  1.00  0.00     0.338 C 
ATOM     39  O   UNL     1       6.474  -5.065  -3.908  1.00  0.00    -0.246 OA
BRANCH  38  40
ATOM     40  C   UNL     1       6.840  -5.130  -1.580  1.00  0.00     0.060 A 
ATOM     41  C   UNL     1       7.922  -4.242  -1.489  1.00  0.00     0.016 A 
ATOM     42  C   UNL     1       6.659  -6.117  -0.609  1.00  0.00     0.016 A 
ATOM     43  C   UNL     1       8.863  -4.383  -0.470  1.00  0.00     0.010 A 
ATOM     44  C   UNL     1       7.617  -6.268   0.406  1.00  0.00     0.010 A 
ATOM     45  C   UNL     1       8.749  -5.433   0.451  1.00  0.00    -0.014 A 
BRANCH  45  46
ATOM     46  C   UNL     1       9.920  -5.764   1.306  1.00  0.00     0.031 A 
ATOM     47  C   UNL     1      10.867  -6.846   0.850  1.00  0.00     0.074 A 
ATOM     48  C   UNL     1      10.191  -5.074   2.428  1.00  0.00     0.049 A 
ATOM     49  N   UNL     1      11.973  -7.273   1.407  1.00  0.00    -0.248 NA
ATOM     50  C   UNL     1      10.522  -7.533  -0.404  1.00  0.00     0.031 C 
ATOM     51  C   UNL     1       9.384  -3.982   2.967  1.00  0.00     0.029 A 
ATOM     52  N   UNL     1      11.234  -5.193   3.315  1.00  0.00    -0.354 N 
ATOM     53  C   UNL     1      12.461  -8.265   0.566  1.00  0.00     0.074 A 
ATOM     54  C   UNL     1      11.508  -8.410  -0.514  1.00  0.00     0.031 C 
ATOM     55  C   UNL     1       9.956  -3.537   4.100  1.00  0.00     0.029 A 
ATOM     56  C   UNL     1      11.160  -4.322   4.374  1.00  0.00     0.049 A 
ATOM     57  H   UNL     1      11.966  -5.842   3.201  1.00  0.00     0.167 HD
ATOM     58  C   UNL     1      13.607  -8.981   0.666  1.00  0.00     0.037 A 
ATOM     59  C   UNL     1      11.966  -4.180   5.445  1.00  0.00     0.037 A 
ATOM     60  C   UNL     1      14.556  -8.856   1.740  1.00  0.00     0.049 A 
ATOM     61  C   UNL     1      13.202  -5.035   5.571  1.00  0.00     0.074 A 
ATOM     62  C   UNL     1      15.741  -9.547   1.931  1.00  0.00     0.029 A 
ATOM     63  N   UNL     1      14.429  -7.982   2.809  1.00  0.00    -0.354 N 
ATOM     64  N   UNL     1      13.661  -5.955   4.757  1.00  0.00    -0.248 NA
ATOM     65  C   UNL     1      14.038  -4.821   6.762  1.00  0.00     0.031 C 
ATOM     66  C   UNL     1      16.310  -9.120   3.136  1.00  0.00     0.029 A 
ATOM     67  C   UNL     1      15.504  -8.129   3.670  1.00  0.00     0.049 A 
ATOM     68  H   UNL     1      13.684  -7.351   2.937  1.00  0.00     0.167 HD
ATOM     69  C   UNL     1      14.848  -6.407   5.323  1.00  0.00     0.074 A 
ATOM     70  C   UNL     1      15.049  -5.647   6.538  1.00  0.00     0.031 C 
ATOM     71  C   UNL     1      15.697  -7.366   4.877  1.00  0.00     0.037 A 
BRANCH  58  72
ATOM     72  C   UNL     1      13.892  -9.977  -0.419  1.00  0.00     0.057 A 
ATOM     73  C   UNL     1      14.278  -9.573  -1.704  1.00  0.00     0.134 A 
ATOM     74  C   UNL     1      13.814 -11.353  -0.170  1.00  0.00     0.134 A 
ATOM     75  F   UNL     1      14.357  -8.270  -2.011  1.00  0.00    -0.206 F 
ATOM     76  C   UNL     1      14.556 -10.502  -2.708  1.00  0.00     0.040 A 
ATOM     77  C   UNL     1      14.114 -12.291  -1.158  1.00  0.00     0.040 A 
ATOM     78  F   UNL     1      13.454 -11.806   1.041  1.00  0.00    -0.206 F 
ATOM     79  C   UNL     1      14.482 -11.866  -2.433  1.00  0.00     0.006 A 
ENDBRANCH  58  72
BRANCH  59  80
ATOM     80  C   UNL     1      11.630  -3.195   6.505  1.00  0.00     0.057 A 
ATOM     81  C   UNL     1      12.415  -2.056   6.720  1.00  0.00     0.134 A 
ATOM     82  C   UNL     1      10.540  -3.397   7.360  1.00  0.00     0.134 A 
ATOM     83  F   UNL     1      13.489  -1.821   5.951  1.00  0.00    -0.206 F 
ATOM     84  C   UNL     1      12.144  -1.167   7.762  1.00  0.00     0.040 A 
ATOM     85  C   UNL     1      10.242  -2.503   8.389  1.00  0.00     0.040 A 
ATOM     86  F   UNL     1       9.746  -4.466   7.205  1.00  0.00    -0.206 F 
ATOM     87  C   UNL     1      11.052  -1.389   8.598  1.00  0.00     0.006 A 
ENDBRANCH  59  80
BRANCH  71  88
ATOM     88  C   UNL     1      16.933  -7.626   5.690  1.00  0.00     0.057 A 
ATOM     89  C   UNL     1      16.879  -8.262   6.937  1.00  0.00     0.134 A 
ATOM     90  C   UNL     1      18.195  -7.255   5.209  1.00  0.00     0.134 A 
ATOM     91  F   UNL     1      15.701  -8.633   7.461  1.00  0.00    -0.206 F 
ATOM     92  C   UNL     1      18.033  -8.489   7.691  1.00  0.00     0.040 A 
ATOM     93  C   UNL     1      19.358  -7.502   5.941  1.00  0.00     0.040 A 
ATOM     94  F   UNL     1      18.321  -6.653   4.017  1.00  0.00    -0.206 F 
ATOM     95  C   UNL     1      19.277  -8.113   7.191  1.00  0.00     0.006 A 
ENDBRANCH  71  88
ENDBRANCH  45  46
ENDBRANCH  38  40
ENDBRANCH  37  38
ENDBRANCH  36  37
ENDBRANCH  35  36
ENDBRANCH  34  35
ENDBRANCH  33  34
ENDBRANCH   1  33
TORSDOF 22
