REMARK SMILES O=C(OCCOCCOCCOC(=O)[C@H](c1c[nH]c2ccc(Cl)cc12)[NH+]1CCN(c2cccc(Cl)c2)CC1)c1ccc(-c2c3nc(c(-c4c(F)cccc4F)c4ccc([nH]4)c(-c4c(F)cccc4F)c4nc(c(-c5c(F)cccc5F)c5ccc2[nH]5)C=C4)C=C3)cc1
REMARK SMILES IDX 7 1 6 2 5 3 4 4 3 5 2 6 1 7 39 8 40 9 92 10 41 11 91 12
REMARK SMILES IDX 42 13 43 14 44 15 85 16 45 17 90 18 84 19 86 20 46 21 89 22
REMARK SMILES IDX 83 23 82 24 47 26 73 27 56 28 72 29 57 30 60 31 71 32 87 33
REMARK SMILES IDX 58 34 59 35 70 37 88 38 61 39 48 40 49 41 54 42 50 43 51 44
REMARK SMILES IDX 53 45 55 46 52 47 74 48 75 49 80 50 76 51 77 52 79 53 81 54
REMARK SMILES IDX 78 55 62 56 63 57 68 58 64 59 65 60 67 61 69 62 66 63 8 64
REMARK SMILES IDX 9 65 10 66 11 67 12 68 13 69 14 70 15 71 26 72 27 73 38 74
REMARK SMILES IDX 28 76 37 77 29 78 30 79 31 80 36 81 32 82 34 83 33 84 35 85
REMARK SMILES IDX 16 86 17 87 25 88 18 89 19 90 24 91 20 93 22 94 21 95 23 96
REMARK H PARENT 86 25 60 36 26 75 18 92
REMARK Flexibility Score: inf
ROOT
ATOM      1  C   UNL     1       3.607   2.258  -0.179  1.00  0.00     0.188 C 
ENDROOT
BRANCH   1   2
ATOM      2  O   UNL     1       2.427   2.909  -0.612  1.00  0.00    -0.376 OA
BRANCH   2   3
ATOM      3  C   UNL     1       1.457   3.266   0.369  1.00  0.00     0.202 C 
BRANCH   3   4
ATOM      4  C   UNL     1       1.212   2.341   1.569  1.00  0.00     0.261 C 
BRANCH   4   5
ATOM      5  O   UNL     1       1.887   1.065   1.587  1.00  0.00    -0.460 OA
BRANCH   5   6
ATOM      6  C   UNL     1       1.723  -0.080   0.894  1.00  0.00     0.338 C 
ATOM      7  O   UNL     1       2.465  -1.033   1.121  1.00  0.00    -0.246 OA
BRANCH   6   8
ATOM      8  C   UNL     1       0.651  -0.256  -0.108  1.00  0.00     0.060 A 
ATOM      9  C   UNL     1       0.321   0.685  -1.080  1.00  0.00     0.016 A 
ATOM     10  C   UNL     1       0.022  -1.500  -0.148  1.00  0.00     0.016 A 
ATOM     11  C   UNL     1      -0.752   0.499  -1.938  1.00  0.00     0.010 A 
ATOM     12  C   UNL     1      -0.978  -1.743  -1.086  1.00  0.00     0.010 A 
ATOM     13  C   UNL     1      -1.418  -0.718  -1.943  1.00  0.00    -0.014 A 
BRANCH  13  14
ATOM     14  C   UNL     1      -2.657  -0.901  -2.728  1.00  0.00     0.031 A 
ATOM     15  C   UNL     1      -3.897  -1.252  -1.963  1.00  0.00     0.074 A 
ATOM     16  C   UNL     1      -2.675  -0.780  -4.067  1.00  0.00     0.049 A 
ATOM     17  N   UNL     1      -5.029  -1.743  -2.382  1.00  0.00    -0.248 NA
ATOM     18  C   UNL     1      -3.837  -1.028  -0.506  1.00  0.00     0.031 C 
ATOM     19  C   UNL     1      -1.570  -0.309  -4.902  1.00  0.00     0.029 A 
ATOM     20  N   UNL     1      -3.653  -1.101  -4.972  1.00  0.00    -0.354 N 
ATOM     21  C   UNL     1      -5.793  -1.931  -1.239  1.00  0.00     0.074 A 
ATOM     22  C   UNL     1      -4.979  -1.558  -0.106  1.00  0.00     0.031 C 
ATOM     23  C   UNL     1      -1.889  -0.467  -6.196  1.00  0.00     0.029 A 
ATOM     24  C   UNL     1      -3.215  -1.059  -6.275  1.00  0.00     0.049 A 
ATOM     25  H   UNL     1      -4.574  -1.338  -4.716  1.00  0.00     0.167 HD
ATOM     26  C   UNL     1      -7.074  -2.354  -1.152  1.00  0.00     0.037 A 
ATOM     27  C   UNL     1      -3.808  -1.496  -7.400  1.00  0.00     0.037 A 
ATOM     28  C   UNL     1      -7.859  -2.687  -2.307  1.00  0.00     0.049 A 
ATOM     29  C   UNL     1      -5.195  -2.058  -7.287  1.00  0.00     0.074 A 
ATOM     30  C   UNL     1      -9.167  -3.121  -2.374  1.00  0.00     0.029 A 
ATOM     31  N   UNL     1      -7.387  -2.615  -3.614  1.00  0.00    -0.354 N 
ATOM     32  N   UNL     1      -5.918  -2.253  -6.209  1.00  0.00    -0.248 NA
ATOM     33  C   UNL     1      -5.864  -2.429  -8.538  1.00  0.00     0.031 C 
ATOM     34  C   UNL     1      -9.474  -3.353  -3.719  1.00  0.00     0.029 A 
ATOM     35  C   UNL     1      -8.375  -3.008  -4.495  1.00  0.00     0.049 A 
ATOM     36  H   UNL     1      -6.482  -2.327  -3.872  1.00  0.00     0.167 HD
ATOM     37  C   UNL     1      -7.147  -2.716  -6.652  1.00  0.00     0.074 A 
ATOM     38  C   UNL     1      -7.063  -2.787  -8.099  1.00  0.00     0.031 C 
ATOM     39  C   UNL     1      -8.252  -3.037  -5.933  1.00  0.00     0.037 A 
BRANCH  26  40
ATOM     40  C   UNL     1      -7.644  -2.506   0.228  1.00  0.00     0.057 A 
ATOM     41  C   UNL     1      -7.858  -1.407   1.075  1.00  0.00     0.134 A 
ATOM     42  C   UNL     1      -7.901  -3.778   0.753  1.00  0.00     0.134 A 
ATOM     43  F   UNL     1      -7.605  -0.160   0.647  1.00  0.00    -0.206 F 
ATOM     44  C   UNL     1      -8.245  -1.572   2.406  1.00  0.00     0.040 A 
ATOM     45  C   UNL     1      -8.323  -3.954   2.072  1.00  0.00     0.040 A 
ATOM     46  F   UNL     1      -7.720  -4.875   0.002  1.00  0.00    -0.206 F 
ATOM     47  C   UNL     1      -8.478  -2.850   2.909  1.00  0.00     0.006 A 
ENDBRANCH  26  40
BRANCH  27  48
ATOM     48  C   UNL     1      -3.100  -1.397  -8.701  1.00  0.00     0.057 A 
ATOM     49  C   UNL     1      -3.483  -0.458  -9.664  1.00  0.00     0.134 A 
ATOM     50  C   UNL     1      -2.001  -2.214  -9.002  1.00  0.00     0.134 A 
ATOM     51  F   UNL     1      -4.528   0.351  -9.438  1.00  0.00    -0.206 F 
ATOM     52  C   UNL     1      -2.813  -0.344 -10.885  1.00  0.00     0.040 A 
ATOM     53  C   UNL     1      -1.310  -2.098 -10.210  1.00  0.00     0.040 A 
ATOM     54  F   UNL     1      -1.571  -3.124  -8.116  1.00  0.00    -0.206 F 
ATOM     55  C   UNL     1      -1.720  -1.164 -11.159  1.00  0.00     0.006 A 
ENDBRANCH  27  48
BRANCH  39  56
ATOM     56  C   UNL     1      -9.477  -3.416  -6.705  1.00  0.00     0.057 A 
ATOM     57  C   UNL     1      -9.601  -4.656  -7.339  1.00  0.00     0.134 A 
ATOM     58  C   UNL     1     -10.578  -2.550  -6.739  1.00  0.00     0.134 A 
ATOM     59  F   UNL     1      -8.575  -5.520  -7.353  1.00  0.00    -0.206 F 
ATOM     60  C   UNL     1     -10.780  -5.020  -7.990  1.00  0.00     0.040 A 
ATOM     61  C   UNL     1     -11.770  -2.914  -7.359  1.00  0.00     0.040 A 
ATOM     62  F   UNL     1     -10.519  -1.349  -6.141  1.00  0.00    -0.206 F 
ATOM     63  C   UNL     1     -11.872  -4.153  -7.989  1.00  0.00     0.006 A 
ENDBRANCH  39  56
ENDBRANCH  13  14
ENDBRANCH   6   8
ENDBRANCH   5   6
ENDBRANCH   4   5
ENDBRANCH   3   4
ENDBRANCH   2   3
ENDBRANCH   1   2
BRANCH   1  64
ATOM     64  C   UNL     1       4.872   2.593  -0.967  1.00  0.00     0.188 C 
BRANCH  64  65
ATOM     65  O   UNL     1       5.062   3.892  -1.497  1.00  0.00    -0.376 OA
BRANCH  65  66
ATOM     66  C   UNL     1       3.981   4.572  -2.116  1.00  0.00     0.202 C 
BRANCH  66  67
ATOM     67  C   UNL     1       3.392   4.048  -3.438  1.00  0.00     0.261 C 
BRANCH  67  68
ATOM     68  O   UNL     1       2.797   2.736  -3.473  1.00  0.00    -0.459 OA
BRANCH  68  69
ATOM     69  C   UNL     1       3.643   1.750  -3.907  1.00  0.00     0.370 C 
ATOM     70  O   UNL     1       4.854   1.871  -3.908  1.00  0.00    -0.245 OA
BRANCH  69  71
ATOM     71  C   UNL     1       2.885   0.543  -4.526  1.00  0.00     0.328 C 
BRANCH  71  72
ATOM     72  N   UNL     1       3.130   0.423  -6.008  1.00  0.00    -0.316 N 
ATOM     73  C   UNL     1       3.475   1.694  -6.710  1.00  0.00     0.284 C 
ATOM     74  C   UNL     1       4.109  -0.589  -6.445  1.00  0.00     0.284 C 
ATOM     75  H   UNL     1       2.199   0.112  -6.284  1.00  0.00     0.349 HD
ATOM     76  C   UNL     1       4.976   2.156  -6.759  1.00  0.00     0.178 C 
ATOM     77  C   UNL     1       5.580  -0.221  -6.200  1.00  0.00     0.178 C 
ATOM     78  N   UNL     1       5.927   1.039  -6.874  1.00  0.00    -0.360 N 
BRANCH  78  79
ATOM     79  C   UNL     1       7.298   1.314  -6.797  1.00  0.00     0.038 A 
ATOM     80  C   UNL     1       8.146   0.738  -7.753  1.00  0.00     0.026 A 
ATOM     81  C   UNL     1       7.880   2.043  -5.750  1.00  0.00     0.046 A 
ATOM     82  C   UNL     1       9.532   0.895  -7.687  1.00  0.00     0.004 A 
ATOM     83  C   UNL     1       9.268   2.196  -5.681  1.00  0.00     0.043 A 
ATOM     84  C   UNL     1      10.097   1.628  -6.647  1.00  0.00     0.020 A 
ATOM     85  Cl  UNL     1       9.975   3.072  -4.376  1.00  0.00    -0.084 Cl
ENDBRANCH  78  79
ENDBRANCH  71  72
BRANCH  71  86
ATOM     86  C   UNL     1       3.185  -0.745  -3.744  1.00  0.00     0.046 A 
ATOM     87  C   UNL     1       4.348  -0.990  -3.025  1.00  0.00     0.094 A 
ATOM     88  C   UNL     1       2.378  -1.939  -3.572  1.00  0.00     0.011 A 
ATOM     89  N   UNL     1       4.290  -2.227  -2.460  1.00  0.00    -0.361 N 
ATOM     90  C   UNL     1       3.085  -2.815  -2.740  1.00  0.00     0.046 A 
ATOM     91  C   UNL     1       1.122  -2.385  -4.038  1.00  0.00     0.031 A 
ATOM     92  H   UNL     1       5.008  -2.639  -1.929  1.00  0.00     0.166 HD
ATOM     93  C   UNL     1       2.597  -4.057  -2.315  1.00  0.00     0.028 A 
ATOM     94  C   UNL     1       0.605  -3.615  -3.597  1.00  0.00     0.041 A 
ATOM     95  C   UNL     1       1.326  -4.436  -2.740  1.00  0.00     0.022 A 
ATOM     96  Cl  UNL     1      -0.962  -4.122  -4.107  1.00  0.00    -0.084 Cl
ENDBRANCH  71  86
ENDBRANCH  69  71
ENDBRANCH  68  69
ENDBRANCH  67  68
ENDBRANCH  66  67
ENDBRANCH  65  66
ENDBRANCH  64  65
ENDBRANCH   1  64
TORSDOF 20
