REMARK SMILES COC(=O)c1ccc([C@H]2CC(=O)Nc3c(C(=O)OCCOCCOCCOC(=O)c4ccc(-c5c6nc(c(-c7c(F)cccc7F)c7ccc([nH]7)c(-c7c(F)cccc7F)c7nc(c(-c8c(F)cccc8F)c8ccc5[nH]8)C=C7)C=C6)cc4)cn(-c4ccccc4)c32)cc1
REMARK SMILES IDX 22 1 21 2 20 3 19 4 18 5 16 6 17 7 15 8 9 9 10 10 92 11
REMARK SMILES IDX 11 12 14 13 85 14 12 15 13 16 84 17 8 19 5 20 6 21 94 22
REMARK SMILES IDX 7 23 93 24 3 25 4 26 2 27 1 28 86 29 87 30 91 31 88 32 90 33
REMARK SMILES IDX 89 34 23 35 24 36 25 37 26 38 27 39 28 40 29 41 30 42 31 43
REMARK SMILES IDX 83 44 32 45 82 46 33 47 34 48 35 49 76 50 36 51 81 52 75 53
REMARK SMILES IDX 77 54 37 55 80 56 74 57 73 58 38 60 64 61 47 62 63 63 48 64
REMARK SMILES IDX 51 65 62 66 78 67 49 68 50 69 61 71 79 72 52 73 39 74 40 75
REMARK SMILES IDX 45 76 41 77 42 78 44 79 46 80 43 81 65 82 66 83 71 84 67 85
REMARK SMILES IDX 68 86 70 87 72 88 69 89 53 90 54 91 59 92 55 93 56 94 58 95
REMARK SMILES IDX 60 96 57 97
REMARK H PARENT 13 18 77 59 51 70
REMARK Flexibility Score: inf
ROOT
ATOM      1  C   UNL     1      -3.990   3.101 -10.712  1.00  0.00     0.188 C 
ENDROOT
BRANCH   1   2
ATOM      2  O   UNL     1      -5.182   2.410 -11.048  1.00  0.00    -0.376 OA
BRANCH   2   3
ATOM      3  C   UNL     1      -6.275   2.347 -10.145  1.00  0.00     0.202 C 
BRANCH   3   4
ATOM      4  C   UNL     1      -6.110   2.059  -8.636  1.00  0.00     0.261 C 
BRANCH   4   5
ATOM      5  O   UNL     1      -5.030   2.716  -7.959  1.00  0.00    -0.460 OA
BRANCH   5   6
ATOM      6  C   UNL     1      -3.923   1.951  -7.730  1.00  0.00     0.341 C 
ATOM      7  O   UNL     1      -3.847   0.756  -7.966  1.00  0.00    -0.246 OA
BRANCH   6   8
ATOM      8  C   UNL     1      -2.772   2.747  -7.314  1.00  0.00     0.102 A 
ATOM      9  C   UNL     1      -0.876   5.470  -5.609  1.00  0.00     0.078 C 
ATOM     10  C   UNL     1      -2.047   6.441  -5.372  1.00  0.00     0.115 C 
ATOM     11  C   UNL     1      -1.350   4.287  -6.418  1.00  0.00     0.055 A 
ATOM     12  C   UNL     1      -3.405   5.785  -5.189  1.00  0.00     0.225 C 
ATOM     13  C   UNL     1      -2.677   3.925  -6.535  1.00  0.00     0.078 A 
ATOM     14  N   UNL     1      -0.602   3.334  -7.088  1.00  0.00    -0.317 N 
ATOM     15  O   UNL     1      -4.287   6.313  -4.513  1.00  0.00    -0.275 OA
ATOM     16  N   UNL     1      -3.661   4.640  -5.897  1.00  0.00    -0.324 N 
ATOM     17  C   UNL     1      -1.472   2.464  -7.707  1.00  0.00     0.109 A 
ATOM     18  H   UNL     1      -4.589   4.317  -5.952  1.00  0.00     0.170 HD
BRANCH   9  19
ATOM     19  C   UNL     1       0.321   6.277  -6.118  1.00  0.00    -0.038 A 
ATOM     20  C   UNL     1       2.648   7.686  -6.909  1.00  0.00     0.060 A 
ATOM     21  C   UNL     1       2.261   7.656  -5.566  1.00  0.00     0.016 A 
ATOM     22  C   UNL     1       1.837   7.065  -7.864  1.00  0.00     0.016 A 
ATOM     23  C   UNL     1       1.115   6.957  -5.176  1.00  0.00     0.005 A 
ATOM     24  C   UNL     1       0.666   6.397  -7.473  1.00  0.00     0.005 A 
BRANCH  20  25
ATOM     25  C   UNL     1       3.927   8.366  -7.253  1.00  0.00     0.337 C 
ATOM     26  O   UNL     1       4.733   8.744  -6.416  1.00  0.00    -0.246 OA
BRANCH  25  27
ATOM     27  O   UNL     1       4.056   8.507  -8.596  1.00  0.00    -0.465 OA
ATOM     28  C   UNL     1       5.259   9.169  -8.996  1.00  0.00     0.282 C 
ENDBRANCH  25  27
ENDBRANCH  20  25
ENDBRANCH   9  19
BRANCH  14  29
ATOM     29  C   UNL     1       0.802   3.214  -7.152  1.00  0.00     0.045 A 
ATOM     30  C   UNL     1       1.549   3.213  -5.972  1.00  0.00     0.026 A 
ATOM     31  C   UNL     1       1.431   3.150  -8.403  1.00  0.00     0.026 A 
ATOM     32  C   UNL     1       2.939   3.184  -6.045  1.00  0.00     0.002 A 
ATOM     33  C   UNL     1       2.824   3.164  -8.464  1.00  0.00     0.002 A 
ATOM     34  C   UNL     1       3.575   3.181  -7.287  1.00  0.00     0.000 A 
ENDBRANCH  14  29
ENDBRANCH   6   8
ENDBRANCH   5   6
ENDBRANCH   4   5
ENDBRANCH   3   4
ENDBRANCH   2   3
ENDBRANCH   1   2
BRANCH   1  35
ATOM     35  C   UNL     1      -4.035   4.515 -10.093  1.00  0.00     0.188 C 
BRANCH  35  36
ATOM     36  O   UNL     1      -5.287   4.904  -9.577  1.00  0.00    -0.376 OA
BRANCH  36  37
ATOM     37  C   UNL     1      -6.165   5.755 -10.293  1.00  0.00     0.202 C 
BRANCH  37  38
ATOM     38  C   UNL     1      -6.231   5.859 -11.818  1.00  0.00     0.261 C 
BRANCH  38  39
ATOM     39  O   UNL     1      -5.249   5.152 -12.545  1.00  0.00    -0.460 OA
BRANCH  39  40
ATOM     40  C   UNL     1      -4.158   5.886 -12.842  1.00  0.00     0.338 C 
ATOM     41  O   UNL     1      -3.831   6.954 -12.357  1.00  0.00    -0.246 OA
BRANCH  40  42
ATOM     42  C   UNL     1      -3.438   5.233 -13.936  1.00  0.00     0.060 A 
ATOM     43  C   UNL     1      -2.159   5.715 -14.214  1.00  0.00     0.016 A 
ATOM     44  C   UNL     1      -4.156   4.431 -14.836  1.00  0.00     0.016 A 
ATOM     45  C   UNL     1      -1.697   5.600 -15.503  1.00  0.00     0.010 A 
ATOM     46  C   UNL     1      -3.701   4.333 -16.127  1.00  0.00     0.010 A 
ATOM     47  C   UNL     1      -2.530   5.008 -16.458  1.00  0.00    -0.014 A 
BRANCH  47  48
ATOM     48  C   UNL     1      -2.149   5.149 -17.842  1.00  0.00     0.031 A 
ATOM     49  C   UNL     1      -1.057   4.252 -18.259  1.00  0.00     0.074 A 
ATOM     50  C   UNL     1      -2.798   5.986 -18.671  1.00  0.00     0.049 A 
ATOM     51  N   UNL     1       0.135   4.578 -18.629  1.00  0.00    -0.248 NA
ATOM     52  C   UNL     1      -1.279   2.806 -18.113  1.00  0.00     0.031 C 
ATOM     53  C   UNL     1      -4.060   6.697 -18.443  1.00  0.00     0.029 A 
ATOM     54  N   UNL     1      -2.500   6.293 -19.959  1.00  0.00    -0.354 N 
ATOM     55  C   UNL     1       0.761   3.381 -18.948  1.00  0.00     0.074 A 
ATOM     56  C   UNL     1      -0.086   2.324 -18.458  1.00  0.00     0.031 C 
ATOM     57  C   UNL     1      -4.527   7.153 -19.628  1.00  0.00     0.029 A 
ATOM     58  C   UNL     1      -3.543   6.874 -20.661  1.00  0.00     0.049 A 
ATOM     59  H   UNL     1      -1.619   6.117 -20.360  1.00  0.00     0.167 HD
ATOM     60  C   UNL     1       1.813   3.341 -19.806  1.00  0.00     0.037 A 
ATOM     61  C   UNL     1      -3.609   7.012 -22.008  1.00  0.00     0.037 A 
ATOM     62  C   UNL     1       2.421   4.634 -19.971  1.00  0.00     0.049 A 
ATOM     63  C   UNL     1      -2.228   6.875 -22.543  1.00  0.00     0.074 A 
ATOM     64  C   UNL     1       3.026   5.535 -19.116  1.00  0.00     0.029 A 
ATOM     65  N   UNL     1       2.140   5.337 -21.116  1.00  0.00    -0.354 N 
ATOM     66  N   UNL     1      -1.282   7.754 -22.362  1.00  0.00    -0.248 NA
ATOM     67  C   UNL     1      -1.772   5.541 -22.909  1.00  0.00     0.031 C 
ATOM     68  C   UNL     1       2.649   6.821 -19.602  1.00  0.00     0.029 A 
ATOM     69  C   UNL     1       1.871   6.629 -20.744  1.00  0.00     0.049 A 
ATOM     70  H   UNL     1       2.133   4.981 -22.034  1.00  0.00     0.167 HD
ATOM     71  C   UNL     1      -0.131   7.003 -22.168  1.00  0.00     0.074 A 
ATOM     72  C   UNL     1      -0.474   5.656 -22.613  1.00  0.00     0.031 C 
ATOM     73  C   UNL     1       0.897   7.471 -21.400  1.00  0.00     0.037 A 
BRANCH  60  74
ATOM     74  C   UNL     1       2.048   2.206 -20.762  1.00  0.00     0.057 A 
ATOM     75  C   UNL     1       3.273   2.118 -21.439  1.00  0.00     0.134 A 
ATOM     76  C   UNL     1       1.023   1.367 -21.248  1.00  0.00     0.134 A 
ATOM     77  F   UNL     1       4.311   2.891 -21.086  1.00  0.00    -0.206 F 
ATOM     78  C   UNL     1       3.449   1.292 -22.555  1.00  0.00     0.040 A 
ATOM     79  C   UNL     1       1.205   0.497 -22.323  1.00  0.00     0.040 A 
ATOM     80  F   UNL     1      -0.230   1.421 -20.779  1.00  0.00    -0.206 F 
ATOM     81  C   UNL     1       2.413   0.479 -23.001  1.00  0.00     0.006 A 
ENDBRANCH  60  74
BRANCH  61  82
ATOM     82  C   UNL     1      -4.806   6.920 -22.875  1.00  0.00     0.057 A 
ATOM     83  C   UNL     1      -4.763   7.344 -24.210  1.00  0.00     0.134 A 
ATOM     84  C   UNL     1      -5.938   6.171 -22.504  1.00  0.00     0.134 A 
ATOM     85  F   UNL     1      -3.706   8.028 -24.673  1.00  0.00    -0.206 F 
ATOM     86  C   UNL     1      -5.771   7.021 -25.128  1.00  0.00     0.040 A 
ATOM     87  C   UNL     1      -6.957   5.852 -23.406  1.00  0.00     0.040 A 
ATOM     88  F   UNL     1      -6.053   5.644 -21.276  1.00  0.00    -0.206 F 
ATOM     89  C   UNL     1      -6.869   6.264 -24.729  1.00  0.00     0.006 A 
ENDBRANCH  61  82
BRANCH  73  90
ATOM     90  C   UNL     1       0.865   8.917 -20.990  1.00  0.00     0.057 A 
ATOM     91  C   UNL     1      -0.131   9.478 -20.176  1.00  0.00     0.134 A 
ATOM     92  C   UNL     1       1.956   9.733 -21.307  1.00  0.00     0.134 A 
ATOM     93  F   UNL     1      -1.158   8.743 -19.731  1.00  0.00    -0.206 F 
ATOM     94  C   UNL     1      -0.067  10.805 -19.741  1.00  0.00     0.040 A 
ATOM     95  C   UNL     1       2.050  11.049 -20.850  1.00  0.00     0.040 A 
ATOM     96  F   UNL     1       2.977   9.246 -22.031  1.00  0.00    -0.206 F 
ATOM     97  C   UNL     1       1.030  11.594 -20.075  1.00  0.00     0.006 A 
ENDBRANCH  73  90
ENDBRANCH  47  48
ENDBRANCH  40  42
ENDBRANCH  39  40
ENDBRANCH  38  39
ENDBRANCH  37  38
ENDBRANCH  36  37
ENDBRANCH  35  36
ENDBRANCH   1  35
TORSDOF 21
