REMARK SMILES CC1=C[C@@H]([C@@H]2N=N[C@H](S)N2/N=C/c2ccc(C(=O)OCCOCCOCCOC(=O)c3ccc(-c4c5nc(c(-c6c(F)cccc6F)c6ccc([nH]6)c(-c6c(F)cccc6F)c6nc(c(-c7c(F)cccc7F)c7ccc4[nH]7)C=C6)C=C5)cc3)cc2)N=N1
REMARK SMILES IDX 23 1 22 2 21 3 20 4 19 5 17 6 18 7 16 8 13 9 14 10 86 11
REMARK SMILES IDX 15 12 85 13 12 14 11 15 10 16 5 17 6 18 7 19 8 20 4 21 1 22
REMARK SMILES IDX 2 23 3 24 88 25 87 26 9 27 24 29 25 30 26 31 27 32 28 33
REMARK SMILES IDX 29 34 30 35 31 36 32 37 84 38 33 39 83 40 34 41 35 42 36 43
REMARK SMILES IDX 77 44 37 45 82 46 76 47 78 48 38 49 81 50 75 51 74 52 39 54
REMARK SMILES IDX 65 55 48 56 64 57 49 58 52 59 63 60 79 61 50 62 51 63 62 65
REMARK SMILES IDX 80 66 53 67 40 68 41 69 46 70 42 71 43 72 45 73 47 74 44 75
REMARK SMILES IDX 66 76 67 77 72 78 68 79 69 80 71 81 73 82 70 83 54 84 55 85
REMARK SMILES IDX 60 86 56 87 57 88 59 89 61 90 58 91
REMARK H PARENT 9 28 78 53 52 64
REMARK Flexibility Score: inf
ROOT
ATOM      1  C   UNL     1       0.455 -11.012   8.700  1.00  0.00     0.188 C 
ENDROOT
BRANCH   1   2
ATOM      2  O   UNL     1       1.319 -11.639   9.615  1.00  0.00    -0.376 OA
BRANCH   2   3
ATOM      3  C   UNL     1       2.603 -11.097   9.874  1.00  0.00     0.202 C 
BRANCH   3   4
ATOM      4  C   UNL     1       3.251  -9.904   9.132  1.00  0.00     0.261 C 
BRANCH   4   5
ATOM      5  O   UNL     1       2.407  -9.046   8.357  1.00  0.00    -0.460 OA
BRANCH   5   6
ATOM      6  C   UNL     1       2.510  -9.191   7.006  1.00  0.00     0.338 C 
ATOM      7  O   UNL     1       3.240  -9.942   6.412  1.00  0.00    -0.246 OA
BRANCH   6   8
ATOM      8  C   UNL     1       1.417  -8.433   6.338  1.00  0.00     0.060 A 
ATOM      9  C   UNL     1      -0.584  -7.097   4.932  1.00  0.00    -0.005 A 
ATOM     10  C   UNL     1      -0.300  -8.428   4.622  1.00  0.00     0.010 A 
ATOM     11  C   UNL     1       0.080  -6.452   5.983  1.00  0.00     0.010 A 
ATOM     12  C   UNL     1       0.715  -9.089   5.314  1.00  0.00     0.016 A 
ATOM     13  C   UNL     1       1.072  -7.128   6.702  1.00  0.00     0.016 A 
BRANCH   9  14
ATOM     14  C   UNL     1      -1.543  -6.372   4.075  1.00  0.00     0.141 C 
ATOM     15  N   UNL     1      -1.441  -5.093   3.911  1.00  0.00    -0.180 NA
BRANCH  15  16
ATOM     16  N   UNL     1      -2.317  -4.464   3.086  1.00  0.00    -0.233 NA
ATOM     17  C   UNL     1      -1.918  -3.182   2.490  1.00  0.00     0.274 C 
ATOM     18  N   UNL     1      -2.701  -2.989   1.245  1.00  0.00    -0.161 NA
ATOM     19  N   UNL     1      -3.364  -4.021   0.987  1.00  0.00    -0.153 NA
ATOM     20  C   UNL     1      -3.172  -5.038   2.045  1.00  0.00     0.298 C 
BRANCH  17  21
ATOM     21  C   UNL     1      -2.131  -2.009   3.472  1.00  0.00     0.201 C 
ATOM     22  C   UNL     1      -5.343  -0.203   3.874  1.00  0.00     0.068 C 
ATOM     23  C   UNL     1      -3.983  -0.743   3.627  1.00  0.00     0.058 C 
ATOM     24  C   UNL     1      -3.501  -1.909   4.049  1.00  0.00     0.031 C 
ATOM     25  N   UNL     1      -3.074  -0.041   2.876  1.00  0.00    -0.160 NA
ATOM     26  N   UNL     1      -1.998  -0.698   2.766  1.00  0.00    -0.177 NA
ENDBRANCH  17  21
BRANCH  20  27
ATOM     27  S   UNL     1      -4.747  -5.609   2.787  1.00  0.00    -0.128 SA
ATOM     28  H   UNL     1      -5.378  -4.559   3.377  1.00  0.00     0.106 HD
ENDBRANCH  20  27
ENDBRANCH  15  16
ENDBRANCH   9  14
ENDBRANCH   6   8
ENDBRANCH   5   6
ENDBRANCH   4   5
ENDBRANCH   3   4
ENDBRANCH   2   3
ENDBRANCH   1   2
BRANCH   1  29
ATOM     29  C   UNL     1      -0.289  -9.734   9.146  1.00  0.00     0.188 C 
BRANCH  29  30
ATOM     30  O   UNL     1       0.175  -8.900  10.191  1.00  0.00    -0.376 OA
BRANCH  30  31
ATOM     31  C   UNL     1       0.345  -9.296  11.544  1.00  0.00     0.202 C 
BRANCH  31  32
ATOM     32  C   UNL     1      -0.456 -10.382  12.261  1.00  0.00     0.261 C 
BRANCH  32  33
ATOM     33  O   UNL     1      -0.901 -11.406  11.407  1.00  0.00    -0.460 OA
BRANCH  33  34
ATOM     34  C   UNL     1      -2.139 -11.185  10.927  1.00  0.00     0.338 C 
ATOM     35  O   UNL     1      -2.882 -10.253  11.184  1.00  0.00    -0.246 OA
BRANCH  34  36
ATOM     36  C   UNL     1      -2.481 -12.278  10.006  1.00  0.00     0.060 A 
ATOM     37  C   UNL     1      -3.719 -12.131   9.379  1.00  0.00     0.016 A 
ATOM     38  C   UNL     1      -1.899 -13.519  10.275  1.00  0.00     0.016 A 
ATOM     39  C   UNL     1      -4.574 -13.194   9.462  1.00  0.00     0.010 A 
ATOM     40  C   UNL     1      -2.763 -14.562  10.409  1.00  0.00     0.010 A 
ATOM     41  C   UNL     1      -4.109 -14.327  10.128  1.00  0.00    -0.014 A 
BRANCH  41  42
ATOM     42  C   UNL     1      -5.085 -15.238  10.667  1.00  0.00     0.031 A 
ATOM     43  C   UNL     1      -5.411 -16.333   9.744  1.00  0.00     0.074 A 
ATOM     44  C   UNL     1      -5.476 -15.123  11.950  1.00  0.00     0.049 A 
ATOM     45  N   UNL     1      -6.507 -16.530   9.092  1.00  0.00    -0.248 NA
ATOM     46  C   UNL     1      -4.290 -17.192   9.325  1.00  0.00     0.031 C 
ATOM     47  C   UNL     1      -4.933 -14.243  12.994  1.00  0.00     0.029 A 
ATOM     48  N   UNL     1      -6.378 -15.875  12.626  1.00  0.00    -0.354 N 
ATOM     49  C   UNL     1      -6.264 -17.680   8.351  1.00  0.00     0.074 A 
ATOM     50  C   UNL     1      -4.840 -17.848   8.307  1.00  0.00     0.031 C 
ATOM     51  C   UNL     1      -5.360 -14.672  14.204  1.00  0.00     0.029 A 
ATOM     52  C   UNL     1      -6.286 -15.772  14.007  1.00  0.00     0.049 A 
ATOM     53  H   UNL     1      -7.042 -16.446  12.176  1.00  0.00     0.167 HD
ATOM     54  C   UNL     1      -7.241 -18.597   8.132  1.00  0.00     0.037 A 
ATOM     55  C   UNL     1      -6.857 -16.631  14.887  1.00  0.00     0.037 A 
ATOM     56  C   UNL     1      -8.547 -18.032   8.356  1.00  0.00     0.049 A 
ATOM     57  C   UNL     1      -7.888 -17.405  14.142  1.00  0.00     0.074 A 
ATOM     58  C   UNL     1      -9.263 -16.988   7.804  1.00  0.00     0.029 A 
ATOM     59  N   UNL     1      -9.172 -18.332   9.542  1.00  0.00    -0.354 N 
ATOM     60  N   UNL     1      -8.990 -16.886  13.672  1.00  0.00    -0.248 NA
ATOM     61  C   UNL     1      -7.473 -18.651  13.510  1.00  0.00     0.031 C 
ATOM     62  C   UNL     1     -10.006 -16.428   8.884  1.00  0.00     0.029 A 
ATOM     63  C   UNL     1      -9.733 -17.180  10.028  1.00  0.00     0.049 A 
ATOM     64  H   UNL     1      -9.211 -19.219   9.968  1.00  0.00     0.167 HD
ATOM     65  C   UNL     1      -9.186 -17.505  12.442  1.00  0.00     0.074 A 
ATOM     66  C   UNL     1      -8.268 -18.640  12.437  1.00  0.00     0.031 C 
ATOM     67  C   UNL     1      -9.857 -16.872  11.435  1.00  0.00     0.037 A 
BRANCH  54  68
ATOM     68  C   UNL     1      -6.985 -20.085   8.118  1.00  0.00     0.057 A 
ATOM     69  C   UNL     1      -8.024 -20.940   7.717  1.00  0.00     0.134 A 
ATOM     70  C   UNL     1      -5.881 -20.733   8.719  1.00  0.00     0.134 A 
ATOM     71  F   UNL     1      -9.134 -20.450   7.146  1.00  0.00    -0.206 F 
ATOM     72  C   UNL     1      -7.997 -22.317   7.961  1.00  0.00     0.040 A 
ATOM     73  C   UNL     1      -5.817 -22.113   8.911  1.00  0.00     0.040 A 
ATOM     74  F   UNL     1      -4.844 -20.074   9.247  1.00  0.00    -0.206 F 
ATOM     75  C   UNL     1      -6.893 -22.908   8.564  1.00  0.00     0.006 A 
ENDBRANCH  54  68
BRANCH  55  76
ATOM     76  C   UNL     1      -6.325 -17.065  16.198  1.00  0.00     0.057 A 
ATOM     77  C   UNL     1      -7.152 -17.661  17.157  1.00  0.00     0.134 A 
ATOM     78  C   UNL     1      -4.942 -17.135  16.446  1.00  0.00     0.134 A 
ATOM     79  F   UNL     1      -8.482 -17.689  16.985  1.00  0.00    -0.206 F 
ATOM     80  C   UNL     1      -6.635 -18.296  18.295  1.00  0.00     0.040 A 
ATOM     81  C   UNL     1      -4.412 -17.756  17.581  1.00  0.00     0.040 A 
ATOM     82  F   UNL     1      -4.052 -16.677  15.553  1.00  0.00    -0.206 F 
ATOM     83  C   UNL     1      -5.259 -18.350  18.506  1.00  0.00     0.006 A 
ENDBRANCH  55  76
BRANCH  67  84
ATOM     84  C   UNL     1     -10.573 -15.595  11.782  1.00  0.00     0.057 A 
ATOM     85  C   UNL     1      -9.911 -14.411  12.143  1.00  0.00     0.134 A 
ATOM     86  C   UNL     1     -11.955 -15.514  11.592  1.00  0.00     0.134 A 
ATOM     87  F   UNL     1      -8.577 -14.373  12.248  1.00  0.00    -0.206 F 
ATOM     88  C   UNL     1     -10.599 -13.212  12.347  1.00  0.00     0.040 A 
ATOM     89  C   UNL     1     -12.651 -14.315  11.760  1.00  0.00     0.040 A 
ATOM     90  F   UNL     1     -12.645 -16.592  11.186  1.00  0.00    -0.206 F 
ATOM     91  C   UNL     1     -11.975 -13.160  12.148  1.00  0.00     0.006 A 
ENDBRANCH  67  84
ENDBRANCH  41  42
ENDBRANCH  34  36
ENDBRANCH  33  34
ENDBRANCH  32  33
ENDBRANCH  31  32
ENDBRANCH  30  31
ENDBRANCH  29  30
ENDBRANCH   1  29
TORSDOF 21
