REMARK SMILES CS(=O)(=O)c1ccc(-n2nnc(C(=O)OCCOCCOCCOC(=O)c3ccc(-c4c5nc(c(-c6c(F)cccc6F)c6ccc([nH]6)c(-c6c(F)cccc6F)c6nc(c(-c7c(F)cccc7F)c7ccc4[nH]7)C=C6)C=C5)cc3)c2-c2cc(F)cc(F)c2)cc1
REMARK SMILES IDX 19 1 18 2 17 3 16 4 15 5 13 6 14 7 12 8 9 9 10 10 81 11
REMARK SMILES IDX 11 12 8 13 5 14 6 15 91 16 7 17 90 18 2 19 1 20 3 21 4 22
REMARK SMILES IDX 82 23 83 24 89 25 84 26 87 27 85 28 86 29 88 30 20 31 21 32
REMARK SMILES IDX 22 33 23 34 24 35 25 36 26 37 27 38 28 39 80 40 29 41 79 42
REMARK SMILES IDX 30 43 31 44 32 45 73 46 33 47 78 48 72 49 74 50 34 51 77 52
REMARK SMILES IDX 71 53 70 54 35 56 61 57 44 58 60 59 45 60 48 61 59 62 75 63
REMARK SMILES IDX 46 64 47 65 58 67 76 68 49 69 36 70 37 71 42 72 38 73 39 74
REMARK SMILES IDX 41 75 43 76 40 77 62 78 63 79 68 80 64 81 65 82 67 83 69 84
REMARK SMILES IDX 66 85 50 86 51 87 56 88 52 89 53 90 55 91 57 92 54 93
REMARK H PARENT 74 55 48 66
REMARK Flexibility Score: inf
ROOT
ATOM      1  C   UNL     1       0.809   8.244   8.544  1.00  0.00     0.188 C 
ENDROOT
BRANCH   1   2
ATOM      2  O   UNL     1       0.169   9.452   8.944  1.00  0.00    -0.376 OA
BRANCH   2   3
ATOM      3  C   UNL     1      -0.788  10.061   8.081  1.00  0.00     0.202 C 
BRANCH   3   4
ATOM      4  C   UNL     1      -0.434  10.304   6.603  1.00  0.00     0.261 C 
BRANCH   4   5
ATOM      5  O   UNL     1      -0.105   9.112   5.871  1.00  0.00    -0.458 OA
BRANCH   5   6
ATOM      6  C   UNL     1       1.181   8.991   5.405  1.00  0.00     0.361 C 
ATOM      7  O   UNL     1       2.015   9.856   5.474  1.00  0.00    -0.244 OA
BRANCH   6   8
ATOM      8  C   UNL     1       1.453   7.641   4.898  1.00  0.00     0.198 A 
ATOM      9  N   UNL     1       1.440   5.652   4.019  1.00  0.00    -0.212 N 
ATOM     10  N   UNL     1       2.615   5.791   4.664  1.00  0.00    -0.061 NA
ATOM     11  C   UNL     1       0.596   6.714   4.320  1.00  0.00     0.110 A 
ATOM     12  N   UNL     1       2.683   7.045   5.093  1.00  0.00    -0.122 NA
BRANCH   9  13
ATOM     13  C   UNL     1       1.250   4.646   3.048  1.00  0.00     0.067 A 
ATOM     14  C   UNL     1       0.793   2.712   1.107  1.00  0.00     0.067 A 
ATOM     15  C   UNL     1       1.355   2.337   2.333  1.00  0.00     0.022 A 
ATOM     16  C   UNL     1       0.500   4.052   0.835  1.00  0.00     0.022 A 
ATOM     17  C   UNL     1       1.616   3.318   3.302  1.00  0.00     0.030 A 
ATOM     18  C   UNL     1       0.709   5.016   1.812  1.00  0.00     0.030 A 
BRANCH  14  19
ATOM     19  S   UNL     1       0.385   1.552  -0.175  1.00  0.00     0.175 S 
ATOM     20  C   UNL     1       1.087  -0.009   0.255  1.00  0.00     0.163 C 
ATOM     21  O   UNL     1       1.063   2.014  -1.372  1.00  0.00    -0.224 OA
ATOM     22  O   UNL     1      -1.058   1.412  -0.140  1.00  0.00    -0.224 OA
ENDBRANCH  14  19
ENDBRANCH   9  13
BRANCH  11  23
ATOM     23  C   UNL     1      -0.857   6.705   4.134  1.00  0.00     0.009 A 
ATOM     24  C   UNL     1      -1.514   7.794   3.555  1.00  0.00     0.049 A 
ATOM     25  C   UNL     1      -1.626   5.633   4.618  1.00  0.00     0.049 A 
ATOM     26  C   UNL     1      -2.906   7.821   3.503  1.00  0.00     0.126 A 
ATOM     27  C   UNL     1      -3.017   5.679   4.543  1.00  0.00     0.126 A 
ATOM     28  F   UNL     1      -3.518   8.893   2.985  1.00  0.00    -0.207 F 
ATOM     29  C   UNL     1      -3.668   6.772   3.994  1.00  0.00     0.078 A 
ATOM     30  F   UNL     1      -3.736   4.661   5.033  1.00  0.00    -0.207 F 
ENDBRANCH  11  23
ENDBRANCH   6   8
ENDBRANCH   5   6
ENDBRANCH   4   5
ENDBRANCH   3   4
ENDBRANCH   2   3
ENDBRANCH   1   2
BRANCH   1  31
ATOM     31  C   UNL     1      -0.039   7.064   8.021  1.00  0.00     0.188 C 
BRANCH  31  32
ATOM     32  O   UNL     1      -1.349   7.426   7.621  1.00  0.00    -0.376 OA
BRANCH  32  33
ATOM     33  C   UNL     1      -2.458   6.897   8.336  1.00  0.00     0.202 C 
BRANCH  33  34
ATOM     34  C   UNL     1      -2.572   7.131   9.844  1.00  0.00     0.261 C 
BRANCH  34  35
ATOM     35  O   UNL     1      -1.342   7.198  10.541  1.00  0.00    -0.460 OA
BRANCH  35  36
ATOM     36  C   UNL     1      -0.779   6.010  10.827  1.00  0.00     0.338 C 
ATOM     37  O   UNL     1      -1.099   4.917  10.393  1.00  0.00    -0.246 OA
BRANCH  36  38
ATOM     38  C   UNL     1       0.270   6.235  11.825  1.00  0.00     0.060 A 
ATOM     39  C   UNL     1       1.139   5.174  12.082  1.00  0.00     0.016 A 
ATOM     40  C   UNL     1       0.166   7.346  12.675  1.00  0.00     0.016 A 
ATOM     41  C   UNL     1       1.722   5.108  13.325  1.00  0.00     0.010 A 
ATOM     42  C   UNL     1       0.728   7.269  13.922  1.00  0.00     0.010 A 
ATOM     43  C   UNL     1       1.410   6.103  14.257  1.00  0.00    -0.014 A 
BRANCH  43  44
ATOM     44  C   UNL     1       1.804   5.877  15.629  1.00  0.00     0.031 A 
ATOM     45  C   UNL     1       3.222   6.170  15.884  1.00  0.00     0.074 A 
ATOM     46  C   UNL     1       0.901   5.527  16.564  1.00  0.00     0.049 A 
ATOM     47  N   UNL     1       4.153   5.342  16.216  1.00  0.00    -0.248 NA
ATOM     48  C   UNL     1       3.696   7.530  15.586  1.00  0.00     0.031 C 
ATOM     49  C   UNL     1      -0.561   5.545  16.419  1.00  0.00     0.029 A 
ATOM     50  N   UNL     1       1.081   5.201  17.875  1.00  0.00    -0.354 N 
ATOM     51  C   UNL     1       5.281   6.132  16.409  1.00  0.00     0.074 A 
ATOM     52  C   UNL     1       5.004   7.403  15.800  1.00  0.00     0.031 C 
ATOM     53  C   UNL     1      -1.127   5.468  17.642  1.00  0.00     0.029 A 
ATOM     54  C   UNL     1      -0.081   5.262  18.630  1.00  0.00     0.049 A 
ATOM     55  H   UNL     1       1.954   4.945  18.251  1.00  0.00     0.167 HD
ATOM     56  C   UNL     1       6.189   5.793  17.360  1.00  0.00     0.037 A 
ATOM     57  C   UNL     1      -0.172   5.220  19.979  1.00  0.00     0.037 A 
ATOM     58  C   UNL     1       6.046   4.411  17.744  1.00  0.00     0.049 A 
ATOM     59  C   UNL     1       1.073   4.621  20.514  1.00  0.00     0.074 A 
ATOM     60  C   UNL     1       6.361   3.181  17.212  1.00  0.00     0.029 A 
ATOM     61  N   UNL     1       5.143   4.204  18.752  1.00  0.00    -0.354 N 
ATOM     62  N   UNL     1       1.413   3.374  20.338  1.00  0.00    -0.248 NA
ATOM     63  C   UNL     1       2.142   5.493  20.993  1.00  0.00     0.031 C 
ATOM     64  C   UNL     1       5.511   2.235  17.858  1.00  0.00     0.029 A 
ATOM     65  C   UNL     1       4.702   2.909  18.770  1.00  0.00     0.049 A 
ATOM     66  H   UNL     1       4.848   4.898  19.384  1.00  0.00     0.167 HD
ATOM     67  C   UNL     1       2.792   3.401  20.270  1.00  0.00     0.074 A 
ATOM     68  C   UNL     1       3.186   4.671  20.860  1.00  0.00     0.031 C 
ATOM     69  C   UNL     1       3.468   2.558  19.439  1.00  0.00     0.037 A 
BRANCH  56  70
ATOM     70  C   UNL     1       6.819   6.791  18.313  1.00  0.00     0.057 A 
ATOM     71  C   UNL     1       7.772   6.319  19.235  1.00  0.00     0.134 A 
ATOM     72  C   UNL     1       6.311   8.078  18.592  1.00  0.00     0.134 A 
ATOM     73  F   UNL     1       8.335   5.110  19.084  1.00  0.00    -0.206 F 
ATOM     74  C   UNL     1       8.116   7.028  20.392  1.00  0.00     0.040 A 
ATOM     75  C   UNL     1       6.686   8.816  19.719  1.00  0.00     0.040 A 
ATOM     76  F   UNL     1       5.354   8.659  17.861  1.00  0.00    -0.206 F 
ATOM     77  C   UNL     1       7.562   8.277  20.643  1.00  0.00     0.006 A 
ENDBRANCH  56  70
BRANCH  57  78
ATOM     78  C   UNL     1      -1.169   5.886  20.843  1.00  0.00     0.057 A 
ATOM     79  C   UNL     1      -1.394   5.462  22.158  1.00  0.00     0.134 A 
ATOM     80  C   UNL     1      -1.751   7.115  20.480  1.00  0.00     0.134 A 
ATOM     81  F   UNL     1      -0.847   4.324  22.608  1.00  0.00    -0.206 F 
ATOM     82  C   UNL     1      -2.138   6.224  23.067  1.00  0.00     0.040 A 
ATOM     83  C   UNL     1      -2.505   7.880  21.373  1.00  0.00     0.040 A 
ATOM     84  F   UNL     1      -1.535   7.654  19.271  1.00  0.00    -0.206 F 
ATOM     85  C   UNL     1      -2.689   7.442  22.678  1.00  0.00     0.006 A 
ENDBRANCH  57  78
BRANCH  69  86
ATOM     86  C   UNL     1       2.789   1.282  19.052  1.00  0.00     0.057 A 
ATOM     87  C   UNL     1       1.646   1.209  18.246  1.00  0.00     0.134 A 
ATOM     88  C   UNL     1       3.363   0.073  19.461  1.00  0.00     0.134 A 
ATOM     89  F   UNL     1       1.078   2.315  17.747  1.00  0.00    -0.206 F 
ATOM     90  C   UNL     1       1.074  -0.019  17.901  1.00  0.00     0.040 A 
ATOM     91  C   UNL     1       2.823  -1.159  19.094  1.00  0.00     0.040 A 
ATOM     92  F   UNL     1       4.485   0.072  20.199  1.00  0.00    -0.206 F 
ATOM     93  C   UNL     1       1.666  -1.208  18.321  1.00  0.00     0.006 A 
ENDBRANCH  69  86
ENDBRANCH  43  44
ENDBRANCH  36  38
ENDBRANCH  35  36
ENDBRANCH  34  35
ENDBRANCH  33  34
ENDBRANCH  32  33
ENDBRANCH  31  32
ENDBRANCH   1  31
TORSDOF 20
