REMARK SMILES O=C(OCCOCCOCCOC(=O)[C@H]1CC[C@H]2CCCC[C@@H]2N1C(=O)c1ccn[nH]1)c1ccc(-c2c3nc(c(-c4c(F)cccc4F)c4ccc([nH]4)c(-c4c(F)cccc4F)c4nc(c(-c5c(F)cccc5F)c5ccc2[nH]5)C=C4)C=C3)cc1
REMARK SMILES IDX 7 1 6 2 5 3 4 4 3 5 2 6 1 7 32 8 33 9 85 10 34 11 84 12
REMARK SMILES IDX 35 13 36 14 37 15 78 16 38 17 83 18 77 19 79 20 39 21 82 22
REMARK SMILES IDX 76 23 75 24 40 26 66 27 49 28 65 29 50 30 53 31 64 32 80 33
REMARK SMILES IDX 51 34 52 35 63 37 81 38 54 39 41 40 42 41 47 42 43 43 44 44
REMARK SMILES IDX 46 45 48 46 45 47 67 48 68 49 73 50 69 51 70 52 72 53 74 54
REMARK SMILES IDX 71 55 55 56 56 57 61 58 57 59 58 60 60 61 62 62 59 63 8 64
REMARK SMILES IDX 9 65 10 66 11 67 12 68 13 69 14 70 15 71 16 72 24 73 17 74
REMARK SMILES IDX 23 75 18 76 22 77 19 78 21 79 20 80 25 81 26 82 27 83 28 84
REMARK SMILES IDX 31 85 29 86 30 87
REMARK H PARENT 79 25 53 36 31 88
REMARK Flexibility Score: inf
ROOT
ATOM      1  C   UNL     1       2.551   1.264  -2.220  1.00  0.00     0.188 C 
ENDROOT
BRANCH   1   2
ATOM      2  O   UNL     1       3.833   0.918  -1.666  1.00  0.00    -0.376 OA
BRANCH   2   3
ATOM      3  C   UNL     1       4.316  -0.324  -2.190  1.00  0.00     0.202 C 
BRANCH   3   4
ATOM      4  C   UNL     1       4.222  -1.453  -1.159  1.00  0.00     0.261 C 
BRANCH   4   5
ATOM      5  O   UNL     1       2.890  -1.544  -0.614  1.00  0.00    -0.460 OA
BRANCH   5   6
ATOM      6  C   UNL     1       2.452  -0.801   0.436  1.00  0.00     0.338 C 
ATOM      7  O   UNL     1       1.288  -0.419   0.506  1.00  0.00    -0.246 OA
BRANCH   6   8
ATOM      8  C   UNL     1       3.315  -0.693   1.635  1.00  0.00     0.060 A 
ATOM      9  C   UNL     1       4.528  -0.001   1.647  1.00  0.00     0.016 A 
ATOM     10  C   UNL     1       2.822  -1.242   2.825  1.00  0.00     0.016 A 
ATOM     11  C   UNL     1       5.306   0.029   2.811  1.00  0.00     0.010 A 
ATOM     12  C   UNL     1       3.569  -1.155   4.002  1.00  0.00     0.010 A 
ATOM     13  C   UNL     1       4.837  -0.552   3.998  1.00  0.00    -0.014 A 
BRANCH  13  14
ATOM     14  C   UNL     1       5.648  -0.547   5.243  1.00  0.00     0.031 A 
ATOM     15  C   UNL     1       6.175  -1.838   5.808  1.00  0.00     0.074 A 
ATOM     16  C   UNL     1       5.869   0.602   5.909  1.00  0.00     0.049 A 
ATOM     17  N   UNL     1       6.813  -2.049   6.932  1.00  0.00    -0.248 NA
ATOM     18  C   UNL     1       5.971  -3.048   4.996  1.00  0.00     0.031 C 
ATOM     19  C   UNL     1       5.455   1.931   5.470  1.00  0.00     0.029 A 
ATOM     20  N   UNL     1       6.467   0.825   7.124  1.00  0.00    -0.354 N 
ATOM     21  C   UNL     1       7.111  -3.404   6.949  1.00  0.00     0.074 A 
ATOM     22  C   UNL     1       6.531  -3.980   5.754  1.00  0.00     0.031 C 
ATOM     23  C   UNL     1       5.739   2.822   6.432  1.00  0.00     0.029 A 
ATOM     24  C   UNL     1       6.365   2.126   7.550  1.00  0.00     0.049 A 
ATOM     25  H   UNL     1       6.924   0.121   7.640  1.00  0.00     0.167 HD
ATOM     26  C   UNL     1       7.838  -4.101   7.854  1.00  0.00     0.037 A 
ATOM     27  C   UNL     1       6.716   2.695   8.716  1.00  0.00     0.037 A 
ATOM     28  C   UNL     1       8.437  -3.541   9.034  1.00  0.00     0.049 A 
ATOM     29  C   UNL     1       7.394   1.878   9.772  1.00  0.00     0.074 A 
ATOM     30  C   UNL     1       9.265  -4.153   9.961  1.00  0.00     0.029 A 
ATOM     31  N   UNL     1       8.263  -2.233   9.456  1.00  0.00    -0.354 N 
ATOM     32  N   UNL     1       7.714   0.609   9.749  1.00  0.00    -0.248 NA
ATOM     33  C   UNL     1       7.776   2.577  11.008  1.00  0.00     0.031 C 
ATOM     34  C   UNL     1       9.576  -3.217  10.956  1.00  0.00     0.029 A 
ATOM     35  C   UNL     1       8.948  -2.024  10.642  1.00  0.00     0.049 A 
ATOM     36  H   UNL     1       7.731  -1.553   8.983  1.00  0.00     0.167 HD
ATOM     37  C   UNL     1       8.376   0.365  10.943  1.00  0.00     0.074 A 
ATOM     38  C   UNL     1       8.381   1.610  11.685  1.00  0.00     0.031 C 
ATOM     39  C   UNL     1       8.950  -0.784  11.370  1.00  0.00     0.037 A 
BRANCH  26  40
ATOM     40  C   UNL     1       8.061  -5.550   7.564  1.00  0.00     0.057 A 
ATOM     41  C   UNL     1       9.059  -5.959   6.671  1.00  0.00     0.134 A 
ATOM     42  C   UNL     1       7.284  -6.540   8.174  1.00  0.00     0.134 A 
ATOM     43  F   UNL     1       9.824  -5.051   6.045  1.00  0.00    -0.206 F 
ATOM     44  C   UNL     1       9.270  -7.307   6.384  1.00  0.00     0.040 A 
ATOM     45  C   UNL     1       7.491  -7.893   7.901  1.00  0.00     0.040 A 
ATOM     46  F   UNL     1       6.309  -6.207   9.032  1.00  0.00    -0.206 F 
ATOM     47  C   UNL     1       8.485  -8.279   7.002  1.00  0.00     0.006 A 
ENDBRANCH  26  40
BRANCH  27  48
ATOM     48  C   UNL     1       6.415   4.125   8.947  1.00  0.00     0.057 A 
ATOM     49  C   UNL     1       7.387   5.109   8.754  1.00  0.00     0.134 A 
ATOM     50  C   UNL     1       5.142   4.532   9.359  1.00  0.00     0.134 A 
ATOM     51  F   UNL     1       8.623   4.771   8.362  1.00  0.00    -0.206 F 
ATOM     52  C   UNL     1       7.105   6.458   8.971  1.00  0.00     0.040 A 
ATOM     53  C   UNL     1       4.845   5.877   9.574  1.00  0.00     0.040 A 
ATOM     54  F   UNL     1       4.172   3.627   9.555  1.00  0.00    -0.206 F 
ATOM     55  C   UNL     1       5.829   6.845   9.378  1.00  0.00     0.006 A 
ENDBRANCH  27  48
BRANCH  39  56
ATOM     56  C   UNL     1       9.673  -0.731  12.676  1.00  0.00     0.057 A 
ATOM     57  C   UNL     1       9.002  -0.907  13.891  1.00  0.00     0.134 A 
ATOM     58  C   UNL     1      11.055  -0.513  12.717  1.00  0.00     0.134 A 
ATOM     59  F   UNL     1       7.675  -1.102  13.912  1.00  0.00    -0.206 F 
ATOM     60  C   UNL     1       9.684  -0.861  15.107  1.00  0.00     0.040 A 
ATOM     61  C   UNL     1      11.748  -0.472  13.927  1.00  0.00     0.040 A 
ATOM     62  F   UNL     1      11.749  -0.333  11.583  1.00  0.00    -0.206 F 
ATOM     63  C   UNL     1      11.061  -0.646  15.127  1.00  0.00     0.006 A 
ENDBRANCH  39  56
ENDBRANCH  13  14
ENDBRANCH   6   8
ENDBRANCH   5   6
ENDBRANCH   4   5
ENDBRANCH   3   4
ENDBRANCH   2   3
ENDBRANCH   1   2
BRANCH   1  64
ATOM     64  C   UNL     1       2.014   2.554  -1.599  1.00  0.00     0.188 C 
BRANCH  64  65
ATOM     65  O   UNL     1       2.532   3.708  -2.273  1.00  0.00    -0.376 OA
BRANCH  65  66
ATOM     66  C   UNL     1       3.814   4.136  -1.807  1.00  0.00     0.202 C 
BRANCH  66  67
ATOM     67  C   UNL     1       3.666   5.237  -0.761  1.00  0.00     0.261 C 
BRANCH  67  68
ATOM     68  O   UNL     1       3.158   4.678   0.460  1.00  0.00    -0.462 OA
BRANCH  68  69
ATOM     69  C   UNL     1       2.944   5.594   1.437  1.00  0.00     0.328 C 
ATOM     70  O   UNL     1       3.113   6.805   1.312  1.00  0.00    -0.250 OA
BRANCH  69  71
ATOM     71  C   UNL     1       2.417   4.954   2.732  1.00  0.00     0.195 C 
ATOM     72  C   UNL     1       2.458   3.425   2.838  1.00  0.00     0.037 C 
ATOM     73  N   UNL     1       3.054   5.572   3.906  1.00  0.00    -0.320 N 
ATOM     74  C   UNL     1       1.996   2.933   4.224  1.00  0.00     0.008 C 
ATOM     75  C   UNL     1       2.439   5.249   5.202  1.00  0.00     0.089 C 
ATOM     76  C   UNL     1       1.441   4.066   5.096  1.00  0.00     0.012 C 
ATOM     77  C   UNL     1       1.713   6.428   5.860  1.00  0.00     0.025 C 
ATOM     78  C   UNL     1       1.060   3.607   6.507  1.00  0.00     0.006 C 
ATOM     79  C   UNL     1       1.236   6.038   7.262  1.00  0.00     0.002 C 
ATOM     80  C   UNL     1       0.404   4.755   7.277  1.00  0.00     0.000 C 
BRANCH  73  81
ATOM     81  C   UNL     1       4.450   5.689   3.874  1.00  0.00     0.272 C 
ATOM     82  O   UNL     1       5.154   4.915   3.219  1.00  0.00    -0.267 OA
BRANCH  81  83
ATOM     83  C   UNL     1       4.996   6.800   4.598  1.00  0.00     0.123 A 
ATOM     84  C   UNL     1       6.179   6.930   5.298  1.00  0.00     0.055 A 
ATOM     85  N   UNL     1       4.447   8.055   4.594  1.00  0.00    -0.273 N 
ATOM     86  C   UNL     1       6.194   8.263   5.746  1.00  0.00     0.135 A 
ATOM     87  N   UNL     1       5.118   8.944   5.348  1.00  0.00    -0.183 NA
ATOM     88  H   UNL     1       3.635   8.285   4.085  1.00  0.00     0.190 HD
ENDBRANCH  81  83
ENDBRANCH  73  81
ENDBRANCH  69  71
ENDBRANCH  68  69
ENDBRANCH  67  68
ENDBRANCH  66  67
ENDBRANCH  65  66
ENDBRANCH  64  65
ENDBRANCH   1  64
TORSDOF 19
