REMARK SMILES CC(C)(Cn1cc(Br)cn1)C(=O)OCCOCCOCCOC(=O)c1ccc(-c2c3nc(c(-c4c(F)cccc4F)c4ccc([nH]4)c(-c4c(F)cccc4F)c4nc(c(-c5c(F)cccc5F)c5ccc2[nH]5)C=C4)C=C3)cc1
REMARK SMILES IDX 17 1 16 2 15 3 14 4 13 5 11 6 12 7 2 8 1 9 3 10 4 11 5 12
REMARK SMILES IDX 6 13 10 14 7 15 9 16 8 17 18 18 19 19 20 20 21 21 22 22
REMARK SMILES IDX 23 23 24 24 25 25 26 26 78 27 27 28 77 29 28 30 29 31 30 32
REMARK SMILES IDX 71 33 31 34 76 35 70 36 72 37 32 38 75 39 69 40 68 41 33 43
REMARK SMILES IDX 59 44 42 45 58 46 43 47 46 48 57 49 73 50 44 51 45 52 56 54
REMARK SMILES IDX 74 55 47 56 34 57 35 58 40 59 36 60 37 61 39 62 41 63 38 64
REMARK SMILES IDX 60 65 61 66 66 67 62 68 63 69 65 70 67 71 64 72 48 73 49 74
REMARK SMILES IDX 54 75 50 76 51 77 53 78 55 79 52 80
REMARK H PARENT 72 42 46 53
REMARK Flexibility Score: inf
ROOT
ATOM      1  C   UNL     1       1.164  -0.915  -3.862  1.00  0.00     0.188 C 
ENDROOT
BRANCH   1   2
ATOM      2  O   UNL     1       1.921  -1.917  -4.518  1.00  0.00    -0.376 OA
BRANCH   2   3
ATOM      3  C   UNL     1       1.791  -3.270  -4.104  1.00  0.00     0.202 C 
BRANCH   3   4
ATOM      4  C   UNL     1       1.956  -3.649  -2.615  1.00  0.00     0.261 C 
BRANCH   4   5
ATOM      5  O   UNL     1       1.033  -3.050  -1.665  1.00  0.00    -0.463 OA
BRANCH   5   6
ATOM      6  C   UNL     1       1.560  -2.163  -0.788  1.00  0.00     0.313 C 
ATOM      7  O   UNL     1       2.760  -1.896  -0.762  1.00  0.00    -0.252 OA
BRANCH   6   8
ATOM      8  C   UNL     1       0.571  -1.544   0.228  1.00  0.00     0.082 C 
ATOM      9  C   UNL     1       1.019  -0.079   0.398  1.00  0.00     0.025 C 
ATOM     10  C   UNL     1       0.880  -2.288   1.548  1.00  0.00     0.025 C 
BRANCH   8  11
ATOM     11  C   UNL     1      -0.973  -1.721  -0.013  1.00  0.00     0.162 C 
BRANCH  11  12
ATOM     12  N   UNL     1      -1.815  -0.682  -0.606  1.00  0.00    -0.270 N 
ATOM     13  C   UNL     1      -3.006  -0.900  -1.260  1.00  0.00     0.124 A 
ATOM     14  N   UNL     1      -1.563   0.633  -0.436  1.00  0.00    -0.180 NA
ATOM     15  C   UNL     1      -3.519   0.341  -1.531  1.00  0.00     0.055 A 
ATOM     16  C   UNL     1      -2.595   1.252  -1.017  1.00  0.00     0.150 A 
ATOM     17  Br  UNL     1      -5.119   0.779  -2.386  1.00  0.00    -0.047 Br
ENDBRANCH  11  12
ENDBRANCH   8  11
ENDBRANCH   6   8
ENDBRANCH   5   6
ENDBRANCH   4   5
ENDBRANCH   3   4
ENDBRANCH   2   3
ENDBRANCH   1   2
BRANCH   1  18
ATOM     18  C   UNL     1      -0.271  -1.214  -3.407  1.00  0.00     0.188 C 
BRANCH  18  19
ATOM     19  O   UNL     1      -0.712  -2.559  -3.502  1.00  0.00    -0.376 OA
BRANCH  19  20
ATOM     20  C   UNL     1      -1.801  -2.890  -4.350  1.00  0.00     0.202 C 
BRANCH  20  21
ATOM     21  C   UNL     1      -1.592  -2.600  -5.837  1.00  0.00     0.261 C 
BRANCH  21  22
ATOM     22  O   UNL     1      -1.269  -1.240  -6.086  1.00  0.00    -0.460 OA
BRANCH  22  23
ATOM     23  C   UNL     1      -2.212  -0.378  -5.677  1.00  0.00     0.338 C 
ATOM     24  O   UNL     1      -3.307  -0.630  -5.178  1.00  0.00    -0.246 OA
BRANCH  23  25
ATOM     25  C   UNL     1      -1.726   0.972  -5.885  1.00  0.00     0.060 A 
ATOM     26  C   UNL     1      -2.258   1.966  -5.058  1.00  0.00     0.016 A 
ATOM     27  C   UNL     1      -1.117   1.231  -7.113  1.00  0.00     0.016 A 
ATOM     28  C   UNL     1      -2.485   3.195  -5.613  1.00  0.00     0.010 A 
ATOM     29  C   UNL     1      -1.354   2.453  -7.670  1.00  0.00     0.010 A 
ATOM     30  C   UNL     1      -2.151   3.354  -6.955  1.00  0.00    -0.014 A 
BRANCH  30  31
ATOM     31  C   UNL     1      -2.733   4.465  -7.668  1.00  0.00     0.031 A 
ATOM     32  C   UNL     1      -2.047   5.749  -7.429  1.00  0.00     0.074 A 
ATOM     33  C   UNL     1      -3.688   4.213  -8.586  1.00  0.00     0.049 A 
ATOM     34  N   UNL     1      -2.563   6.886  -7.103  1.00  0.00    -0.248 NA
ATOM     35  C   UNL     1      -0.572   5.732  -7.438  1.00  0.00     0.031 C 
ATOM     36  C   UNL     1      -4.186   2.900  -9.025  1.00  0.00     0.029 A 
ATOM     37  N   UNL     1      -4.295   5.062  -9.449  1.00  0.00    -0.354 N 
ATOM     38  C   UNL     1      -1.493   7.772  -7.074  1.00  0.00     0.074 A 
ATOM     39  C   UNL     1      -0.287   6.989  -7.113  1.00  0.00     0.031 C 
ATOM     40  C   UNL     1      -4.788   3.036 -10.226  1.00  0.00     0.029 A 
ATOM     41  C   UNL     1      -4.801   4.443 -10.583  1.00  0.00     0.049 A 
ATOM     42  H   UNL     1      -4.370   6.030  -9.287  1.00  0.00     0.167 HD
ATOM     43  C   UNL     1      -1.664   9.098  -7.303  1.00  0.00     0.037 A 
ATOM     44  C   UNL     1      -5.074   5.051 -11.764  1.00  0.00     0.037 A 
ATOM     45  C   UNL     1      -3.011   9.524  -7.050  1.00  0.00     0.049 A 
ATOM     46  C   UNL     1      -5.118   6.517 -11.505  1.00  0.00     0.074 A 
ATOM     47  C   UNL     1      -3.838   9.458  -5.944  1.00  0.00     0.029 A 
ATOM     48  N   UNL     1      -3.837   9.766  -8.120  1.00  0.00    -0.354 N 
ATOM     49  N   UNL     1      -6.050   7.112 -10.812  1.00  0.00    -0.248 NA
ATOM     50  C   UNL     1      -3.868   7.258 -11.629  1.00  0.00     0.031 C 
ATOM     51  C   UNL     1      -5.132   9.171  -6.466  1.00  0.00     0.029 A 
ATOM     52  C   UNL     1      -5.026   9.131  -7.856  1.00  0.00     0.049 A 
ATOM     53  H   UNL     1      -3.619  10.294  -8.922  1.00  0.00     0.167 HD
ATOM     54  C   UNL     1      -5.383   8.084 -10.077  1.00  0.00     0.074 A 
ATOM     55  C   UNL     1      -4.059   8.183 -10.684  1.00  0.00     0.031 C 
ATOM     56  C   UNL     1      -5.850   8.508  -8.866  1.00  0.00     0.037 A 
BRANCH  43  57
ATOM     57  C   UNL     1      -0.666   9.890  -8.091  1.00  0.00     0.057 A 
ATOM     58  C   UNL     1      -0.669  11.288  -8.025  1.00  0.00     0.134 A 
ATOM     59  C   UNL     1       0.146   9.327  -9.101  1.00  0.00     0.134 A 
ATOM     60  F   UNL     1      -1.447  11.930  -7.142  1.00  0.00    -0.206 F 
ATOM     61  C   UNL     1       0.080  12.072  -8.910  1.00  0.00     0.040 A 
ATOM     62  C   UNL     1       0.941  10.095  -9.949  1.00  0.00     0.040 A 
ATOM     63  F   UNL     1       0.134   8.014  -9.375  1.00  0.00    -0.206 F 
ATOM     64  C   UNL     1       0.893  11.476  -9.870  1.00  0.00     0.006 A 
ENDBRANCH  43  57
BRANCH  44  65
ATOM     65  C   UNL     1      -4.961   4.482 -13.130  1.00  0.00     0.057 A 
ATOM     66  C   UNL     1      -5.531   5.137 -14.230  1.00  0.00     0.134 A 
ATOM     67  C   UNL     1      -4.100   3.411 -13.435  1.00  0.00     0.134 A 
ATOM     68  F   UNL     1      -6.327   6.200 -14.051  1.00  0.00    -0.206 F 
ATOM     69  C   UNL     1      -5.255   4.756 -15.552  1.00  0.00     0.040 A 
ATOM     70  C   UNL     1      -3.831   3.009 -14.748  1.00  0.00     0.040 A 
ATOM     71  F   UNL     1      -3.420   2.764 -12.479  1.00  0.00    -0.206 F 
ATOM     72  C   UNL     1      -4.399   3.692 -15.814  1.00  0.00     0.006 A 
ENDBRANCH  44  65
BRANCH  56  73
ATOM     73  C   UNL     1      -7.219   8.055  -8.433  1.00  0.00     0.057 A 
ATOM     74  C   UNL     1      -7.565   6.711  -8.224  1.00  0.00     0.134 A 
ATOM     75  C   UNL     1      -8.163   9.013  -8.046  1.00  0.00     0.134 A 
ATOM     76  F   UNL     1      -6.689   5.726  -8.453  1.00  0.00    -0.206 F 
ATOM     77  C   UNL     1      -8.806   6.337  -7.701  1.00  0.00     0.040 A 
ATOM     78  C   UNL     1      -9.393   8.654  -7.488  1.00  0.00     0.040 A 
ATOM     79  F   UNL     1      -7.881  10.321  -8.153  1.00  0.00    -0.206 F 
ATOM     80  C   UNL     1      -9.723   7.311  -7.324  1.00  0.00     0.006 A 
ENDBRANCH  56  73
ENDBRANCH  30  31
ENDBRANCH  23  25
ENDBRANCH  22  23
ENDBRANCH  21  22
ENDBRANCH  20  21
ENDBRANCH  19  20
ENDBRANCH  18  19
ENDBRANCH   1  18
TORSDOF 19
