REMARK SMILES Cn1c(=O)[nH]c(=O)c2c1nc(NC1CCCC1)n2CC(=O)OCCOCCOCCOC(=O)c1ccc(-c2c3nc(c(-c4c(F)cccc4F)c4ccc([nH]4)c(-c4c(F)cccc4F)c4nc(c(-c5c(F)cccc5F)c5ccc2[nH]5)C=C4)C=C3)cc1
REMARK SMILES IDX 26 1 25 2 24 3 23 4 22 5 20 6 21 7 19 8 18 9 1 10 2 11 3 12
REMARK SMILES IDX 9 13 4 14 5 15 8 16 10 17 6 18 11 20 7 21 12 22 13 24 14 25
REMARK SMILES IDX 17 26 15 27 16 28 27 29 28 30 29 31 30 32 31 33 32 34 33 35
REMARK SMILES IDX 34 36 35 37 87 38 36 39 86 40 37 41 38 42 39 43 80 44 40 45
REMARK SMILES IDX 85 46 79 47 81 48 41 49 84 50 78 51 77 52 42 54 68 55 51 56
REMARK SMILES IDX 67 57 52 58 55 59 66 60 82 61 53 62 54 63 65 65 83 66 56 67
REMARK SMILES IDX 43 68 44 69 49 70 45 71 46 72 48 73 50 74 47 75 69 76 70 77
REMARK SMILES IDX 75 78 71 79 72 80 74 81 76 82 73 83 57 84 58 85 63 86 59 87
REMARK SMILES IDX 60 88 62 89 64 90 61 91
REMARK H PARENT 5 19 12 23 81 53 55 64
REMARK Flexibility Score: inf
ROOT
ATOM      1  C   UNL     1       1.851   7.109   2.929  1.00  0.00     0.188 C 
ENDROOT
BRANCH   1   2
ATOM      2  O   UNL     1       1.048   8.242   3.246  1.00  0.00    -0.376 OA
BRANCH   2   3
ATOM      3  C   UNL     1      -0.361   8.153   3.066  1.00  0.00     0.202 C 
BRANCH   3   4
ATOM      4  C   UNL     1      -0.895   7.728   1.677  1.00  0.00     0.261 C 
BRANCH   4   5
ATOM      5  O   UNL     1      -0.205   6.617   1.034  1.00  0.00    -0.462 OA
BRANCH   5   6
ATOM      6  C   UNL     1       0.449   6.870  -0.129  1.00  0.00     0.326 C 
ATOM      7  O   UNL     1       0.360   7.949  -0.716  1.00  0.00    -0.250 OA
BRANCH   6   8
ATOM      8  C   UNL     1       1.489   5.845  -0.574  1.00  0.00     0.248 C 
BRANCH   8   9
ATOM      9  N   UNL     1       1.377   4.418  -0.258  1.00  0.00    -0.293 N 
ATOM     10  C   UNL     1       0.791  -0.139  -0.297  1.00  0.00     0.157 C 
ATOM     11  N   UNL     1       0.343   1.120  -0.872  1.00  0.00    -0.279 N 
ATOM     12  C   UNL     1      -0.654   1.187  -1.828  1.00  0.00     0.329 A 
ATOM     13  C   UNL     1       0.920   2.292  -0.460  1.00  0.00     0.170 A 
ATOM     14  O   UNL     1      -1.232   0.202  -2.286  1.00  0.00    -0.248 OA
ATOM     15  N   UNL     1      -1.001   2.455  -2.279  1.00  0.00    -0.272 N 
ATOM     16  C   UNL     1       0.543   3.525  -0.902  1.00  0.00     0.154 A 
ATOM     17  N   UNL     1       1.954   2.353   0.379  1.00  0.00    -0.194 NA
ATOM     18  C   UNL     1      -0.480   3.667  -1.871  1.00  0.00     0.279 A 
ATOM     19  H   UNL     1      -1.700   2.493  -2.971  1.00  0.00     0.175 HD
ATOM     20  C   UNL     1       2.263   3.620   0.482  1.00  0.00     0.206 A 
ATOM     21  O   UNL     1      -0.867   4.745  -2.322  1.00  0.00    -0.267 OA
BRANCH  20  22
ATOM     22  N   UNL     1       3.289   4.050   1.239  1.00  0.00    -0.353 N 
ATOM     23  H   UNL     1       3.644   4.958   1.104  1.00  0.00     0.163 HD
BRANCH  22  24
ATOM     24  C   UNL     1       3.888   3.183   2.267  1.00  0.00     0.082 C 
ATOM     25  C   UNL     1       2.995   2.194   3.021  1.00  0.00     0.025 C 
ATOM     26  C   UNL     1       5.031   2.283   1.820  1.00  0.00     0.025 C 
ATOM     27  C   UNL     1       4.001   1.443   3.891  1.00  0.00     0.002 C 
ATOM     28  C   UNL     1       5.276   1.381   3.044  1.00  0.00     0.002 C 
ENDBRANCH  22  24
ENDBRANCH  20  22
ENDBRANCH   8   9
ENDBRANCH   6   8
ENDBRANCH   5   6
ENDBRANCH   4   5
ENDBRANCH   3   4
ENDBRANCH   2   3
ENDBRANCH   1   2
BRANCH   1  29
ATOM     29  C   UNL     1       1.287   5.687   3.131  1.00  0.00     0.188 C 
BRANCH  29  30
ATOM     30  O   UNL     1       0.053   5.665   3.808  1.00  0.00    -0.376 OA
BRANCH  30  31
ATOM     31  C   UNL     1      -0.079   4.893   4.974  1.00  0.00     0.202 C 
BRANCH  31  32
ATOM     32  C   UNL     1       0.827   5.214   6.163  1.00  0.00     0.261 C 
BRANCH  32  33
ATOM     33  O   UNL     1       1.994   5.986   5.883  1.00  0.00    -0.460 OA
BRANCH  33  34
ATOM     34  C   UNL     1       3.045   5.200   5.594  1.00  0.00     0.338 C 
ATOM     35  O   UNL     1       3.015   4.000   5.376  1.00  0.00    -0.246 OA
BRANCH  34  36
ATOM     36  C   UNL     1       4.316   5.906   5.749  1.00  0.00     0.060 A 
ATOM     37  C   UNL     1       5.335   5.427   4.920  1.00  0.00     0.016 A 
ATOM     38  C   UNL     1       4.541   6.213   7.090  1.00  0.00     0.016 A 
ATOM     39  C   UNL     1       6.438   4.864   5.516  1.00  0.00     0.010 A 
ATOM     40  C   UNL     1       5.682   5.726   7.676  1.00  0.00     0.010 A 
ATOM     41  C   UNL     1       6.565   4.963   6.906  1.00  0.00    -0.014 A 
BRANCH  41  42
ATOM     42  C   UNL     1       7.807   4.504   7.503  1.00  0.00     0.031 A 
ATOM     43  C   UNL     1       8.961   5.235   6.913  1.00  0.00     0.074 A 
ATOM     44  C   UNL     1       7.830   3.687   8.576  1.00  0.00     0.049 A 
ATOM     45  N   UNL     1       9.984   4.745   6.298  1.00  0.00    -0.248 NA
ATOM     46  C   UNL     1       8.845   6.707   6.783  1.00  0.00     0.031 C 
ATOM     47  C   UNL     1       6.670   3.153   9.302  1.00  0.00     0.029 A 
ATOM     48  N   UNL     1       8.880   3.288   9.351  1.00  0.00    -0.354 N 
ATOM     49  C   UNL     1      10.760   5.849   5.951  1.00  0.00     0.074 A 
ATOM     50  C   UNL     1       9.915   7.003   6.047  1.00  0.00     0.031 C 
ATOM     51  C   UNL     1       7.056   2.746  10.531  1.00  0.00     0.029 A 
ATOM     52  C   UNL     1       8.499   2.856  10.625  1.00  0.00     0.049 A 
ATOM     53  H   UNL     1       9.815   3.302   9.042  1.00  0.00     0.167 HD
ATOM     54  C   UNL     1      12.116   5.764   5.979  1.00  0.00     0.037 A 
ATOM     55  C   UNL     1       9.330   2.696  11.686  1.00  0.00     0.037 A 
ATOM     56  C   UNL     1      12.539   4.392   5.970  1.00  0.00     0.049 A 
ATOM     57  C   UNL     1      10.703   2.581  11.146  1.00  0.00     0.074 A 
ATOM     58  C   UNL     1      12.646   3.388   5.034  1.00  0.00     0.029 A 
ATOM     59  N   UNL     1      12.510   3.805   7.206  1.00  0.00    -0.354 N 
ATOM     60  N   UNL     1      11.112   1.570  10.432  1.00  0.00    -0.248 NA
ATOM     61  C   UNL     1      11.546   3.772  11.092  1.00  0.00     0.031 C 
ATOM     62  C   UNL     1      12.553   2.162   5.754  1.00  0.00     0.029 A 
ATOM     63  C   UNL     1      12.449   2.443   7.114  1.00  0.00     0.049 A 
ATOM     64  H   UNL     1      12.530   4.302   8.055  1.00  0.00     0.167 HD
ATOM     65  C   UNL     1      11.992   2.130   9.529  1.00  0.00     0.074 A 
ATOM     66  C   UNL     1      12.355   3.427  10.087  1.00  0.00     0.031 C 
ATOM     67  C   UNL     1      12.079   1.645   8.259  1.00  0.00     0.037 A 
BRANCH  54  68
ATOM     68  C   UNL     1      13.002   6.853   6.541  1.00  0.00     0.057 A 
ATOM     69  C   UNL     1      14.394   6.751   6.389  1.00  0.00     0.134 A 
ATOM     70  C   UNL     1      12.574   7.829   7.468  1.00  0.00     0.134 A 
ATOM     71  F   UNL     1      14.930   5.829   5.574  1.00  0.00    -0.206 F 
ATOM     72  C   UNL     1      15.289   7.542   7.123  1.00  0.00     0.040 A 
ATOM     73  C   UNL     1      13.455   8.660   8.164  1.00  0.00     0.040 A 
ATOM     74  F   UNL     1      11.294   7.962   7.836  1.00  0.00    -0.206 F 
ATOM     75  C   UNL     1      14.820   8.503   8.011  1.00  0.00     0.006 A 
ENDBRANCH  54  68
BRANCH  55  76
ATOM     76  C   UNL     1       9.098   2.936  13.131  1.00  0.00     0.057 A 
ATOM     77  C   UNL     1      10.028   2.486  14.085  1.00  0.00     0.134 A 
ATOM     78  C   UNL     1       8.160   3.877  13.584  1.00  0.00     0.134 A 
ATOM     79  F   UNL     1      10.974   1.599  13.747  1.00  0.00    -0.206 F 
ATOM     80  C   UNL     1      10.069   2.997  15.389  1.00  0.00     0.040 A 
ATOM     81  C   UNL     1       8.186   4.390  14.886  1.00  0.00     0.040 A 
ATOM     82  F   UNL     1       7.251   4.405  12.752  1.00  0.00    -0.206 F 
ATOM     83  C   UNL     1       9.159   3.970  15.786  1.00  0.00     0.006 A 
ENDBRANCH  55  76
BRANCH  67  84
ATOM     84  C   UNL     1      11.614   0.245   8.013  1.00  0.00     0.057 A 
ATOM     85  C   UNL     1      10.279  -0.177   8.071  1.00  0.00     0.134 A 
ATOM     86  C   UNL     1      12.563  -0.690   7.589  1.00  0.00     0.134 A 
ATOM     87  F   UNL     1       9.297   0.672   8.404  1.00  0.00    -0.206 F 
ATOM     88  C   UNL     1       9.912  -1.484   7.737  1.00  0.00     0.040 A 
ATOM     89  C   UNL     1      12.207  -1.985   7.220  1.00  0.00     0.040 A 
ATOM     90  F   UNL     1      13.854  -0.338   7.480  1.00  0.00    -0.206 F 
ATOM     91  C   UNL     1      10.877  -2.389   7.298  1.00  0.00     0.006 A 
ENDBRANCH  67  84
ENDBRANCH  41  42
ENDBRANCH  34  36
ENDBRANCH  33  34
ENDBRANCH  32  33
ENDBRANCH  31  32
ENDBRANCH  30  31
ENDBRANCH  29  30
ENDBRANCH   1  29
TORSDOF 20
