REMARK SMILES C[C@H]1CCc2sc3ncn4nc(/C=C\C(=O)OCCOCCOCCOC(=O)c5ccc(-c6c7nc(c(-c8c(F)cccc8F)c8ccc([nH]8)c(-c8c(F)cccc8F)c8nc(c(-c9c(F)cccc9F)c9ccc6[nH]9)C=C8)C=C7)cc5)nc4c3c2C1
REMARK SMILES IDX 22 1 21 2 20 3 19 4 18 5 17 6 15 7 16 8 14 9 13 10 12 11
REMARK SMILES IDX 1 12 2 13 3 14 87 15 4 16 86 17 5 18 85 19 6 20 7 21 84 22
REMARK SMILES IDX 8 23 10 24 83 25 9 26 11 27 23 28 24 29 25 30 26 31 27 32
REMARK SMILES IDX 28 33 29 34 30 35 82 36 31 37 81 38 32 39 33 40 34 41 75 42
REMARK SMILES IDX 35 43 80 44 74 45 76 46 36 47 79 48 73 49 72 50 37 52 63 53
REMARK SMILES IDX 46 54 62 55 47 56 50 57 61 58 77 59 48 60 49 61 60 63 78 64
REMARK SMILES IDX 51 65 38 66 39 67 44 68 40 69 41 70 43 71 45 72 42 73 64 74
REMARK SMILES IDX 65 75 70 76 66 77 67 78 69 79 71 80 68 81 52 82 53 83 58 84
REMARK SMILES IDX 54 85 55 86 57 87 59 88 56 89
REMARK H PARENT 76 51 50 62
REMARK Flexibility Score: inf
ROOT
ATOM      1  C   UNL     1       3.997  -4.816   0.216  1.00  0.00     0.188 C 
ENDROOT
BRANCH   1   2
ATOM      2  C   UNL     1       3.701  -4.420  -1.253  1.00  0.00     0.188 C 
BRANCH   2   3
ATOM      3  O   UNL     1       3.514  -3.068  -1.622  1.00  0.00    -0.376 OA
BRANCH   3   4
ATOM      4  C   UNL     1       2.363  -2.377  -1.156  1.00  0.00     0.202 C 
BRANCH   4   5
ATOM      5  C   UNL     1       1.028  -3.098  -0.917  1.00  0.00     0.261 C 
BRANCH   5   6
ATOM      6  O   UNL     1       1.146  -4.321  -0.191  1.00  0.00    -0.460 OA
BRANCH   6   7
ATOM      7  C   UNL     1       0.428  -5.368  -0.642  1.00  0.00     0.330 C 
ATOM      8  O   UNL     1      -0.289  -5.382  -1.633  1.00  0.00    -0.247 OA
BRANCH   7   9
ATOM      9  C   UNL     1       0.769  -6.614   0.068  1.00  0.00     0.097 C 
ATOM     10  C   UNL     1       0.904  -6.844   1.382  1.00  0.00     0.058 C 
BRANCH  10  11
ATOM     11  C   UNL     1       0.745  -5.982   2.506  1.00  0.00     0.175 A 
ATOM     12  C   UNL     1      -1.296   0.444   1.608  1.00  0.00     0.008 C 
ATOM     13  C   UNL     1       0.200   0.207   1.827  1.00  0.00    -0.009 C 
ATOM     14  C   UNL     1       0.802   1.146   2.895  1.00  0.00     0.009 C 
ATOM     15  C   UNL     1       0.459  -1.275   2.155  1.00  0.00     0.041 C 
ATOM     16  C   UNL     1       0.308   0.855   4.322  1.00  0.00     0.047 C 
ATOM     17  C   UNL     1       0.400  -1.589   3.611  1.00  0.00    -0.020 A 
ATOM     18  C   UNL     1       0.348  -0.617   4.590  1.00  0.00     0.011 A 
ATOM     19  C   UNL     1       0.433  -2.870   4.200  1.00  0.00     0.060 A 
ATOM     20  S   UNL     1       0.304  -1.267   6.170  1.00  0.00    -0.120 S 
ATOM     21  C   UNL     1       0.391  -2.875   5.585  1.00  0.00     0.129 A 
ATOM     22  C   UNL     1       0.527  -4.209   3.599  1.00  0.00     0.168 A 
ATOM     23  N   UNL     1       0.418  -3.968   6.422  1.00  0.00    -0.225 NA
ATOM     24  N   UNL     1       0.601  -5.266   4.449  1.00  0.00    -0.201 N 
ATOM     25  N   UNL     1       0.554  -4.627   2.360  1.00  0.00    -0.207 NA
ATOM     26  C   UNL     1       0.530  -5.136   5.836  1.00  0.00     0.227 A 
ATOM     27  N   UNL     1       0.748  -6.421   3.780  1.00  0.00    -0.145 NA
ENDBRANCH  10  11
ENDBRANCH   7   9
ENDBRANCH   6   7
ENDBRANCH   5   6
ENDBRANCH   4   5
ENDBRANCH   3   4
ENDBRANCH   2   3
ENDBRANCH   1   2
BRANCH   1  28
ATOM     28  O   UNL     1       3.512  -4.073   1.314  1.00  0.00    -0.376 OA
BRANCH  28  29
ATOM     29  C   UNL     1       4.064  -2.856   1.783  1.00  0.00     0.202 C 
BRANCH  29  30
ATOM     30  C   UNL     1       5.460  -2.339   1.480  1.00  0.00     0.261 C 
BRANCH  30  31
ATOM     31  O   UNL     1       5.855  -2.566   0.147  1.00  0.00    -0.460 OA
BRANCH  31  32
ATOM     32  C   UNL     1       6.745  -3.571   0.042  1.00  0.00     0.338 C 
ATOM     33  O   UNL     1       7.130  -4.324   0.919  1.00  0.00    -0.246 OA
BRANCH  32  34
ATOM     34  C   UNL     1       7.282  -3.590  -1.312  1.00  0.00     0.060 A 
ATOM     35  C   UNL     1       8.035  -4.719  -1.636  1.00  0.00     0.016 A 
ATOM     36  C   UNL     1       7.378  -2.376  -2.003  1.00  0.00     0.016 A 
ATOM     37  C   UNL     1       9.111  -4.535  -2.461  1.00  0.00     0.010 A 
ATOM     38  C   UNL     1       8.462  -2.192  -2.817  1.00  0.00     0.010 A 
ATOM     39  C   UNL     1       9.364  -3.243  -2.935  1.00  0.00    -0.014 A 
BRANCH  39  40
ATOM     40  C   UNL     1      10.620  -3.032  -3.605  1.00  0.00     0.031 A 
ATOM     41  C   UNL     1      10.639  -3.622  -4.951  1.00  0.00     0.074 A 
ATOM     42  C   UNL     1      11.624  -2.340  -3.042  1.00  0.00     0.049 A 
ATOM     43  N   UNL     1      11.293  -4.665  -5.336  1.00  0.00    -0.248 NA
ATOM     44  C   UNL     1       9.659  -3.120  -5.924  1.00  0.00     0.031 C 
ATOM     45  C   UNL     1      11.613  -1.512  -1.834  1.00  0.00     0.029 A 
ATOM     46  N   UNL     1      12.885  -2.179  -3.514  1.00  0.00    -0.354 N 
ATOM     47  C   UNL     1      10.963  -4.827  -6.674  1.00  0.00     0.074 A 
ATOM     48  C   UNL     1       9.819  -3.991  -6.918  1.00  0.00     0.031 C 
ATOM     49  C   UNL     1      12.739  -0.761  -1.803  1.00  0.00     0.029 A 
ATOM     50  C   UNL     1      13.598  -1.158  -2.906  1.00  0.00     0.049 A 
ATOM     51  H   UNL     1      13.262  -2.741  -4.228  1.00  0.00     0.167 HD
ATOM     52  C   UNL     1      11.830  -5.430  -7.528  1.00  0.00     0.037 A 
ATOM     53  C   UNL     1      14.768  -0.645  -3.362  1.00  0.00     0.037 A 
ATOM     54  C   UNL     1      12.794  -6.229  -6.811  1.00  0.00     0.049 A 
ATOM     55  C   UNL     1      15.367  -1.656  -4.276  1.00  0.00     0.074 A 
ATOM     56  C   UNL     1      12.704  -7.309  -5.954  1.00  0.00     0.029 A 
ATOM     57  N   UNL     1      14.051  -5.706  -6.624  1.00  0.00    -0.354 N 
ATOM     58  N   UNL     1      15.840  -2.804  -3.874  1.00  0.00    -0.248 NA
ATOM     59  C   UNL     1      15.005  -1.593  -5.686  1.00  0.00     0.031 C 
ATOM     60  C   UNL     1      13.715  -7.091  -4.973  1.00  0.00     0.029 A 
ATOM     61  C   UNL     1      14.400  -5.925  -5.316  1.00  0.00     0.049 A 
ATOM     62  H   UNL     1      14.601  -5.256  -7.305  1.00  0.00     0.167 HD
ATOM     63  C   UNL     1      15.442  -3.714  -4.845  1.00  0.00     0.074 A 
ATOM     64  C   UNL     1      15.002  -2.898  -5.975  1.00  0.00     0.031 C 
ATOM     65  C   UNL     1      15.226  -5.027  -4.540  1.00  0.00     0.037 A 
BRANCH  52  66
ATOM     66  C   UNL     1      12.043  -4.971  -8.947  1.00  0.00     0.057 A 
ATOM     67  C   UNL     1      12.912  -5.706  -9.771  1.00  0.00     0.134 A 
ATOM     68  C   UNL     1      11.676  -3.703  -9.447  1.00  0.00     0.134 A 
ATOM     69  F   UNL     1      13.342  -6.923  -9.407  1.00  0.00    -0.206 F 
ATOM     70  C   UNL     1      13.444  -5.182 -10.954  1.00  0.00     0.040 A 
ATOM     71  C   UNL     1      12.159  -3.193 -10.653  1.00  0.00     0.040 A 
ATOM     72  F   UNL     1      10.916  -2.841  -8.762  1.00  0.00    -0.206 F 
ATOM     73  C   UNL     1      13.075  -3.918 -11.394  1.00  0.00     0.006 A 
ENDBRANCH  52  66
BRANCH  53  74
ATOM     74  C   UNL     1      15.211   0.768  -3.338  1.00  0.00     0.057 A 
ATOM     75  C   UNL     1      16.541   1.114  -3.612  1.00  0.00     0.134 A 
ATOM     76  C   UNL     1      14.290   1.832  -3.317  1.00  0.00     0.134 A 
ATOM     77  F   UNL     1      17.486   0.167  -3.697  1.00  0.00    -0.206 F 
ATOM     78  C   UNL     1      16.930   2.436  -3.873  1.00  0.00     0.040 A 
ATOM     79  C   UNL     1      14.666   3.156  -3.568  1.00  0.00     0.040 A 
ATOM     80  F   UNL     1      12.979   1.615  -3.143  1.00  0.00    -0.206 F 
ATOM     81  C   UNL     1      15.989   3.460  -3.861  1.00  0.00     0.006 A 
ENDBRANCH  53  74
BRANCH  65  82
ATOM     82  C   UNL     1      15.651  -5.519  -3.183  1.00  0.00     0.057 A 
ATOM     83  C   UNL     1      15.085  -5.075  -1.978  1.00  0.00     0.134 A 
ATOM     84  C   UNL     1      16.521  -6.612  -3.106  1.00  0.00     0.134 A 
ATOM     85  F   UNL     1      14.169  -4.099  -1.960  1.00  0.00    -0.206 F 
ATOM     86  C   UNL     1      15.395  -5.673  -0.752  1.00  0.00     0.040 A 
ATOM     87  C   UNL     1      16.812  -7.241  -1.893  1.00  0.00     0.040 A 
ATOM     88  F   UNL     1      17.057  -7.128  -4.224  1.00  0.00    -0.206 F 
ATOM     89  C   UNL     1      16.252  -6.768  -0.709  1.00  0.00     0.006 A 
ENDBRANCH  65  82
ENDBRANCH  39  40
ENDBRANCH  32  34
ENDBRANCH  31  32
ENDBRANCH  30  31
ENDBRANCH  29  30
ENDBRANCH  28  29
ENDBRANCH   1  28
TORSDOF 18
