REMARK SMILES CC[C@@H]1CCC[C@@](C[C@@H]2CSc3ccccc32)(C(=O)OCCOCCOCCOC(=O)c2ccc(-c3c4nc(c(-c5c(F)cccc5F)c5ccc([nH]5)c(-c5c(F)cccc5F)c5nc(c(-c6c(F)cccc6F)c6ccc3[nH]6)C=C5)C=C4)cc2)C1
REMARK SMILES IDX 24 1 23 2 22 3 21 4 20 5 18 6 19 7 7 8 3 9 4 10 86 11 5 12
REMARK SMILES IDX 6 13 2 14 1 15 8 16 9 17 10 18 17 19 11 20 12 21 16 22 13 23
REMARK SMILES IDX 15 24 14 25 25 26 26 27 27 28 28 29 29 30 30 31 31 32 32 33
REMARK SMILES IDX 33 34 85 35 34 36 84 37 35 38 36 39 37 40 78 41 38 42 83 43
REMARK SMILES IDX 77 44 79 45 39 46 82 47 76 48 75 49 40 51 66 52 49 53 65 54
REMARK SMILES IDX 50 55 53 56 64 57 80 58 51 59 52 60 63 62 81 63 54 64 41 65
REMARK SMILES IDX 42 66 47 67 43 68 44 69 46 70 48 71 45 72 67 73 68 74 73 75
REMARK SMILES IDX 69 76 70 77 72 78 74 79 71 80 55 81 56 82 61 83 57 84 58 85
REMARK SMILES IDX 60 86 62 87 59 88
REMARK H PARENT 79 50 53 61
REMARK Flexibility Score: inf
ROOT
ATOM      1  C   UNL     1      -1.550  -7.158   9.551  1.00  0.00     0.188 C 
ENDROOT
BRANCH   1   2
ATOM      2  O   UNL     1      -2.094  -8.017   8.558  1.00  0.00    -0.376 OA
BRANCH   2   3
ATOM      3  C   UNL     1      -1.712  -7.826   7.200  1.00  0.00     0.202 C 
BRANCH   3   4
ATOM      4  C   UNL     1      -1.996  -6.453   6.584  1.00  0.00     0.261 C 
BRANCH   4   5
ATOM      5  O   UNL     1      -1.187  -5.359   7.088  1.00  0.00    -0.463 OA
BRANCH   5   6
ATOM      6  C   UNL     1      -1.848  -4.328   7.675  1.00  0.00     0.312 C 
ATOM      7  O   UNL     1      -3.061  -4.346   7.865  1.00  0.00    -0.252 OA
BRANCH   6   8
ATOM      8  C   UNL     1      -0.982  -3.068   7.972  1.00  0.00     0.069 C 
ATOM      9  C   UNL     1      -1.396  -2.859  10.535  1.00  0.00    -0.010 C 
ATOM     10  C   UNL     1       0.080  -2.600  10.823  1.00  0.00     0.003 C 
ATOM     11  C   UNL     1      -1.720  -2.305   9.133  1.00  0.00     0.022 C 
ATOM     12  C   UNL     1       0.947  -3.355   9.843  1.00  0.00     0.001 C 
ATOM     13  C   UNL     1       0.505  -3.239   8.380  1.00  0.00     0.019 C 
BRANCH   9  14
ATOM     14  C   UNL     1      -2.244  -2.210  11.642  1.00  0.00     0.000 C 
ATOM     15  C   UNL     1      -3.689  -2.680  11.624  1.00  0.00     0.004 C 
ENDBRANCH   9  14
BRANCH   8  16
ATOM     16  C   UNL     1      -1.100  -2.173   6.665  1.00  0.00     0.028 C 
BRANCH  16  17
ATOM     17  C   UNL     1      -0.216  -2.379   5.387  1.00  0.00     0.032 C 
ATOM     18  C   UNL     1      -0.432  -3.685   4.601  1.00  0.00     0.083 C 
ATOM     19  C   UNL     1       1.272  -2.231   5.600  1.00  0.00    -0.030 A 
ATOM     20  S   UNL     1       1.033  -4.744   4.815  1.00  0.00    -0.125 SA
ATOM     21  C   UNL     1       2.006  -3.410   5.441  1.00  0.00     0.011 A 
ATOM     22  C   UNL     1       1.898  -1.078   6.074  1.00  0.00     0.005 A 
ATOM     23  C   UNL     1       3.328  -3.491   5.853  1.00  0.00     0.015 A 
ATOM     24  C   UNL     1       3.230  -1.152   6.488  1.00  0.00     0.000 A 
ATOM     25  C   UNL     1       3.934  -2.359   6.400  1.00  0.00     0.001 A 
ENDBRANCH  16  17
ENDBRANCH   8  16
ENDBRANCH   6   8
ENDBRANCH   5   6
ENDBRANCH   4   5
ENDBRANCH   3   4
ENDBRANCH   2   3
ENDBRANCH   1   2
BRANCH   1  26
ATOM     26  C   UNL     1      -0.100  -6.694   9.399  1.00  0.00     0.188 C 
BRANCH  26  27
ATOM     27  O   UNL     1       0.686  -7.529   8.575  1.00  0.00    -0.376 OA
BRANCH  27  28
ATOM     28  C   UNL     1       1.923  -7.950   9.118  1.00  0.00     0.202 C 
BRANCH  28  29
ATOM     29  C   UNL     1       1.750  -9.053  10.167  1.00  0.00     0.261 C 
BRANCH  29  30
ATOM     30  O   UNL     1       0.884  -8.718  11.270  1.00  0.00    -0.460 OA
BRANCH  30  31
ATOM     31  C   UNL     1       1.319  -7.786  12.150  1.00  0.00     0.338 C 
ATOM     32  O   UNL     1       2.400  -7.223  12.147  1.00  0.00    -0.246 OA
BRANCH  31  33
ATOM     33  C   UNL     1       0.146  -7.372  12.960  1.00  0.00     0.060 A 
ATOM     34  C   UNL     1      -0.628  -8.317  13.637  1.00  0.00     0.016 A 
ATOM     35  C   UNL     1      -0.227  -6.022  12.972  1.00  0.00     0.016 A 
ATOM     36  C   UNL     1      -1.777  -7.907  14.323  1.00  0.00     0.010 A 
ATOM     37  C   UNL     1      -1.388  -5.619  13.639  1.00  0.00     0.010 A 
ATOM     38  C   UNL     1      -2.169  -6.557  14.327  1.00  0.00    -0.014 A 
BRANCH  38  39
ATOM     39  C   UNL     1      -3.294  -6.104  15.184  1.00  0.00     0.031 A 
ATOM     40  C   UNL     1      -4.657  -5.802  14.635  1.00  0.00     0.074 A 
ATOM     41  C   UNL     1      -3.046  -5.917  16.494  1.00  0.00     0.049 A 
ATOM     42  N   UNL     1      -5.750  -5.469  15.277  1.00  0.00    -0.248 NA
ATOM     43  C   UNL     1      -4.806  -5.845  13.176  1.00  0.00     0.031 C 
ATOM     44  C   UNL     1      -1.740  -6.089  17.131  1.00  0.00     0.029 A 
ATOM     45  N   UNL     1      -3.876  -5.547  17.519  1.00  0.00    -0.354 N 
ATOM     46  C   UNL     1      -6.719  -5.260  14.303  1.00  0.00     0.074 A 
ATOM     47  C   UNL     1      -6.064  -5.450  13.023  1.00  0.00     0.031 C 
ATOM     48  C   UNL     1      -1.863  -5.859  18.447  1.00  0.00     0.029 A 
ATOM     49  C   UNL     1      -3.252  -5.521  18.742  1.00  0.00     0.049 A 
ATOM     50  H   UNL     1      -4.826  -5.322  17.392  1.00  0.00     0.167 HD
ATOM     51  C   UNL     1      -8.034  -4.960  14.465  1.00  0.00     0.037 A 
ATOM     52  C   UNL     1      -3.749  -5.280  19.968  1.00  0.00     0.037 A 
ATOM     53  C   UNL     1      -8.677  -4.789  15.748  1.00  0.00     0.049 A 
ATOM     54  C   UNL     1      -5.217  -5.007  20.127  1.00  0.00     0.074 A 
ATOM     55  C   UNL     1     -10.019  -4.584  16.023  1.00  0.00     0.029 A 
ATOM     56  N   UNL     1      -8.021  -4.794  16.970  1.00  0.00    -0.354 N 
ATOM     57  N   UNL     1      -6.151  -4.937  19.211  1.00  0.00    -0.248 NA
ATOM     58  C   UNL     1      -5.702  -4.803  21.499  1.00  0.00     0.031 C 
ATOM     59  C   UNL     1     -10.168  -4.423  17.406  1.00  0.00     0.029 A 
ATOM     60  C   UNL     1      -8.927  -4.579  17.999  1.00  0.00     0.049 A 
ATOM     61  H   UNL     1      -7.053  -4.931  17.091  1.00  0.00     0.167 HD
ATOM     62  C   UNL     1      -7.338  -4.708  19.895  1.00  0.00     0.074 A 
ATOM     63  C   UNL     1      -7.007  -4.676  21.305  1.00  0.00     0.031 C 
ATOM     64  C   UNL     1      -8.589  -4.541  19.400  1.00  0.00     0.037 A 
BRANCH  51  65
ATOM     65  C   UNL     1      -8.881  -4.819  13.228  1.00  0.00     0.057 A 
ATOM     66  C   UNL     1      -9.475  -3.594  12.892  1.00  0.00     0.134 A 
ATOM     67  C   UNL     1      -9.168  -5.915  12.402  1.00  0.00     0.134 A 
ATOM     68  F   UNL     1      -9.266  -2.505  13.647  1.00  0.00    -0.206 F 
ATOM     69  C   UNL     1     -10.316  -3.465  11.784  1.00  0.00     0.040 A 
ATOM     70  C   UNL     1      -9.981  -5.792  11.273  1.00  0.00     0.040 A 
ATOM     71  F   UNL     1      -8.643  -7.121  12.666  1.00  0.00    -0.206 F 
ATOM     72  C   UNL     1     -10.564  -4.565  10.965  1.00  0.00     0.006 A 
ENDBRANCH  51  65
BRANCH  52  73
ATOM     73  C   UNL     1      -2.861  -5.367  21.152  1.00  0.00     0.057 A 
ATOM     74  C   UNL     1      -1.879  -4.404  21.405  1.00  0.00     0.134 A 
ATOM     75  C   UNL     1      -2.981  -6.425  22.060  1.00  0.00     0.134 A 
ATOM     76  F   UNL     1      -1.704  -3.376  20.562  1.00  0.00    -0.206 F 
ATOM     77  C   UNL     1      -1.048  -4.489  22.523  1.00  0.00     0.040 A 
ATOM     78  C   UNL     1      -2.176  -6.508  23.195  1.00  0.00     0.040 A 
ATOM     79  F   UNL     1      -3.913  -7.372  21.873  1.00  0.00    -0.206 F 
ATOM     80  C   UNL     1      -1.202  -5.538  23.427  1.00  0.00     0.006 A 
ENDBRANCH  52  73
BRANCH  64  81
ATOM     81  C   UNL     1      -9.692  -4.333  20.399  1.00  0.00     0.057 A 
ATOM     82  C   UNL     1     -10.655  -5.327  20.617  1.00  0.00     0.134 A 
ATOM     83  C   UNL     1      -9.802  -3.154  21.149  1.00  0.00     0.134 A 
ATOM     84  F   UNL     1     -10.614  -6.478  19.930  1.00  0.00    -0.206 F 
ATOM     85  C   UNL     1     -11.681  -5.159  21.549  1.00  0.00     0.040 A 
ATOM     86  C   UNL     1     -10.806  -2.986  22.105  1.00  0.00     0.040 A 
ATOM     87  F   UNL     1      -8.904  -2.168  21.001  1.00  0.00    -0.206 F 
ATOM     88  C   UNL     1     -11.752  -3.990  22.303  1.00  0.00     0.006 A 
ENDBRANCH  64  81
ENDBRANCH  38  39
ENDBRANCH  31  33
ENDBRANCH  30  31
ENDBRANCH  29  30
ENDBRANCH  28  29
ENDBRANCH  27  28
ENDBRANCH  26  27
ENDBRANCH   1  26
TORSDOF 20
