REMARK SMILES CC[C@@](C)(NC(=O)c1sc2cc(F)ccc2c1Cl)C(=O)OCCOCCOCCOC(=O)c1ccc(-c2c3nc(c(-c4c(F)cccc4F)c4ccc([nH]4)c(-c4c(F)cccc4F)c4nc(c(-c5c(F)cccc5F)c5ccc2[nH]5)C=C4)C=C3)cc1
REMARK SMILES IDX 25 1 24 2 23 3 22 4 21 5 19 6 20 7 3 8 4 9 2 10 1 11 5 12
REMARK SMILES IDX 6 13 7 15 8 16 9 17 17 18 10 19 16 20 18 21 11 22 15 23
REMARK SMILES IDX 12 24 14 25 13 26 26 27 27 28 28 29 29 30 30 31 31 32 32 33
REMARK SMILES IDX 33 34 34 35 86 36 35 37 85 38 36 39 37 40 38 41 79 42 39 43
REMARK SMILES IDX 84 44 78 45 80 46 40 47 83 48 77 49 76 50 41 52 67 53 50 54
REMARK SMILES IDX 66 55 51 56 54 57 65 58 81 59 52 60 53 61 64 63 82 64 55 65
REMARK SMILES IDX 42 66 43 67 48 68 44 69 45 70 47 71 49 72 46 73 68 74 69 75
REMARK SMILES IDX 74 76 70 77 71 78 73 79 75 80 72 81 56 82 57 83 62 84 58 85
REMARK SMILES IDX 59 86 61 87 63 88 60 89
REMARK H PARENT 5 14 80 51 54 62
REMARK Flexibility Score: inf
ROOT
ATOM      1  C   UNL     1       4.193   0.436  -3.323  1.00  0.00     0.188 C 
ENDROOT
BRANCH   1   2
ATOM      2  O   UNL     1       5.592   0.558  -3.224  1.00  0.00    -0.376 OA
BRANCH   2   3
ATOM      3  C   UNL     1       6.167  -0.165  -2.122  1.00  0.00     0.202 C 
BRANCH   3   4
ATOM      4  C   UNL     1       5.397  -1.323  -1.429  1.00  0.00     0.261 C 
BRANCH   4   5
ATOM      5  O   UNL     1       4.607  -2.098  -2.345  1.00  0.00    -0.462 OA
BRANCH   5   6
ATOM      6  C   UNL     1       3.558  -2.764  -1.798  1.00  0.00     0.331 C 
ATOM      7  O   UNL     1       3.614  -3.284  -0.688  1.00  0.00    -0.249 OA
BRANCH   6   8
ATOM      8  C   UNL     1       2.225  -2.529  -2.587  1.00  0.00     0.135 C 
ATOM      9  C   UNL     1       1.245  -3.687  -2.342  1.00  0.00     0.047 C 
BRANCH   8  10
ATOM     10  C   UNL     1       1.613  -1.236  -1.944  1.00  0.00     0.037 C 
ATOM     11  C   UNL     1       1.609  -1.103  -0.429  1.00  0.00     0.007 C 
ENDBRANCH   8  10
BRANCH   8  12
ATOM     12  N   UNL     1       2.198  -2.236  -4.066  1.00  0.00    -0.336 N 
ATOM     13  C   UNL     1       2.770  -2.864  -5.153  1.00  0.00     0.263 C 
ATOM     14  H   UNL     1       1.667  -1.442  -4.302  1.00  0.00     0.165 HD
ATOM     15  O   UNL     1       2.032  -3.104  -6.108  1.00  0.00    -0.268 OA
BRANCH  13  16
ATOM     16  C   UNL     1       4.206  -2.893  -5.230  1.00  0.00     0.112 A 
ATOM     17  S   UNL     1       4.962  -1.734  -6.239  1.00  0.00    -0.128 S 
ATOM     18  C   UNL     1       5.148  -3.714  -4.659  1.00  0.00     0.072 A 
ATOM     19  C   UNL     1       6.456  -1.915  -5.411  1.00  0.00     0.040 A 
ATOM     20  C   UNL     1       6.453  -3.086  -4.643  1.00  0.00     0.012 A 
ATOM     21  Cl  UNL     1       4.798  -5.172  -3.829  1.00  0.00    -0.082 Cl
ATOM     22  C   UNL     1       7.559  -1.040  -5.449  1.00  0.00     0.059 A 
ATOM     23  C   UNL     1       7.638  -3.404  -3.928  1.00  0.00     0.014 A 
ATOM     24  C   UNL     1       8.669  -1.354  -4.674  1.00  0.00     0.124 A 
ATOM     25  C   UNL     1       8.725  -2.523  -3.933  1.00  0.00     0.040 A 
ATOM     26  F   UNL     1       9.689  -0.488  -4.609  1.00  0.00    -0.207 F 
ENDBRANCH  13  16
ENDBRANCH   8  12
ENDBRANCH   6   8
ENDBRANCH   5   6
ENDBRANCH   4   5
ENDBRANCH   3   4
ENDBRANCH   2   3
ENDBRANCH   1   2
BRANCH   1  27
ATOM     27  C   UNL     1       3.476   1.173  -4.432  1.00  0.00     0.188 C 
BRANCH  27  28
ATOM     28  O   UNL     1       4.195   1.304  -5.643  1.00  0.00    -0.376 OA
BRANCH  28  29
ATOM     29  C   UNL     1       3.658   2.348  -6.470  1.00  0.00     0.202 C 
BRANCH  29  30
ATOM     30  C   UNL     1       4.099   3.734  -5.955  1.00  0.00     0.261 C 
BRANCH  30  31
ATOM     31  O   UNL     1       3.384   4.117  -4.755  1.00  0.00    -0.460 OA
BRANCH  31  32
ATOM     32  C   UNL     1       2.061   4.373  -4.941  1.00  0.00     0.338 C 
ATOM     33  O   UNL     1       1.564   4.824  -5.948  1.00  0.00    -0.246 OA
BRANCH  32  34
ATOM     34  C   UNL     1       1.274   3.687  -3.869  1.00  0.00     0.060 A 
ATOM     35  C   UNL     1       1.755   3.492  -2.571  1.00  0.00     0.016 A 
ATOM     36  C   UNL     1       0.069   3.079  -4.258  1.00  0.00     0.016 A 
ATOM     37  C   UNL     1       1.031   2.689  -1.685  1.00  0.00     0.010 A 
ATOM     38  C   UNL     1      -0.664   2.290  -3.365  1.00  0.00     0.010 A 
ATOM     39  C   UNL     1      -0.197   2.101  -2.066  1.00  0.00    -0.014 A 
BRANCH  39  40
ATOM     40  C   UNL     1      -1.064   1.590  -0.983  1.00  0.00     0.031 A 
ATOM     41  C   UNL     1      -1.369   2.634   0.022  1.00  0.00     0.074 A 
ATOM     42  C   UNL     1      -1.685   0.397  -0.834  1.00  0.00     0.049 A 
ATOM     43  N   UNL     1      -1.026   2.657   1.267  1.00  0.00    -0.248 NA
ATOM     44  C   UNL     1      -2.066   3.840  -0.453  1.00  0.00     0.031 C 
ATOM     45  C   UNL     1      -1.771  -0.660  -1.832  1.00  0.00     0.029 A 
ATOM     46  N   UNL     1      -2.381  -0.126   0.245  1.00  0.00    -0.354 N 
ATOM     47  C   UNL     1      -1.673   3.768   1.788  1.00  0.00     0.074 A 
ATOM     48  C   UNL     1      -2.171   4.539   0.676  1.00  0.00     0.031 C 
ATOM     49  C   UNL     1      -2.490  -1.687  -1.342  1.00  0.00     0.029 A 
ATOM     50  C   UNL     1      -2.966  -1.364  -0.004  1.00  0.00     0.049 A 
ATOM     51  H   UNL     1      -2.455   0.337   1.111  1.00  0.00     0.167 HD
ATOM     52  C   UNL     1      -2.056   3.793   3.087  1.00  0.00     0.037 A 
ATOM     53  C   UNL     1      -3.794  -2.126   0.761  1.00  0.00     0.037 A 
ATOM     54  C   UNL     1      -1.339   2.864   3.911  1.00  0.00     0.049 A 
ATOM     55  C   UNL     1      -3.626  -1.784   2.194  1.00  0.00     0.074 A 
ATOM     56  C   UNL     1      -0.100   2.788   4.504  1.00  0.00     0.029 A 
ATOM     57  N   UNL     1      -1.907   1.627   3.996  1.00  0.00    -0.354 N 
ATOM     58  N   UNL     1      -2.597  -2.139   2.913  1.00  0.00    -0.248 NA
ATOM     59  C   UNL     1      -4.532  -0.837   2.840  1.00  0.00     0.031 C 
ATOM     60  C   UNL     1       0.089   1.425   4.882  1.00  0.00     0.029 A 
ATOM     61  C   UNL     1      -1.035   0.700   4.501  1.00  0.00     0.049 A 
ATOM     62  H   UNL     1      -2.832   1.425   3.727  1.00  0.00     0.167 HD
ATOM     63  C   UNL     1      -2.507  -1.169   3.889  1.00  0.00     0.074 A 
ATOM     64  C   UNL     1      -3.804  -0.514   3.912  1.00  0.00     0.031 C 
ATOM     65  C   UNL     1      -1.295  -0.712   4.313  1.00  0.00     0.037 A 
BRANCH  52  66
ATOM     66  C   UNL     1      -3.431   4.260   3.482  1.00  0.00     0.057 A 
ATOM     67  C   UNL     1      -4.563   4.076   2.659  1.00  0.00     0.134 A 
ATOM     68  C   UNL     1      -3.694   4.590   4.817  1.00  0.00     0.134 A 
ATOM     69  F   UNL     1      -4.459   3.613   1.405  1.00  0.00    -0.206 F 
ATOM     70  C   UNL     1      -5.867   4.248   3.120  1.00  0.00     0.040 A 
ATOM     71  C   UNL     1      -5.000   4.712   5.305  1.00  0.00     0.040 A 
ATOM     72  F   UNL     1      -2.691   4.723   5.698  1.00  0.00    -0.206 F 
ATOM     73  C   UNL     1      -6.090   4.545   4.456  1.00  0.00     0.006 A 
ENDBRANCH  52  66
BRANCH  53  74
ATOM     74  C   UNL     1      -4.685  -3.235   0.310  1.00  0.00     0.057 A 
ATOM     75  C   UNL     1      -5.216  -3.280  -0.994  1.00  0.00     0.134 A 
ATOM     76  C   UNL     1      -5.161  -4.228   1.181  1.00  0.00     0.134 A 
ATOM     77  F   UNL     1      -4.974  -2.300  -1.876  1.00  0.00    -0.206 F 
ATOM     78  C   UNL     1      -6.068  -4.295  -1.438  1.00  0.00     0.040 A 
ATOM     79  C   UNL     1      -6.049  -5.232   0.760  1.00  0.00     0.040 A 
ATOM     80  F   UNL     1      -4.816  -4.231   2.476  1.00  0.00    -0.206 F 
ATOM     81  C   UNL     1      -6.488  -5.280  -0.559  1.00  0.00     0.006 A 
ENDBRANCH  53  74
BRANCH  65  82
ATOM     82  C   UNL     1      -0.155  -1.674   4.368  1.00  0.00     0.057 A 
ATOM     83  C   UNL     1       0.447  -1.916   5.611  1.00  0.00     0.134 A 
ATOM     84  C   UNL     1       0.398  -2.318   3.256  1.00  0.00     0.134 A 
ATOM     85  F   UNL     1      -0.015  -1.308   6.716  1.00  0.00    -0.206 F 
ATOM     86  C   UNL     1       1.547  -2.763   5.748  1.00  0.00     0.040 A 
ATOM     87  C   UNL     1       1.484  -3.191   3.383  1.00  0.00     0.040 A 
ATOM     88  F   UNL     1      -0.076  -2.094   2.023  1.00  0.00    -0.206 F 
ATOM     89  C   UNL     1       2.063  -3.413   4.631  1.00  0.00     0.006 A 
ENDBRANCH  65  82
ENDBRANCH  39  40
ENDBRANCH  32  34
ENDBRANCH  31  32
ENDBRANCH  30  31
ENDBRANCH  29  30
ENDBRANCH  28  29
ENDBRANCH  27  28
ENDBRANCH   1  27
TORSDOF 20
