REMARK SMILES CC(C)[C@H](NC(=O)[C@H](C)NC(=O)C[NH3+])C(=O)OCCOCCOCCOC(=O)c1ccc(-c2c3nc(c(-c4c(F)cccc4F)c4ccc([nH]4)c(-c4c(F)cccc4F)c4nc(c(-c5c(F)cccc5F)c5ccc2[nH]5)C=C4)C=C3)cc1
REMARK SMILES IDX 20 1 19 2 18 3 17 4 15 5 16 6 4 7 2 8 1 9 3 10 5 11 6 12
REMARK SMILES IDX 7 14 8 15 9 16 10 17 11 18 12 20 13 21 14 22 21 26 22 27
REMARK SMILES IDX 23 28 24 29 25 30 26 31 27 32 28 33 29 34 30 35 82 36 31 37
REMARK SMILES IDX 81 38 32 39 33 40 34 41 75 42 35 43 80 44 74 45 76 46 36 47
REMARK SMILES IDX 79 48 73 49 72 50 37 52 63 53 46 54 62 55 47 56 50 57 61 58
REMARK SMILES IDX 77 59 48 60 49 61 60 63 78 64 51 65 38 66 39 67 44 68 40 69
REMARK SMILES IDX 41 70 43 71 45 72 42 73 64 74 65 75 70 76 66 77 67 78 69 79
REMARK SMILES IDX 71 80 68 81 52 82 53 83 58 84 54 85 55 86 57 87 59 88 56 89
REMARK H PARENT 5 13 10 19 14 23 14 24 14 25 76 51 50 62
REMARK Flexibility Score: inf
ROOT
ATOM      1  O   UNL     1       3.195   1.501  -6.166  1.00  0.00    -0.376 OA
ENDROOT
BRANCH   1   2
ATOM      2  C   UNL     1       2.921   2.530  -5.233  1.00  0.00     0.202 C 
BRANCH   2   3
ATOM      3  C   UNL     1       1.705   2.219  -4.370  1.00  0.00     0.261 C 
BRANCH   3   4
ATOM      4  O   UNL     1       0.416   2.499  -5.093  1.00  0.00    -0.462 OA
BRANCH   4   5
ATOM      5  C   UNL     1      -0.930   2.431  -5.210  1.00  0.00     0.328 C 
ATOM      6  O   UNL     1      -1.413   3.113  -6.126  1.00  0.00    -0.250 OA
BRANCH   5   7
ATOM      7  C   UNL     1      -1.949   1.607  -4.357  1.00  0.00     0.194 C 
BRANCH   7   8
ATOM      8  C   UNL     1      -3.220   2.332  -3.719  1.00  0.00     0.017 C 
ATOM      9  C   UNL     1      -4.398   1.336  -3.575  1.00  0.00     0.010 C 
ATOM     10  C   UNL     1      -3.096   2.968  -2.328  1.00  0.00     0.010 C 
ENDBRANCH   7   8
BRANCH   7  11
ATOM     11  N   UNL     1      -1.557   0.478  -3.561  1.00  0.00    -0.341 N 
ATOM     12  C   UNL     1      -0.997   0.470  -2.332  1.00  0.00     0.243 C 
ATOM     13  H   UNL     1      -1.717  -0.406  -3.964  1.00  0.00     0.164 HD
ATOM     14  O   UNL     1      -1.141  -0.564  -1.677  1.00  0.00    -0.273 OA
BRANCH  12  15
ATOM     15  C   UNL     1      -0.012   1.601  -1.940  1.00  0.00     0.168 C 
ATOM     16  C   UNL     1       0.817   1.067  -0.770  1.00  0.00     0.041 C 
BRANCH  15  17
ATOM     17  N   UNL     1      -0.265   3.068  -1.730  1.00  0.00    -0.340 N 
ATOM     18  C   UNL     1      -0.119   4.344  -2.180  1.00  0.00     0.275 C 
ATOM     19  H   UNL     1      -0.763   3.136  -0.884  1.00  0.00     0.164 HD
ATOM     20  O   UNL     1      -0.241   5.164  -1.251  1.00  0.00    -0.268 OA
BRANCH  18  21
ATOM     21  C   UNL     1       0.087   4.962  -3.587  1.00  0.00     0.360 C 
BRANCH  21  22
ATOM     22  N   UNL     1       1.453   5.417  -3.875  1.00  0.00    -0.350 N 
ATOM     23  H   UNL     1       1.705   6.166  -3.231  1.00  0.00     0.344 HD
ATOM     24  H   UNL     1       1.502   5.761  -4.834  1.00  0.00     0.344 HD
ATOM     25  H   UNL     1       2.102   4.638  -3.760  1.00  0.00     0.344 HD
ENDBRANCH  21  22
ENDBRANCH  18  21
ENDBRANCH  15  17
ENDBRANCH  12  15
ENDBRANCH   7  11
ENDBRANCH   5   7
ENDBRANCH   4   5
ENDBRANCH   3   4
ENDBRANCH   2   3
ENDBRANCH   1   2
BRANCH   1  26
ATOM     26  C   UNL     1       2.047   1.013  -6.840  1.00  0.00     0.188 C 
BRANCH  26  27
ATOM     27  C   UNL     1       1.308  -0.155  -6.125  1.00  0.00     0.188 C 
BRANCH  27  28
ATOM     28  O   UNL     1       1.953  -0.959  -5.147  1.00  0.00    -0.376 OA
BRANCH  28  29
ATOM     29  C   UNL     1       3.333  -1.253  -5.274  1.00  0.00     0.202 C 
BRANCH  29  30
ATOM     30  C   UNL     1       3.824  -1.956  -6.550  1.00  0.00     0.261 C 
BRANCH  30  31
ATOM     31  O   UNL     1       3.339  -1.393  -7.782  1.00  0.00    -0.460 OA
BRANCH  31  32
ATOM     32  C   UNL     1       2.300  -2.037  -8.374  1.00  0.00     0.338 C 
ATOM     33  O   UNL     1       1.824  -3.112  -8.043  1.00  0.00    -0.246 OA
BRANCH  32  34
ATOM     34  C   UNL     1       1.622  -1.116  -9.330  1.00  0.00     0.060 A 
ATOM     35  C   UNL     1       0.223  -0.989  -9.247  1.00  0.00     0.016 A 
ATOM     36  C   UNL     1       2.338  -0.319 -10.229  1.00  0.00     0.016 A 
ATOM     37  C   UNL     1      -0.467  -0.119 -10.090  1.00  0.00     0.010 A 
ATOM     38  C   UNL     1       1.644   0.523 -11.108  1.00  0.00     0.010 A 
ATOM     39  C   UNL     1       0.236   0.571 -11.084  1.00  0.00    -0.014 A 
BRANCH  39  40
ATOM     40  C   UNL     1      -0.499   0.942 -12.319  1.00  0.00     0.031 A 
ATOM     41  C   UNL     1      -0.553  -0.111 -13.400  1.00  0.00     0.074 A 
ATOM     42  C   UNL     1      -1.141   2.112 -12.480  1.00  0.00     0.049 A 
ATOM     43  N   UNL     1      -1.073  -0.060 -14.598  1.00  0.00    -0.248 NA
ATOM     44  C   UNL     1       0.078  -1.404 -13.077  1.00  0.00     0.031 C 
ATOM     45  C   UNL     1      -1.231   3.184 -11.492  1.00  0.00     0.029 A 
ATOM     46  N   UNL     1      -1.844   2.587 -13.560  1.00  0.00    -0.354 N 
ATOM     47  C   UNL     1      -0.819  -1.304 -15.166  1.00  0.00     0.074 A 
ATOM     48  C   UNL     1      -0.070  -2.075 -14.204  1.00  0.00     0.031 C 
ATOM     49  C   UNL     1      -1.936   4.202 -12.021  1.00  0.00     0.029 A 
ATOM     50  C   UNL     1      -2.324   3.862 -13.391  1.00  0.00     0.049 A 
ATOM     51  H   UNL     1      -1.991   2.061 -14.380  1.00  0.00     0.167 HD
ATOM     52  C   UNL     1      -1.185  -1.775 -16.379  1.00  0.00     0.037 A 
ATOM     53  C   UNL     1      -2.981   4.661 -14.255  1.00  0.00     0.037 A 
ATOM     54  C   UNL     1      -1.927  -1.012 -17.341  1.00  0.00     0.049 A 
ATOM     55  C   UNL     1      -3.309   4.146 -15.637  1.00  0.00     0.074 A 
ATOM     56  C   UNL     1      -2.340  -1.388 -18.605  1.00  0.00     0.029 A 
ATOM     57  N   UNL     1      -2.361   0.289 -17.142  1.00  0.00    -0.354 N 
ATOM     58  N   UNL     1      -3.067   2.970 -16.166  1.00  0.00    -0.248 NA
ATOM     59  C   UNL     1      -4.009   5.072 -16.540  1.00  0.00     0.031 C 
ATOM     60  C   UNL     1      -2.987  -0.295 -19.191  1.00  0.00     0.029 A 
ATOM     61  C   UNL     1      -3.026   0.739 -18.268  1.00  0.00     0.049 A 
ATOM     62  H   UNL     1      -2.218   0.814 -16.321  1.00  0.00     0.167 HD
ATOM     63  C   UNL     1      -3.614   3.004 -17.445  1.00  0.00     0.074 A 
ATOM     64  C   UNL     1      -4.213   4.312 -17.606  1.00  0.00     0.031 C 
ATOM     65  C   UNL     1      -3.625   2.042 -18.401  1.00  0.00     0.037 A 
BRANCH  52  66
ATOM     66  C   UNL     1      -0.748  -3.166 -16.730  1.00  0.00     0.057 A 
ATOM     67  C   UNL     1      -1.295  -4.296 -16.107  1.00  0.00     0.134 A 
ATOM     68  C   UNL     1       0.249  -3.375 -17.691  1.00  0.00     0.134 A 
ATOM     69  F   UNL     1      -2.230  -4.163 -15.154  1.00  0.00    -0.206 F 
ATOM     70  C   UNL     1      -0.847  -5.583 -16.410  1.00  0.00     0.040 A 
ATOM     71  C   UNL     1       0.682  -4.658 -18.024  1.00  0.00     0.040 A 
ATOM     72  F   UNL     1       0.821  -2.335 -18.317  1.00  0.00    -0.206 F 
ATOM     73  C   UNL     1       0.139  -5.767 -17.377  1.00  0.00     0.006 A 
ENDBRANCH  52  66
BRANCH  53  74
ATOM     74  C   UNL     1      -3.368   6.043 -13.863  1.00  0.00     0.057 A 
ATOM     75  C   UNL     1      -4.712   6.411 -13.723  1.00  0.00     0.134 A 
ATOM     76  C   UNL     1      -2.406   7.043 -13.674  1.00  0.00     0.134 A 
ATOM     77  F   UNL     1      -5.683   5.508 -13.923  1.00  0.00    -0.206 F 
ATOM     78  C   UNL     1      -5.086   7.725 -13.432  1.00  0.00     0.040 A 
ATOM     79  C   UNL     1      -2.764   8.354 -13.356  1.00  0.00     0.040 A 
ATOM     80  F   UNL     1      -1.101   6.760 -13.801  1.00  0.00    -0.206 F 
ATOM     81  C   UNL     1      -4.109   8.701 -13.244  1.00  0.00     0.006 A 
ENDBRANCH  53  74
BRANCH  65  82
ATOM     82  C   UNL     1      -4.348   2.348 -19.682  1.00  0.00     0.057 A 
ATOM     83  C   UNL     1      -3.853   3.267 -20.616  1.00  0.00     0.134 A 
ATOM     84  C   UNL     1      -5.541   1.684 -19.999  1.00  0.00     0.134 A 
ATOM     85  F   UNL     1      -2.719   3.941 -20.371  1.00  0.00    -0.206 F 
ATOM     86  C   UNL     1      -4.537   3.541 -21.802  1.00  0.00     0.040 A 
ATOM     87  C   UNL     1      -6.216   1.926 -21.195  1.00  0.00     0.040 A 
ATOM     88  F   UNL     1      -6.061   0.778 -19.158  1.00  0.00    -0.206 F 
ATOM     89  C   UNL     1      -5.719   2.865 -22.096  1.00  0.00     0.006 A 
ENDBRANCH  65  82
ENDBRANCH  39  40
ENDBRANCH  32  34
ENDBRANCH  31  32
ENDBRANCH  30  31
ENDBRANCH  29  30
ENDBRANCH  28  29
ENDBRANCH  27  28
ENDBRANCH  26  27
ENDBRANCH   1  26
TORSDOF 23
