REMARK SMILES CCC1(C(=O)N[C@H]2C=C[C@H](C(=O)OCCOCCOCCOC(=O)c3ccc(-c4c5nc(c(-c6c(F)cccc6F)c6ccc([nH]6)c(-c6c(F)cccc6F)c6nc(c(-c7c(F)cccc7F)c7ccc4[nH]7)C=C6)C=C5)cc3)C2)CC[NH2+]CC1
REMARK SMILES IDX 17 1 16 2 15 3 14 4 13 5 11 6 12 7 10 8 7 9 8 10 79 11 9 12
REMARK SMILES IDX 6 13 4 14 5 15 3 17 80 18 84 19 81 20 83 21 82 22 2 25 1 26
REMARK SMILES IDX 18 27 19 28 20 29 21 30 22 31 23 32 24 33 25 34 26 35 78 36
REMARK SMILES IDX 27 37 77 38 28 39 29 40 30 41 71 42 31 43 76 44 70 45 72 46
REMARK SMILES IDX 32 47 75 48 69 49 68 50 33 52 59 53 42 54 58 55 43 56 46 57
REMARK SMILES IDX 57 58 73 59 44 60 45 61 56 63 74 64 47 65 34 66 35 67 40 68
REMARK SMILES IDX 36 69 37 70 39 71 41 72 38 73 60 74 61 75 66 76 62 77 63 78
REMARK SMILES IDX 65 79 67 80 64 81 48 82 49 83 54 84 50 85 51 86 53 87 55 88
REMARK SMILES IDX 52 89
REMARK H PARENT 6 16 82 23 82 24 72 51 46 62
REMARK Flexibility Score: inf
ROOT
ATOM      1  C   UNL     1       0.403   8.596   2.321  1.00  0.00     0.188 C 
ENDROOT
BRANCH   1   2
ATOM      2  O   UNL     1       1.026   9.208   3.440  1.00  0.00    -0.376 OA
BRANCH   2   3
ATOM      3  C   UNL     1       2.385   9.636   3.321  1.00  0.00     0.202 C 
BRANCH   3   4
ATOM      4  C   UNL     1       3.384   8.792   2.517  1.00  0.00     0.261 C 
BRANCH   4   5
ATOM      5  O   UNL     1       2.963   8.633   1.154  1.00  0.00    -0.463 OA
BRANCH   5   6
ATOM      6  C   UNL     1       3.354   7.478   0.550  1.00  0.00     0.312 C 
ATOM      7  O   UNL     1       4.209   6.718   0.988  1.00  0.00    -0.252 OA
BRANCH   6   8
ATOM      8  C   UNL     1       2.469   7.190  -0.662  1.00  0.00     0.124 C 
ATOM      9  C   UNL     1       2.503   4.771  -0.953  1.00  0.00     0.106 C 
ATOM     10  C   UNL     1       3.242   5.476  -2.057  1.00  0.00    -0.006 C 
ATOM     11  C   UNL     1       1.645   5.918  -0.404  1.00  0.00     0.048 C 
ATOM     12  C   UNL     1       3.244   6.803  -1.880  1.00  0.00    -0.014 C 
BRANCH   9  13
ATOM     13  N   UNL     1       1.776   3.649  -1.514  1.00  0.00    -0.349 N 
ATOM     14  C   UNL     1       1.142   2.558  -1.004  1.00  0.00     0.227 C 
ATOM     15  O   UNL     1       0.784   1.737  -1.858  1.00  0.00    -0.274 OA
ATOM     16  H   UNL     1       1.730   3.684  -2.497  1.00  0.00     0.164 HD
BRANCH  14  17
ATOM     17  C   UNL     1       0.752   2.361   0.487  1.00  0.00     0.060 C 
ATOM     18  C   UNL     1       1.933   2.538   1.472  1.00  0.00     0.078 C 
ATOM     19  C   UNL     1      -0.392   3.379   0.766  1.00  0.00     0.078 C 
ATOM     20  C   UNL     1       1.508   2.858   2.903  1.00  0.00     0.261 C 
ATOM     21  C   UNL     1      -0.622   3.710   2.234  1.00  0.00     0.261 C 
ATOM     22  N   UNL     1       0.628   4.023   2.917  1.00  0.00    -0.346 N 
ATOM     23  H   UNL     1       1.087   4.800   2.441  1.00  0.00     0.346 HD
ATOM     24  H   UNL     1       0.427   4.281   3.883  1.00  0.00     0.346 HD
BRANCH  17  25
ATOM     25  C   UNL     1       0.136   0.927   0.704  1.00  0.00     0.014 C 
ATOM     26  C   UNL     1       0.987  -0.270   0.278  1.00  0.00     0.005 C 
ENDBRANCH  17  25
ENDBRANCH  14  17
ENDBRANCH   9  13
ENDBRANCH   6   8
ENDBRANCH   5   6
ENDBRANCH   4   5
ENDBRANCH   3   4
ENDBRANCH   2   3
ENDBRANCH   1   2
BRANCH   1  27
ATOM     27  C   UNL     1       0.085   9.453   1.081  1.00  0.00     0.188 C 
BRANCH  27  28
ATOM     28  O   UNL     1       0.878  10.589   0.838  1.00  0.00    -0.376 OA
BRANCH  28  29
ATOM     29  C   UNL     1       0.563  11.841   1.432  1.00  0.00     0.202 C 
BRANCH  29  30
ATOM     30  C   UNL     1      -0.673  12.167   2.300  1.00  0.00     0.261 C 
BRANCH  30  31
ATOM     31  O   UNL     1      -1.510  11.089   2.722  1.00  0.00    -0.460 OA
BRANCH  31  32
ATOM     32  C   UNL     1      -2.681  10.978   2.053  1.00  0.00     0.338 C 
ATOM     33  O   UNL     1      -3.092  11.690   1.146  1.00  0.00    -0.246 OA
BRANCH  32  34
ATOM     34  C   UNL     1      -3.337   9.719   2.438  1.00  0.00     0.060 A 
ATOM     35  C   UNL     1      -3.463   8.715   1.468  1.00  0.00     0.016 A 
ATOM     36  C   UNL     1      -3.892   9.560   3.708  1.00  0.00     0.016 A 
ATOM     37  C   UNL     1      -4.181   7.558   1.752  1.00  0.00     0.010 A 
ATOM     38  C   UNL     1      -4.634   8.410   3.984  1.00  0.00     0.010 A 
ATOM     39  C   UNL     1      -4.814   7.426   2.994  1.00  0.00    -0.014 A 
BRANCH  39  40
ATOM     40  C   UNL     1      -5.835   6.369   3.169  1.00  0.00     0.031 A 
ATOM     41  C   UNL     1      -7.278   6.726   2.952  1.00  0.00     0.074 A 
ATOM     42  C   UNL     1      -5.490   5.111   3.489  1.00  0.00     0.049 A 
ATOM     43  N   UNL     1      -8.347   5.981   3.072  1.00  0.00    -0.248 NA
ATOM     44  C   UNL     1      -7.551   8.116   2.554  1.00  0.00     0.031 C 
ATOM     45  C   UNL     1      -4.125   4.640   3.704  1.00  0.00     0.029 A 
ATOM     46  N   UNL     1      -6.271   4.004   3.700  1.00  0.00    -0.354 N 
ATOM     47  C   UNL     1      -9.418   6.815   2.780  1.00  0.00     0.074 A 
ATOM     48  C   UNL     1      -8.874   8.127   2.504  1.00  0.00     0.031 C 
ATOM     49  C   UNL     1      -4.164   3.338   4.037  1.00  0.00     0.029 A 
ATOM     50  C   UNL     1      -5.558   2.897   4.085  1.00  0.00     0.049 A 
ATOM     51  H   UNL     1      -7.249   4.003   3.588  1.00  0.00     0.167 HD
ATOM     52  C   UNL     1     -10.738   6.514   2.742  1.00  0.00     0.037 A 
ATOM     53  C   UNL     1      -5.985   1.675   4.458  1.00  0.00     0.037 A 
ATOM     54  C   UNL     1     -11.277   5.209   3.018  1.00  0.00     0.049 A 
ATOM     55  C   UNL     1      -7.459   1.369   4.446  1.00  0.00     0.074 A 
ATOM     56  C   UNL     1     -12.595   4.792   2.969  1.00  0.00     0.029 A 
ATOM     57  N   UNL     1     -10.524   4.112   3.410  1.00  0.00    -0.354 N 
ATOM     58  N   UNL     1      -8.463   2.151   4.129  1.00  0.00    -0.248 NA
ATOM     59  C   UNL     1      -7.857   0.010   4.836  1.00  0.00     0.031 C 
ATOM     60  C   UNL     1     -12.646   3.457   3.385  1.00  0.00     0.029 A 
ATOM     61  C   UNL     1     -11.352   3.026   3.636  1.00  0.00     0.049 A 
ATOM     62  H   UNL     1      -9.544   4.106   3.512  1.00  0.00     0.167 HD
ATOM     63  C   UNL     1      -9.609   1.374   4.259  1.00  0.00     0.074 A 
ATOM     64  C   UNL     1      -9.172   0.056   4.672  1.00  0.00     0.031 C 
ATOM     65  C   UNL     1     -10.904   1.720   4.053  1.00  0.00     0.037 A 
BRANCH  52  66
ATOM     66  C   UNL     1     -11.685   7.637   2.432  1.00  0.00     0.057 A 
ATOM     67  C   UNL     1     -11.761   8.219   1.159  1.00  0.00     0.134 A 
ATOM     68  C   UNL     1     -12.525   8.149   3.428  1.00  0.00     0.134 A 
ATOM     69  F   UNL     1     -10.970   7.787   0.166  1.00  0.00    -0.206 F 
ATOM     70  C   UNL     1     -12.613   9.293   0.899  1.00  0.00     0.040 A 
ATOM     71  C   UNL     1     -13.402   9.204   3.171  1.00  0.00     0.040 A 
ATOM     72  F   UNL     1     -12.505   7.638   4.668  1.00  0.00    -0.206 F 
ATOM     73  C   UNL     1     -13.440   9.786   1.906  1.00  0.00     0.006 A 
ENDBRANCH  52  66
BRANCH  53  74
ATOM     74  C   UNL     1      -4.997   0.656   4.891  1.00  0.00     0.057 A 
ATOM     75  C   UNL     1      -4.710  -0.463   4.103  1.00  0.00     0.134 A 
ATOM     76  C   UNL     1      -4.307   0.788   6.103  1.00  0.00     0.134 A 
ATOM     77  F   UNL     1      -5.355  -0.654   2.943  1.00  0.00    -0.206 F 
ATOM     78  C   UNL     1      -3.778  -1.420   4.507  1.00  0.00     0.040 A 
ATOM     79  C   UNL     1      -3.355  -0.149   6.508  1.00  0.00     0.040 A 
ATOM     80  F   UNL     1      -4.535   1.842   6.901  1.00  0.00    -0.206 F 
ATOM     81  C   UNL     1      -3.092  -1.260   5.710  1.00  0.00     0.006 A 
ENDBRANCH  53  74
BRANCH  65  82
ATOM     82  C   UNL     1     -11.942   0.650   4.242  1.00  0.00     0.057 A 
ATOM     83  C   UNL     1     -12.290   0.169   5.510  1.00  0.00     0.134 A 
ATOM     84  C   UNL     1     -12.631   0.124   3.141  1.00  0.00     0.134 A 
ATOM     85  F   UNL     1     -11.661   0.622   6.606  1.00  0.00    -0.206 F 
ATOM     86  C   UNL     1     -13.267  -0.815   5.675  1.00  0.00     0.040 A 
ATOM     87  C   UNL     1     -13.629  -0.839   3.295  1.00  0.00     0.040 A 
ATOM     88  F   UNL     1     -12.356   0.549   1.898  1.00  0.00    -0.206 F 
ATOM     89  C   UNL     1     -13.945  -1.317   4.565  1.00  0.00     0.006 A 
ENDBRANCH  65  82
ENDBRANCH  39  40
ENDBRANCH  32  34
ENDBRANCH  31  32
ENDBRANCH  30  31
ENDBRANCH  29  30
ENDBRANCH  28  29
ENDBRANCH  27  28
ENDBRANCH   1  27
TORSDOF 20
