REMARK SMILES Cc1cnn(-c2ccccc2OCC(=O)OCCOCCOCCOC(=O)c2ccc(-c3c4nc(c(-c5c(F)cccc5F)c5ccc([nH]5)c(-c5c(F)cccc5F)c5nc(c(-c6c(F)cccc6F)c6ccc3[nH]6)C=C5)C=C4)cc2)c1
REMARK SMILES IDX 20 1 19 2 18 3 17 4 16 5 14 6 15 7 13 8 12 9 11 10 6 11 7 12
REMARK SMILES IDX 8 13 10 14 9 15 5 16 1 17 2 18 3 19 82 20 4 21 21 22 22 23
REMARK SMILES IDX 23 24 24 25 25 26 26 27 27 28 28 29 29 30 81 31 30 32 80 33
REMARK SMILES IDX 31 34 32 35 33 36 74 37 34 38 79 39 73 40 75 41 35 42 78 43
REMARK SMILES IDX 72 44 71 45 36 47 62 48 45 49 61 50 46 51 49 52 60 53 76 54
REMARK SMILES IDX 47 55 48 56 59 58 77 59 50 60 37 61 38 62 43 63 39 64 40 65
REMARK SMILES IDX 42 66 44 67 41 68 63 69 64 70 69 71 65 72 66 73 68 74 70 75
REMARK SMILES IDX 67 76 51 77 52 78 57 79 53 80 54 81 56 82 58 83 55 84
REMARK H PARENT 75 46 49 57
REMARK Flexibility Score: inf
ROOT
ATOM      1  C   UNL     1       2.371   3.307   1.409  1.00  0.00     0.188 C 
ENDROOT
BRANCH   1   2
ATOM      2  O   UNL     1       3.354   2.523   0.738  1.00  0.00    -0.376 OA
BRANCH   2   3
ATOM      3  C   UNL     1       3.677   2.866  -0.602  1.00  0.00     0.202 C 
BRANCH   3   4
ATOM      4  C   UNL     1       2.532   2.923  -1.625  1.00  0.00     0.261 C 
BRANCH   4   5
ATOM      5  O   UNL     1       1.364   3.655  -1.202  1.00  0.00    -0.461 OA
BRANCH   5   6
ATOM      6  C   UNL     1       0.174   2.995  -1.238  1.00  0.00     0.344 C 
ATOM      7  O   UNL     1       0.023   1.857  -1.669  1.00  0.00    -0.248 OA
BRANCH   6   8
ATOM      8  C   UNL     1      -1.004   3.871  -0.780  1.00  0.00     0.352 C 
BRANCH   8   9
ATOM      9  O   UNL     1      -0.916   4.788   0.273  1.00  0.00    -0.480 OA
BRANCH   9  10
ATOM     10  C   UNL     1      -1.074   4.723   1.618  1.00  0.00     0.145 A 
ATOM     11  C   UNL     1      -1.040   3.723   2.605  1.00  0.00     0.107 A 
ATOM     12  C   UNL     1      -1.004   4.130   3.975  1.00  0.00     0.032 A 
ATOM     13  C   UNL     1      -0.988   5.465   4.374  1.00  0.00     0.003 A 
ATOM     14  C   UNL     1      -1.103   6.073   2.070  1.00  0.00     0.049 A 
ATOM     15  C   UNL     1      -1.040   6.447   3.412  1.00  0.00     0.004 A 
BRANCH  11  16
ATOM     16  N   UNL     1      -0.893   2.312   2.428  1.00  0.00    -0.237 N 
ATOM     17  C   UNL     1       0.107  -0.643   0.539  1.00  0.00     0.048 C 
ATOM     18  C   UNL     1      -0.295   0.385   1.522  1.00  0.00    -0.013 A 
ATOM     19  C   UNL     1       0.026   0.438   2.885  1.00  0.00     0.139 A 
ATOM     20  C   UNL     1      -1.071   1.510   1.331  1.00  0.00     0.118 A 
ATOM     21  N   UNL     1      -0.414   1.554   3.462  1.00  0.00    -0.176 NA
ENDBRANCH  11  16
ENDBRANCH   9  10
ENDBRANCH   8   9
ENDBRANCH   6   8
ENDBRANCH   5   6
ENDBRANCH   4   5
ENDBRANCH   3   4
ENDBRANCH   2   3
ENDBRANCH   1   2
BRANCH   1  22
ATOM     22  C   UNL     1       2.344   4.840   1.207  1.00  0.00     0.188 C 
BRANCH  22  23
ATOM     23  O   UNL     1       3.506   5.341   0.567  1.00  0.00    -0.376 OA
BRANCH  23  24
ATOM     24  C   UNL     1       4.246   6.335   1.246  1.00  0.00     0.202 C 
BRANCH  24  25
ATOM     25  C   UNL     1       5.040   5.856   2.454  1.00  0.00     0.261 C 
BRANCH  25  26
ATOM     26  O   UNL     1       4.463   4.750   3.132  1.00  0.00    -0.460 OA
BRANCH  26  27
ATOM     27  C   UNL     1       3.505   5.078   4.021  1.00  0.00     0.338 C 
ATOM     28  O   UNL     1       2.951   6.156   4.134  1.00  0.00    -0.246 OA
BRANCH  27  29
ATOM     29  C   UNL     1       3.366   3.971   4.984  1.00  0.00     0.060 A 
ATOM     30  C   UNL     1       2.384   4.191   5.947  1.00  0.00     0.016 A 
ATOM     31  C   UNL     1       4.537   3.248   5.255  1.00  0.00     0.016 A 
ATOM     32  C   UNL     1       2.757   4.064   7.260  1.00  0.00     0.010 A 
ATOM     33  C   UNL     1       4.919   3.141   6.567  1.00  0.00     0.010 A 
ATOM     34  C   UNL     1       4.069   3.669   7.537  1.00  0.00    -0.014 A 
BRANCH  34  35
ATOM     35  C   UNL     1       4.512   3.797   8.907  1.00  0.00     0.031 A 
ATOM     36  C   UNL     1       3.895   2.808   9.815  1.00  0.00     0.074 A 
ATOM     37  C   UNL     1       5.474   4.672   9.253  1.00  0.00     0.049 A 
ATOM     38  N   UNL     1       3.292   3.006  10.938  1.00  0.00    -0.248 NA
ATOM     39  C   UNL     1       3.844   1.416   9.332  1.00  0.00     0.031 C 
ATOM     40  C   UNL     1       6.318   5.481   8.366  1.00  0.00     0.029 A 
ATOM     41  N   UNL     1       6.001   4.911  10.483  1.00  0.00    -0.354 N 
ATOM     42  C   UNL     1       2.941   1.739  11.392  1.00  0.00     0.074 A 
ATOM     43  C   UNL     1       3.159   0.825  10.305  1.00  0.00     0.031 C 
ATOM     44  C   UNL     1       7.396   5.909   9.060  1.00  0.00     0.029 A 
ATOM     45  C   UNL     1       7.261   5.485  10.444  1.00  0.00     0.049 A 
ATOM     46  H   UNL     1       5.532   4.696  11.321  1.00  0.00     0.167 HD
ATOM     47  C   UNL     1       2.739   1.491  12.710  1.00  0.00     0.037 A 
ATOM     48  C   UNL     1       8.169   5.488  11.451  1.00  0.00     0.037 A 
ATOM     49  C   UNL     1       2.354   2.681  13.420  1.00  0.00     0.049 A 
ATOM     50  C   UNL     1       7.457   5.144  12.710  1.00  0.00     0.074 A 
ATOM     51  C   UNL     1       1.317   3.587  13.295  1.00  0.00     0.029 A 
ATOM     52  N   UNL     1       3.272   3.283  14.244  1.00  0.00    -0.354 N 
ATOM     53  N   UNL     1       6.617   5.928  13.324  1.00  0.00    -0.248 NA
ATOM     54  C   UNL     1       7.369   3.736  13.072  1.00  0.00     0.031 C 
ATOM     55  C   UNL     1       1.871   4.847  13.659  1.00  0.00     0.029 A 
ATOM     56  C   UNL     1       3.206   4.630  14.001  1.00  0.00     0.049 A 
ATOM     57  H   UNL     1       3.866   2.833  14.887  1.00  0.00     0.167 HD
ATOM     58  C   UNL     1       5.639   5.080  13.826  1.00  0.00     0.074 A 
ATOM     59  C   UNL     1       6.209   3.741  13.732  1.00  0.00     0.031 C 
ATOM     60  C   UNL     1       4.354   5.505  14.005  1.00  0.00     0.037 A 
BRANCH  47  61
ATOM     61  C   UNL     1       3.278   0.256  13.387  1.00  0.00     0.057 A 
ATOM     62  C   UNL     1       2.958   0.025  14.735  1.00  0.00     0.134 A 
ATOM     63  C   UNL     1       4.323  -0.546  12.875  1.00  0.00     0.134 A 
ATOM     64  F   UNL     1       1.988   0.726  15.341  1.00  0.00    -0.206 F 
ATOM     65  C   UNL     1       3.683  -0.866  15.534  1.00  0.00     0.040 A 
ATOM     66  C   UNL     1       5.016  -1.477  13.650  1.00  0.00     0.040 A 
ATOM     67  F   UNL     1       4.802  -0.410  11.632  1.00  0.00    -0.206 F 
ATOM     68  C   UNL     1       4.724  -1.612  14.995  1.00  0.00     0.006 A 
ENDBRANCH  47  61
BRANCH  48  69
ATOM     69  C   UNL     1       9.646   5.464  11.343  1.00  0.00     0.057 A 
ATOM     70  C   UNL     1      10.456   5.799  12.435  1.00  0.00     0.134 A 
ATOM     71  C   UNL     1      10.307   4.893  10.240  1.00  0.00     0.134 A 
ATOM     72  F   UNL     1       9.915   6.299  13.556  1.00  0.00    -0.206 F 
ATOM     73  C   UNL     1      11.839   5.579  12.432  1.00  0.00     0.040 A 
ATOM     74  C   UNL     1      11.689   4.684  10.216  1.00  0.00     0.040 A 
ATOM     75  F   UNL     1       9.628   4.437   9.178  1.00  0.00    -0.206 F 
ATOM     76  C   UNL     1      12.460   5.018  11.320  1.00  0.00     0.006 A 
ENDBRANCH  48  69
BRANCH  60  77
ATOM     77  C   UNL     1       4.082   6.978  13.906  1.00  0.00     0.057 A 
ATOM     78  C   UNL     1       4.266   7.721  12.731  1.00  0.00     0.134 A 
ATOM     79  C   UNL     1       3.477   7.633  14.984  1.00  0.00     0.134 A 
ATOM     80  F   UNL     1       4.735   7.148  11.615  1.00  0.00    -0.206 F 
ATOM     81  C   UNL     1       3.913   9.071  12.651  1.00  0.00     0.040 A 
ATOM     82  C   UNL     1       3.088   8.972  14.906  1.00  0.00     0.040 A 
ATOM     83  F   UNL     1       3.210   6.966  16.118  1.00  0.00    -0.206 F 
ATOM     84  C   UNL     1       3.317   9.699  13.741  1.00  0.00     0.006 A 
ENDBRANCH  60  77
ENDBRANCH  34  35
ENDBRANCH  27  29
ENDBRANCH  26  27
ENDBRANCH  25  26
ENDBRANCH  24  25
ENDBRANCH  23  24
ENDBRANCH  22  23
ENDBRANCH   1  22
TORSDOF 20
