REMARK SMILES C[NH2+][C@]1(C(=O)OCCOCCOCCOC(=O)c2ccc(-c3c4nc(c(-c5c(F)cccc5F)c5ccc([nH]5)c(-c5c(F)cccc5F)c5nc(c(-c6c(F)cccc6F)c6ccc3[nH]6)C=C5)C=C4)cc2)CCC[C@H]([N@H+]2CCC[C@@H]2C2CCCC2)C1
REMARK SMILES IDX 10 1 9 2 8 3 7 4 6 5 4 6 5 7 3 8 72 9 86 10 73 11 75 12
REMARK SMILES IDX 74 13 2 14 1 15 76 18 77 19 80 20 78 22 79 23 81 24 82 25
REMARK SMILES IDX 85 26 83 27 84 28 11 29 12 30 13 31 14 32 15 33 16 34 17 35
REMARK SMILES IDX 18 36 19 37 71 38 20 39 70 40 21 41 22 42 23 43 64 44 24 45
REMARK SMILES IDX 69 46 63 47 65 48 25 49 68 50 62 51 61 52 26 54 52 55 35 56
REMARK SMILES IDX 51 57 36 58 39 59 50 60 66 61 37 62 38 63 49 65 67 66 40 67
REMARK SMILES IDX 27 68 28 69 33 70 29 71 30 72 32 73 34 74 31 75 53 76 54 77
REMARK SMILES IDX 59 78 55 79 56 80 58 81 60 82 57 83 41 84 42 85 47 86 43 87
REMARK SMILES IDX 44 88 46 89 48 90 45 91
REMARK H PARENT 2 16 2 17 76 21 65 53 39 64
REMARK Flexibility Score: inf
ROOT
ATOM      1  C   UNL     1       2.699  -2.130  -1.849  1.00  0.00     0.188 C 
ENDROOT
BRANCH   1   2
ATOM      2  O   UNL     1       3.873  -1.559  -1.282  1.00  0.00    -0.376 OA
BRANCH   2   3
ATOM      3  C   UNL     1       3.785  -1.168   0.086  1.00  0.00     0.202 C 
BRANCH   3   4
ATOM      4  C   UNL     1       2.813  -0.013   0.382  1.00  0.00     0.261 C 
BRANCH   4   5
ATOM      5  O   UNL     1       1.448  -0.417   0.159  1.00  0.00    -0.459 OA
BRANCH   5   6
ATOM      6  C   UNL     1       0.492   0.536  -0.096  1.00  0.00     0.368 C 
ATOM      7  O   UNL     1       0.729   1.719  -0.296  1.00  0.00    -0.245 OA
BRANCH   6   8
ATOM      8  C   UNL     1      -0.936  -0.132  -0.121  1.00  0.00     0.199 C 
ATOM      9  C   UNL     1      -0.908  -1.179   1.059  1.00  0.00     0.081 C 
ATOM     10  C   UNL     1      -2.083   0.859   0.157  1.00  0.00     0.146 C 
ATOM     11  C   UNL     1      -2.111  -1.393   1.991  1.00  0.00     0.013 C 
ATOM     12  C   UNL     1      -3.428   0.214   0.620  1.00  0.00     0.191 C 
ATOM     13  C   UNL     1      -3.140  -0.289   2.031  1.00  0.00     0.065 C 
BRANCH   8  14
ATOM     14  N   UNL     1      -1.295  -0.437  -1.525  1.00  0.00    -0.334 N 
ATOM     15  C   UNL     1      -0.599  -1.379  -2.341  1.00  0.00     0.331 C 
ATOM     16  H   UNL     1      -2.264  -0.755  -1.499  1.00  0.00     0.347 HD
ATOM     17  H   UNL     1      -1.044   0.439  -1.983  1.00  0.00     0.347 HD
ENDBRANCH   8  14
BRANCH  12  18
ATOM     18  N   UNL     1      -4.319  -0.796  -0.021  1.00  0.00    -0.330 N 
ATOM     19  C   UNL     1      -5.577  -0.167  -0.459  1.00  0.00     0.262 C 
ATOM     20  C   UNL     1      -4.018  -1.805  -1.071  1.00  0.00     0.187 C 
ATOM     21  H   UNL     1      -4.242  -1.403   0.795  1.00  0.00     0.348 HD
ATOM     22  C   UNL     1      -6.409  -1.367  -0.832  1.00  0.00     0.067 C 
ATOM     23  C   UNL     1      -5.422  -2.262  -1.547  1.00  0.00     0.071 C 
BRANCH  20  24
ATOM     24  C   UNL     1      -3.141  -3.061  -0.804  1.00  0.00     0.047 C 
ATOM     25  C   UNL     1      -3.562  -4.150   0.195  1.00  0.00     0.010 C 
ATOM     26  C   UNL     1      -2.914  -3.960  -2.039  1.00  0.00     0.010 C 
ATOM     27  C   UNL     1      -2.444  -5.184   0.010  1.00  0.00     0.001 C 
ATOM     28  C   UNL     1      -2.146  -5.168  -1.490  1.00  0.00     0.001 C 
ENDBRANCH  20  24
ENDBRANCH  12  18
ENDBRANCH   6   8
ENDBRANCH   5   6
ENDBRANCH   4   5
ENDBRANCH   3   4
ENDBRANCH   2   3
ENDBRANCH   1   2
BRANCH   1  29
ATOM     29  C   UNL     1       1.996  -3.235  -1.046  1.00  0.00     0.188 C 
BRANCH  29  30
ATOM     30  O   UNL     1       2.919  -4.143  -0.455  1.00  0.00    -0.376 OA
BRANCH  30  31
ATOM     31  C   UNL     1       2.781  -5.487  -0.904  1.00  0.00     0.202 C 
BRANCH  31  32
ATOM     32  C   UNL     1       3.559  -5.715  -2.203  1.00  0.00     0.261 C 
BRANCH  32  33
ATOM     33  O   UNL     1       3.002  -5.035  -3.343  1.00  0.00    -0.460 OA
BRANCH  33  34
ATOM     34  C   UNL     1       1.830  -5.514  -3.804  1.00  0.00     0.338 C 
ATOM     35  O   UNL     1       1.185  -6.454  -3.345  1.00  0.00    -0.246 OA
BRANCH  34  36
ATOM     36  C   UNL     1       1.342  -4.637  -4.878  1.00  0.00     0.060 A 
ATOM     37  C   UNL     1       0.104  -4.015  -4.715  1.00  0.00     0.016 A 
ATOM     38  C   UNL     1       2.062  -4.470  -6.060  1.00  0.00     0.016 A 
ATOM     39  C   UNL     1      -0.438  -3.236  -5.740  1.00  0.00     0.010 A 
ATOM     40  C   UNL     1       1.519  -3.702  -7.096  1.00  0.00     0.010 A 
ATOM     41  C   UNL     1       0.256  -3.098  -6.950  1.00  0.00    -0.014 A 
BRANCH  41  42
ATOM     42  C   UNL     1      -0.397  -2.448  -8.114  1.00  0.00     0.031 A 
ATOM     43  C   UNL     1      -1.010  -3.313  -9.181  1.00  0.00     0.074 A 
ATOM     44  C   UNL     1      -0.465  -1.109  -8.222  1.00  0.00     0.049 A 
ATOM     45  N   UNL     1      -1.523  -2.972 -10.335  1.00  0.00    -0.248 NA
ATOM     46  C   UNL     1      -1.050  -4.757  -8.905  1.00  0.00     0.031 C 
ATOM     47  C   UNL     1       0.023  -0.153  -7.232  1.00  0.00     0.029 A 
ATOM     48  N   UNL     1      -0.970  -0.324  -9.230  1.00  0.00    -0.354 N 
ATOM     49  C   UNL     1      -1.931  -4.158 -10.931  1.00  0.00     0.074 A 
ATOM     50  C   UNL     1      -1.596  -5.229 -10.016  1.00  0.00     0.031 C 
ATOM     51  C   UNL     1      -0.194   1.094  -7.688  1.00  0.00     0.029 A 
ATOM     52  C   UNL     1      -0.794   1.022  -9.019  1.00  0.00     0.049 A 
ATOM     53  H   UNL     1      -1.414  -0.691 -10.029  1.00  0.00     0.167 HD
ATOM     54  C   UNL     1      -2.532  -4.341 -12.131  1.00  0.00     0.037 A 
ATOM     55  C   UNL     1      -1.056   2.071  -9.823  1.00  0.00     0.037 A 
ATOM     56  C   UNL     1      -2.868  -3.283 -13.045  1.00  0.00     0.049 A 
ATOM     57  C   UNL     1      -1.644   1.837 -11.191  1.00  0.00     0.074 A 
ATOM     58  C   UNL     1      -3.462  -3.376 -14.292  1.00  0.00     0.029 A 
ATOM     59  N   UNL     1      -2.640  -1.937 -12.809  1.00  0.00    -0.354 N 
ATOM     60  N   UNL     1      -2.001   0.711 -11.757  1.00  0.00    -0.248 NA
ATOM     61  C   UNL     1      -1.853   3.024 -12.036  1.00  0.00     0.031 C 
ATOM     62  C   UNL     1      -3.560  -2.086 -14.827  1.00  0.00     0.029 A 
ATOM     63  C   UNL     1      -3.066  -1.189 -13.895  1.00  0.00     0.049 A 
ATOM     64  H   UNL     1      -2.236  -1.566 -11.991  1.00  0.00     0.167 HD
ATOM     65  C   UNL     1      -2.496   1.053 -13.011  1.00  0.00     0.074 A 
ATOM     66  C   UNL     1      -2.405   2.494 -13.118  1.00  0.00     0.031 C 
ATOM     67  C   UNL     1      -2.979   0.246 -13.986  1.00  0.00     0.037 A 
BRANCH  54  68
ATOM     68  C   UNL     1      -2.828  -5.753 -12.537  1.00  0.00     0.057 A 
ATOM     69  C   UNL     1      -3.872  -6.486 -11.959  1.00  0.00     0.134 A 
ATOM     70  C   UNL     1      -2.064  -6.383 -13.527  1.00  0.00     0.134 A 
ATOM     71  F   UNL     1      -4.627  -5.945 -10.991  1.00  0.00    -0.206 F 
ATOM     72  C   UNL     1      -4.132  -7.804 -12.336  1.00  0.00     0.040 A 
ATOM     73  C   UNL     1      -2.329  -7.692 -13.930  1.00  0.00     0.040 A 
ATOM     74  F   UNL     1      -1.051  -5.734 -14.121  1.00  0.00    -0.206 F 
ATOM     75  C   UNL     1      -3.362  -8.409 -13.329  1.00  0.00     0.006 A 
ENDBRANCH  54  68
BRANCH  55  76
ATOM     76  C   UNL     1      -0.728   3.450  -9.379  1.00  0.00     0.057 A 
ATOM     77  C   UNL     1      -1.734   4.381  -9.098  1.00  0.00     0.134 A 
ATOM     78  C   UNL     1       0.600   3.879  -9.262  1.00  0.00     0.134 A 
ATOM     79  F   UNL     1      -3.025   4.038  -9.222  1.00  0.00    -0.206 F 
ATOM     80  C   UNL     1      -1.433   5.694  -8.731  1.00  0.00     0.040 A 
ATOM     81  C   UNL     1       0.916   5.181  -8.872  1.00  0.00     0.040 A 
ATOM     82  F   UNL     1       1.610   3.036  -9.523  1.00  0.00    -0.206 F 
ATOM     83  C   UNL     1      -0.103   6.095  -8.612  1.00  0.00     0.006 A 
ENDBRANCH  55  76
BRANCH  67  84
ATOM     84  C   UNL     1      -3.480   0.899 -15.241  1.00  0.00     0.057 A 
ATOM     85  C   UNL     1      -2.605   1.428 -16.198  1.00  0.00     0.134 A 
ATOM     86  C   UNL     1      -4.852   0.958 -15.515  1.00  0.00     0.134 A 
ATOM     87  F   UNL     1      -1.280   1.414 -15.989  1.00  0.00    -0.206 F 
ATOM     88  C   UNL     1      -3.079   2.007 -17.377  1.00  0.00     0.040 A 
ATOM     89  C   UNL     1      -5.337   1.514 -16.700  1.00  0.00     0.040 A 
ATOM     90  F   UNL     1      -5.743   0.462 -14.644  1.00  0.00    -0.206 F 
ATOM     91  C   UNL     1      -4.448   2.045 -17.633  1.00  0.00     0.006 A 
ENDBRANCH  67  84
ENDBRANCH  41  42
ENDBRANCH  34  36
ENDBRANCH  33  34
ENDBRANCH  32  33
ENDBRANCH  31  32
ENDBRANCH  30  31
ENDBRANCH  29  30
ENDBRANCH   1  29
TORSDOF 20
