REMARK SMILES COc1ccc(/C=C2/C(=O)N(c3ccccc3)C(=O)N=C2OCCOCCOCCOC(=O)c2ccc(-c3c4nc(c(-c5c(F)cccc5F)c5ccc([nH]5)c(-c5c(F)cccc5F)c5nc(c(-c6c(F)cccc6F)c6ccc3[nH]6)C=C5)C=C4)cc2)cc1C(=O)[O-]
REMARK SMILES IDX 27 1 26 2 25 3 24 4 23 5 22 6 21 7 7 8 8 9 9 10 10 11 11 12
REMARK SMILES IDX 20 13 18 14 19 15 6 16 3 17 4 18 89 19 5 20 88 21 2 22 1 23
REMARK SMILES IDX 90 24 91 25 92 26 12 27 13 28 17 29 14 30 16 31 15 32 28 33
REMARK SMILES IDX 29 34 30 35 31 36 32 37 33 38 34 39 35 40 87 41 36 42 86 43
REMARK SMILES IDX 37 44 38 45 39 46 80 47 40 48 85 49 79 50 81 51 41 52 84 53
REMARK SMILES IDX 78 54 77 55 42 57 68 58 51 59 67 60 52 61 55 62 66 63 82 64
REMARK SMILES IDX 53 65 54 66 65 68 83 69 56 70 43 71 44 72 49 73 45 74 46 75
REMARK SMILES IDX 48 76 50 77 47 78 69 79 70 80 75 81 71 82 72 83 74 84 76 85
REMARK SMILES IDX 73 86 57 87 58 88 63 89 59 90 60 91 62 92 64 93 61 94
REMARK H PARENT 81 56 55 67
REMARK Flexibility Score: inf
ROOT
ATOM      1  C   UNL     1      -1.131   6.676   1.702  1.00  0.00     0.188 C 
ENDROOT
BRANCH   1   2
ATOM      2  C   UNL     1      -2.010   7.716   0.979  1.00  0.00     0.188 C 
BRANCH   2   3
ATOM      3  O   UNL     1      -3.150   7.326   0.239  1.00  0.00    -0.376 OA
BRANCH   3   4
ATOM      4  C   UNL     1      -3.030   6.371  -0.805  1.00  0.00     0.201 C 
BRANCH   4   5
ATOM      5  C   UNL     1      -2.065   6.660  -1.947  1.00  0.00     0.260 C 
BRANCH   5   6
ATOM      6  O   UNL     1      -0.693   6.535  -1.514  1.00  0.00    -0.475 OA
BRANCH   6   7
ATOM      7  C   UNL     1       0.096   7.622  -1.498  1.00  0.00     0.231 C 
ATOM      8  C   UNL     1       2.101   6.240  -0.653  1.00  0.00     0.027 C 
ATOM      9  C   UNL     1       1.437   7.393  -0.934  1.00  0.00     0.103 C 
ATOM     10  C   UNL     1       2.140   8.675  -0.548  1.00  0.00     0.272 C 
ATOM     11  O   UNL     1       3.246   8.651  -0.008  1.00  0.00    -0.268 OA
ATOM     12  N   UNL     1       1.423   9.842  -0.801  1.00  0.00    -0.226 N 
ATOM     13  N   UNL     1      -0.398   8.751  -1.842  1.00  0.00    -0.156 NA
ATOM     14  C   UNL     1       0.263   9.906  -1.571  1.00  0.00     0.358 C 
ATOM     15  O   UNL     1      -0.207  10.967  -1.976  1.00  0.00    -0.245 OA
BRANCH   8  16
ATOM     16  C   UNL     1       1.834   4.773  -0.757  1.00  0.00    -0.024 A 
ATOM     17  C   UNL     1       1.430   1.944  -0.777  1.00  0.00     0.127 A 
ATOM     18  C   UNL     1       0.603   2.795  -1.503  1.00  0.00     0.048 A 
ATOM     19  C   UNL     1       2.541   2.484  -0.129  1.00  0.00     0.040 A 
ATOM     20  C   UNL     1       0.840   4.177  -1.533  1.00  0.00     0.012 A 
ATOM     21  C   UNL     1       2.700   3.890  -0.075  1.00  0.00     0.022 A 
BRANCH  17  22
ATOM     22  O   UNL     1       1.111   0.616  -0.846  1.00  0.00    -0.496 OA
ATOM     23  C   UNL     1       0.759   0.069   0.426  1.00  0.00     0.278 C 
ENDBRANCH  17  22
BRANCH  19  24
ATOM     24  C   UNL     1       3.633   1.662   0.440  1.00  0.00     0.075 C 
ATOM     25  O   UNL     1       4.378   1.999   1.344  1.00  0.00    -0.545 OA
ATOM     26  O   UNL     1       3.830   0.518  -0.236  1.00  0.00    -0.545 OA
ENDBRANCH  19  24
ENDBRANCH   8  16
BRANCH  12  27
ATOM     27  C   UNL     1       1.922  11.080  -0.310  1.00  0.00     0.054 A 
ATOM     28  C   UNL     1       1.230  11.739   0.716  1.00  0.00     0.027 A 
ATOM     29  C   UNL     1       3.028  11.690  -0.906  1.00  0.00     0.027 A 
ATOM     30  C   UNL     1       1.654  12.995   1.150  1.00  0.00     0.002 A 
ATOM     31  C   UNL     1       3.420  12.966  -0.495  1.00  0.00     0.002 A 
ATOM     32  C   UNL     1       2.735  13.617   0.531  1.00  0.00     0.000 A 
ENDBRANCH  12  27
ENDBRANCH   6   7
ENDBRANCH   5   6
ENDBRANCH   4   5
ENDBRANCH   3   4
ENDBRANCH   2   3
ENDBRANCH   1   2
BRANCH   1  33
ATOM     33  O   UNL     1      -1.525   5.323   1.798  1.00  0.00    -0.376 OA
BRANCH  33  34
ATOM     34  C   UNL     1      -2.805   4.988   2.309  1.00  0.00     0.202 C 
BRANCH  34  35
ATOM     35  C   UNL     1      -3.334   5.633   3.594  1.00  0.00     0.261 C 
BRANCH  35  36
ATOM     36  O   UNL     1      -3.305   7.069   3.596  1.00  0.00    -0.460 OA
BRANCH  36  37
ATOM     37  C   UNL     1      -2.521   7.630   4.550  1.00  0.00     0.338 C 
ATOM     38  O   UNL     1      -1.876   7.052   5.408  1.00  0.00    -0.246 OA
BRANCH  37  39
ATOM     39  C   UNL     1      -2.384   9.081   4.300  1.00  0.00     0.060 A 
ATOM     40  C   UNL     1      -1.089   9.611   4.218  1.00  0.00     0.016 A 
ATOM     41  C   UNL     1      -3.498   9.915   4.178  1.00  0.00     0.016 A 
ATOM     42  C   UNL     1      -0.907  10.984   4.055  1.00  0.00     0.010 A 
ATOM     43  C   UNL     1      -3.313  11.296   4.037  1.00  0.00     0.010 A 
ATOM     44  C   UNL     1      -2.018  11.839   4.006  1.00  0.00    -0.014 A 
BRANCH  44  45
ATOM     45  C   UNL     1      -1.805  13.302   4.134  1.00  0.00     0.031 A 
ATOM     46  C   UNL     1      -1.683  13.887   5.515  1.00  0.00     0.074 A 
ATOM     47  C   UNL     1      -1.679  14.096   3.057  1.00  0.00     0.049 A 
ATOM     48  N   UNL     1      -1.431  15.118   5.879  1.00  0.00    -0.248 NA
ATOM     49  C   UNL     1      -1.883  12.953   6.634  1.00  0.00     0.031 C 
ATOM     50  C   UNL     1      -1.772  13.658   1.668  1.00  0.00     0.029 A 
ATOM     51  N   UNL     1      -1.405  15.439   2.971  1.00  0.00    -0.354 N 
ATOM     52  C   UNL     1      -1.466  15.113   7.267  1.00  0.00     0.074 A 
ATOM     53  C   UNL     1      -1.760  13.757   7.679  1.00  0.00     0.031 C 
ATOM     54  C   UNL     1      -1.496  14.701   0.865  1.00  0.00     0.029 A 
ATOM     55  C   UNL     1      -1.248  15.888   1.681  1.00  0.00     0.049 A 
ATOM     56  H   UNL     1      -1.327  16.025   3.758  1.00  0.00     0.167 HD
ATOM     57  C   UNL     1      -1.287  16.145   8.125  1.00  0.00     0.037 A 
ATOM     58  C   UNL     1      -0.930  17.115   1.221  1.00  0.00     0.037 A 
ATOM     59  C   UNL     1      -1.022  17.500   7.723  1.00  0.00     0.049 A 
ATOM     60  C   UNL     1      -0.736  18.250   2.196  1.00  0.00     0.074 A 
ATOM     61  C   UNL     1      -0.852  18.619   8.520  1.00  0.00     0.029 A 
ATOM     62  N   UNL     1      -0.901  17.923   6.408  1.00  0.00    -0.354 N 
ATOM     63  N   UNL     1      -0.752  18.232   3.507  1.00  0.00    -0.248 NA
ATOM     64  C   UNL     1      -0.497  19.584   1.621  1.00  0.00     0.031 C 
ATOM     65  C   UNL     1      -0.676  19.728   7.684  1.00  0.00     0.029 A 
ATOM     66  C   UNL     1      -0.680  19.290   6.370  1.00  0.00     0.049 A 
ATOM     67  H   UNL     1      -0.962  17.338   5.619  1.00  0.00     0.167 HD
ATOM     68  C   UNL     1      -0.525  19.544   3.911  1.00  0.00     0.074 A 
ATOM     69  C   UNL     1      -0.335  20.325   2.707  1.00  0.00     0.031 C 
ATOM     70  C   UNL     1      -0.493  20.059   5.165  1.00  0.00     0.037 A 
BRANCH  57  71
ATOM     71  C   UNL     1      -1.442  15.847   9.587  1.00  0.00     0.057 A 
ATOM     72  C   UNL     1      -0.490  15.108  10.300  1.00  0.00     0.134 A 
ATOM     73  C   UNL     1      -2.569  16.298  10.286  1.00  0.00     0.134 A 
ATOM     74  F   UNL     1       0.601  14.629   9.683  1.00  0.00    -0.206 F 
ATOM     75  C   UNL     1      -0.669  14.802  11.651  1.00  0.00     0.040 A 
ATOM     76  C   UNL     1      -2.745  16.021  11.642  1.00  0.00     0.040 A 
ATOM     77  F   UNL     1      -3.518  17.011   9.661  1.00  0.00    -0.206 F 
ATOM     78  C   UNL     1      -1.798  15.263  12.326  1.00  0.00     0.006 A 
ENDBRANCH  57  71
BRANCH  58  79
ATOM     79  C   UNL     1      -0.761  17.350  -0.237  1.00  0.00     0.057 A 
ATOM     80  C   UNL     1       0.491  17.681  -0.771  1.00  0.00     0.134 A 
ATOM     81  C   UNL     1      -1.843  17.292  -1.124  1.00  0.00     0.134 A 
ATOM     82  F   UNL     1       1.562  17.781   0.031  1.00  0.00    -0.206 F 
ATOM     83  C   UNL     1       0.658  17.963  -2.128  1.00  0.00     0.040 A 
ATOM     84  C   UNL     1      -1.684  17.542  -2.488  1.00  0.00     0.040 A 
ATOM     85  F   UNL     1      -3.070  16.989  -0.676  1.00  0.00    -0.206 F 
ATOM     86  C   UNL     1      -0.432  17.888  -2.992  1.00  0.00     0.006 A 
ENDBRANCH  58  79
BRANCH  70  87
ATOM     87  C   UNL     1      -0.239  21.533   5.306  1.00  0.00     0.057 A 
ATOM     88  C   UNL     1      -1.201  22.487   4.947  1.00  0.00     0.134 A 
ATOM     89  C   UNL     1       0.960  22.004   5.857  1.00  0.00     0.134 A 
ATOM     90  F   UNL     1      -2.368  22.105   4.407  1.00  0.00    -0.206 F 
ATOM     91  C   UNL     1      -0.970  23.854   5.108  1.00  0.00     0.040 A 
ATOM     92  C   UNL     1       1.192  23.367   6.048  1.00  0.00     0.040 A 
ATOM     93  F   UNL     1       1.920  21.146   6.234  1.00  0.00    -0.206 F 
ATOM     94  C   UNL     1       0.227  24.298   5.668  1.00  0.00     0.006 A 
ENDBRANCH  70  87
ENDBRANCH  44  45
ENDBRANCH  37  39
ENDBRANCH  36  37
ENDBRANCH  35  36
ENDBRANCH  34  35
ENDBRANCH  33  34
ENDBRANCH   1  33
TORSDOF 20
