REMARK SMILES O=C(CC1(CC(=O)OCCOCCOCCOC(=O)c2ccc(-c3c4nc(c(-c5c(F)cccc5F)c5ccc([nH]5)c(-c5c(F)cccc5F)c5nc(c(-c6c(F)cccc6F)c6ccc3[nH]6)C=C5)C=C4)cc2)CCCC1)N[C@H]1CO[C@H]2[C@@H]1OC[C@@H]2n1nnnc1-c1ccccc1
REMARK SMILES IDX 10 1 9 2 8 3 6 4 7 5 5 6 4 7 74 8 77 9 75 10 76 11 3 12 2 13
REMARK SMILES IDX 1 14 78 15 79 17 80 18 83 19 81 20 82 21 84 22 86 23 85 24
REMARK SMILES IDX 87 25 88 26 91 27 89 28 90 29 92 30 93 31 97 32 94 33 96 34
REMARK SMILES IDX 95 35 11 36 12 37 13 38 14 39 15 40 16 41 17 42 18 43 19 44
REMARK SMILES IDX 20 45 21 46 73 47 22 48 72 49 23 50 24 51 25 52 66 53 26 54
REMARK SMILES IDX 71 55 65 56 67 57 27 58 70 59 64 60 63 61 28 63 54 64 37 65
REMARK SMILES IDX 53 66 38 67 41 68 52 69 68 70 39 71 40 72 51 74 69 75 42 76
REMARK SMILES IDX 29 77 30 78 35 79 31 80 32 81 34 82 36 83 33 84 55 85 56 86
REMARK SMILES IDX 61 87 57 88 58 89 60 90 62 91 59 92 43 93 44 94 49 95 45 96
REMARK SMILES IDX 46 97 48 98 50 99 47 100
REMARK H PARENT 78 16 67 62 41 73
REMARK Flexibility Score: inf
ROOT
ATOM      1  C   UNL     1       1.139   2.018   4.501  1.00  0.00     0.202 C 
ENDROOT
BRANCH   1   2
ATOM      2  C   UNL     1      -0.243   1.379   4.429  1.00  0.00     0.261 C 
BRANCH   2   3
ATOM      3  O   UNL     1      -0.718   1.321   3.075  1.00  0.00    -0.463 OA
BRANCH   3   4
ATOM      4  C   UNL     1      -1.982   1.759   2.909  1.00  0.00     0.306 C 
ATOM      5  O   UNL     1      -2.700   2.187   3.807  1.00  0.00    -0.252 OA
BRANCH   4   6
ATOM      6  C   UNL     1      -2.454   1.734   1.484  1.00  0.00     0.130 C 
BRANCH   6   7
ATOM      7  C   UNL     1      -1.696   1.037   0.308  1.00  0.00    -0.011 C 
ATOM      8  C   UNL     1      -2.486   1.478  -0.969  1.00  0.00     0.008 C 
ATOM      9  C   UNL     1      -1.924  -0.481   0.234  1.00  0.00     0.008 C 
ATOM     10  C   UNL     1      -3.758   0.631  -0.950  1.00  0.00     0.001 C 
ATOM     11  C   UNL     1      -3.341  -0.690  -0.310  1.00  0.00     0.001 C 
BRANCH   7  12
ATOM     12  C   UNL     1      -0.196   1.429   0.178  1.00  0.00     0.107 C 
BRANCH  12  13
ATOM     13  C   UNL     1       0.909   0.353   0.374  1.00  0.00     0.220 C 
ATOM     14  O   UNL     1       1.513  -0.118  -0.588  1.00  0.00    -0.275 OA
ATOM     15  N   UNL     1       1.216  -0.001   1.672  1.00  0.00    -0.348 N 
ATOM     16  H   UNL     1       0.624   0.327   2.387  1.00  0.00     0.163 HD
BRANCH  15  17
ATOM     17  C   UNL     1       2.373  -0.842   2.069  1.00  0.00     0.139 C 
ATOM     18  C   UNL     1       3.511  -0.087   2.778  1.00  0.00     0.188 C 
ATOM     19  C   UNL     1       2.024  -1.860   3.150  1.00  0.00     0.174 C 
ATOM     20  O   UNL     1       3.283  -0.133   4.200  1.00  0.00    -0.371 OA
ATOM     21  C   UNL     1       2.374  -1.206   4.481  1.00  0.00     0.176 C 
ATOM     22  O   UNL     1       2.870  -3.016   3.074  1.00  0.00    -0.371 OA
ATOM     23  C   UNL     1       3.084  -2.250   5.321  1.00  0.00     0.169 C 
ATOM     24  C   UNL     1       3.031  -3.485   4.422  1.00  0.00     0.191 C 
BRANCH  23  25
ATOM     25  N   UNL     1       2.647  -2.534   6.670  1.00  0.00    -0.217 N 
ATOM     26  N   UNL     1       3.312  -3.538   7.292  1.00  0.00    -0.044 NA
ATOM     27  C   UNL     1       1.763  -1.972   7.570  1.00  0.00     0.182 A 
ATOM     28  N   UNL     1       2.850  -3.577   8.525  1.00  0.00    -0.023 NA
ATOM     29  N   UNL     1       1.902  -2.622   8.714  1.00  0.00    -0.108 NA
BRANCH  27  30
ATOM     30  C   UNL     1       0.782  -0.903   7.426  1.00  0.00     0.021 A 
ATOM     31  C   UNL     1       1.052   0.378   7.930  1.00  0.00     0.012 A 
ATOM     32  C   UNL     1      -0.523  -1.200   7.004  1.00  0.00     0.012 A 
ATOM     33  C   UNL     1       0.043   1.347   7.996  1.00  0.00     0.001 A 
ATOM     34  C   UNL     1      -1.533  -0.233   7.077  1.00  0.00     0.001 A 
ATOM     35  C   UNL     1      -1.250   1.037   7.578  1.00  0.00     0.000 A 
ENDBRANCH  27  30
ENDBRANCH  23  25
ENDBRANCH  15  17
ENDBRANCH  12  13
ENDBRANCH   7  12
ENDBRANCH   6   7
ENDBRANCH   4   6
ENDBRANCH   3   4
ENDBRANCH   2   3
ENDBRANCH   1   2
BRANCH   1  36
ATOM     36  O   UNL     1       1.096   3.437   4.428  1.00  0.00    -0.376 OA
BRANCH  36  37
ATOM     37  C   UNL     1       1.159   3.947   3.096  1.00  0.00     0.188 C 
BRANCH  37  38
ATOM     38  C   UNL     1       2.531   3.735   2.412  1.00  0.00     0.188 C 
BRANCH  38  39
ATOM     39  O   UNL     1       2.388   2.773   1.373  1.00  0.00    -0.376 OA
BRANCH  39  40
ATOM     40  C   UNL     1       3.417   2.524   0.407  1.00  0.00     0.202 C 
BRANCH  40  41
ATOM     41  C   UNL     1       4.569   3.507   0.188  1.00  0.00     0.261 C 
BRANCH  41  42
ATOM     42  O   UNL     1       4.179   4.875   0.107  1.00  0.00    -0.460 OA
BRANCH  42  43
ATOM     43  C   UNL     1       3.109   5.175  -0.660  1.00  0.00     0.338 C 
ATOM     44  O   UNL     1       2.676   4.547  -1.616  1.00  0.00    -0.246 OA
BRANCH  43  45
ATOM     45  C   UNL     1       2.381   6.236   0.066  1.00  0.00     0.060 A 
ATOM     46  C   UNL     1       0.980   6.215   0.052  1.00  0.00     0.016 A 
ATOM     47  C   UNL     1       3.076   7.115   0.913  1.00  0.00     0.016 A 
ATOM     48  C   UNL     1       0.271   7.113   0.847  1.00  0.00     0.010 A 
ATOM     49  C   UNL     1       2.371   7.982   1.732  1.00  0.00     0.010 A 
ATOM     50  C   UNL     1       0.971   8.021   1.653  1.00  0.00    -0.014 A 
BRANCH  50  51
ATOM     51  C   UNL     1       0.305   9.237   2.153  1.00  0.00     0.031 A 
ATOM     52  C   UNL     1       0.464  10.471   1.309  1.00  0.00     0.074 A 
ATOM     53  C   UNL     1      -0.353   9.257   3.322  1.00  0.00     0.049 A 
ATOM     54  N   UNL     1       0.121  11.703   1.561  1.00  0.00    -0.248 NA
ATOM     55  C   UNL     1       1.132  10.286   0.006  1.00  0.00     0.031 C 
ATOM     56  C   UNL     1      -0.569   8.108   4.199  1.00  0.00     0.029 A 
ATOM     57  N   UNL     1      -0.940  10.304   3.982  1.00  0.00    -0.354 N 
ATOM     58  C   UNL     1       0.544  12.436   0.459  1.00  0.00     0.074 A 
ATOM     59  C   UNL     1       1.206  11.526  -0.443  1.00  0.00     0.031 C 
ATOM     60  C   UNL     1      -1.232   8.519   5.295  1.00  0.00     0.029 A 
ATOM     61  C   UNL     1      -1.449   9.961   5.209  1.00  0.00     0.049 A 
ATOM     62  H   UNL     1      -0.992  11.214   3.611  1.00  0.00     0.167 HD
ATOM     63  C   UNL     1       0.383  13.755   0.218  1.00  0.00     0.037 A 
ATOM     64  C   UNL     1      -1.999  10.744   6.157  1.00  0.00     0.037 A 
ATOM     65  C   UNL     1      -0.274  14.645   1.132  1.00  0.00     0.049 A 
ATOM     66  C   UNL     1      -2.120  12.224   5.890  1.00  0.00     0.074 A 
ATOM     67  C   UNL     1      -0.519  15.997   0.993  1.00  0.00     0.029 A 
ATOM     68  N   UNL     1      -0.783  14.262   2.365  1.00  0.00    -0.354 N 
ATOM     69  N   UNL     1      -1.754  12.908   4.831  1.00  0.00    -0.248 NA
ATOM     70  C   UNL     1      -2.728  13.040   6.949  1.00  0.00     0.031 C 
ATOM     71  C   UNL     1      -1.131  16.444   2.168  1.00  0.00     0.029 A 
ATOM     72  C   UNL     1      -1.319  15.359   3.012  1.00  0.00     0.049 A 
ATOM     73  H   UNL     1      -0.765  13.346   2.724  1.00  0.00     0.167 HD
ATOM     74  C   UNL     1      -2.111  14.227   5.083  1.00  0.00     0.074 A 
ATOM     75  C   UNL     1      -2.737  14.242   6.390  1.00  0.00     0.031 C 
ATOM     76  C   UNL     1      -1.940  15.330   4.312  1.00  0.00     0.037 A 
BRANCH  63  77
ATOM     77  C   UNL     1       0.950  14.296  -1.059  1.00  0.00     0.057 A 
ATOM     78  C   UNL     1       0.406  13.973  -2.310  1.00  0.00     0.134 A 
ATOM     79  C   UNL     1       2.061  15.148  -1.040  1.00  0.00     0.134 A 
ATOM     80  F   UNL     1      -0.640  13.137  -2.402  1.00  0.00    -0.206 F 
ATOM     81  C   UNL     1       0.958  14.461  -3.495  1.00  0.00     0.040 A 
ATOM     82  C   UNL     1       2.605  15.665  -2.216  1.00  0.00     0.040 A 
ATOM     83  F   UNL     1       2.639  15.487   0.123  1.00  0.00    -0.206 F 
ATOM     84  C   UNL     1       2.057  15.317  -3.449  1.00  0.00     0.006 A 
ENDBRANCH  63  77
BRANCH  64  85
ATOM     85  C   UNL     1      -2.461  10.159   7.442  1.00  0.00     0.057 A 
ATOM     86  C   UNL     1      -3.820  10.122   7.777  1.00  0.00     0.134 A 
ATOM     87  C   UNL     1      -1.556   9.641   8.377  1.00  0.00     0.134 A 
ATOM     88  F   UNL     1      -4.736  10.622   6.935  1.00  0.00    -0.206 F 
ATOM     89  C   UNL     1      -4.260   9.613   9.001  1.00  0.00     0.040 A 
ATOM     90  C   UNL     1      -1.984   9.104   9.593  1.00  0.00     0.040 A 
ATOM     91  F   UNL     1      -0.240   9.644   8.120  1.00  0.00    -0.206 F 
ATOM     92  C   UNL     1      -3.340   9.097   9.911  1.00  0.00     0.006 A 
ENDBRANCH  64  85
BRANCH  76  93
ATOM     93  C   UNL     1      -2.465  16.629   4.848  1.00  0.00     0.057 A 
ATOM     94  C   UNL     1      -1.842  17.298   5.907  1.00  0.00     0.134 A 
ATOM     95  C   UNL     1      -3.577  17.242   4.255  1.00  0.00     0.134 A 
ATOM     96  F   UNL     1      -0.778  16.758   6.521  1.00  0.00    -0.206 F 
ATOM     97  C   UNL     1      -2.321  18.521   6.377  1.00  0.00     0.040 A 
ATOM     98  C   UNL     1      -4.046  18.480   4.695  1.00  0.00     0.040 A 
ATOM     99  F   UNL     1      -4.209  16.660   3.225  1.00  0.00    -0.206 F 
ATOM    100  C   UNL     1      -3.421  19.119   5.764  1.00  0.00     0.006 A 
ENDBRANCH  76  93
ENDBRANCH  50  51
ENDBRANCH  43  45
ENDBRANCH  42  43
ENDBRANCH  41  42
ENDBRANCH  40  41
ENDBRANCH  39  40
ENDBRANCH  38  39
ENDBRANCH  37  38
ENDBRANCH  36  37
ENDBRANCH   1  36
TORSDOF 23
