REMARK SMILES CCCn1ncc(C(=O)N2CCC(C(=O)OCCOCCOCCOC(=O)c3ccc(-c4c5nc(c(-c6c(F)cccc6F)c6ccc([nH]6)c(-c6c(F)cccc6F)c6nc(c(-c7c(F)cccc7F)c7ccc4[nH]7)C=C6)C=C5)cc3)CC2)c1C
REMARK SMILES IDX 20 1 19 2 18 3 17 4 16 5 14 6 15 7 13 8 8 9 9 10 10 11 11 12
REMARK SMILES IDX 83 13 12 14 82 15 7 16 4 17 5 18 84 19 6 20 85 21 3 22 2 23
REMARK SMILES IDX 1 24 21 25 22 26 23 27 24 28 25 29 26 30 27 31 28 32 29 33
REMARK SMILES IDX 81 34 30 35 80 36 31 37 32 38 33 39 74 40 34 41 79 42 73 43
REMARK SMILES IDX 75 44 35 45 78 46 72 47 71 48 36 50 62 51 45 52 61 53 46 54
REMARK SMILES IDX 49 55 60 56 76 57 47 58 48 59 59 61 77 62 50 63 37 64 38 65
REMARK SMILES IDX 43 66 39 67 40 68 42 69 44 70 41 71 63 72 64 73 69 74 65 75
REMARK SMILES IDX 66 76 68 77 70 78 67 79 51 80 52 81 57 82 53 83 54 84 56 85
REMARK SMILES IDX 58 86 55 87
REMARK H PARENT 75 49 49 60
REMARK Flexibility Score: inf
ROOT
ATOM      1  C   UNL     1      -2.205  -3.940  10.677  1.00  0.00     0.188 C 
ENDROOT
BRANCH   1   2
ATOM      2  O   UNL     1      -1.302  -3.611  11.732  1.00  0.00    -0.376 OA
BRANCH   2   3
ATOM      3  C   UNL     1      -0.774  -2.287  11.725  1.00  0.00     0.202 C 
BRANCH   3   4
ATOM      4  C   UNL     1       0.277  -1.986  10.648  1.00  0.00     0.261 C 
BRANCH   4   5
ATOM      5  O   UNL     1      -0.135  -2.338   9.315  1.00  0.00    -0.463 OA
BRANCH   5   6
ATOM      6  C   UNL     1       0.421  -3.459   8.796  1.00  0.00     0.309 C 
ATOM      7  O   UNL     1       1.318  -4.104   9.330  1.00  0.00    -0.252 OA
BRANCH   6   8
ATOM      8  C   UNL     1      -0.200  -3.902   7.481  1.00  0.00     0.103 C 
ATOM      9  C   UNL     1      -0.809  -2.626   3.752  1.00  0.00     0.257 C 
ATOM     10  O   UNL     1      -1.350  -1.550   4.006  1.00  0.00    -0.269 OA
ATOM     11  N   UNL     1      -0.822  -3.657   4.685  1.00  0.00    -0.338 N 
ATOM     12  C   UNL     1      -1.907  -3.673   5.652  1.00  0.00     0.120 C 
ATOM     13  C   UNL     1       0.374  -4.396   5.072  1.00  0.00     0.120 C 
ATOM     14  C   UNL     1      -1.444  -3.139   7.003  1.00  0.00     0.037 C 
ATOM     15  C   UNL     1       0.894  -3.881   6.410  1.00  0.00     0.037 C 
BRANCH   9  16
ATOM     16  C   UNL     1      -0.213  -2.897   2.444  1.00  0.00     0.080 A 
ATOM     17  N   UNL     1       0.535  -2.652   0.370  1.00  0.00    -0.269 N 
ATOM     18  N   UNL     1       0.756  -3.955   0.671  1.00  0.00    -0.180 NA
ATOM     19  C   UNL     1      -0.137  -1.997   1.378  1.00  0.00     0.048 A 
ATOM     20  C   UNL     1       0.283  -4.096   1.904  1.00  0.00     0.149 A 
ATOM     21  C   UNL     1      -0.686  -0.613   1.343  1.00  0.00     0.067 C 
BRANCH  17  22
ATOM     22  C   UNL     1       1.040  -2.250  -0.933  1.00  0.00     0.144 C 
BRANCH  22  23
ATOM     23  C   UNL     1       0.912  -0.817  -1.437  1.00  0.00     0.020 C 
ATOM     24  C   UNL     1       1.782   0.176  -0.681  1.00  0.00     0.006 C 
ENDBRANCH  22  23
ENDBRANCH  17  22
ENDBRANCH   9  16
ENDBRANCH   6   8
ENDBRANCH   5   6
ENDBRANCH   4   5
ENDBRANCH   3   4
ENDBRANCH   2   3
ENDBRANCH   1   2
BRANCH   1  25
ATOM     25  C   UNL     1      -3.260  -2.875  10.373  1.00  0.00     0.188 C 
BRANCH  25  26
ATOM     26  O   UNL     1      -2.780  -1.757   9.643  1.00  0.00    -0.376 OA
BRANCH  26  27
ATOM     27  C   UNL     1      -3.251  -0.428   9.874  1.00  0.00     0.202 C 
BRANCH  27  28
ATOM     28  C   UNL     1      -4.517  -0.051  10.662  1.00  0.00     0.261 C 
BRANCH  28  29
ATOM     29  O   UNL     1      -5.368  -1.112  11.022  1.00  0.00    -0.460 OA
BRANCH  29  30
ATOM     30  C   UNL     1      -5.917  -1.812  10.005  1.00  0.00     0.338 C 
ATOM     31  O   UNL     1      -5.933  -1.535   8.836  1.00  0.00    -0.246 OA
BRANCH  30  32
ATOM     32  C   UNL     1      -6.470  -3.032  10.632  1.00  0.00     0.060 A 
ATOM     33  C   UNL     1      -7.299  -3.825   9.845  1.00  0.00     0.016 A 
ATOM     34  C   UNL     1      -6.298  -3.267  12.011  1.00  0.00     0.016 A 
ATOM     35  C   UNL     1      -8.215  -4.612  10.496  1.00  0.00     0.010 A 
ATOM     36  C   UNL     1      -7.203  -4.053  12.661  1.00  0.00     0.010 A 
ATOM     37  C   UNL     1      -8.232  -4.577  11.893  1.00  0.00    -0.014 A 
BRANCH  37  38
ATOM     38  C   UNL     1      -9.450  -4.957  12.560  1.00  0.00     0.031 A 
ATOM     39  C   UNL     1      -9.584  -6.406  12.750  1.00  0.00     0.074 A 
ATOM     40  C   UNL     1     -10.287  -4.006  13.017  1.00  0.00     0.049 A 
ATOM     41  N   UNL     1     -10.405  -7.205  12.159  1.00  0.00    -0.248 NA
ATOM     42  C   UNL     1      -8.552  -7.075  13.556  1.00  0.00     0.031 C 
ATOM     43  C   UNL     1     -10.058  -2.556  13.099  1.00  0.00     0.029 A 
ATOM     44  N   UNL     1     -11.502  -4.152  13.602  1.00  0.00    -0.354 N 
ATOM     45  C   UNL     1     -10.147  -8.451  12.715  1.00  0.00     0.074 A 
ATOM     46  C   UNL     1      -8.868  -8.355  13.363  1.00  0.00     0.031 C 
ATOM     47  C   UNL     1     -10.997  -1.999  13.896  1.00  0.00     0.029 A 
ATOM     48  C   UNL     1     -11.957  -3.021  14.268  1.00  0.00     0.049 A 
ATOM     49  H   UNL     1     -12.018  -4.990  13.559  1.00  0.00     0.167 HD
ATOM     50  C   UNL     1     -11.155  -9.345  12.890  1.00  0.00     0.037 A 
ATOM     51  C   UNL     1     -13.000  -2.985  15.133  1.00  0.00     0.037 A 
ATOM     52  C   UNL     1     -12.275  -9.045  12.029  1.00  0.00     0.049 A 
ATOM     53  C   UNL     1     -13.819  -4.200  14.883  1.00  0.00     0.074 A 
ATOM     54  C   UNL     1     -12.451  -8.927  10.664  1.00  0.00     0.029 A 
ATOM     55  N   UNL     1     -13.374  -8.450  12.599  1.00  0.00    -0.354 N 
ATOM     56  N   UNL     1     -14.503  -4.401  13.789  1.00  0.00    -0.248 NA
ATOM     57  C   UNL     1     -13.502  -5.399  15.646  1.00  0.00     0.031 C 
ATOM     58  C   UNL     1     -13.406  -7.881  10.497  1.00  0.00     0.029 A 
ATOM     59  C   UNL     1     -13.793  -7.447  11.765  1.00  0.00     0.049 A 
ATOM     60  H   UNL     1     -13.789  -8.701  13.456  1.00  0.00     0.167 HD
ATOM     61  C   UNL     1     -14.342  -5.752  13.510  1.00  0.00     0.074 A 
ATOM     62  C   UNL     1     -13.792  -6.330  14.733  1.00  0.00     0.031 C 
ATOM     63  C   UNL     1     -14.393  -6.215  12.226  1.00  0.00     0.037 A 
BRANCH  50  64
ATOM     64  C   UNL     1     -11.294 -10.185  14.138  1.00  0.00     0.057 A 
ATOM     65  C   UNL     1     -12.313 -11.150  14.185  1.00  0.00     0.134 A 
ATOM     66  C   UNL     1     -10.690  -9.894  15.383  1.00  0.00     0.134 A 
ATOM     67  F   UNL     1     -12.968 -11.512  13.072  1.00  0.00    -0.206 F 
ATOM     68  C   UNL     1     -12.762 -11.706  15.388  1.00  0.00     0.040 A 
ATOM     69  C   UNL     1     -11.094 -10.484  16.580  1.00  0.00     0.040 A 
ATOM     70  F   UNL     1      -9.750  -8.956  15.538  1.00  0.00    -0.206 F 
ATOM     71  C   UNL     1     -12.160 -11.365  16.593  1.00  0.00     0.006 A 
ENDBRANCH  50  64
BRANCH  51  72
ATOM     72  C   UNL     1     -13.113  -2.189  16.377  1.00  0.00     0.057 A 
ATOM     73  C   UNL     1     -14.346  -2.020  17.020  1.00  0.00     0.134 A 
ATOM     74  C   UNL     1     -11.977  -1.801  17.111  1.00  0.00     0.134 A 
ATOM     75  F   UNL     1     -15.483  -2.403  16.421  1.00  0.00    -0.206 F 
ATOM     76  C   UNL     1     -14.444  -1.511  18.323  1.00  0.00     0.040 A 
ATOM     77  C   UNL     1     -12.060  -1.286  18.408  1.00  0.00     0.040 A 
ATOM     78  F   UNL     1     -10.740  -1.993  16.631  1.00  0.00    -0.206 F 
ATOM     79  C   UNL     1     -13.297  -1.151  19.025  1.00  0.00     0.006 A 
ENDBRANCH  51  72
BRANCH  63  80
ATOM     80  C   UNL     1     -14.881  -5.266  11.165  1.00  0.00     0.057 A 
ATOM     81  C   UNL     1     -14.185  -4.113  10.770  1.00  0.00     0.134 A 
ATOM     82  C   UNL     1     -16.008  -5.612  10.414  1.00  0.00     0.134 A 
ATOM     83  F   UNL     1     -13.041  -3.758  11.368  1.00  0.00    -0.206 F 
ATOM     84  C   UNL     1     -14.614  -3.321   9.701  1.00  0.00     0.040 A 
ATOM     85  C   UNL     1     -16.430  -4.848   9.324  1.00  0.00     0.040 A 
ATOM     86  F   UNL     1     -16.690  -6.733  10.698  1.00  0.00    -0.206 F 
ATOM     87  C   UNL     1     -15.738  -3.692   8.969  1.00  0.00     0.006 A 
ENDBRANCH  63  80
ENDBRANCH  37  38
ENDBRANCH  30  32
ENDBRANCH  29  30
ENDBRANCH  28  29
ENDBRANCH  27  28
ENDBRANCH  26  27
ENDBRANCH  25  26
ENDBRANCH   1  25
TORSDOF 20
