REMARK SMILES N#C/C(=C/c1cccc(OCC(=O)OCCOCCOCCOC(=O)c2ccc(-c3c4nc(c(-c5c(F)cccc5F)c5ccc([nH]5)c(-c5c(F)cccc5F)c5nc(c(-c6c(F)cccc6F)c6ccc3[nH]6)C=C5)C=C4)cc2)c1)c1nc2ccccc2[nH]1
REMARK SMILES IDX 18 1 17 2 16 3 15 4 14 5 12 6 13 7 11 8 10 9 9 10 5 11 6 12
REMARK SMILES IDX 80 13 7 14 8 15 4 16 3 17 2 18 1 19 81 20 82 21 89 22 83 23
REMARK SMILES IDX 88 24 84 26 87 27 85 28 86 29 19 30 20 31 21 32 22 33 23 34
REMARK SMILES IDX 24 35 25 36 26 37 27 38 79 39 28 40 78 41 29 42 30 43 31 44
REMARK SMILES IDX 72 45 32 46 77 47 71 48 73 49 33 50 76 51 70 52 69 53 34 55
REMARK SMILES IDX 60 56 43 57 59 58 44 59 47 60 58 61 74 62 45 63 46 64 57 66
REMARK SMILES IDX 75 67 48 68 35 69 36 70 41 71 37 72 38 73 40 74 42 75 39 76
REMARK SMILES IDX 61 77 62 78 67 79 63 80 64 81 66 82 68 83 65 84 49 85 50 86
REMARK SMILES IDX 55 87 51 88 52 89 54 90 56 91 53 92
REMARK H PARENT 89 25 73 54 47 65
REMARK Flexibility Score: inf
ROOT
ATOM      1  C   UNL     1       6.328  -1.435  -1.269  1.00  0.00     0.188 C 
ENDROOT
BRANCH   1   2
ATOM      2  O   UNL     1       5.139  -3.135  -1.280  1.00  0.00    -0.376 OA
BRANCH   2   3
ATOM      3  C   UNL     1       5.604  -4.632  -1.712  1.00  0.00     0.202 C 
BRANCH   3   4
ATOM      4  C   UNL     1       7.058  -4.538  -2.680  1.00  0.00     0.261 C 
BRANCH   4   5
ATOM      5  O   UNL     1       7.958  -2.712  -2.785  1.00  0.00    -0.461 OA
BRANCH   5   6
ATOM      6  C   UNL     1       8.647  -1.484  -3.416  1.00  0.00     0.344 C 
ATOM      7  O   UNL     1       9.058  -1.500  -4.588  1.00  0.00    -0.248 OA
BRANCH   6   8
ATOM      8  C   UNL     1       8.546   0.188  -2.686  1.00  0.00     0.351 C 
BRANCH   8   9
ATOM      9  O   UNL     1       9.067   0.950  -1.541  1.00  0.00    -0.482 OA
BRANCH   9  10
ATOM     10  C   UNL     1       8.481   1.887  -0.655  1.00  0.00     0.120 A 
ATOM     11  C   UNL     1       6.344   2.484   0.575  1.00  0.00    -0.021 A 
ATOM     12  C   UNL     1       7.041   2.585   1.773  1.00  0.00     0.008 A 
ATOM     13  C   UNL     1       7.202   2.500  -0.672  1.00  0.00     0.054 A 
ATOM     14  C   UNL     1       8.441   2.401   1.748  1.00  0.00     0.004 A 
ATOM     15  C   UNL     1       9.128   1.978   0.578  1.00  0.00     0.046 A 
BRANCH  11  16
ATOM     16  C   UNL     1       4.653   1.655   0.660  1.00  0.00     0.031 C 
ATOM     17  C   UNL     1       3.812   0.095   0.005  1.00  0.00     0.095 C 
BRANCH  17  18
ATOM     18  C   UNL     1       2.292   0.095   0.005  1.00  0.00     0.103 C 
ATOM     19  N   UNL     1       1.032   0.095   0.005  1.00  0.00    -0.192 NA
ENDBRANCH  17  18
BRANCH  17  20
ATOM     20  C   UNL     1       4.447  -1.477  -0.514  1.00  0.00     0.149 A 
ATOM     21  N   UNL     1       5.743  -2.377   0.166  1.00  0.00    -0.228 NA
ATOM     22  N   UNL     1       4.501  -1.767  -2.335  1.00  0.00    -0.337 N 
ATOM     23  C   UNL     1       6.937  -3.134  -1.165  1.00  0.00     0.089 A 
ATOM     24  C   UNL     1       6.021  -2.686  -2.821  1.00  0.00     0.066 A 
ATOM     25  H   UNL     1       3.807  -1.469  -2.966  1.00  0.00     0.168 HD
ATOM     26  C   UNL     1       8.586  -3.811  -1.255  1.00  0.00     0.030 A 
ATOM     27  C   UNL     1       6.782  -3.158  -4.356  1.00  0.00     0.028 A 
ATOM     28  C   UNL     1       9.281  -4.213  -2.830  1.00  0.00     0.002 A 
ATOM     29  C   UNL     1       8.391  -3.948  -4.322  1.00  0.00     0.002 A 
ENDBRANCH  17  20
ENDBRANCH  11  16
ENDBRANCH   9  10
ENDBRANCH   8   9
ENDBRANCH   6   8
ENDBRANCH   5   6
ENDBRANCH   4   5
ENDBRANCH   3   4
ENDBRANCH   2   3
ENDBRANCH   1   2
BRANCH   1  30
ATOM     30  C   UNL     1       7.717  -1.255   0.008  1.00  0.00     0.188 C 
BRANCH  30  31
ATOM     31  O   UNL     1       8.275  -2.127   1.024  1.00  0.00    -0.376 OA
BRANCH  31  32
ATOM     32  C   UNL     1       7.622  -3.113   1.821  1.00  0.00     0.202 C 
BRANCH  32  33
ATOM     33  C   UNL     1       6.705  -2.721   2.991  1.00  0.00     0.261 C 
BRANCH  33  34
ATOM     34  O   UNL     1       5.739  -1.751   2.641  1.00  0.00    -0.460 OA
BRANCH  34  35
ATOM     35  C   UNL     1       6.328  -0.577   2.344  1.00  0.00     0.338 C 
ATOM     36  O   UNL     1       7.303  -0.091   2.881  1.00  0.00    -0.246 OA
BRANCH  35  37
ATOM     37  C   UNL     1       5.445   0.029   1.337  1.00  0.00     0.060 A 
ATOM     38  C   UNL     1       5.667   0.614  -0.480  1.00  0.00     0.016 A 
ATOM     39  C   UNL     1       3.942   0.571   2.240  1.00  0.00     0.016 A 
ATOM     40  C   UNL     1       4.357   1.759  -1.261  1.00  0.00     0.010 A 
ATOM     41  C   UNL     1       2.753   1.731   1.508  1.00  0.00     0.010 A 
ATOM     42  C   UNL     1       2.947   2.381  -0.209  1.00  0.00    -0.014 A 
BRANCH  42  43
ATOM     43  C   UNL     1       2.051   3.608  -0.520  1.00  0.00     0.031 A 
ATOM     44  C   UNL     1       1.640   4.728   0.494  1.00  0.00     0.074 A 
ATOM     45  C   UNL     1       1.505   3.724  -1.744  1.00  0.00     0.049 A 
ATOM     46  N   UNL     1       0.772   5.723   0.349  1.00  0.00    -0.248 NA
ATOM     47  C   UNL     1       2.275   4.750   1.821  1.00  0.00     0.031 C 
ATOM     48  C   UNL     1       1.711   2.783  -2.833  1.00  0.00     0.029 A 
ATOM     49  N   UNL     1       0.644   4.667  -2.268  1.00  0.00    -0.354 N 
ATOM     50  C   UNL     1       0.739   6.443   1.555  1.00  0.00     0.074 A 
ATOM     51  C   UNL     1       1.655   5.752   2.438  1.00  0.00     0.031 C 
ATOM     52  C   UNL     1       1.034   3.203  -3.907  1.00  0.00     0.029 A 
ATOM     53  C   UNL     1       0.257   4.392  -3.557  1.00  0.00     0.049 A 
ATOM     54  H   UNL     1       0.337   5.457  -1.768  1.00  0.00     0.167 HD
ATOM     55  C   UNL     1       0.050   7.570   1.915  1.00  0.00     0.037 A 
ATOM     56  C   UNL     1      -0.649   4.965  -4.375  1.00  0.00     0.037 A 
ATOM     57  C   UNL     1      -0.846   8.322   1.056  1.00  0.00     0.049 A 
ATOM     58  C   UNL     1      -1.447   6.165  -3.955  1.00  0.00     0.074 A 
ATOM     59  C   UNL     1      -1.522   9.507   1.331  1.00  0.00     0.029 A 
ATOM     60  N   UNL     1      -1.205   7.969  -0.233  1.00  0.00    -0.354 N 
ATOM     61  N   UNL     1      -1.424   6.824  -2.825  1.00  0.00    -0.248 NA
ATOM     62  C   UNL     1      -2.402   6.701  -4.939  1.00  0.00     0.031 C 
ATOM     63  C   UNL     1      -2.346   9.822   0.244  1.00  0.00     0.029 A 
ATOM     64  C   UNL     1      -2.121   8.883  -0.745  1.00  0.00     0.049 A 
ATOM     65  H   UNL     1      -0.862   7.184  -0.718  1.00  0.00     0.167 HD
ATOM     66  C   UNL     1      -2.342   7.860  -2.969  1.00  0.00     0.074 A 
ATOM     67  C   UNL     1      -2.888   7.758  -4.304  1.00  0.00     0.031 C 
ATOM     68  C   UNL     1      -2.693   8.807  -2.066  1.00  0.00     0.037 A 
BRANCH  55  69
ATOM     69  C   UNL     1       0.208   8.110   3.332  1.00  0.00     0.057 A 
ATOM     70  C   UNL     1       1.403   8.680   3.792  1.00  0.00     0.134 A 
ATOM     71  C   UNL     1      -0.890   8.169   4.211  1.00  0.00     0.134 A 
ATOM     72  F   UNL     1       2.491   8.699   3.008  1.00  0.00    -0.206 F 
ATOM     73  C   UNL     1       1.516   9.234   5.075  1.00  0.00     0.040 A 
ATOM     74  C   UNL     1      -0.800   8.754   5.480  1.00  0.00     0.040 A 
ATOM     75  F   UNL     1      -2.089   7.698   3.836  1.00  0.00    -0.206 F 
ATOM     76  C   UNL     1       0.412   9.276   5.922  1.00  0.00     0.006 A 
ENDBRANCH  55  69
BRANCH  56  77
ATOM     77  C   UNL     1      -0.869   4.358  -5.713  1.00  0.00     0.057 A 
ATOM     78  C   UNL     1      -0.465   5.009  -6.882  1.00  0.00     0.134 A 
ATOM     79  C   UNL     1      -1.448   3.088  -5.842  1.00  0.00     0.134 A 
ATOM     80  F   UNL     1       0.073   6.236  -6.822  1.00  0.00    -0.206 F 
ATOM     81  C   UNL     1      -0.629   4.419  -8.135  1.00  0.00     0.040 A 
ATOM     82  C   UNL     1      -1.579   2.470  -7.083  1.00  0.00     0.040 A 
ATOM     83  F   UNL     1      -1.845   2.410  -4.755  1.00  0.00    -0.206 F 
ATOM     84  C   UNL     1      -1.174   3.139  -8.236  1.00  0.00     0.006 A 
ENDBRANCH  56  77
BRANCH  68  85
ATOM     85  C   UNL     1      -3.696   9.848  -2.494  1.00  0.00     0.057 A 
ATOM     86  C   UNL     1      -5.038   9.533  -2.751  1.00  0.00     0.134 A 
ATOM     87  C   UNL     1      -3.317  11.189  -2.654  1.00  0.00     0.134 A 
ATOM     88  F   UNL     1      -5.474   8.270  -2.632  1.00  0.00    -0.206 F 
ATOM     89  C   UNL     1      -5.952  10.499  -3.183  1.00  0.00     0.040 A 
ATOM     90  C   UNL     1      -4.228  12.170  -3.054  1.00  0.00     0.040 A 
ATOM     91  F   UNL     1      -2.052  11.572  -2.423  1.00  0.00    -0.206 F 
ATOM     92  C   UNL     1      -5.549  11.824  -3.330  1.00  0.00     0.006 A 
ENDBRANCH  68  85
ENDBRANCH  42  43
ENDBRANCH  35  37
ENDBRANCH  34  35
ENDBRANCH  33  34
ENDBRANCH  32  33
ENDBRANCH  31  32
ENDBRANCH  30  31
ENDBRANCH   1  30
TORSDOF 22
