REMARK SMILES COc1ccc(-n2ccnc2C[N@@H+]2CCn3nc(C(=O)OCCOCCOCCOC(=O)c4ccc(-c5c6nc(c(-c7c(F)cccc7F)c7ccc([nH]7)c(-c7c(F)cccc7F)c7nc(c(-c8c(F)cccc8F)c8ccc5[nH]8)C=C7)C=C6)cc4)cc3C2)cc1
REMARK SMILES IDX 25 1 24 2 23 3 22 4 21 5 19 6 20 7 18 8 13 9 14 10 89 11
REMARK SMILES IDX 15 13 88 14 16 15 87 16 17 17 12 18 11 19 7 20 8 21 9 22
REMARK SMILES IDX 10 23 6 24 3 25 4 26 91 27 5 28 90 29 2 30 1 31 26 32 27 33
REMARK SMILES IDX 28 34 29 35 30 36 31 37 32 38 33 39 34 40 86 41 35 42 85 43
REMARK SMILES IDX 36 44 37 45 38 46 79 47 39 48 84 49 78 50 80 51 40 52 83 53
REMARK SMILES IDX 77 54 76 55 41 57 67 58 50 59 66 60 51 61 54 62 65 63 81 64
REMARK SMILES IDX 52 65 53 66 64 68 82 69 55 70 42 71 43 72 48 73 44 74 45 75
REMARK SMILES IDX 47 76 49 77 46 78 68 79 69 80 74 81 70 82 71 83 73 84 75 85
REMARK SMILES IDX 72 86 56 87 57 88 62 89 58 90 59 91 61 92 63 93 60 94
REMARK H PARENT 13 12 80 56 54 67
REMARK Flexibility Score: inf
ROOT
ATOM      1  C   UNL     1      -1.877  -3.042   4.903  1.00  0.00     0.188 C 
ENDROOT
BRANCH   1   2
ATOM      2  O   UNL     1      -1.921  -2.885   6.310  1.00  0.00    -0.376 OA
BRANCH   2   3
ATOM      3  C   UNL     1      -1.027  -3.758   7.033  1.00  0.00     0.202 C 
BRANCH   3   4
ATOM      4  C   UNL     1       0.402  -3.876   6.473  1.00  0.00     0.261 C 
BRANCH   4   5
ATOM      5  O   UNL     1       0.599  -4.460   5.144  1.00  0.00    -0.458 OA
BRANCH   5   6
ATOM      6  C   UNL     1      -0.310  -5.246   4.511  1.00  0.00     0.358 C 
ATOM      7  O   UNL     1      -1.052  -6.020   5.121  1.00  0.00    -0.244 OA
BRANCH   6   8
ATOM      8  C   UNL     1      -0.431  -5.013   3.022  1.00  0.00     0.170 A 
ATOM      9  N   UNL     1       1.286  -7.649   1.585  1.00  0.00    -0.322 N 
ATOM     10  C   UNL     1       2.034  -6.984   0.534  1.00  0.00     0.286 C 
ATOM     11  C   UNL     1      -0.176  -7.574   1.295  1.00  0.00     0.319 C 
ATOM     12  H   UNL     1       1.550  -8.634   1.576  1.00  0.00     0.348 HD
ATOM     13  C   UNL     1       1.511  -5.578   0.201  1.00  0.00     0.206 C 
ATOM     14  C   UNL     1      -0.642  -6.152   1.274  1.00  0.00     0.094 A 
ATOM     15  N   UNL     1       0.353  -5.215   1.031  1.00  0.00    -0.257 N 
ATOM     16  C   UNL     1      -1.477  -5.465   2.160  1.00  0.00     0.067 A 
ATOM     17  N   UNL     1       0.515  -4.506   2.192  1.00  0.00    -0.165 NA
BRANCH   9  18
ATOM     18  C   UNL     1       1.659  -7.223   2.962  1.00  0.00     0.339 C 
BRANCH  18  19
ATOM     19  C   UNL     1       2.918  -6.375   3.406  1.00  0.00     0.168 A 
ATOM     20  N   UNL     1       3.163  -4.960   3.645  1.00  0.00    -0.299 N 
ATOM     21  C   UNL     1       3.975  -4.924   4.770  1.00  0.00     0.113 A 
ATOM     22  C   UNL     1       4.317  -6.209   5.067  1.00  0.00     0.132 A 
ATOM     23  N   UNL     1       3.766  -7.066   4.173  1.00  0.00    -0.236 NA
BRANCH  20  24
ATOM     24  C   UNL     1       2.949  -3.700   2.954  1.00  0.00     0.047 A 
ATOM     25  C   UNL     1       2.399  -1.225   1.651  1.00  0.00     0.119 A 
ATOM     26  C   UNL     1       1.851  -1.493   2.891  1.00  0.00     0.048 A 
ATOM     27  C   UNL     1       3.349  -2.113   1.138  1.00  0.00     0.048 A 
ATOM     28  C   UNL     1       2.204  -2.670   3.565  1.00  0.00     0.030 A 
ATOM     29  C   UNL     1       3.618  -3.354   1.780  1.00  0.00     0.030 A 
BRANCH  25  30
ATOM     30  O   UNL     1       2.030  -0.035   1.088  1.00  0.00    -0.497 OA
ATOM     31  C   UNL     1       1.781  -0.087  -0.313  1.00  0.00     0.278 C 
ENDBRANCH  25  30
ENDBRANCH  20  24
ENDBRANCH  18  19
ENDBRANCH   9  18
ENDBRANCH   6   8
ENDBRANCH   5   6
ENDBRANCH   4   5
ENDBRANCH   3   4
ENDBRANCH   2   3
ENDBRANCH   1   2
BRANCH   1  32
ATOM     32  C   UNL     1      -2.493  -2.065   3.910  1.00  0.00     0.188 C 
BRANCH  32  33
ATOM     33  O   UNL     1      -2.651  -0.723   4.304  1.00  0.00    -0.376 OA
BRANCH  33  34
ATOM     34  C   UNL     1      -3.221  -0.488   5.586  1.00  0.00     0.202 C 
BRANCH  34  35
ATOM     35  C   UNL     1      -4.627  -1.038   5.832  1.00  0.00     0.261 C 
BRANCH  35  36
ATOM     36  O   UNL     1      -4.670  -2.465   5.791  1.00  0.00    -0.460 OA
BRANCH  36  37
ATOM     37  C   UNL     1      -5.209  -2.991   4.672  1.00  0.00     0.338 C 
ATOM     38  O   UNL     1      -5.712  -2.384   3.740  1.00  0.00    -0.246 OA
BRANCH  37  39
ATOM     39  C   UNL     1      -5.113  -4.465   4.708  1.00  0.00     0.060 A 
ATOM     40  C   UNL     1      -5.546  -5.089   3.534  1.00  0.00     0.016 A 
ATOM     41  C   UNL     1      -5.260  -5.053   5.966  1.00  0.00     0.016 A 
ATOM     42  C   UNL     1      -6.552  -6.010   3.662  1.00  0.00     0.010 A 
ATOM     43  C   UNL     1      -6.275  -5.960   6.098  1.00  0.00     0.010 A 
ATOM     44  C   UNL     1      -6.999  -6.291   4.953  1.00  0.00    -0.014 A 
BRANCH  44  45
ATOM     45  C   UNL     1      -8.306  -6.888   5.100  1.00  0.00     0.031 A 
ATOM     46  C   UNL     1      -8.262  -8.347   4.938  1.00  0.00     0.074 A 
ATOM     47  C   UNL     1      -9.371  -6.143   5.457  1.00  0.00     0.049 A 
ATOM     48  N   UNL     1      -8.700  -9.050   3.948  1.00  0.00    -0.248 NA
ATOM     49  C   UNL     1      -7.424  -9.093   5.890  1.00  0.00     0.031 C 
ATOM     50  C   UNL     1      -9.383  -4.735   5.883  1.00  0.00     0.029 A 
ATOM     51  N   UNL     1     -10.670  -6.519   5.617  1.00  0.00    -0.354 N 
ATOM     52  C   UNL     1      -8.409 -10.362   4.301  1.00  0.00     0.074 A 
ATOM     53  C   UNL     1      -7.406 -10.300   5.326  1.00  0.00     0.031 C 
ATOM     54  C   UNL     1     -10.571  -4.451   6.463  1.00  0.00     0.029 A 
ATOM     55  C   UNL     1     -11.442  -5.603   6.327  1.00  0.00     0.049 A 
ATOM     56  H   UNL     1     -11.030  -7.363   5.262  1.00  0.00     0.167 HD
ATOM     57  C   UNL     1      -9.296 -11.354   4.024  1.00  0.00     0.037 A 
ATOM     58  C   UNL     1     -12.680  -5.840   6.826  1.00  0.00     0.037 A 
ATOM     59  C   UNL     1     -10.228 -10.939   3.004  1.00  0.00     0.049 A 
ATOM     60  C   UNL     1     -13.236  -6.995   6.079  1.00  0.00     0.074 A 
ATOM     61  C   UNL     1     -10.171 -10.642   1.660  1.00  0.00     0.029 A 
ATOM     62  N   UNL     1     -11.389 -10.397   3.490  1.00  0.00    -0.354 N 
ATOM     63  N   UNL     1     -13.528  -6.958   4.807  1.00  0.00    -0.248 NA
ATOM     64  C   UNL     1     -13.107  -8.330   6.648  1.00  0.00     0.031 C 
ATOM     65  C   UNL     1     -11.210  -9.692   1.424  1.00  0.00     0.029 A 
ATOM     66  C   UNL     1     -11.887  -9.464   2.623  1.00  0.00     0.049 A 
ATOM     67  H   UNL     1     -11.808 -10.645   4.346  1.00  0.00     0.167 HD
ATOM     68  C   UNL     1     -13.211  -8.221   4.337  1.00  0.00     0.074 A 
ATOM     69  C   UNL     1     -13.118  -9.058   5.527  1.00  0.00     0.031 C 
ATOM     70  C   UNL     1     -12.753  -8.390   3.062  1.00  0.00     0.037 A 
BRANCH  57  71
ATOM     71  C   UNL     1      -9.659 -12.435   5.025  1.00  0.00     0.057 A 
ATOM     72  C   UNL     1     -10.522 -13.463   4.610  1.00  0.00     0.134 A 
ATOM     73  C   UNL     1      -9.472 -12.348   6.423  1.00  0.00     0.134 A 
ATOM     74  F   UNL     1     -10.798 -13.644   3.310  1.00  0.00    -0.206 F 
ATOM     75  C   UNL     1     -11.201 -14.286   5.518  1.00  0.00     0.040 A 
ATOM     76  C   UNL     1     -10.104 -13.197   7.334  1.00  0.00     0.040 A 
ATOM     77  F   UNL     1      -8.756 -11.383   7.009  1.00  0.00    -0.206 F 
ATOM     78  C   UNL     1     -10.999 -14.149   6.886  1.00  0.00     0.006 A 
ENDBRANCH  57  71
BRANCH  58  79
ATOM     79  C   UNL     1     -13.252  -5.380   8.113  1.00  0.00     0.057 A 
ATOM     80  C   UNL     1     -14.630  -5.442   8.366  1.00  0.00     0.134 A 
ATOM     81  C   UNL     1     -12.432  -5.137   9.230  1.00  0.00     0.134 A 
ATOM     82  F   UNL     1     -15.491  -5.713   7.374  1.00  0.00    -0.206 F 
ATOM     83  C   UNL     1     -15.159  -5.298   9.657  1.00  0.00     0.040 A 
ATOM     84  C   UNL     1     -12.947  -4.987  10.522  1.00  0.00     0.040 A 
ATOM     85  F   UNL     1     -11.096  -5.131   9.119  1.00  0.00    -0.206 F 
ATOM     86  C   UNL     1     -14.315  -5.082  10.742  1.00  0.00     0.006 A 
ENDBRANCH  58  79
BRANCH  70  87
ATOM     87  C   UNL     1     -13.003  -7.272   2.092  1.00  0.00     0.057 A 
ATOM     88  C   UNL     1     -12.362  -6.026   2.143  1.00  0.00     0.134 A 
ATOM     89  C   UNL     1     -13.841  -7.512   0.999  1.00  0.00     0.134 A 
ATOM     90  F   UNL     1     -11.483  -5.741   3.112  1.00  0.00    -0.206 F 
ATOM     91  C   UNL     1     -12.572  -5.051   1.163  1.00  0.00     0.040 A 
ATOM     92  C   UNL     1     -14.035  -6.559  -0.002  1.00  0.00     0.040 A 
ATOM     93  F   UNL     1     -14.449  -8.701   0.864  1.00  0.00    -0.206 F 
ATOM     94  C   UNL     1     -13.406  -5.320   0.082  1.00  0.00     0.006 A 
ENDBRANCH  70  87
ENDBRANCH  44  45
ENDBRANCH  37  39
ENDBRANCH  36  37
ENDBRANCH  35  36
ENDBRANCH  34  35
ENDBRANCH  33  34
ENDBRANCH  32  33
ENDBRANCH   1  32
TORSDOF 21
