REMARK SMILES Cc1cccc(S(=O)(=O)Nc2cc(C(=O)OCCOCCOCCOC(=O)c3ccc(-c4c5nc(c(-c6c(F)cccc6F)c6ccc([nH]6)c(-c6c(F)cccc6F)c6nc(c(-c7c(F)cccc7F)c7ccc4[nH]7)C=C6)C=C5)cc3)ccc2N2CCC[C@H](C[NH+]3CCCC3)C2)c1
REMARK SMILES IDX 20 1 19 2 18 3 17 4 16 5 14 6 15 7 13 8 11 9 12 10 84 11
REMARK SMILES IDX 83 12 82 13 10 14 7 16 8 17 9 18 6 19 1 20 2 21 3 22 97 23
REMARK SMILES IDX 4 24 5 25 85 26 86 27 96 28 87 29 89 30 88 31 90 32 91 33
REMARK SMILES IDX 92 34 95 35 93 37 94 38 21 39 22 40 23 41 24 42 25 43 26 44
REMARK SMILES IDX 27 45 28 46 29 47 81 48 30 49 80 50 31 51 32 52 33 53 74 54
REMARK SMILES IDX 34 55 79 56 73 57 75 58 35 59 78 60 72 61 71 62 36 64 62 65
REMARK SMILES IDX 45 66 61 67 46 68 49 69 60 70 76 71 47 72 48 73 59 75 77 76
REMARK SMILES IDX 50 77 37 78 38 79 43 80 39 81 40 82 42 83 44 84 41 85 63 86
REMARK SMILES IDX 64 87 69 88 65 89 66 90 68 91 70 92 67 93 51 94 52 95 57 96
REMARK SMILES IDX 53 97 54 98 56 99 58 100 55 101
REMARK H PARENT 10 15 91 36 75 63 49 74
REMARK Flexibility Score: inf
ROOT
ATOM      1  C   UNL     1       4.595   0.460  -5.064  1.00  0.00     0.188 C 
ENDROOT
BRANCH   1   2
ATOM      2  O   UNL     1       3.753  -0.640  -5.383  1.00  0.00    -0.376 OA
BRANCH   2   3
ATOM      3  C   UNL     1       2.326  -0.438  -5.502  1.00  0.00     0.202 C 
BRANCH   3   4
ATOM      4  C   UNL     1       1.378  -0.767  -4.290  1.00  0.00     0.261 C 
BRANCH   4   5
ATOM      5  O   UNL     1       0.639   0.194  -3.369  1.00  0.00    -0.460 OA
BRANCH   5   6
ATOM      6  C   UNL     1       0.749   1.548  -3.383  1.00  0.00     0.338 C 
ATOM      7  O   UNL     1       1.138   2.019  -4.446  1.00  0.00    -0.246 OA
BRANCH   6   8
ATOM      8  C   UNL     1       0.514   2.538  -1.948  1.00  0.00     0.062 A 
ATOM      9  C   UNL     1      -0.648   4.103  -0.433  1.00  0.00     0.073 A 
ATOM     10  C   UNL     1      -0.626   3.230  -1.622  1.00  0.00     0.044 A 
ATOM     11  C   UNL     1       0.462   4.531   0.368  1.00  0.00     0.061 A 
ATOM     12  C   UNL     1       1.600   3.869   0.052  1.00  0.00     0.029 A 
ATOM     13  C   UNL     1       1.547   2.892  -0.966  1.00  0.00     0.018 A 
BRANCH   9  14
ATOM     14  N   UNL     1      -1.898   4.385   0.138  1.00  0.00    -0.277 N 
ATOM     15  H   UNL     1      -2.244   5.306   0.162  1.00  0.00     0.180 HD
BRANCH  14  16
ATOM     16  S   UNL     1      -2.791   3.116   0.777  1.00  0.00     0.261 S 
ATOM     17  O   UNL     1      -3.537   2.579  -0.346  1.00  0.00    -0.201 OA
ATOM     18  O   UNL     1      -3.474   3.692   1.916  1.00  0.00    -0.201 OA
BRANCH  16  19
ATOM     19  C   UNL     1      -1.838   1.723   1.432  1.00  0.00     0.088 A 
ATOM     20  C   UNL     1       1.598   0.447   2.598  1.00  0.00     0.044 C 
ATOM     21  C   UNL     1       0.108   0.521   2.345  1.00  0.00    -0.050 A 
ATOM     22  C   UNL     1      -0.638  -0.660   2.374  1.00  0.00     0.003 A 
ATOM     23  C   UNL     1      -0.519   1.718   1.913  1.00  0.00     0.025 A 
ATOM     24  C   UNL     1      -1.953  -0.667   1.915  1.00  0.00     0.002 A 
ATOM     25  C   UNL     1      -2.537   0.507   1.432  1.00  0.00     0.022 A 
ENDBRANCH  16  19
ENDBRANCH  14  16
ENDBRANCH   9  14
BRANCH  11  26
ATOM     26  N   UNL     1       0.498   5.363   1.496  1.00  0.00    -0.369 N 
ATOM     27  C   UNL     1       1.106   6.697   1.302  1.00  0.00     0.116 C 
ATOM     28  C   UNL     1      -0.316   5.178   2.708  1.00  0.00     0.126 C 
ATOM     29  C   UNL     1       1.692   7.284   2.598  1.00  0.00     0.022 C 
ATOM     30  C   UNL     1       0.366   5.678   4.008  1.00  0.00     0.064 C 
ATOM     31  C   UNL     1       0.750   7.142   3.788  1.00  0.00     0.013 C 
BRANCH  30  32
ATOM     32  C   UNL     1       1.529   4.760   4.489  1.00  0.00     0.267 C 
BRANCH  32  33
ATOM     33  N   UNL     1       2.022   4.843   5.875  1.00  0.00    -0.335 N 
ATOM     34  C   UNL     1       1.044   4.555   6.922  1.00  0.00     0.262 C 
ATOM     35  C   UNL     1       2.736   6.052   6.280  1.00  0.00     0.262 C 
ATOM     36  H   UNL     1       2.703   4.087   5.805  1.00  0.00     0.348 HD
ATOM     37  C   UNL     1       0.621   5.909   7.457  1.00  0.00     0.067 C 
ATOM     38  C   UNL     1       1.867   6.764   7.317  1.00  0.00     0.067 C 
ENDBRANCH  32  33
ENDBRANCH  30  32
ENDBRANCH  11  26
ENDBRANCH   6   8
ENDBRANCH   5   6
ENDBRANCH   4   5
ENDBRANCH   3   4
ENDBRANCH   2   3
ENDBRANCH   1   2
BRANCH   1  39
ATOM     39  C   UNL     1       4.731   1.655  -5.998  1.00  0.00     0.188 C 
BRANCH  39  40
ATOM     40  O   UNL     1       3.463   2.252  -6.175  1.00  0.00    -0.376 OA
BRANCH  40  41
ATOM     41  C   UNL     1       3.328   3.054  -7.335  1.00  0.00     0.202 C 
BRANCH  41  42
ATOM     42  C   UNL     1       4.197   4.324  -7.310  1.00  0.00     0.261 C 
BRANCH  42  43
ATOM     43  O   UNL     1       3.991   5.064  -6.085  1.00  0.00    -0.460 OA
BRANCH  43  44
ATOM     44  C   UNL     1       5.044   5.211  -5.225  1.00  0.00     0.338 C 
ATOM     45  O   UNL     1       6.224   5.350  -5.551  1.00  0.00    -0.246 OA
BRANCH  44  46
ATOM     46  C   UNL     1       4.606   4.849  -3.842  1.00  0.00     0.060 A 
ATOM     47  C   UNL     1       5.437   4.265  -2.886  1.00  0.00     0.016 A 
ATOM     48  C   UNL     1       3.302   4.558  -3.700  1.00  0.00     0.016 A 
ATOM     49  C   UNL     1       5.031   3.083  -2.147  1.00  0.00     0.010 A 
ATOM     50  C   UNL     1       3.027   3.324  -3.095  1.00  0.00     0.010 A 
ATOM     51  C   UNL     1       3.842   2.397  -2.383  1.00  0.00    -0.014 A 
BRANCH  51  52
ATOM     52  C   UNL     1       3.554   0.765  -1.875  1.00  0.00     0.031 A 
ATOM     53  C   UNL     1       2.252  -0.165  -1.332  1.00  0.00     0.074 A 
ATOM     54  C   UNL     1       4.631  -0.056  -1.978  1.00  0.00     0.049 A 
ATOM     55  N   UNL     1       2.125  -1.477  -1.433  1.00  0.00    -0.248 NA
ATOM     56  C   UNL     1       1.004   0.251  -0.672  1.00  0.00     0.031 C 
ATOM     57  C   UNL     1       4.702  -1.520  -1.984  1.00  0.00     0.029 A 
ATOM     58  N   UNL     1       5.972   0.313  -1.972  1.00  0.00    -0.354 N 
ATOM     59  C   UNL     1       0.822  -1.892  -1.138  1.00  0.00     0.074 A 
ATOM     60  C   UNL     1       0.102  -0.713  -0.847  1.00  0.00     0.031 C 
ATOM     61  C   UNL     1       5.920  -1.912  -1.605  1.00  0.00     0.029 A 
ATOM     62  C   UNL     1       6.659  -0.718  -1.304  1.00  0.00     0.049 A 
ATOM     63  H   UNL     1       6.362   1.130  -2.358  1.00  0.00     0.167 HD
ATOM     64  C   UNL     1       0.426  -3.144  -0.767  1.00  0.00     0.037 A 
ATOM     65  C   UNL     1       7.292  -0.447  -0.136  1.00  0.00     0.037 A 
ATOM     66  C   UNL     1       1.566  -3.781  -0.151  1.00  0.00     0.049 A 
ATOM     67  C   UNL     1       6.620  -1.149   1.024  1.00  0.00     0.074 A 
ATOM     68  C   UNL     1       2.616  -4.544  -0.608  1.00  0.00     0.029 A 
ATOM     69  N   UNL     1       1.946  -3.281   1.088  1.00  0.00    -0.354 N 
ATOM     70  N   UNL     1       5.400  -1.637   1.010  1.00  0.00    -0.248 NA
ATOM     71  C   UNL     1       7.323  -1.442   2.265  1.00  0.00     0.031 C 
ATOM     72  C   UNL     1       3.700  -4.328   0.297  1.00  0.00     0.029 A 
ATOM     73  C   UNL     1       3.284  -3.496   1.334  1.00  0.00     0.049 A 
ATOM     74  H   UNL     1       1.335  -2.828   1.713  1.00  0.00     0.167 HD
ATOM     75  C   UNL     1       5.153  -2.288   2.197  1.00  0.00     0.074 A 
ATOM     76  C   UNL     1       6.401  -2.160   2.925  1.00  0.00     0.031 C 
ATOM     77  C   UNL     1       3.967  -2.912   2.499  1.00  0.00     0.037 A 
BRANCH  64  78
ATOM     78  C   UNL     1      -1.024  -3.631  -0.677  1.00  0.00     0.057 A 
ATOM     79  C   UNL     1      -1.358  -4.846  -0.047  1.00  0.00     0.134 A 
ATOM     80  C   UNL     1      -2.127  -2.996  -1.300  1.00  0.00     0.134 A 
ATOM     81  F   UNL     1      -0.413  -5.609   0.521  1.00  0.00    -0.206 F 
ATOM     82  C   UNL     1      -2.674  -5.353   0.009  1.00  0.00     0.040 A 
ATOM     83  C   UNL     1      -3.454  -3.463  -1.206  1.00  0.00     0.040 A 
ATOM     84  F   UNL     1      -1.967  -1.906  -2.064  1.00  0.00    -0.206 F 
ATOM     85  C   UNL     1      -3.733  -4.651  -0.550  1.00  0.00     0.006 A 
ENDBRANCH  64  78
BRANCH  65  86
ATOM     86  C   UNL     1       8.008   0.863  -0.236  1.00  0.00     0.057 A 
ATOM     87  C   UNL     1       8.869   0.988  -1.359  1.00  0.00     0.134 A 
ATOM     88  C   UNL     1       7.543   2.053   0.325  1.00  0.00     0.134 A 
ATOM     89  F   UNL     1       9.363  -0.115  -1.949  1.00  0.00    -0.206 F 
ATOM     90  C   UNL     1       9.053   2.197  -2.029  1.00  0.00     0.040 A 
ATOM     91  C   UNL     1       7.808   3.293  -0.290  1.00  0.00     0.040 A 
ATOM     92  F   UNL     1       6.673   2.035   1.345  1.00  0.00    -0.206 F 
ATOM     93  C   UNL     1       8.504   3.355  -1.503  1.00  0.00     0.006 A 
ENDBRANCH  65  86
BRANCH  77  94
ATOM     94  C   UNL     1       3.464  -3.125   3.936  1.00  0.00     0.057 A 
ATOM     95  C   UNL     1       4.094  -2.603   5.084  1.00  0.00     0.134 A 
ATOM     96  C   UNL     1       2.244  -3.780   4.230  1.00  0.00     0.134 A 
ATOM     97  F   UNL     1       5.112  -1.739   5.009  1.00  0.00    -0.206 F 
ATOM     98  C   UNL     1       3.667  -2.865   6.395  1.00  0.00     0.040 A 
ATOM     99  C   UNL     1       1.766  -3.990   5.535  1.00  0.00     0.040 A 
ATOM    100  F   UNL     1       1.403  -4.191   3.273  1.00  0.00    -0.206 F 
ATOM    101  C   UNL     1       2.502  -3.572   6.628  1.00  0.00     0.006 A 
ENDBRANCH  77  94
ENDBRANCH  51  52
ENDBRANCH  44  46
ENDBRANCH  43  44
ENDBRANCH  42  43
ENDBRANCH  41  42
ENDBRANCH  40  41
ENDBRANCH  39  40
ENDBRANCH   1  39
TORSDOF 23
