REMARK SMILES CC1=C(C(=O)OCCOCCOCCOC(=O)c2ccc(-c3c4nc(c(-c5c(F)cccc5F)c5ccc([nH]5)c(-c5c(F)cccc5F)c5nc(c(-c6c(F)cccc6F)c6ccc3[nH]6)C=C5)C=C4)cc2)N2C(=O)[C@@H](NC(=O)c3c(Br)c(C)nn3C)[C@H]2SC1
REMARK SMILES IDX 10 1 9 2 8 3 7 4 6 5 4 6 5 7 3 8 1 9 2 10 89 11 72 12 88 13
REMARK SMILES IDX 73 14 87 15 74 16 75 17 76 18 77 19 78 21 79 22 80 23 85 24
REMARK SMILES IDX 81 25 82 26 84 27 86 28 83 29 11 30 12 31 13 32 14 33 15 34
REMARK SMILES IDX 16 35 17 36 18 37 19 38 71 39 20 40 70 41 21 42 22 43 23 44
REMARK SMILES IDX 64 45 24 46 69 47 63 48 65 49 25 50 68 51 62 52 61 53 26 55
REMARK SMILES IDX 52 56 35 57 51 58 36 59 39 60 50 61 66 62 37 63 38 64 49 66
REMARK SMILES IDX 67 67 40 68 27 69 28 70 33 71 29 72 30 73 32 74 34 75 31 76
REMARK SMILES IDX 53 77 54 78 59 79 55 80 56 81 58 82 60 83 57 84 41 85 42 86
REMARK SMILES IDX 47 87 43 88 44 89 46 90 48 91 45 92
REMARK H PARENT 76 20 65 54 39 65
REMARK Flexibility Score: inf
ROOT
ATOM      1  C   UNL     1      -0.904  -3.970   1.328  1.00  0.00     0.188 C 
ENDROOT
BRANCH   1   2
ATOM      2  O   UNL     1      -0.609  -5.334   1.069  1.00  0.00    -0.376 OA
BRANCH   2   3
ATOM      3  C   UNL     1       0.613  -5.651   0.405  1.00  0.00     0.202 C 
BRANCH   3   4
ATOM      4  C   UNL     1       0.916  -4.878  -0.875  1.00  0.00     0.261 C 
BRANCH   4   5
ATOM      5  O   UNL     1       1.266  -3.519  -0.558  1.00  0.00    -0.459 OA
BRANCH   5   6
ATOM      6  C   UNL     1       0.887  -2.602  -1.477  1.00  0.00     0.355 C 
ATOM      7  O   UNL     1       0.389  -2.844  -2.568  1.00  0.00    -0.244 OA
BRANCH   6   8
ATOM      8  C   UNL     1       1.050  -1.198  -0.970  1.00  0.00     0.131 C 
ATOM      9  C   UNL     1       3.437  -1.460  -0.171  1.00  0.00     0.043 C 
ATOM     10  C   UNL     1       2.158  -0.689  -0.383  1.00  0.00    -0.032 C 
ATOM     11  C   UNL     1       2.246   0.737   0.151  1.00  0.00     0.105 C 
ATOM     12  N   UNL     1      -0.011  -0.389  -1.220  1.00  0.00    -0.289 N 
ATOM     13  S   UNL     1       0.636   1.571   0.383  1.00  0.00    -0.129 SA
ATOM     14  C   UNL     1      -1.347  -0.539  -1.107  1.00  0.00     0.253 C 
ATOM     15  C   UNL     1       0.012   1.052  -1.237  1.00  0.00     0.181 C 
ATOM     16  O   UNL     1      -2.036  -1.465  -0.759  1.00  0.00    -0.272 OA
ATOM     17  C   UNL     1      -1.535   0.978  -1.451  1.00  0.00     0.206 C 
BRANCH  17  18
ATOM     18  N   UNL     1      -2.407   1.766  -0.554  1.00  0.00    -0.336 N 
ATOM     19  C   UNL     1      -3.615   2.361  -0.848  1.00  0.00     0.271 C 
ATOM     20  H   UNL     1      -2.084   1.879   0.369  1.00  0.00     0.164 HD
ATOM     21  O   UNL     1      -4.107   3.090   0.010  1.00  0.00    -0.267 OA
BRANCH  19  22
ATOM     22  C   UNL     1      -4.209   2.152  -2.144  1.00  0.00     0.140 A 
ATOM     23  C   UNL     1      -4.668   3.088  -3.050  1.00  0.00     0.071 A 
ATOM     24  N   UNL     1      -4.557   0.954  -2.718  1.00  0.00    -0.262 N 
ATOM     25  Br  UNL     1      -4.617   4.957  -2.915  1.00  0.00    -0.046 Br
ATOM     26  C   UNL     1      -5.170   2.376  -4.159  1.00  0.00     0.074 A 
ATOM     27  N   UNL     1      -5.039   1.060  -3.972  1.00  0.00    -0.177 NA
ATOM     28  C   UNL     1      -4.485  -0.369  -2.154  1.00  0.00     0.174 C 
ATOM     29  C   UNL     1      -5.771   2.879  -5.417  1.00  0.00     0.070 C 
ENDBRANCH  19  22
ENDBRANCH  17  18
ENDBRANCH   6   8
ENDBRANCH   5   6
ENDBRANCH   4   5
ENDBRANCH   3   4
ENDBRANCH   2   3
ENDBRANCH   1   2
BRANCH   1  30
ATOM     30  C   UNL     1       0.065  -3.128   2.184  1.00  0.00     0.188 C 
BRANCH  30  31
ATOM     31  O   UNL     1       1.105  -3.742   2.929  1.00  0.00    -0.376 OA
BRANCH  31  32
ATOM     32  C   UNL     1       0.805  -4.874   3.735  1.00  0.00     0.202 C 
BRANCH  32  33
ATOM     33  C   UNL     1      -0.219  -4.729   4.860  1.00  0.00     0.261 C 
BRANCH  33  34
ATOM     34  O   UNL     1      -1.502  -4.276   4.405  1.00  0.00    -0.460 OA
BRANCH  34  35
ATOM     35  C   UNL     1      -1.888  -3.071   4.889  1.00  0.00     0.338 C 
ATOM     36  O   UNL     1      -1.292  -2.361   5.681  1.00  0.00    -0.246 OA
BRANCH  35  37
ATOM     37  C   UNL     1      -3.106  -2.631   4.187  1.00  0.00     0.060 A 
ATOM     38  C   UNL     1      -3.077  -1.393   3.531  1.00  0.00     0.016 A 
ATOM     39  C   UNL     1      -4.276  -3.391   4.229  1.00  0.00     0.016 A 
ATOM     40  C   UNL     1      -4.235  -0.896   2.937  1.00  0.00     0.010 A 
ATOM     41  C   UNL     1      -5.442  -2.880   3.655  1.00  0.00     0.010 A 
ATOM     42  C   UNL     1      -5.432  -1.619   3.035  1.00  0.00    -0.014 A 
BRANCH  42  43
ATOM     43  C   UNL     1      -6.703  -0.980   2.628  1.00  0.00     0.031 A 
ATOM     44  C   UNL     1      -7.469  -0.184   3.643  1.00  0.00     0.074 A 
ATOM     45  C   UNL     1      -7.175  -1.116   1.379  1.00  0.00     0.049 A 
ATOM     46  N   UNL     1      -8.602   0.455   3.511  1.00  0.00    -0.248 NA
ATOM     47  C   UNL     1      -6.894  -0.126   4.996  1.00  0.00     0.031 C 
ATOM     48  C   UNL     1      -6.540  -1.895   0.323  1.00  0.00     0.029 A 
ATOM     49  N   UNL     1      -8.300  -0.595   0.790  1.00  0.00    -0.354 N 
ATOM     50  C   UNL     1      -8.892   0.965   4.768  1.00  0.00     0.074 A 
ATOM     51  C   UNL     1      -7.817   0.562   5.649  1.00  0.00     0.031 C 
ATOM     52  C   UNL     1      -7.272  -1.776  -0.798  1.00  0.00     0.029 A 
ATOM     53  C   UNL     1      -8.415  -0.905  -0.542  1.00  0.00     0.049 A 
ATOM     54  H   UNL     1      -8.960  -0.051   1.276  1.00  0.00     0.167 HD
ATOM     55  C   UNL     1      -9.968   1.689   5.157  1.00  0.00     0.037 A 
ATOM     56  C   UNL     1      -9.329  -0.515  -1.450  1.00  0.00     0.037 A 
ATOM     57  C   UNL     1     -11.041   2.082   4.282  1.00  0.00     0.049 A 
ATOM     58  C   UNL     1     -10.495   0.325  -1.003  1.00  0.00     0.074 A 
ATOM     59  C   UNL     1     -12.171   2.821   4.582  1.00  0.00     0.029 A 
ATOM     60  N   UNL     1     -11.117   1.761   2.935  1.00  0.00    -0.354 N 
ATOM     61  N   UNL     1     -10.753   0.820   0.183  1.00  0.00    -0.248 NA
ATOM     62  C   UNL     1     -11.518   0.628  -2.015  1.00  0.00     0.031 C 
ATOM     63  C   UNL     1     -12.953   2.911   3.425  1.00  0.00     0.029 A 
ATOM     64  C   UNL     1     -12.287   2.267   2.395  1.00  0.00     0.049 A 
ATOM     65  H   UNL     1     -10.439   1.250   2.437  1.00  0.00     0.167 HD
ATOM     66  C   UNL     1     -11.967   1.485   0.063  1.00  0.00     0.074 A 
ATOM     67  C   UNL     1     -12.377   1.362  -1.321  1.00  0.00     0.031 C 
ATOM     68  C   UNL     1     -12.686   2.125   1.018  1.00  0.00     0.037 A 
BRANCH  55  69
ATOM     69  C   UNL     1     -10.056   2.047   6.609  1.00  0.00     0.057 A 
ATOM     70  C   UNL     1      -9.230   3.019   7.186  1.00  0.00     0.134 A 
ATOM     71  C   UNL     1     -10.978   1.401   7.443  1.00  0.00     0.134 A 
ATOM     72  F   UNL     1      -8.312   3.658   6.446  1.00  0.00    -0.206 F 
ATOM     73  C   UNL     1      -9.300   3.318   8.548  1.00  0.00     0.040 A 
ATOM     74  C   UNL     1     -11.073   1.708   8.800  1.00  0.00     0.040 A 
ATOM     75  F   UNL     1     -11.797   0.459   6.952  1.00  0.00    -0.206 F 
ATOM     76  C   UNL     1     -10.227   2.664   9.358  1.00  0.00     0.006 A 
ENDBRANCH  55  69
BRANCH  56  77
ATOM     77  C   UNL     1      -9.173  -0.884  -2.880  1.00  0.00     0.057 A 
ATOM     78  C   UNL     1      -8.883   0.093  -3.841  1.00  0.00     0.134 A 
ATOM     79  C   UNL     1      -9.315  -2.203  -3.325  1.00  0.00     0.134 A 
ATOM     80  F   UNL     1      -8.769   1.381  -3.482  1.00  0.00    -0.206 F 
ATOM     81  C   UNL     1      -8.752  -0.227  -5.193  1.00  0.00     0.040 A 
ATOM     82  C   UNL     1      -9.162  -2.541  -4.671  1.00  0.00     0.040 A 
ATOM     83  F   UNL     1      -9.592  -3.185  -2.455  1.00  0.00    -0.206 F 
ATOM     84  C   UNL     1      -8.885  -1.550  -5.610  1.00  0.00     0.006 A 
ENDBRANCH  56  77
BRANCH  68  85
ATOM     85  C   UNL     1     -13.993   2.731   0.600  1.00  0.00     0.057 A 
ATOM     86  C   UNL     1     -15.117   1.938   0.335  1.00  0.00     0.134 A 
ATOM     87  C   UNL     1     -14.144   4.120   0.509  1.00  0.00     0.134 A 
ATOM     88  F   UNL     1     -15.036   0.600   0.394  1.00  0.00    -0.206 F 
ATOM     89  C   UNL     1     -16.341   2.506  -0.025  1.00  0.00     0.040 A 
ATOM     90  C   UNL     1     -15.368   4.700   0.173  1.00  0.00     0.040 A 
ATOM     91  F   UNL     1     -13.108   4.935   0.760  1.00  0.00    -0.206 F 
ATOM     92  C   UNL     1     -16.470   3.892  -0.100  1.00  0.00     0.006 A 
ENDBRANCH  68  85
ENDBRANCH  42  43
ENDBRANCH  35  37
ENDBRANCH  34  35
ENDBRANCH  33  34
ENDBRANCH  32  33
ENDBRANCH  31  32
ENDBRANCH  30  31
ENDBRANCH   1  30
TORSDOF 19
