REMARK SMILES O=C(CCC(=O)OCCOCCOCCOC(=O)c1ccc(-c2c3nc(c(-c4c(F)cccc4F)c4ccc([nH]4)c(-c4c(F)cccc4F)c4nc(c(-c5c(F)cccc5F)c5ccc2[nH]5)C=C4)C=C3)cc1)/[NH+]=C1\S[C@H]2CS(=O)(=O)C[C@@H]2N1c1ccc2c(c1)OCO2
REMARK SMILES IDX 11 1 10 2 9 3 8 4 7 5 5 6 6 7 4 8 3 9 2 10 1 11 73 12 74 13
REMARK SMILES IDX 75 15 83 16 76 17 82 18 77 19 81 20 78 21 79 22 80 23 84 24
REMARK SMILES IDX 85 25 89 26 86 27 88 28 87 29 90 30 92 31 91 32 12 33 13 34
REMARK SMILES IDX 14 35 15 36 16 37 17 38 18 39 19 40 20 41 72 42 21 43 71 44
REMARK SMILES IDX 22 45 23 46 24 47 65 48 25 49 70 50 64 51 66 52 26 53 69 54
REMARK SMILES IDX 63 55 62 56 27 58 53 59 36 60 52 61 37 62 40 63 51 64 67 65
REMARK SMILES IDX 38 66 39 67 50 69 68 70 41 71 28 72 29 73 34 74 30 75 31 76
REMARK SMILES IDX 33 77 35 78 32 79 54 80 55 81 60 82 56 83 57 84 59 85 61 86
REMARK SMILES IDX 58 87 42 88 43 89 48 90 44 91 45 92 47 93 49 94 46 95
REMARK H PARENT 73 14 66 57 40 68
REMARK Flexibility Score: inf
ROOT
ATOM      1  C   UNL     1       5.970   1.403  -0.967  1.00  0.00     0.188 C 
ENDROOT
BRANCH   1   2
ATOM      2  O   UNL     1       6.880   1.539   0.148  1.00  0.00    -0.376 OA
BRANCH   2   3
ATOM      3  C   UNL     1       6.722   2.599   1.114  1.00  0.00     0.202 C 
BRANCH   3   4
ATOM      4  C   UNL     1       5.632   2.588   2.241  1.00  0.00     0.261 C 
BRANCH   4   5
ATOM      5  O   UNL     1       4.339   2.063   1.927  1.00  0.00    -0.463 OA
BRANCH   5   6
ATOM      6  C   UNL     1       3.599   2.707   1.011  1.00  0.00     0.306 C 
ATOM      7  O   UNL     1       3.868   3.813   0.563  1.00  0.00    -0.252 OA
BRANCH   6   8
ATOM      8  C   UNL     1       2.423   1.860   0.571  1.00  0.00     0.135 C 
BRANCH   8   9
ATOM      9  C   UNL     1       2.618   0.330   0.670  1.00  0.00     0.139 C 
BRANCH   9  10
ATOM     10  C   UNL     1       2.502  -0.271   2.083  1.00  0.00     0.308 C 
ATOM     11  O   UNL     1       1.419  -0.060   2.641  1.00  0.00    -0.247 OA
ATOM     12  N   UNL     1       3.434  -1.087   2.733  1.00  0.00    -0.204 N 
ATOM     13  C   UNL     1       4.712  -1.181   2.601  1.00  0.00     0.319 C 
ATOM     14  H   UNL     1       3.048  -1.692   3.406  1.00  0.00     0.316 HD
ATOM     15  S   UNL     1       5.598  -0.421   1.371  1.00  0.00    -0.029 SA
ATOM     16  N   UNL     1       5.684  -1.885   3.315  1.00  0.00    -0.216 N 
ATOM     17  C   UNL     1       7.056  -1.393   1.476  1.00  0.00     0.120 C 
ATOM     18  C   UNL     1       7.093  -1.591   2.973  1.00  0.00     0.212 C 
ATOM     19  C   UNL     1       8.402  -0.883   1.035  1.00  0.00     0.156 C 
ATOM     20  C   UNL     1       8.210  -2.606   3.112  1.00  0.00     0.188 C 
ATOM     21  S   UNL     1       9.479  -1.936   1.993  1.00  0.00     0.155 S 
ATOM     22  O   UNL     1       9.952  -2.998   1.130  1.00  0.00    -0.229 OA
ATOM     23  O   UNL     1      10.372  -1.085   2.748  1.00  0.00    -0.229 OA
BRANCH  16  24
ATOM     24  C   UNL     1       5.366  -2.969   4.100  1.00  0.00     0.132 A 
ATOM     25  C   UNL     1       5.188  -2.800   5.484  1.00  0.00     0.056 A 
ATOM     26  C   UNL     1       5.124  -4.199   3.482  1.00  0.00     0.102 A 
ATOM     27  C   UNL     1       4.704  -3.847   6.261  1.00  0.00     0.055 A 
ATOM     28  C   UNL     1       4.617  -5.197   4.263  1.00  0.00     0.170 A 
ATOM     29  C   UNL     1       4.396  -5.022   5.611  1.00  0.00     0.166 A 
ATOM     30  O   UNL     1       4.196  -6.407   3.814  1.00  0.00    -0.453 OA
ATOM     31  O   UNL     1       3.789  -6.107   6.162  1.00  0.00    -0.454 OA
ATOM     32  C   UNL     1       3.437  -6.829   4.962  1.00  0.00     0.468 C 
ENDBRANCH  16  24
ENDBRANCH   9  10
ENDBRANCH   8   9
ENDBRANCH   6   8
ENDBRANCH   5   6
ENDBRANCH   4   5
ENDBRANCH   3   4
ENDBRANCH   2   3
ENDBRANCH   1   2
BRANCH   1  33
ATOM     33  C   UNL     1       5.997  -0.066  -1.610  1.00  0.00     0.188 C 
BRANCH  33  34
ATOM     34  O   UNL     1       4.792  -0.862  -1.590  1.00  0.00    -0.376 OA
BRANCH  34  35
ATOM     35  C   UNL     1       4.652  -2.224  -1.115  1.00  0.00     0.202 C 
BRANCH  35  36
ATOM     36  C   UNL     1       5.672  -3.377  -1.269  1.00  0.00     0.261 C 
BRANCH  36  37
ATOM     37  O   UNL     1       6.728  -3.092  -2.150  1.00  0.00    -0.460 OA
BRANCH  37  38
ATOM     38  C   UNL     1       6.315  -3.069  -3.443  1.00  0.00     0.338 C 
ATOM     39  O   UNL     1       5.295  -3.492  -3.913  1.00  0.00    -0.246 OA
BRANCH  38  40
ATOM     40  C   UNL     1       7.214  -2.086  -4.055  1.00  0.00     0.060 A 
ATOM     41  C   UNL     1       6.600  -0.978  -4.643  1.00  0.00     0.016 A 
ATOM     42  C   UNL     1       8.598  -2.163  -3.869  1.00  0.00     0.016 A 
ATOM     43  C   UNL     1       7.380   0.098  -5.030  1.00  0.00     0.010 A 
ATOM     44  C   UNL     1       9.386  -1.119  -4.322  1.00  0.00     0.010 A 
ATOM     45  C   UNL     1       8.772  -0.012  -4.932  1.00  0.00    -0.014 A 
BRANCH  45  46
ATOM     46  C   UNL     1       9.576   0.805  -5.846  1.00  0.00     0.031 A 
ATOM     47  C   UNL     1       9.720   0.255  -7.235  1.00  0.00     0.074 A 
ATOM     48  C   UNL     1      10.148   1.950  -5.448  1.00  0.00     0.049 A 
ATOM     49  N   UNL     1      10.450   0.686  -8.225  1.00  0.00    -0.248 NA
ATOM     50  C   UNL     1       8.937  -0.958  -7.551  1.00  0.00     0.031 C 
ATOM     51  C   UNL     1      10.007   2.566  -4.129  1.00  0.00     0.029 A 
ATOM     52  N   UNL     1      10.990   2.785  -6.127  1.00  0.00    -0.354 N 
ATOM     53  C   UNL     1      10.221  -0.209  -9.262  1.00  0.00     0.074 A 
ATOM     54  C   UNL     1       9.296  -1.208  -8.796  1.00  0.00     0.031 C 
ATOM     55  C   UNL     1      10.771   3.674  -4.086  1.00  0.00     0.029 A 
ATOM     56  C   UNL     1      11.477   3.812  -5.358  1.00  0.00     0.049 A 
ATOM     57  H   UNL     1      11.224   2.663  -7.075  1.00  0.00     0.167 HD
ATOM     58  C   UNL     1      10.755  -0.198 -10.499  1.00  0.00     0.037 A 
ATOM     59  C   UNL     1      12.422   4.722  -5.660  1.00  0.00     0.037 A 
ATOM     60  C   UNL     1      11.690   0.796 -10.931  1.00  0.00     0.049 A 
ATOM     61  C   UNL     1      13.055   4.666  -7.029  1.00  0.00     0.074 A 
ATOM     62  C   UNL     1      12.295   0.927 -12.164  1.00  0.00     0.029 A 
ATOM     63  N   UNL     1      12.162   1.821 -10.127  1.00  0.00    -0.354 N 
ATOM     64  N   UNL     1      12.811   3.844  -8.024  1.00  0.00    -0.248 NA
ATOM     65  C   UNL     1      14.099   5.658  -7.318  1.00  0.00     0.031 C 
ATOM     66  C   UNL     1      13.181   2.003 -12.088  1.00  0.00     0.029 A 
ATOM     67  C   UNL     1      13.077   2.579 -10.829  1.00  0.00     0.049 A 
ATOM     68  H   UNL     1      11.888   1.984  -9.195  1.00  0.00     0.167 HD
ATOM     69  C   UNL     1      13.636   4.248  -9.067  1.00  0.00     0.074 A 
ATOM     70  C   UNL     1      14.384   5.389  -8.584  1.00  0.00     0.031 C 
ATOM     71  C   UNL     1      13.769   3.730 -10.313  1.00  0.00     0.037 A 
BRANCH  58  72
ATOM     72  C   UNL     1      10.383  -1.308 -11.428  1.00  0.00     0.057 A 
ATOM     73  C   UNL     1       9.113  -1.397 -12.011  1.00  0.00     0.134 A 
ATOM     74  C   UNL     1      11.322  -2.292 -11.760  1.00  0.00     0.134 A 
ATOM     75  F   UNL     1       8.158  -0.508 -11.701  1.00  0.00    -0.206 F 
ATOM     76  C   UNL     1       8.791  -2.426 -12.897  1.00  0.00     0.040 A 
ATOM     77  C   UNL     1      11.020  -3.310 -12.664  1.00  0.00     0.040 A 
ATOM     78  F   UNL     1      12.548  -2.275 -11.216  1.00  0.00    -0.206 F 
ATOM     79  C   UNL     1       9.751  -3.378 -13.236  1.00  0.00     0.006 A 
ENDBRANCH  58  72
BRANCH  59  80
ATOM     80  C   UNL     1      12.861   5.728  -4.658  1.00  0.00     0.057 A 
ATOM     81  C   UNL     1      12.657   7.097  -4.865  1.00  0.00     0.134 A 
ATOM     82  C   UNL     1      13.553   5.351  -3.500  1.00  0.00     0.134 A 
ATOM     83  F   UNL     1      12.017   7.525  -5.963  1.00  0.00    -0.206 F 
ATOM     84  C   UNL     1      13.157   8.055  -3.980  1.00  0.00     0.040 A 
ATOM     85  C   UNL     1      14.033   6.296  -2.591  1.00  0.00     0.040 A 
ATOM     86  F   UNL     1      13.779   4.055  -3.236  1.00  0.00    -0.206 F 
ATOM     87  C   UNL     1      13.848   7.654  -2.838  1.00  0.00     0.006 A 
ENDBRANCH  59  80
BRANCH  71  88
ATOM     88  C   UNL     1      14.697   4.431 -11.257  1.00  0.00     0.057 A 
ATOM     89  C   UNL     1      16.088   4.345 -11.131  1.00  0.00     0.134 A 
ATOM     90  C   UNL     1      14.183   5.125 -12.360  1.00  0.00     0.134 A 
ATOM     91  F   UNL     1      16.638   3.699 -10.092  1.00  0.00    -0.206 F 
ATOM     92  C   UNL     1      16.937   4.941 -12.062  1.00  0.00     0.040 A 
ATOM     93  C   UNL     1      15.021   5.696 -13.315  1.00  0.00     0.040 A 
ATOM     94  F   UNL     1      12.857   5.225 -12.545  1.00  0.00    -0.206 F 
ATOM     95  C   UNL     1      16.403   5.609 -13.164  1.00  0.00     0.006 A 
ENDBRANCH  71  88
ENDBRANCH  45  46
ENDBRANCH  38  40
ENDBRANCH  37  38
ENDBRANCH  36  37
ENDBRANCH  35  36
ENDBRANCH  34  35
ENDBRANCH  33  34
ENDBRANCH   1  33
TORSDOF 20
