REMARK SMILES CC(C)c1cc(OCC(=O)OCCOCCOCCOC(=O)c2ccc(-c3c4nc(c(-c5c(F)cccc5F)c5ccc([nH]5)c(-c5c(F)cccc5F)c5nc(c(-c6c(F)cccc6F)c6ccc3[nH]6)C=C5)C=C4)cc2)nc(Nc2ccc(F)cc2F)n1
REMARK SMILES IDX 15 1 14 2 13 3 12 4 11 5 9 6 10 7 8 8 7 9 6 10 4 11 5 12
REMARK SMILES IDX 88 13 78 14 77 15 2 16 1 17 3 18 79 19 80 21 81 22 86 23
REMARK SMILES IDX 82 24 85 25 87 26 83 27 84 28 16 29 17 30 18 31 19 32 20 33
REMARK SMILES IDX 21 34 22 35 23 36 24 37 76 38 25 39 75 40 26 41 27 42 28 43
REMARK SMILES IDX 69 44 29 45 74 46 68 47 70 48 30 49 73 50 67 51 66 52 31 54
REMARK SMILES IDX 57 55 40 56 56 57 41 58 44 59 55 60 71 61 42 62 43 63 54 65
REMARK SMILES IDX 72 66 45 67 32 68 33 69 38 70 34 71 35 72 37 73 39 74 36 75
REMARK SMILES IDX 58 76 59 77 64 78 60 79 61 80 63 81 65 82 62 83 46 84 47 85
REMARK SMILES IDX 52 86 48 87 49 88 51 89 53 90 50 91
REMARK H PARENT 79 20 70 53 44 64
REMARK Flexibility Score: inf
ROOT
ATOM      1  C   UNL     1      -0.901  -2.012  -2.236  1.00  0.00     0.188 C 
ENDROOT
BRANCH   1   2
ATOM      2  O   UNL     1      -0.969  -3.307  -2.829  1.00  0.00    -0.376 OA
BRANCH   2   3
ATOM      3  C   UNL     1      -2.222  -3.650  -3.411  1.00  0.00     0.202 C 
BRANCH   3   4
ATOM      4  C   UNL     1      -3.357  -3.785  -2.382  1.00  0.00     0.261 C 
BRANCH   4   5
ATOM      5  O   UNL     1      -3.609  -2.532  -1.688  1.00  0.00    -0.461 OA
BRANCH   5   6
ATOM      6  C   UNL     1      -3.658  -2.571  -0.323  1.00  0.00     0.344 C 
ATOM      7  O   UNL     1      -3.713  -3.609   0.330  1.00  0.00    -0.248 OA
BRANCH   6   8
ATOM      8  C   UNL     1      -3.497  -1.179   0.351  1.00  0.00     0.353 C 
BRANCH   8   9
ATOM      9  O   UNL     1      -3.540  -0.049  -0.510  1.00  0.00    -0.466 OA
BRANCH   9  10
ATOM     10  C   UNL     1      -3.153   1.169   0.033  1.00  0.00     0.218 A 
ATOM     11  C   UNL     1      -1.408   2.787   0.209  1.00  0.00     0.052 A 
ATOM     12  C   UNL     1      -1.798   1.463   0.197  1.00  0.00     0.092 A 
ATOM     13  N   UNL     1      -2.372   3.695   0.161  1.00  0.00    -0.217 NA
ATOM     14  C   UNL     1      -3.669   3.371   0.095  1.00  0.00     0.230 A 
ATOM     15  N   UNL     1      -4.112   2.113   0.038  1.00  0.00    -0.177 NA
BRANCH  11  16
ATOM     16  C   UNL     1      -0.011   3.407   0.305  1.00  0.00     0.032 C 
ATOM     17  C   UNL     1       0.939   3.248  -0.887  1.00  0.00     0.014 C 
ATOM     18  C   UNL     1      -0.091   4.948   0.451  1.00  0.00     0.014 C 
ENDBRANCH  11  16
BRANCH  14  19
ATOM     19  N   UNL     1      -4.528   4.474   0.147  1.00  0.00    -0.322 N 
ATOM     20  H   UNL     1      -5.498   4.335   0.243  1.00  0.00     0.170 HD
BRANCH  19  21
ATOM     21  C   UNL     1      -4.010   5.788   0.065  1.00  0.00     0.077 A 
ATOM     22  C   UNL     1      -3.947   6.601   1.204  1.00  0.00     0.032 A 
ATOM     23  C   UNL     1      -3.250   6.176  -1.066  1.00  0.00     0.149 A 
ATOM     24  C   UNL     1      -3.126   7.739   1.212  1.00  0.00     0.041 A 
ATOM     25  C   UNL     1      -2.442   7.306  -1.066  1.00  0.00     0.080 A 
ATOM     26  F   UNL     1      -3.233   5.393  -2.159  1.00  0.00    -0.205 F 
ATOM     27  C   UNL     1      -2.375   8.070   0.086  1.00  0.00     0.126 A 
ATOM     28  F   UNL     1      -1.544   9.120   0.130  1.00  0.00    -0.207 F 
ENDBRANCH  19  21
ENDBRANCH  14  19
ENDBRANCH   9  10
ENDBRANCH   8   9
ENDBRANCH   6   8
ENDBRANCH   5   6
ENDBRANCH   4   5
ENDBRANCH   3   4
ENDBRANCH   2   3
ENDBRANCH   1   2
BRANCH   1  29
ATOM     29  C   UNL     1      -1.513  -0.862  -3.054  1.00  0.00     0.188 C 
BRANCH  29  30
ATOM     30  O   UNL     1      -0.677  -0.599  -4.184  1.00  0.00    -0.376 OA
BRANCH  30  31
ATOM     31  C   UNL     1      -0.032   0.672  -4.136  1.00  0.00     0.202 C 
BRANCH  31  32
ATOM     32  C   UNL     1       1.495   0.595  -3.861  1.00  0.00     0.261 C 
BRANCH  32  33
ATOM     33  O   UNL     1       2.055   0.008  -2.646  1.00  0.00    -0.460 OA
BRANCH  33  34
ATOM     34  C   UNL     1       1.340   0.158  -1.524  1.00  0.00     0.338 C 
ATOM     35  O   UNL     1       0.201   0.582  -1.496  1.00  0.00    -0.246 OA
BRANCH  34  36
ATOM     36  C   UNL     1       1.984  -0.045  -0.209  1.00  0.00     0.060 A 
ATOM     37  C   UNL     1       1.119  -0.419   0.835  1.00  0.00     0.016 A 
ATOM     38  C   UNL     1       3.194   0.578   0.088  1.00  0.00     0.016 A 
ATOM     39  C   UNL     1       1.377  -0.035   2.148  1.00  0.00     0.010 A 
ATOM     40  C   UNL     1       3.500   0.878   1.424  1.00  0.00     0.010 A 
ATOM     41  C   UNL     1       2.592   0.589   2.461  1.00  0.00    -0.014 A 
BRANCH  41  42
ATOM     42  C   UNL     1       3.056   0.635   3.870  1.00  0.00     0.031 A 
ATOM     43  C   UNL     1       3.292   1.904   4.635  1.00  0.00     0.074 A 
ATOM     44  C   UNL     1       3.407  -0.554   4.394  1.00  0.00     0.049 A 
ATOM     45  N   UNL     1       3.965   2.073   5.747  1.00  0.00    -0.248 NA
ATOM     46  C   UNL     1       2.697   3.137   4.102  1.00  0.00     0.031 C 
ATOM     47  C   UNL     1       3.197  -1.852   3.741  1.00  0.00     0.029 A 
ATOM     48  N   UNL     1       4.068  -0.867   5.551  1.00  0.00    -0.354 N 
ATOM     49  C   UNL     1       3.907   3.432   6.037  1.00  0.00     0.074 A 
ATOM     50  C   UNL     1       3.114   4.042   4.985  1.00  0.00     0.031 C 
ATOM     51  C   UNL     1       3.766  -2.811   4.475  1.00  0.00     0.029 A 
ATOM     52  C   UNL     1       4.435  -2.188   5.604  1.00  0.00     0.049 A 
ATOM     53  H   UNL     1       4.258  -0.216   6.265  1.00  0.00     0.167 HD
ATOM     54  C   UNL     1       4.478   4.092   7.077  1.00  0.00     0.037 A 
ATOM     55  C   UNL     1       5.280  -2.835   6.422  1.00  0.00     0.037 A 
ATOM     56  C   UNL     1       5.255   3.452   8.117  1.00  0.00     0.049 A 
ATOM     57  C   UNL     1       5.934  -2.080   7.526  1.00  0.00     0.074 A 
ATOM     58  C   UNL     1       5.831   4.022   9.242  1.00  0.00     0.029 A 
ATOM     59  N   UNL     1       5.576   2.102   8.154  1.00  0.00    -0.354 N 
ATOM     60  N   UNL     1       5.870  -0.800   7.792  1.00  0.00    -0.248 NA
ATOM     61  C   UNL     1       6.760  -2.860   8.451  1.00  0.00     0.031 C 
ATOM     62  C   UNL     1       6.540   3.029   9.930  1.00  0.00     0.029 A 
ATOM     63  C   UNL     1       6.364   1.828   9.264  1.00  0.00     0.049 A 
ATOM     64  H   UNL     1       5.287   1.435   7.490  1.00  0.00     0.167 HD
ATOM     65  C   UNL     1       6.629  -0.618   8.935  1.00  0.00     0.074 A 
ATOM     66  C   UNL     1       7.135  -1.925   9.312  1.00  0.00     0.031 C 
ATOM     67  C   UNL     1       6.875   0.527   9.615  1.00  0.00     0.037 A 
BRANCH  54  68
ATOM     68  C   UNL     1       4.330   5.590   7.149  1.00  0.00     0.057 A 
ATOM     69  C   UNL     1       3.125   6.208   7.506  1.00  0.00     0.134 A 
ATOM     70  C   UNL     1       5.446   6.421   6.969  1.00  0.00     0.134 A 
ATOM     71  F   UNL     1       2.017   5.478   7.700  1.00  0.00    -0.206 F 
ATOM     72  C   UNL     1       3.033   7.595   7.670  1.00  0.00     0.040 A 
ATOM     73  C   UNL     1       5.372   7.805   7.151  1.00  0.00     0.040 A 
ATOM     74  F   UNL     1       6.638   5.899   6.644  1.00  0.00    -0.206 F 
ATOM     75  C   UNL     1       4.161   8.396   7.501  1.00  0.00     0.006 A 
ENDBRANCH  54  68
BRANCH  55  76
ATOM     76  C   UNL     1       5.523  -4.274   6.185  1.00  0.00     0.057 A 
ATOM     77  C   UNL     1       4.900  -5.237   6.982  1.00  0.00     0.134 A 
ATOM     78  C   UNL     1       6.259  -4.716   5.077  1.00  0.00     0.134 A 
ATOM     79  F   UNL     1       4.181  -4.864   8.050  1.00  0.00    -0.206 F 
ATOM     80  C   UNL     1       4.993  -6.595   6.683  1.00  0.00     0.040 A 
ATOM     81  C   UNL     1       6.340  -6.070   4.753  1.00  0.00     0.040 A 
ATOM     82  F   UNL     1       6.848  -3.832   4.258  1.00  0.00    -0.206 F 
ATOM     83  C   UNL     1       5.704  -7.013   5.559  1.00  0.00     0.006 A 
ENDBRANCH  55  76
BRANCH  67  84
ATOM     84  C   UNL     1       7.713   0.392  10.850  1.00  0.00     0.057 A 
ATOM     85  C   UNL     1       9.092   0.160  10.781  1.00  0.00     0.134 A 
ATOM     86  C   UNL     1       7.126   0.458  12.119  1.00  0.00     0.134 A 
ATOM     87  F   UNL     1       9.707   0.063   9.593  1.00  0.00    -0.206 F 
ATOM     88  C   UNL     1       9.854  -0.036  11.934  1.00  0.00     0.040 A 
ATOM     89  C   UNL     1       7.881   0.286  13.279  1.00  0.00     0.040 A 
ATOM     90  F   UNL     1       5.809   0.676  12.251  1.00  0.00    -0.206 F 
ATOM     91  C   UNL     1       9.248   0.028  13.187  1.00  0.00     0.006 A 
ENDBRANCH  67  84
ENDBRANCH  41  42
ENDBRANCH  34  36
ENDBRANCH  33  34
ENDBRANCH  32  33
ENDBRANCH  31  32
ENDBRANCH  30  31
ENDBRANCH  29  30
ENDBRANCH   1  29
TORSDOF 22
