REMARK SMILES Cc1cccc(NC(=O)[C@H]2C=C[C@@H]([NH3+])C2)c1C(=O)OCCOCCOCCOC(=O)c1ccc(-c2c3nc(c(-c4c(F)cccc4F)c4ccc([nH]4)c(-c4c(F)cccc4F)c4nc(c(-c5c(F)cccc5F)c5ccc2[nH]5)C=C4)C=C3)cc1
REMARK SMILES IDX 23 1 22 2 21 3 20 4 19 5 17 6 18 7 16 8 1 9 2 10 3 11 4 12
REMARK SMILES IDX 6 13 5 14 7 15 8 16 9 18 10 19 11 20 15 21 12 22 13 23 14 24
REMARK SMILES IDX 24 28 25 29 26 30 27 31 28 32 29 33 30 34 31 35 32 36 84 37
REMARK SMILES IDX 33 38 83 39 34 40 35 41 36 42 77 43 37 44 82 45 76 46 78 47
REMARK SMILES IDX 38 48 81 49 75 50 74 51 39 53 65 54 48 55 64 56 49 57 52 58
REMARK SMILES IDX 63 59 79 60 50 61 51 62 62 64 80 65 53 66 40 67 41 68 46 69
REMARK SMILES IDX 42 70 43 71 45 72 47 73 44 74 66 75 67 76 72 77 68 78 69 79
REMARK SMILES IDX 71 80 73 81 70 82 54 83 55 84 60 85 56 86 57 87 59 88 61 89
REMARK SMILES IDX 58 90
REMARK H PARENT 7 17 14 25 14 26 14 27 78 52 52 63
REMARK Flexibility Score: inf
ROOT
ATOM      1  C   UNL     1       2.896   5.397  -2.074  1.00  0.00     0.188 C 
ENDROOT
BRANCH   1   2
ATOM      2  O   UNL     1       3.705   4.641  -1.142  1.00  0.00    -0.376 OA
BRANCH   2   3
ATOM      3  C   UNL     1       4.468   3.453  -1.446  1.00  0.00     0.202 C 
BRANCH   3   4
ATOM      4  C   UNL     1       4.165   1.927  -0.757  1.00  0.00     0.261 C 
BRANCH   4   5
ATOM      5  O   UNL     1       2.924   0.819  -1.075  1.00  0.00    -0.460 OA
BRANCH   5   6
ATOM      6  C   UNL     1       1.655   0.438  -0.509  1.00  0.00     0.340 C 
ATOM      7  O   UNL     1       1.110   0.889   0.496  1.00  0.00    -0.246 OA
BRANCH   6   8
ATOM      8  C   UNL     1       0.758  -0.632  -0.991  1.00  0.00     0.086 A 
ATOM      9  C   UNL     1       2.841  -2.058  -1.286  1.00  0.00     0.045 C 
ATOM     10  C   UNL     1       1.356  -1.842  -1.366  1.00  0.00    -0.034 A 
ATOM     11  C   UNL     1       0.524  -2.940  -1.606  1.00  0.00     0.004 A 
ATOM     12  C   UNL     1      -0.863  -2.842  -1.493  1.00  0.00     0.002 A 
ATOM     13  C   UNL     1      -0.692  -0.567  -0.731  1.00  0.00     0.056 A 
ATOM     14  C   UNL     1      -1.460  -1.661  -1.070  1.00  0.00     0.027 A 
BRANCH  13  15
ATOM     15  N   UNL     1      -1.293   0.466   0.062  1.00  0.00    -0.325 N 
ATOM     16  C   UNL     1      -2.514   0.822   0.565  1.00  0.00     0.231 C 
ATOM     17  H   UNL     1      -0.614   1.127   0.328  1.00  0.00     0.169 HD
ATOM     18  O   UNL     1      -2.476   1.655   1.489  1.00  0.00    -0.274 OA
BRANCH  16  19
ATOM     19  C   UNL     1      -3.931   0.392   0.133  1.00  0.00     0.107 C 
ATOM     20  C   UNL     1      -4.257   0.486  -1.322  1.00  0.00    -0.012 C 
ATOM     21  C   UNL     1      -4.466  -0.978   0.569  1.00  0.00     0.087 C 
ATOM     22  C   UNL     1      -5.022  -0.536  -1.720  1.00  0.00     0.033 C 
ATOM     23  C   UNL     1      -5.300  -1.508  -0.619  1.00  0.00     0.205 C 
BRANCH  23  24
ATOM     24  N   UNL     1      -4.928  -2.859  -1.011  1.00  0.00    -0.352 N 
ATOM     25  H   UNL     1      -3.941  -2.878  -1.267  1.00  0.00     0.345 HD
ATOM     26  H   UNL     1      -5.493  -3.149  -1.809  1.00  0.00     0.345 HD
ATOM     27  H   UNL     1      -5.089  -3.496  -0.230  1.00  0.00     0.345 HD
ENDBRANCH  23  24
ENDBRANCH  16  19
ENDBRANCH  13  15
ENDBRANCH   6   8
ENDBRANCH   5   6
ENDBRANCH   4   5
ENDBRANCH   3   4
ENDBRANCH   2   3
ENDBRANCH   1   2
BRANCH   1  28
ATOM     28  C   UNL     1       3.100   5.426  -3.595  1.00  0.00     0.188 C 
BRANCH  28  29
ATOM     29  O   UNL     1       3.307   4.124  -4.111  1.00  0.00    -0.376 OA
BRANCH  29  30
ATOM     30  C   UNL     1       3.368   4.030  -5.529  1.00  0.00     0.202 C 
BRANCH  30  31
ATOM     31  C   UNL     1       1.981   3.987  -6.213  1.00  0.00     0.261 C 
BRANCH  31  32
ATOM     32  O   UNL     1       1.138   2.957  -5.636  1.00  0.00    -0.460 OA
BRANCH  32  33
ATOM     33  C   UNL     1      -0.015   3.348  -4.997  1.00  0.00     0.338 C 
ATOM     34  O   UNL     1      -0.856   4.096  -5.474  1.00  0.00    -0.246 OA
BRANCH  33  35
ATOM     35  C   UNL     1       0.025   2.925  -3.554  1.00  0.00     0.060 A 
ATOM     36  C   UNL     1      -0.806   3.355  -2.505  1.00  0.00     0.016 A 
ATOM     37  C   UNL     1       1.184   2.357  -3.168  1.00  0.00     0.016 A 
ATOM     38  C   UNL     1      -0.357   3.364  -1.108  1.00  0.00     0.010 A 
ATOM     39  C   UNL     1       1.627   2.694  -1.897  1.00  0.00     0.010 A 
ATOM     40  C   UNL     1       0.962   3.100  -0.737  1.00  0.00    -0.014 A 
BRANCH  40  41
ATOM     41  C   UNL     1       1.716   3.363   0.682  1.00  0.00     0.031 A 
ATOM     42  C   UNL     1       2.474   2.377   1.835  1.00  0.00     0.074 A 
ATOM     43  C   UNL     1       1.720   4.667   1.047  1.00  0.00     0.049 A 
ATOM     44  N   UNL     1       2.620   2.719   3.104  1.00  0.00    -0.248 NA
ATOM     45  C   UNL     1       3.075   0.988   1.743  1.00  0.00     0.031 C 
ATOM     46  C   UNL     1       2.458   5.309   2.130  1.00  0.00     0.029 A 
ATOM     47  N   UNL     1       0.875   5.683   0.574  1.00  0.00    -0.354 N 
ATOM     48  C   UNL     1       3.422   1.770   3.746  1.00  0.00     0.074 A 
ATOM     49  C   UNL     1       3.424   0.615   2.957  1.00  0.00     0.031 C 
ATOM     50  C   UNL     1       1.817   6.436   2.471  1.00  0.00     0.029 A 
ATOM     51  C   UNL     1       0.599   6.495   1.687  1.00  0.00     0.049 A 
ATOM     52  H   UNL     1       0.545   5.802  -0.346  1.00  0.00     0.167 HD
ATOM     53  C   UNL     1       4.193   2.010   4.836  1.00  0.00     0.037 A 
ATOM     54  C   UNL     1      -0.672   6.613   2.158  1.00  0.00     0.037 A 
ATOM     55  C   UNL     1       3.660   3.143   5.537  1.00  0.00     0.049 A 
ATOM     56  C   UNL     1      -0.822   6.153   3.594  1.00  0.00     0.074 A 
ATOM     57  C   UNL     1       4.007   4.471   5.630  1.00  0.00     0.029 A 
ATOM     58  N   UNL     1       2.345   3.034   5.968  1.00  0.00    -0.354 N 
ATOM     59  N   UNL     1       0.140   5.656   4.326  1.00  0.00    -0.248 NA
ATOM     60  C   UNL     1      -2.093   6.191   4.313  1.00  0.00     0.031 C 
ATOM     61  C   UNL     1       2.808   5.186   5.933  1.00  0.00     0.029 A 
ATOM     62  C   UNL     1       1.770   4.280   6.097  1.00  0.00     0.049 A 
ATOM     63  H   UNL     1       1.885   2.183   6.155  1.00  0.00     0.167 HD
ATOM     64  C   UNL     1      -0.382   5.162   5.494  1.00  0.00     0.074 A 
ATOM     65  C   UNL     1      -1.762   5.604   5.475  1.00  0.00     0.031 C 
ATOM     66  C   UNL     1       0.333   4.368   6.349  1.00  0.00     0.037 A 
BRANCH  53  67
ATOM     67  C   UNL     1       5.443   1.202   5.186  1.00  0.00     0.057 A 
ATOM     68  C   UNL     1       6.047   1.315   6.447  1.00  0.00     0.134 A 
ATOM     69  C   UNL     1       6.168   0.373   4.285  1.00  0.00     0.134 A 
ATOM     70  F   UNL     1       5.530   2.119   7.386  1.00  0.00    -0.206 F 
ATOM     71  C   UNL     1       7.228   0.628   6.796  1.00  0.00     0.040 A 
ATOM     72  C   UNL     1       7.300  -0.377   4.643  1.00  0.00     0.040 A 
ATOM     73  F   UNL     1       5.866   0.289   2.981  1.00  0.00    -0.206 F 
ATOM     74  C   UNL     1       7.843  -0.244   5.905  1.00  0.00     0.006 A 
ENDBRANCH  53  67
BRANCH  54  75
ATOM     75  C   UNL     1      -1.703   6.557   1.075  1.00  0.00     0.057 A 
ATOM     76  C   UNL     1      -1.634   7.505   0.033  1.00  0.00     0.134 A 
ATOM     77  C   UNL     1      -2.513   5.444   0.843  1.00  0.00     0.134 A 
ATOM     78  F   UNL     1      -0.883   8.609   0.177  1.00  0.00    -0.206 F 
ATOM     79  C   UNL     1      -2.235   7.299  -1.214  1.00  0.00     0.040 A 
ATOM     80  C   UNL     1      -3.138   5.233  -0.400  1.00  0.00     0.040 A 
ATOM     81  F   UNL     1      -2.611   4.474   1.760  1.00  0.00    -0.206 F 
ATOM     82  C   UNL     1      -2.967   6.141  -1.444  1.00  0.00     0.006 A 
ENDBRANCH  54  75
BRANCH  66  83
ATOM     83  C   UNL     1      -0.269   3.563   7.487  1.00  0.00     0.057 A 
ATOM     84  C   UNL     1      -1.580   3.059   7.502  1.00  0.00     0.134 A 
ATOM     85  C   UNL     1       0.540   3.135   8.565  1.00  0.00     0.134 A 
ATOM     86  F   UNL     1      -2.428   3.266   6.486  1.00  0.00    -0.206 F 
ATOM     87  C   UNL     1      -2.072   2.260   8.544  1.00  0.00     0.040 A 
ATOM     88  C   UNL     1       0.081   2.280   9.572  1.00  0.00     0.040 A 
ATOM     89  F   UNL     1       1.825   3.507   8.666  1.00  0.00    -0.206 F 
ATOM     90  C   UNL     1      -1.238   1.857   9.578  1.00  0.00     0.006 A 
ENDBRANCH  66  83
ENDBRANCH  40  41
ENDBRANCH  33  35
ENDBRANCH  32  33
ENDBRANCH  31  32
ENDBRANCH  30  31
ENDBRANCH  29  30
ENDBRANCH  28  29
ENDBRANCH   1  28
TORSDOF 20
