REMARK SMILES COc1ccc(NC(=O)[C@@H]2CC=CC[C@H]2C(=O)OCCOCCOCCOC(=O)c2ccc(-c3c4nc(c(-c5c(F)cccc5F)c5ccc([nH]5)c(-c5c(F)cccc5F)c5nc(c(-c6c(F)cccc6F)c6ccc3[nH]6)C=C5)C=C4)cc2)cc1Cl
REMARK SMILES IDX 22 1 21 2 20 3 19 4 18 5 16 6 17 7 15 8 10 9 11 10 12 11
REMARK SMILES IDX 14 12 13 13 8 14 7 15 9 17 6 18 3 19 4 20 85 21 5 22 84 23
REMARK SMILES IDX 86 24 2 25 1 26 23 27 24 28 25 29 26 30 27 31 28 32 29 33
REMARK SMILES IDX 30 34 31 35 83 36 32 37 82 38 33 39 34 40 35 41 76 42 36 43
REMARK SMILES IDX 81 44 75 45 77 46 37 47 80 48 74 49 73 50 38 52 64 53 47 54
REMARK SMILES IDX 63 55 48 56 51 57 62 58 78 59 49 60 50 61 61 63 79 64 52 65
REMARK SMILES IDX 39 66 40 67 45 68 41 69 42 70 44 71 46 72 43 73 65 74 66 75
REMARK SMILES IDX 71 76 67 77 68 78 70 79 72 80 69 81 53 82 54 83 59 84 55 85
REMARK SMILES IDX 56 86 58 87 60 88 57 89
REMARK H PARENT 7 16 77 51 51 62
REMARK Flexibility Score: inf
ROOT
ATOM      1  C   UNL     1      -0.281   2.612  -1.900  1.00  0.00     0.188 C 
ENDROOT
BRANCH   1   2
ATOM      2  O   UNL     1       0.421   1.540  -2.526  1.00  0.00    -0.376 OA
BRANCH   2   3
ATOM      3  C   UNL     1       1.676   1.813  -3.124  1.00  0.00     0.202 C 
BRANCH   3   4
ATOM      4  C   UNL     1       1.647   2.533  -4.473  1.00  0.00     0.261 C 
BRANCH   4   5
ATOM      5  O   UNL     1       1.030   3.839  -4.472  1.00  0.00    -0.463 OA
BRANCH   5   6
ATOM      6  C   UNL     1      -0.212   3.881  -5.027  1.00  0.00     0.310 C 
ATOM      7  O   UNL     1      -0.864   2.888  -5.336  1.00  0.00    -0.252 OA
BRANCH   6   8
ATOM      8  C   UNL     1      -0.631   5.276  -5.456  1.00  0.00     0.116 C 
ATOM      9  C   UNL     1      -0.579   6.467  -4.455  1.00  0.00     0.097 C 
ATOM     10  C   UNL     1      -1.262   7.665  -5.161  1.00  0.00     0.041 C 
ATOM     11  C   UNL     1      -0.816   7.879  -6.578  1.00  0.00    -0.030 C 
ATOM     12  C   UNL     1       0.165   5.598  -6.732  1.00  0.00     0.043 C 
ATOM     13  C   UNL     1      -0.149   6.955  -7.280  1.00  0.00    -0.030 C 
BRANCH   9  14
ATOM     14  C   UNL     1      -1.338   6.167  -3.176  1.00  0.00     0.228 C 
ATOM     15  N   UNL     1      -1.428   6.992  -2.099  1.00  0.00    -0.326 N 
ATOM     16  H   UNL     1      -1.941   6.567  -1.374  1.00  0.00     0.169 HD
ATOM     17  O   UNL     1      -1.972   5.111  -3.069  1.00  0.00    -0.274 OA
BRANCH  15  18
ATOM     18  C   UNL     1      -1.002   8.274  -1.723  1.00  0.00     0.042 A 
ATOM     19  C   UNL     1      -0.712  10.985  -1.061  1.00  0.00     0.137 A 
ATOM     20  C   UNL     1       0.051  10.418  -2.084  1.00  0.00     0.050 A 
ATOM     21  C   UNL     1      -1.538  10.175  -0.288  1.00  0.00     0.085 A 
ATOM     22  C   UNL     1      -0.067   9.054  -2.390  1.00  0.00     0.030 A 
ATOM     23  C   UNL     1      -1.666   8.822  -0.609  1.00  0.00     0.050 A 
ATOM     24  Cl  UNL     1      -2.474  10.808   1.016  1.00  0.00    -0.080 Cl
BRANCH  19  25
ATOM     25  O   UNL     1      -0.767  12.350  -0.969  1.00  0.00    -0.495 OA
ATOM     26  C   UNL     1       0.269  12.874  -0.147  1.00  0.00     0.278 C 
ENDBRANCH  19  25
ENDBRANCH  15  18
ENDBRANCH   9  14
ENDBRANCH   6   8
ENDBRANCH   5   6
ENDBRANCH   4   5
ENDBRANCH   3   4
ENDBRANCH   2   3
ENDBRANCH   1   2
BRANCH   1  27
ATOM     27  C   UNL     1       0.515   3.816  -1.377  1.00  0.00     0.188 C 
BRANCH  27  28
ATOM     28  O   UNL     1       1.596   3.404  -0.542  1.00  0.00    -0.376 OA
BRANCH  28  29
ATOM     29  C   UNL     1       1.621   4.029   0.736  1.00  0.00     0.202 C 
BRANCH  29  30
ATOM     30  C   UNL     1       0.910   3.155   1.774  1.00  0.00     0.261 C 
BRANCH  30  31
ATOM     31  O   UNL     1      -0.483   2.914   1.499  1.00  0.00    -0.460 OA
BRANCH  31  32
ATOM     32  C   UNL     1      -1.292   3.993   1.539  1.00  0.00     0.338 C 
ATOM     33  O   UNL     1      -0.975   5.147   1.769  1.00  0.00    -0.246 OA
BRANCH  32  34
ATOM     34  C   UNL     1      -2.640   3.602   1.093  1.00  0.00     0.060 A 
ATOM     35  C   UNL     1      -3.165   4.252  -0.025  1.00  0.00     0.016 A 
ATOM     36  C   UNL     1      -3.411   2.679   1.794  1.00  0.00     0.016 A 
ATOM     37  C   UNL     1      -4.481   4.041  -0.420  1.00  0.00     0.010 A 
ATOM     38  C   UNL     1      -4.734   2.457   1.395  1.00  0.00     0.010 A 
ATOM     39  C   UNL     1      -5.288   3.165   0.309  1.00  0.00    -0.014 A 
BRANCH  39  40
ATOM     40  C   UNL     1      -6.743   3.095   0.033  1.00  0.00     0.031 A 
ATOM     41  C   UNL     1      -7.694   3.760   0.988  1.00  0.00     0.074 A 
ATOM     42  C   UNL     1      -7.218   2.485  -1.067  1.00  0.00     0.049 A 
ATOM     43  N   UNL     1      -9.001   3.720   1.024  1.00  0.00    -0.248 NA
ATOM     44  C   UNL     1      -7.086   4.584   2.044  1.00  0.00     0.031 C 
ATOM     45  C   UNL     1      -6.405   1.889  -2.125  1.00  0.00     0.029 A 
ATOM     46  N   UNL     1      -8.512   2.267  -1.469  1.00  0.00    -0.354 N 
ATOM     47  C   UNL     1      -9.370   4.483   2.124  1.00  0.00     0.074 A 
ATOM     48  C   UNL     1      -8.150   4.969   2.732  1.00  0.00     0.031 C 
ATOM     49  C   UNL     1      -7.222   1.368  -3.057  1.00  0.00     0.029 A 
ATOM     50  C   UNL     1      -8.609   1.546  -2.634  1.00  0.00     0.049 A 
ATOM     51  H   UNL     1      -9.295   2.595  -0.971  1.00  0.00     0.167 HD
ATOM     52  C   UNL     1     -10.613   4.751   2.589  1.00  0.00     0.037 A 
ATOM     53  C   UNL     1      -9.694   1.057  -3.265  1.00  0.00     0.037 A 
ATOM     54  C   UNL     1     -11.828   4.286   1.974  1.00  0.00     0.049 A 
ATOM     55  C   UNL     1     -11.060   1.281  -2.675  1.00  0.00     0.074 A 
ATOM     56  C   UNL     1     -13.135   4.510   2.367  1.00  0.00     0.029 A 
ATOM     57  N   UNL     1     -11.881   3.501   0.833  1.00  0.00    -0.354 N 
ATOM     58  N   UNL     1     -11.403   1.971  -1.614  1.00  0.00    -0.248 NA
ATOM     59  C   UNL     1     -12.191   0.640  -3.364  1.00  0.00     0.031 C 
ATOM     60  C   UNL     1     -13.980   3.823   1.488  1.00  0.00     0.029 A 
ATOM     61  C   UNL     1     -13.199   3.208   0.522  1.00  0.00     0.049 A 
ATOM     62  H   UNL     1     -11.099   3.197   0.319  1.00  0.00     0.167 HD
ATOM     63  C   UNL     1     -12.786   1.869  -1.522  1.00  0.00     0.074 A 
ATOM     64  C   UNL     1     -13.221   1.057  -2.640  1.00  0.00     0.031 C 
ATOM     65  C   UNL     1     -13.620   2.403  -0.597  1.00  0.00     0.037 A 
BRANCH  52  66
ATOM     66  C   UNL     1     -10.709   5.542   3.859  1.00  0.00     0.057 A 
ATOM     67  C   UNL     1     -10.437   6.915   3.905  1.00  0.00     0.134 A 
ATOM     68  C   UNL     1     -11.074   4.912   5.056  1.00  0.00     0.134 A 
ATOM     69  F   UNL     1     -10.063   7.572   2.797  1.00  0.00    -0.206 F 
ATOM     70  C   UNL     1     -10.496   7.628   5.104  1.00  0.00     0.040 A 
ATOM     71  C   UNL     1     -11.160   5.619   6.255  1.00  0.00     0.040 A 
ATOM     72  F   UNL     1     -11.349   3.600   5.078  1.00  0.00    -0.206 F 
ATOM     73  C   UNL     1     -10.861   6.980   6.283  1.00  0.00     0.006 A 
ENDBRANCH  52  66
BRANCH  53  74
ATOM     74  C   UNL     1      -9.535   0.274  -4.516  1.00  0.00     0.057 A 
ATOM     75  C   UNL     1      -9.966   0.785  -5.745  1.00  0.00     0.134 A 
ATOM     76  C   UNL     1      -8.969  -1.006  -4.510  1.00  0.00     0.134 A 
ATOM     77  F   UNL     1     -10.545   1.993  -5.808  1.00  0.00    -0.206 F 
ATOM     78  C   UNL     1      -9.848   0.047  -6.924  1.00  0.00     0.040 A 
ATOM     79  C   UNL     1      -8.822  -1.745  -5.684  1.00  0.00     0.040 A 
ATOM     80  F   UNL     1      -8.545  -1.554  -3.362  1.00  0.00    -0.206 F 
ATOM     81  C   UNL     1      -9.268  -1.220  -6.896  1.00  0.00     0.006 A 
ENDBRANCH  53  74
BRANCH  65  82
ATOM     82  C   UNL     1     -15.089   2.158  -0.770  1.00  0.00     0.057 A 
ATOM     83  C   UNL     1     -15.669   0.914  -0.492  1.00  0.00     0.134 A 
ATOM     84  C   UNL     1     -15.941   3.192  -1.178  1.00  0.00     0.134 A 
ATOM     85  F   UNL     1     -14.906  -0.121  -0.109  1.00  0.00    -0.206 F 
ATOM     86  C   UNL     1     -17.042   0.703  -0.630  1.00  0.00     0.040 A 
ATOM     87  C   UNL     1     -17.318   3.000  -1.298  1.00  0.00     0.040 A 
ATOM     88  F   UNL     1     -15.450   4.410  -1.453  1.00  0.00    -0.206 F 
ATOM     89  C   UNL     1     -17.872   1.750  -1.027  1.00  0.00     0.006 A 
ENDBRANCH  65  82
ENDBRANCH  39  40
ENDBRANCH  32  34
ENDBRANCH  31  32
ENDBRANCH  30  31
ENDBRANCH  29  30
ENDBRANCH  28  29
ENDBRANCH  27  28
ENDBRANCH   1  27
TORSDOF 20
