REMARK SMILES O=C(COC[C@@H]1COc2ccccc2O1)OCCOCCOCCOC(=O)c1ccc(-c2c3nc(c(-c4c(F)cccc4F)c4ccc([nH]4)c(-c4c(F)cccc4F)c4nc(c(-c5c(F)cccc5F)c5ccc2[nH]5)C=C4)C=C3)cc1
REMARK SMILES IDX 20 1 19 2 18 3 17 4 16 5 2 6 1 7 3 8 4 9 5 10 6 11 7 12
REMARK SMILES IDX 15 13 8 14 14 15 9 16 13 17 10 18 12 19 11 20 21 21 22 22
REMARK SMILES IDX 23 23 24 24 25 25 26 26 27 27 28 28 29 29 81 30 30 31 80 32
REMARK SMILES IDX 31 33 32 34 33 35 74 36 34 37 79 38 73 39 75 40 35 41 78 42
REMARK SMILES IDX 72 43 71 44 36 46 62 47 45 48 61 49 46 50 49 51 60 52 76 53
REMARK SMILES IDX 47 54 48 55 59 57 77 58 50 59 37 60 38 61 43 62 39 63 40 64
REMARK SMILES IDX 42 65 44 66 41 67 63 68 64 69 69 70 65 71 66 72 68 73 70 74
REMARK SMILES IDX 67 75 51 76 52 77 57 78 53 79 54 80 56 81 58 82 55 83
REMARK H PARENT 75 45 49 56
REMARK Flexibility Score: inf
ROOT
ATOM      1  C   UNL     1       3.011   1.237  -1.701  1.00  0.00     0.188 C 
ENDROOT
BRANCH   1   2
ATOM      2  O   UNL     1       4.265   0.580  -1.832  1.00  0.00    -0.376 OA
BRANCH   2   3
ATOM      3  C   UNL     1       4.952   0.349  -0.607  1.00  0.00     0.202 C 
BRANCH   3   4
ATOM      4  C   UNL     1       4.692  -1.064  -0.085  1.00  0.00     0.261 C 
BRANCH   4   5
ATOM      5  O   UNL     1       3.307  -1.468  -0.026  1.00  0.00    -0.462 OA
BRANCH   5   6
ATOM      6  C   UNL     1       2.362  -0.997   0.814  1.00  0.00     0.332 C 
ATOM      7  O   UNL     1       1.223  -1.459   0.780  1.00  0.00    -0.250 OA
BRANCH   6   8
ATOM      8  C   UNL     1       2.710   0.174   1.724  1.00  0.00     0.282 C 
BRANCH   8   9
ATOM      9  O   UNL     1       3.690  -0.010   2.726  1.00  0.00    -0.366 OA
BRANCH   9  10
ATOM     10  C   UNL     1       3.243  -0.822   3.829  1.00  0.00     0.209 C 
BRANCH  10  11
ATOM     11  C   UNL     1       2.041  -0.199   4.578  1.00  0.00     0.236 C 
ATOM     12  C   UNL     1       1.997  -0.528   6.064  1.00  0.00     0.277 C 
ATOM     13  O   UNL     1       0.804  -0.617   3.967  1.00  0.00    -0.481 OA
ATOM     14  O   UNL     1       1.908  -1.935   6.296  1.00  0.00    -0.486 OA
ATOM     15  C   UNL     1       0.451  -1.889   4.343  1.00  0.00     0.161 A 
ATOM     16  C   UNL     1       0.989  -2.525   5.466  1.00  0.00     0.161 A 
ATOM     17  C   UNL     1      -0.456  -2.560   3.525  1.00  0.00     0.050 A 
ATOM     18  C   UNL     1       0.637  -3.840   5.758  1.00  0.00     0.050 A 
ATOM     19  C   UNL     1      -0.807  -3.878   3.817  1.00  0.00     0.004 A 
ATOM     20  C   UNL     1      -0.261  -4.517   4.932  1.00  0.00     0.004 A 
ENDBRANCH  10  11
ENDBRANCH   9  10
ENDBRANCH   8   9
ENDBRANCH   6   8
ENDBRANCH   5   6
ENDBRANCH   4   5
ENDBRANCH   3   4
ENDBRANCH   2   3
ENDBRANCH   1   2
BRANCH   1  21
ATOM     21  C   UNL     1       2.320   1.542  -3.040  1.00  0.00     0.188 C 
BRANCH  21  22
ATOM     22  O   UNL     1       3.051   1.411  -4.250  1.00  0.00    -0.376 OA
BRANCH  22  23
ATOM     23  C   UNL     1       4.350   1.984  -4.329  1.00  0.00     0.202 C 
BRANCH  23  24
ATOM     24  C   UNL     1       4.453   3.501  -4.162  1.00  0.00     0.261 C 
BRANCH  24  25
ATOM     25  O   UNL     1       3.986   3.982  -2.885  1.00  0.00    -0.460 OA
BRANCH  25  26
ATOM     26  C   UNL     1       3.020   4.931  -2.968  1.00  0.00     0.338 C 
ATOM     27  O   UNL     1       2.512   5.387  -3.976  1.00  0.00    -0.246 OA
BRANCH  26  28
ATOM     28  C   UNL     1       2.559   5.350  -1.633  1.00  0.00     0.060 A 
ATOM     29  C   UNL     1       1.249   5.031  -1.258  1.00  0.00     0.016 A 
ATOM     30  C   UNL     1       3.314   6.251  -0.877  1.00  0.00     0.016 A 
ATOM     31  C   UNL     1       0.667   5.664  -0.158  1.00  0.00     0.010 A 
ATOM     32  C   UNL     1       2.725   6.888   0.224  1.00  0.00     0.010 A 
ATOM     33  C   UNL     1       1.383   6.635   0.559  1.00  0.00    -0.014 A 
BRANCH  33  34
ATOM     34  C   UNL     1       0.664   7.489   1.540  1.00  0.00     0.031 A 
ATOM     35  C   UNL     1       0.163   8.846   1.115  1.00  0.00     0.074 A 
ATOM     36  C   UNL     1       0.406   7.048   2.784  1.00  0.00     0.049 A 
ATOM     37  N   UNL     1      -0.521   9.730   1.799  1.00  0.00    -0.248 NA
ATOM     38  C   UNL     1       0.472   9.260  -0.262  1.00  0.00     0.031 C 
ATOM     39  C   UNL     1       0.811   5.752   3.323  1.00  0.00     0.029 A 
ATOM     40  N   UNL     1      -0.266   7.651   3.819  1.00  0.00    -0.354 N 
ATOM     41  C   UNL     1      -0.738  10.794   0.933  1.00  0.00     0.074 A 
ATOM     42  C   UNL     1      -0.077  10.465  -0.313  1.00  0.00     0.031 C 
ATOM     43  C   UNL     1       0.387   5.659   4.596  1.00  0.00     0.029 A 
ATOM     44  C   UNL     1      -0.309   6.892   4.962  1.00  0.00     0.049 A 
ATOM     45  H   UNL     1      -0.677   8.542   3.748  1.00  0.00     0.167 HD
ATOM     46  C   UNL     1      -1.438  11.935   1.143  1.00  0.00     0.037 A 
ATOM     47  C   UNL     1      -0.844   7.162   6.169  1.00  0.00     0.037 A 
ATOM     48  C   UNL     1      -2.092  12.282   2.378  1.00  0.00     0.049 A 
ATOM     49  C   UNL     1      -1.572   8.460   6.396  1.00  0.00     0.074 A 
ATOM     50  C   UNL     1      -2.822  13.420   2.679  1.00  0.00     0.029 A 
ATOM     51  N   UNL     1      -2.092  11.496   3.519  1.00  0.00    -0.354 N 
ATOM     52  N   UNL     1      -1.791   9.445   5.559  1.00  0.00    -0.248 NA
ATOM     53  C   UNL     1      -2.137   8.678   7.737  1.00  0.00     0.031 C 
ATOM     54  C   UNL     1      -3.236  13.337   4.013  1.00  0.00     0.029 A 
ATOM     55  C   UNL     1      -2.797  12.130   4.530  1.00  0.00     0.049 A 
ATOM     56  H   UNL     1      -1.657  10.617   3.599  1.00  0.00     0.167 HD
ATOM     57  C   UNL     1      -2.534  10.385   6.263  1.00  0.00     0.074 A 
ATOM     58  C   UNL     1      -2.745   9.846   7.590  1.00  0.00     0.031 C 
ATOM     59  C   UNL     1      -3.000  11.588   5.848  1.00  0.00     0.037 A 
BRANCH  46  60
ATOM     60  C   UNL     1      -1.532  12.904   0.002  1.00  0.00     0.057 A 
ATOM     61  C   UNL     1      -2.364  12.659  -1.098  1.00  0.00     0.134 A 
ATOM     62  C   UNL     1      -0.820  14.109   0.021  1.00  0.00     0.134 A 
ATOM     63  F   UNL     1      -3.063  11.517  -1.180  1.00  0.00    -0.206 F 
ATOM     64  C   UNL     1      -2.471  13.572  -2.148  1.00  0.00     0.040 A 
ATOM     65  C   UNL     1      -0.934  15.039  -1.013  1.00  0.00     0.040 A 
ATOM     66  F   UNL     1      -0.010  14.405   1.049  1.00  0.00    -0.206 F 
ATOM     67  C   UNL     1      -1.759  14.769  -2.104  1.00  0.00     0.006 A 
ENDBRANCH  46  60
BRANCH  47  68
ATOM     68  C   UNL     1      -0.707   6.183   7.275  1.00  0.00     0.057 A 
ATOM     69  C   UNL     1      -1.808   5.460   7.746  1.00  0.00     0.134 A 
ATOM     70  C   UNL     1       0.523   5.978   7.910  1.00  0.00     0.134 A 
ATOM     71  F   UNL     1      -3.018   5.635   7.193  1.00  0.00    -0.206 F 
ATOM     72  C   UNL     1      -1.696   4.582   8.825  1.00  0.00     0.040 A 
ATOM     73  C   UNL     1       0.654   5.088   8.976  1.00  0.00     0.040 A 
ATOM     74  F   UNL     1       1.614   6.642   7.503  1.00  0.00    -0.206 F 
ATOM     75  C   UNL     1      -0.461   4.392   9.441  1.00  0.00     0.006 A 
ENDBRANCH  47  68
BRANCH  59  76
ATOM     76  C   UNL     1      -3.797  12.393   6.832  1.00  0.00     0.057 A 
ATOM     77  C   UNL     1      -3.193  13.037   7.919  1.00  0.00     0.134 A 
ATOM     78  C   UNL     1      -5.182  12.540   6.682  1.00  0.00     0.134 A 
ATOM     79  F   UNL     1      -1.872  12.926   8.126  1.00  0.00    -0.206 F 
ATOM     80  C   UNL     1      -3.941  13.777   8.837  1.00  0.00     0.040 A 
ATOM     81  C   UNL     1      -5.938  13.295   7.580  1.00  0.00     0.040 A 
ATOM     82  F   UNL     1      -5.822  11.955   5.658  1.00  0.00    -0.206 F 
ATOM     83  C   UNL     1      -5.318  13.911   8.666  1.00  0.00     0.006 A 
ENDBRANCH  59  76
ENDBRANCH  33  34
ENDBRANCH  26  28
ENDBRANCH  25  26
ENDBRANCH  24  25
ENDBRANCH  23  24
ENDBRANCH  22  23
ENDBRANCH  21  22
ENDBRANCH   1  21
TORSDOF 20
