REMARK SMILES CC/C(C(=O)OCCOCCOCCOC(=O)c1ccc(-c2c3nc(c(-c4c(F)cccc4F)c4ccc([nH]4)c(-c4c(F)cccc4F)c4nc(c(-c5c(F)cccc5F)c5ccc2[nH]5)C=C4)C=C3)cc1)=C1\CCc2ccccc21
REMARK SMILES IDX 11 1 10 2 9 3 8 4 7 5 6 6 4 7 5 8 3 9 72 10 73 11 80 12
REMARK SMILES IDX 74 13 75 14 79 15 76 16 78 17 77 18 2 19 1 20 12 21 13 22
REMARK SMILES IDX 14 23 15 24 16 25 17 26 18 27 19 28 71 29 20 30 70 31 21 32
REMARK SMILES IDX 22 33 23 34 64 35 24 36 69 37 63 38 65 39 25 40 68 41 62 42
REMARK SMILES IDX 61 43 26 45 52 46 35 47 51 48 36 49 39 50 50 51 66 52 37 53
REMARK SMILES IDX 38 54 49 56 67 57 40 58 27 59 28 60 33 61 29 62 30 63 32 64
REMARK SMILES IDX 34 65 31 66 53 67 54 68 59 69 55 70 56 71 58 72 60 73 57 74
REMARK SMILES IDX 41 75 42 76 47 77 43 78 44 79 46 80 48 81 45 82
REMARK H PARENT 65 44 39 55
REMARK Flexibility Score: inf
ROOT
ATOM      1  C   UNL     1       2.478  -2.328  -1.993  1.00  0.00     0.188 C 
ENDROOT
BRANCH   1   2
ATOM      2  C   UNL     1       1.119  -2.971  -1.631  1.00  0.00     0.188 C 
BRANCH   2   3
ATOM      3  O   UNL     1       0.656  -4.110  -2.329  1.00  0.00    -0.376 OA
BRANCH   3   4
ATOM      4  C   UNL     1       0.208  -3.995  -3.674  1.00  0.00     0.202 C 
BRANCH   4   5
ATOM      5  C   UNL     1      -0.406  -2.703  -4.218  1.00  0.00     0.261 C 
BRANCH   5   6
ATOM      6  O   UNL     1       0.341  -1.535  -3.867  1.00  0.00    -0.460 OA
BRANCH   6   7
ATOM      7  C   UNL     1      -0.357  -0.477  -3.404  1.00  0.00     0.334 C 
ATOM      8  O   UNL     1      -1.569  -0.450  -3.244  1.00  0.00    -0.247 OA
BRANCH   7   9
ATOM      9  C   UNL     1       0.541   0.624  -2.932  1.00  0.00     0.041 C 
ATOM     10  C   UNL     1       1.576   1.118  -3.655  1.00  0.00    -0.030 C 
ATOM     11  C   UNL     1       2.272   2.445  -3.378  1.00  0.00     0.041 C 
ATOM     12  C   UNL     1       2.135   0.718  -4.964  1.00  0.00    -0.019 A 
ATOM     13  C   UNL     1       2.429   3.083  -4.765  1.00  0.00     0.041 C 
ATOM     14  C   UNL     1       2.564   1.871  -5.630  1.00  0.00    -0.040 A 
ATOM     15  C   UNL     1       2.396  -0.517  -5.540  1.00  0.00     0.009 A 
ATOM     16  C   UNL     1       3.064   1.828  -6.926  1.00  0.00     0.004 A 
ATOM     17  C   UNL     1       2.922  -0.583  -6.834  1.00  0.00     0.001 A 
ATOM     18  C   UNL     1       3.221   0.586  -7.538  1.00  0.00     0.000 A 
BRANCH   9  19
ATOM     19  C   UNL     1       0.057   1.239  -1.625  1.00  0.00     0.040 C 
ATOM     20  C   UNL     1       0.652   0.568  -0.390  1.00  0.00     0.009 C 
ENDBRANCH   9  19
ENDBRANCH   7   9
ENDBRANCH   6   7
ENDBRANCH   5   6
ENDBRANCH   4   5
ENDBRANCH   3   4
ENDBRANCH   2   3
ENDBRANCH   1   2
BRANCH   1  21
ATOM     21  O   UNL     1       3.313  -2.861  -3.000  1.00  0.00    -0.376 OA
BRANCH  21  22
ATOM     22  C   UNL     1       3.608  -4.245  -3.007  1.00  0.00     0.202 C 
BRANCH  22  23
ATOM     23  C   UNL     1       4.104  -4.955  -1.742  1.00  0.00     0.261 C 
BRANCH  23  24
ATOM     24  O   UNL     1       3.366  -4.662  -0.546  1.00  0.00    -0.460 OA
BRANCH  24  25
ATOM     25  C   UNL     1       4.041  -3.962   0.394  1.00  0.00     0.338 C 
ATOM     26  O   UNL     1       5.207  -3.585   0.349  1.00  0.00    -0.246 OA
BRANCH  25  27
ATOM     27  C   UNL     1       3.116  -3.534   1.457  1.00  0.00     0.060 A 
ATOM     28  C   UNL     1       2.929  -2.159   1.661  1.00  0.00     0.016 A 
ATOM     29  C   UNL     1       2.480  -4.464   2.280  1.00  0.00     0.016 A 
ATOM     30  C   UNL     1       2.123  -1.708   2.703  1.00  0.00     0.010 A 
ATOM     31  C   UNL     1       1.694  -4.010   3.345  1.00  0.00     0.010 A 
ATOM     32  C   UNL     1       1.535  -2.631   3.577  1.00  0.00    -0.014 A 
BRANCH  32  33
ATOM     33  C   UNL     1       0.915  -2.145   4.834  1.00  0.00     0.031 A 
ATOM     34  C   UNL     1       1.736  -2.156   6.093  1.00  0.00     0.074 A 
ATOM     35  C   UNL     1      -0.339  -1.661   4.853  1.00  0.00     0.049 A 
ATOM     36  N   UNL     1       1.401  -1.808   7.309  1.00  0.00    -0.248 NA
ATOM     37  C   UNL     1       3.127  -2.620   5.960  1.00  0.00     0.031 C 
ATOM     38  C   UNL     1      -1.219  -1.542   3.692  1.00  0.00     0.029 A 
ATOM     39  N   UNL     1      -1.089  -1.181   5.898  1.00  0.00    -0.354 N 
ATOM     40  C   UNL     1       2.534  -2.014   8.086  1.00  0.00     0.074 A 
ATOM     41  C   UNL     1       3.557  -2.545   7.210  1.00  0.00     0.031 C 
ATOM     42  C   UNL     1      -2.398  -1.034   4.092  1.00  0.00     0.029 A 
ATOM     43  C   UNL     1      -2.366  -0.824   5.539  1.00  0.00     0.049 A 
ATOM     44  H   UNL     1      -0.745  -1.101   6.816  1.00  0.00     0.167 HD
ATOM     45  C   UNL     1       2.711  -1.776   9.407  1.00  0.00     0.037 A 
ATOM     46  C   UNL     1      -3.395  -0.401   6.298  1.00  0.00     0.037 A 
ATOM     47  C   UNL     1       1.690  -1.260  10.282  1.00  0.00     0.049 A 
ATOM     48  C   UNL     1      -3.202  -0.233   7.784  1.00  0.00     0.074 A 
ATOM     49  C   UNL     1       1.773  -0.985  11.636  1.00  0.00     0.029 A 
ATOM     50  N   UNL     1       0.395  -0.955   9.891  1.00  0.00    -0.354 N 
ATOM     51  N   UNL     1      -2.124  -0.415   8.508  1.00  0.00    -0.248 NA
ATOM     52  C   UNL     1      -4.374   0.204   8.558  1.00  0.00     0.031 C 
ATOM     53  C   UNL     1       0.513  -0.568  12.076  1.00  0.00     0.029 A 
ATOM     54  C   UNL     1      -0.338  -0.519  10.984  1.00  0.00     0.049 A 
ATOM     55  H   UNL     1       0.048  -1.035   8.973  1.00  0.00     0.167 HD
ATOM     56  C   UNL     1      -2.477  -0.081   9.812  1.00  0.00     0.074 A 
ATOM     57  C   UNL     1      -3.865   0.328   9.775  1.00  0.00     0.031 C 
ATOM     58  C   UNL     1      -1.719  -0.108  10.937  1.00  0.00     0.037 A 
BRANCH  45  59
ATOM     59  C   UNL     1       4.052  -2.111   9.993  1.00  0.00     0.057 A 
ATOM     60  C   UNL     1       5.202  -1.367   9.694  1.00  0.00     0.134 A 
ATOM     61  C   UNL     1       4.192  -3.183  10.883  1.00  0.00     0.134 A 
ATOM     62  F   UNL     1       5.141  -0.337   8.836  1.00  0.00    -0.206 F 
ATOM     63  C   UNL     1       6.445  -1.694  10.238  1.00  0.00     0.040 A 
ATOM     64  C   UNL     1       5.424  -3.501  11.457  1.00  0.00     0.040 A 
ATOM     65  F   UNL     1       3.132  -3.935  11.216  1.00  0.00    -0.206 F 
ATOM     66  C   UNL     1       6.557  -2.760  11.128  1.00  0.00     0.006 A 
ENDBRANCH  45  59
BRANCH  46  67
ATOM     67  C   UNL     1      -4.716  -0.121   5.678  1.00  0.00     0.057 A 
ATOM     68  C   UNL     1      -5.239   1.177   5.634  1.00  0.00     0.134 A 
ATOM     69  C   UNL     1      -5.506  -1.151   5.152  1.00  0.00     0.134 A 
ATOM     70  F   UNL     1      -4.544   2.203   6.147  1.00  0.00    -0.206 F 
ATOM     71  C   UNL     1      -6.508   1.438   5.112  1.00  0.00     0.040 A 
ATOM     72  C   UNL     1      -6.763  -0.900   4.600  1.00  0.00     0.040 A 
ATOM     73  F   UNL     1      -5.065  -2.417   5.167  1.00  0.00    -0.206 F 
ATOM     74  C   UNL     1      -7.271   0.397   4.588  1.00  0.00     0.006 A 
ENDBRANCH  46  67
BRANCH  58  75
ATOM     75  C   UNL     1      -2.360   0.362  12.213  1.00  0.00     0.057 A 
ATOM     76  C   UNL     1      -3.371  -0.366  12.855  1.00  0.00     0.134 A 
ATOM     77  C   UNL     1      -1.940   1.553  12.823  1.00  0.00     0.134 A 
ATOM     78  F   UNL     1      -3.828  -1.510  12.323  1.00  0.00    -0.206 F 
ATOM     79  C   UNL     1      -3.964   0.090  14.034  1.00  0.00     0.040 A 
ATOM     80  C   UNL     1      -2.503   2.002  14.019  1.00  0.00     0.040 A 
ATOM     81  F   UNL     1      -0.968   2.295  12.272  1.00  0.00    -0.206 F 
ATOM     82  C   UNL     1      -3.526   1.274  14.623  1.00  0.00     0.006 A 
ENDBRANCH  58  75
ENDBRANCH  32  33
ENDBRANCH  25  27
ENDBRANCH  24  25
ENDBRANCH  23  24
ENDBRANCH  22  23
ENDBRANCH  21  22
ENDBRANCH   1  21
TORSDOF 18
