REMARK SMILES O=C1NC(=O)/C(=C/c2ccc(OCc3cn(-c4ccc(C(=O)OCCOCCOCCOC(=O)c5ccc(-c6c7nc(c(-c8c(F)cccc8F)c8ccc([nH]8)c(-c8c(F)cccc8F)c8nc(c(-c9c(F)cccc9F)c9ccc6[nH]9)C=C8)C=C7)cc5)cc4)nn3)cc2)S1
REMARK SMILES IDX 26 1 25 2 24 3 23 4 21 5 22 6 20 7 17 8 18 9 90 10 19 11
REMARK SMILES IDX 89 12 16 13 14 14 15 15 92 16 91 17 13 18 12 19 11 20 8 21
REMARK SMILES IDX 9 22 94 23 10 24 93 25 7 26 1 27 2 28 3 29 95 30 4 31 6 33
REMARK SMILES IDX 5 34 27 35 28 36 29 37 30 38 31 39 32 40 33 41 34 42 35 43
REMARK SMILES IDX 36 44 88 45 37 46 87 47 38 48 39 49 40 50 81 51 41 52 86 53
REMARK SMILES IDX 80 54 82 55 42 56 85 57 79 58 78 59 43 61 69 62 52 63 68 64
REMARK SMILES IDX 53 65 56 66 67 67 83 68 54 69 55 70 66 72 84 73 57 74 44 75
REMARK SMILES IDX 45 76 50 77 46 78 47 79 49 80 51 81 48 82 70 83 71 84 76 85
REMARK SMILES IDX 72 86 73 87 75 88 77 89 74 90 58 91 59 92 64 93 60 94 61 95
REMARK SMILES IDX 63 96 65 97 62 98
REMARK H PARENT 3 32 82 60 56 71
REMARK Flexibility Score: inf
ROOT
ATOM      1  O   UNL     1     -10.607   7.875   0.469  1.00  0.00    -0.376 OA
ENDROOT
BRANCH   1   2
ATOM      2  C   UNL     1     -10.758   9.280   0.364  1.00  0.00     0.202 C 
BRANCH   2   3
ATOM      3  C   UNL     1      -9.627  10.330   0.319  1.00  0.00     0.261 C 
BRANCH   3   4
ATOM      4  O   UNL     1      -8.280   9.873   0.208  1.00  0.00    -0.460 OA
BRANCH   4   5
ATOM      5  C   UNL     1      -7.566   9.887   1.357  1.00  0.00     0.338 C 
ATOM      6  O   UNL     1      -7.951  10.243   2.457  1.00  0.00    -0.246 OA
BRANCH   5   7
ATOM      7  C   UNL     1      -6.274   9.206   1.140  1.00  0.00     0.060 A 
ATOM      8  C   UNL     1      -3.789   7.981   0.934  1.00  0.00     0.066 A 
ATOM      9  C   UNL     1      -4.695   7.545   1.911  1.00  0.00     0.029 A 
ATOM     10  C   UNL     1      -4.162   8.955  -0.002  1.00  0.00     0.029 A 
ATOM     11  C   UNL     1      -5.921   8.191   2.038  1.00  0.00     0.018 A 
ATOM     12  C   UNL     1      -5.425   9.547   0.083  1.00  0.00     0.018 A 
BRANCH   8  13
ATOM     13  N   UNL     1      -2.462   7.503   0.990  1.00  0.00    -0.220 N 
ATOM     14  C   UNL     1      -0.289   7.392   1.146  1.00  0.00     0.120 A 
ATOM     15  C   UNL     1      -1.311   8.186   0.668  1.00  0.00     0.144 A 
ATOM     16  N   UNL     1      -0.836   6.257   1.683  1.00  0.00    -0.131 NA
ATOM     17  N   UNL     1      -2.151   6.338   1.597  1.00  0.00    -0.062 NA
BRANCH  14  18
ATOM     18  C   UNL     1       1.176   7.662   1.264  1.00  0.00     0.289 C 
BRANCH  18  19
ATOM     19  O   UNL     1       2.003   7.003   0.292  1.00  0.00    -0.487 OA
BRANCH  19  20
ATOM     20  C   UNL     1       2.117   5.642   0.360  1.00  0.00     0.119 A 
ATOM     21  C   UNL     1       2.173   2.842   0.133  1.00  0.00    -0.024 A 
ATOM     22  C   UNL     1       2.690   3.639  -0.891  1.00  0.00     0.012 A 
ATOM     23  C   UNL     1       1.720   3.451   1.306  1.00  0.00     0.012 A 
ATOM     24  C   UNL     1       2.656   5.034  -0.777  1.00  0.00     0.047 A 
ATOM     25  C   UNL     1       1.717   4.841   1.427  1.00  0.00     0.047 A 
BRANCH  21  26
ATOM     26  C   UNL     1       2.119   1.384  -0.003  1.00  0.00     0.029 C 
ATOM     27  O   UNL     1      -2.447  -0.735   0.027  1.00  0.00    -0.261 OA
ATOM     28  C   UNL     1      -1.270  -0.447  -0.004  1.00  0.00     0.290 C 
ATOM     29  N   UNL     1      -0.235  -1.329  -0.044  1.00  0.00    -0.282 N 
ATOM     30  S   UNL     1      -0.642   1.189   0.001  1.00  0.00    -0.022 SA
ATOM     31  C   UNL     1       1.033  -0.835  -0.073  1.00  0.00     0.265 C 
ATOM     32  H   UNL     1      -0.399  -2.300  -0.053  1.00  0.00     0.174 HD
ATOM     33  C   UNL     1       0.998   0.650  -0.031  1.00  0.00     0.083 C 
ATOM     34  O   UNL     1       2.045  -1.517  -0.108  1.00  0.00    -0.268 OA
ENDBRANCH  21  26
ENDBRANCH  19  20
ENDBRANCH  18  19
ENDBRANCH  14  18
ENDBRANCH   8  13
ENDBRANCH   5   7
ENDBRANCH   4   5
ENDBRANCH   3   4
ENDBRANCH   2   3
ENDBRANCH   1   2
BRANCH   1  35
ATOM     35  C   UNL     1      -9.347   7.288   0.685  1.00  0.00     0.188 C 
BRANCH  35  36
ATOM     36  C   UNL     1      -8.467   7.048  -0.557  1.00  0.00     0.188 C 
BRANCH  36  37
ATOM     37  O   UNL     1      -8.664   7.792  -1.744  1.00  0.00    -0.376 OA
BRANCH  37  38
ATOM     38  C   UNL     1      -9.880   7.768  -2.471  1.00  0.00     0.202 C 
BRANCH  38  39
ATOM     39  C   UNL     1     -10.866   6.602  -2.497  1.00  0.00     0.261 C 
BRANCH  39  40
ATOM     40  O   UNL     1     -10.870   5.737  -1.380  1.00  0.00    -0.460 OA
BRANCH  40  41
ATOM     41  C   UNL     1     -10.124   4.630  -1.566  1.00  0.00     0.338 C 
ATOM     42  O   UNL     1      -9.253   4.453  -2.402  1.00  0.00    -0.246 OA
BRANCH  41  43
ATOM     43  C   UNL     1     -10.624   3.572  -0.695  1.00  0.00     0.060 A 
ATOM     44  C   UNL     1      -9.785   2.479  -0.477  1.00  0.00     0.016 A 
ATOM     45  C   UNL     1     -11.998   3.532  -0.423  1.00  0.00     0.016 A 
ATOM     46  C   UNL     1     -10.368   1.266  -0.189  1.00  0.00     0.010 A 
ATOM     47  C   UNL     1     -12.579   2.317  -0.158  1.00  0.00     0.010 A 
ATOM     48  C   UNL     1     -11.767   1.186  -0.133  1.00  0.00    -0.014 A 
BRANCH  48  49
ATOM     49  C   UNL     1     -12.370  -0.101   0.146  1.00  0.00     0.031 A 
ATOM     50  C   UNL     1     -12.134  -0.492   1.552  1.00  0.00     0.074 A 
ATOM     51  C   UNL     1     -13.128  -0.770  -0.748  1.00  0.00     0.049 A 
ATOM     52  N   UNL     1     -11.350  -1.426   1.971  1.00  0.00    -0.248 NA
ATOM     53  C   UNL     1     -12.626   0.401   2.619  1.00  0.00     0.031 C 
ATOM     54  C   UNL     1     -13.568  -0.310  -2.068  1.00  0.00     0.029 A 
ATOM     55  N   UNL     1     -13.748  -1.980  -0.631  1.00  0.00    -0.354 N 
ATOM     56  C   UNL     1     -11.482  -1.412   3.354  1.00  0.00     0.074 A 
ATOM     57  C   UNL     1     -12.057  -0.142   3.697  1.00  0.00     0.031 C 
ATOM     58  C   UNL     1     -14.559  -1.115  -2.520  1.00  0.00     0.029 A 
ATOM     59  C   UNL     1     -14.737  -2.215  -1.590  1.00  0.00     0.049 A 
ATOM     60  H   UNL     1     -13.519  -2.632   0.070  1.00  0.00     0.167 HD
ATOM     61  C   UNL     1     -11.466  -2.588   4.035  1.00  0.00     0.037 A 
ATOM     62  C   UNL     1     -15.662  -3.213  -1.571  1.00  0.00     0.037 A 
ATOM     63  C   UNL     1     -10.834  -3.621   3.245  1.00  0.00     0.049 A 
ATOM     64  C   UNL     1     -15.155  -4.261  -0.654  1.00  0.00     0.074 A 
ATOM     65  C   UNL     1      -9.596  -3.798   2.660  1.00  0.00     0.029 A 
ATOM     66  N   UNL     1     -11.681  -4.500   2.623  1.00  0.00    -0.354 N 
ATOM     67  N   UNL     1     -14.129  -5.017  -0.915  1.00  0.00    -0.248 NA
ATOM     68  C   UNL     1     -15.519  -4.162   0.749  1.00  0.00     0.031 C 
ATOM     69  C   UNL     1      -9.851  -4.491   1.437  1.00  0.00     0.029 A 
ATOM     70  C   UNL     1     -11.214  -4.780   1.370  1.00  0.00     0.049 A 
ATOM     71  H   UNL     1     -12.501  -4.874   3.019  1.00  0.00     0.167 HD
ATOM     72  C   UNL     1     -13.437  -5.081   0.283  1.00  0.00     0.074 A 
ATOM     73  C   UNL     1     -14.397  -4.637   1.294  1.00  0.00     0.031 C 
ATOM     74  C   UNL     1     -12.075  -5.190   0.284  1.00  0.00     0.037 A 
BRANCH  61  75
ATOM     75  C   UNL     1     -12.468  -2.913   5.126  1.00  0.00     0.057 A 
ATOM     76  C   UNL     1     -12.345  -4.139   5.803  1.00  0.00     0.134 A 
ATOM     77  C   UNL     1     -13.703  -2.253   5.316  1.00  0.00     0.134 A 
ATOM     78  F   UNL     1     -11.233  -4.880   5.684  1.00  0.00    -0.206 F 
ATOM     79  C   UNL     1     -13.396  -4.700   6.540  1.00  0.00     0.040 A 
ATOM     80  C   UNL     1     -14.737  -2.779   6.093  1.00  0.00     0.040 A 
ATOM     81  F   UNL     1     -14.032  -1.121   4.688  1.00  0.00    -0.206 F 
ATOM     82  C   UNL     1     -14.600  -4.022   6.682  1.00  0.00     0.006 A 
ENDBRANCH  61  75
BRANCH  62  83
ATOM     83  C   UNL     1     -17.082  -3.210  -2.008  1.00  0.00     0.057 A 
ATOM     84  C   UNL     1     -17.823  -4.404  -2.074  1.00  0.00     0.134 A 
ATOM     85  C   UNL     1     -17.832  -2.024  -2.064  1.00  0.00     0.134 A 
ATOM     86  F   UNL     1     -17.209  -5.594  -1.990  1.00  0.00    -0.206 F 
ATOM     87  C   UNL     1     -19.223  -4.417  -2.147  1.00  0.00     0.040 A 
ATOM     88  C   UNL     1     -19.230  -2.023  -2.143  1.00  0.00     0.040 A 
ATOM     89  F   UNL     1     -17.244  -0.826  -1.945  1.00  0.00    -0.206 F 
ATOM     90  C   UNL     1     -19.933  -3.221  -2.166  1.00  0.00     0.006 A 
ENDBRANCH  62  83
BRANCH  74  91
ATOM     91  C   UNL     1     -11.412  -5.609  -1.002  1.00  0.00     0.057 A 
ATOM     92  C   UNL     1     -11.465  -4.895  -2.210  1.00  0.00     0.134 A 
ATOM     93  C   UNL     1     -10.610  -6.755  -0.982  1.00  0.00     0.134 A 
ATOM     94  F   UNL     1     -12.126  -3.733  -2.306  1.00  0.00    -0.206 F 
ATOM     95  C   UNL     1     -10.797  -5.340  -3.357  1.00  0.00     0.040 A 
ATOM     96  C   UNL     1      -9.907  -7.188  -2.107  1.00  0.00     0.040 A 
ATOM     97  F   UNL     1     -10.471  -7.463   0.151  1.00  0.00    -0.206 F 
ATOM     98  C   UNL     1     -10.012  -6.489  -3.306  1.00  0.00     0.006 A 
ENDBRANCH  74  91
ENDBRANCH  48  49
ENDBRANCH  41  43
ENDBRANCH  40  41
ENDBRANCH  39  40
ENDBRANCH  38  39
ENDBRANCH  37  38
ENDBRANCH  36  37
ENDBRANCH  35  36
ENDBRANCH   1  35
TORSDOF 22
