REMARK SMILES C[C@@H](OCc1ccccc1Cl)c1ccc(C(=O)OCCOCCOCCOC(=O)c2ccc(-c3c4nc(c(-c5c(F)cccc5F)c5ccc([nH]5)c(-c5c(F)cccc5F)c5nc(c(-c6c(F)cccc6F)c6ccc3[nH]6)C=C5)C=C4)cc2)o1
REMARK SMILES IDX 22 1 21 2 20 3 19 4 18 5 16 6 17 7 15 8 12 9 13 10 84 11
REMARK SMILES IDX 14 12 2 13 1 14 3 15 4 16 5 17 6 18 10 19 7 20 9 21 11 22
REMARK SMILES IDX 8 23 23 24 24 25 25 26 26 27 27 28 28 29 29 30 30 31 31 32
REMARK SMILES IDX 83 33 32 34 82 35 33 36 34 37 35 38 76 39 36 40 81 41 75 42
REMARK SMILES IDX 77 43 37 44 80 45 74 46 73 47 38 49 64 50 47 51 63 52 48 53
REMARK SMILES IDX 51 54 62 55 78 56 49 57 50 58 61 60 79 61 52 62 39 63 40 64
REMARK SMILES IDX 45 65 41 66 42 67 44 68 46 69 43 70 65 71 66 72 71 73 67 74
REMARK SMILES IDX 68 75 70 76 72 77 69 78 53 79 54 80 59 81 55 82 56 83 58 84
REMARK SMILES IDX 60 85 57 86
REMARK H PARENT 77 48 51 59
REMARK Flexibility Score: inf
ROOT
ATOM      1  C   UNL     1      -4.697   2.733   2.737  1.00  0.00     0.188 C 
ENDROOT
BRANCH   1   2
ATOM      2  O   UNL     1      -5.780   3.453   2.156  1.00  0.00    -0.376 OA
BRANCH   2   3
ATOM      3  C   UNL     1      -6.811   2.753   1.473  1.00  0.00     0.202 C 
BRANCH   3   4
ATOM      4  C   UNL     1      -6.415   2.012   0.195  1.00  0.00     0.261 C 
BRANCH   4   5
ATOM      5  O   UNL     1      -5.473   0.958   0.447  1.00  0.00    -0.457 OA
BRANCH   5   6
ATOM      6  C   UNL     1      -4.265   1.072  -0.181  1.00  0.00     0.374 C 
ATOM      7  O   UNL     1      -3.998   1.910  -1.034  1.00  0.00    -0.242 OA
BRANCH   6   8
ATOM      8  C   UNL     1      -3.332   0.129   0.391  1.00  0.00     0.211 A 
ATOM      9  C   UNL     1      -1.306  -0.564   0.937  1.00  0.00     0.133 A 
ATOM     10  C   UNL     1      -2.190  -1.465   1.495  1.00  0.00     0.049 A 
ATOM     11  O   UNL     1      -1.996   0.405   0.272  1.00  0.00    -0.451 OA
ATOM     12  C   UNL     1      -3.487  -1.034   1.126  1.00  0.00     0.058 A 
BRANCH   9  13
ATOM     13  C   UNL     1       0.190  -0.517   0.875  1.00  0.00     0.181 C 
ATOM     14  C   UNL     1       0.672   0.118  -0.427  1.00  0.00     0.047 C 
BRANCH  13  15
ATOM     15  O   UNL     1       0.636   0.148   2.057  1.00  0.00    -0.366 OA
BRANCH  15  16
ATOM     16  C   UNL     1       2.049   0.341   2.206  1.00  0.00     0.198 C 
BRANCH  16  17
ATOM     17  C   UNL     1       2.767  -0.815   2.877  1.00  0.00    -0.004 A 
ATOM     18  C   UNL     1       2.789  -2.079   2.258  1.00  0.00     0.007 A 
ATOM     19  C   UNL     1       3.487  -0.676   4.077  1.00  0.00     0.046 A 
ATOM     20  C   UNL     1       3.407  -3.181   2.853  1.00  0.00     0.000 A 
ATOM     21  C   UNL     1       4.134  -1.777   4.659  1.00  0.00     0.021 A 
ATOM     22  Cl  UNL     1       3.662   0.840   4.891  1.00  0.00    -0.084 Cl
ATOM     23  C   UNL     1       4.075  -3.032   4.059  1.00  0.00     0.002 A 
ENDBRANCH  16  17
ENDBRANCH  15  16
ENDBRANCH  13  15
ENDBRANCH   9  13
ENDBRANCH   6   8
ENDBRANCH   5   6
ENDBRANCH   4   5
ENDBRANCH   3   4
ENDBRANCH   2   3
ENDBRANCH   1   2
BRANCH   1  24
ATOM     24  C   UNL     1      -4.962   1.410   3.479  1.00  0.00     0.188 C 
BRANCH  24  25
ATOM     25  O   UNL     1      -6.314   1.207   3.862  1.00  0.00    -0.376 OA
BRANCH  25  26
ATOM     26  C   UNL     1      -6.552   1.139   5.261  1.00  0.00     0.202 C 
BRANCH  26  27
ATOM     27  C   UNL     1      -6.614   2.523   5.911  1.00  0.00     0.261 C 
BRANCH  27  28
ATOM     28  O   UNL     1      -5.390   3.272   5.829  1.00  0.00    -0.460 OA
BRANCH  28  29
ATOM     29  C   UNL     1      -4.330   2.779   6.506  1.00  0.00     0.338 C 
ATOM     30  O   UNL     1      -4.295   1.775   7.194  1.00  0.00    -0.246 OA
BRANCH  29  31
ATOM     31  C   UNL     1      -3.149   3.589   6.149  1.00  0.00     0.060 A 
ATOM     32  C   UNL     1      -2.014   2.949   5.639  1.00  0.00     0.016 A 
ATOM     33  C   UNL     1      -3.168   4.976   6.320  1.00  0.00     0.016 A 
ATOM     34  C   UNL     1      -0.878   3.699   5.322  1.00  0.00     0.010 A 
ATOM     35  C   UNL     1      -2.027   5.721   6.017  1.00  0.00     0.010 A 
ATOM     36  C   UNL     1      -0.868   5.084   5.541  1.00  0.00    -0.014 A 
BRANCH  36  37
ATOM     37  C   UNL     1       0.394   5.852   5.428  1.00  0.00     0.031 A 
ATOM     38  C   UNL     1       1.206   6.092   6.670  1.00  0.00     0.074 A 
ATOM     39  C   UNL     1       0.807   6.348   4.249  1.00  0.00     0.049 A 
ATOM     40  N   UNL     1       2.311   6.775   6.823  1.00  0.00    -0.248 NA
ATOM     41  C   UNL     1       0.697   5.481   7.909  1.00  0.00     0.031 C 
ATOM     42  C   UNL     1       0.124   6.174   2.970  1.00  0.00     0.029 A 
ATOM     43  N   UNL     1       1.903   7.117   3.947  1.00  0.00    -0.354 N 
ATOM     44  C   UNL     1       2.631   6.675   8.170  1.00  0.00     0.074 A 
ATOM     45  C   UNL     1       1.587   5.893   8.798  1.00  0.00     0.031 C 
ATOM     46  C   UNL     1       0.812   6.829   2.018  1.00  0.00     0.029 A 
ATOM     47  C   UNL     1       1.968   7.487   2.626  1.00  0.00     0.049 A 
ATOM     48  H   UNL     1       2.579   7.378   4.613  1.00  0.00     0.167 HD
ATOM     49  C   UNL     1       3.703   7.179   8.826  1.00  0.00     0.037 A 
ATOM     50  C   UNL     1       2.852   8.278   1.988  1.00  0.00     0.037 A 
ATOM     51  C   UNL     1       4.739   7.964   8.211  1.00  0.00     0.049 A 
ATOM     52  C   UNL     1       3.997   8.888   2.752  1.00  0.00     0.074 A 
ATOM     53  C   UNL     1       5.877   8.498   8.790  1.00  0.00     0.029 A 
ATOM     54  N   UNL     1       4.755   8.338   6.876  1.00  0.00    -0.354 N 
ATOM     55  N   UNL     1       4.314   8.755   4.017  1.00  0.00    -0.248 NA
ATOM     56  C   UNL     1       4.909   9.761   1.996  1.00  0.00     0.031 C 
ATOM     57  C   UNL     1       6.561   9.230   7.813  1.00  0.00     0.029 A 
ATOM     58  C   UNL     1       5.870   9.118   6.618  1.00  0.00     0.049 A 
ATOM     59  H   UNL     1       4.075   8.086   6.210  1.00  0.00     0.167 HD
ATOM     60  C   UNL     1       5.471   9.501   4.202  1.00  0.00     0.074 A 
ATOM     61  C   UNL     1       5.806  10.081   2.919  1.00  0.00     0.031 C 
ATOM     62  C   UNL     1       6.194   9.686   5.335  1.00  0.00     0.037 A 
BRANCH  49  63
ATOM     63  C   UNL     1       3.789   6.909  10.298  1.00  0.00     0.057 A 
ATOM     64  C   UNL     1       4.118   5.642  10.796  1.00  0.00     0.134 A 
ATOM     65  C   UNL     1       3.550   7.929  11.226  1.00  0.00     0.134 A 
ATOM     66  F   UNL     1       4.343   4.619   9.958  1.00  0.00    -0.206 F 
ATOM     67  C   UNL     1       4.182   5.393  12.168  1.00  0.00     0.040 A 
ATOM     68  C   UNL     1       3.633   7.697  12.600  1.00  0.00     0.040 A 
ATOM     69  F   UNL     1       3.233   9.165  10.814  1.00  0.00    -0.206 F 
ATOM     70  C   UNL     1       3.943   6.424  13.074  1.00  0.00     0.006 A 
ENDBRANCH  49  63
BRANCH  50  71
ATOM     71  C   UNL     1       2.690   8.550   0.538  1.00  0.00     0.057 A 
ATOM     72  C   UNL     1       3.568   7.999  -0.402  1.00  0.00     0.134 A 
ATOM     73  C   UNL     1       1.671   9.382   0.062  1.00  0.00     0.134 A 
ATOM     74  F   UNL     1       4.582   7.217  -0.002  1.00  0.00    -0.206 F 
ATOM     75  C   UNL     1       3.445   8.274  -1.765  1.00  0.00     0.040 A 
ATOM     76  C   UNL     1       1.522   9.649  -1.300  1.00  0.00     0.040 A 
ATOM     77  F   UNL     1       0.802   9.945   0.915  1.00  0.00    -0.206 F 
ATOM     78  C   UNL     1       2.415   9.097  -2.217  1.00  0.00     0.006 A 
ENDBRANCH  50  71
BRANCH  62  79
ATOM     79  C   UNL     1       7.434  10.523   5.233  1.00  0.00     0.057 A 
ATOM     80  C   UNL     1       7.376  11.917   5.119  1.00  0.00     0.134 A 
ATOM     81  C   UNL     1       8.702   9.931   5.298  1.00  0.00     0.134 A 
ATOM     82  F   UNL     1       6.193  12.545   5.040  1.00  0.00    -0.206 F 
ATOM     83  C   UNL     1       8.536  12.692   5.056  1.00  0.00     0.040 A 
ATOM     84  C   UNL     1       9.868  10.696   5.258  1.00  0.00     0.040 A 
ATOM     85  F   UNL     1       8.827   8.600   5.416  1.00  0.00    -0.206 F 
ATOM     86  C   UNL     1       9.787  12.081   5.132  1.00  0.00     0.006 A 
ENDBRANCH  62  79
ENDBRANCH  36  37
ENDBRANCH  29  31
ENDBRANCH  28  29
ENDBRANCH  27  28
ENDBRANCH  26  27
ENDBRANCH  25  26
ENDBRANCH  24  25
ENDBRANCH   1  24
TORSDOF 21
