REMARK SMILES O=C(C[C@H]1C[C@H]2CC[C@@H](C1)N2C(=O)[C@H]1CCCCO1)OCCOCCOCCOC(=O)c1ccc(-c2c3nc(c(-c4c(F)cccc4F)c4ccc([nH]4)c(-c4c(F)cccc4F)c4nc(c(-c5c(F)cccc5F)c5ccc2[nH]5)C=C4)C=C3)cc1
REMARK SMILES IDX 24 1 23 2 22 3 21 4 20 5 2 6 1 7 3 8 4 9 5 10 10 11 6 12
REMARK SMILES IDX 9 13 7 14 11 15 8 16 12 17 13 18 14 19 15 20 19 21 16 22
REMARK SMILES IDX 18 23 17 24 25 25 26 26 27 27 28 28 29 29 30 30 31 31 32 32
REMARK SMILES IDX 33 33 85 34 34 35 84 36 35 37 36 38 37 39 78 40 38 41 83 42
REMARK SMILES IDX 77 43 79 44 39 45 82 46 76 47 75 48 40 50 66 51 49 52 65 53
REMARK SMILES IDX 50 54 53 55 64 56 80 57 51 58 52 59 63 61 81 62 54 63 41 64
REMARK SMILES IDX 42 65 47 66 43 67 44 68 46 69 48 70 45 71 67 72 68 73 73 74
REMARK SMILES IDX 69 75 70 76 72 77 74 78 71 79 55 80 56 81 61 82 57 83 58 84
REMARK SMILES IDX 60 85 62 86 59 87
REMARK H PARENT 79 49 53 60
REMARK Flexibility Score: inf
ROOT
ATOM      1  C   UNL     1      10.879  -5.122   7.818  1.00  0.00     0.188 C 
ENDROOT
BRANCH   1   2
ATOM      2  O   UNL     1      10.170  -5.619   8.945  1.00  0.00    -0.376 OA
BRANCH   2   3
ATOM      3  C   UNL     1       8.776  -5.887   8.849  1.00  0.00     0.202 C 
BRANCH   3   4
ATOM      4  C   UNL     1       8.145  -6.160   7.484  1.00  0.00     0.261 C 
BRANCH   4   5
ATOM      5  O   UNL     1       8.316  -5.196   6.416  1.00  0.00    -0.463 OA
BRANCH   5   6
ATOM      6  C   UNL     1       8.508  -3.868   6.464  1.00  0.00     0.306 C 
ATOM      7  O   UNL     1       9.030  -3.291   5.512  1.00  0.00    -0.252 OA
BRANCH   6   8
ATOM      8  C   UNL     1       8.034  -3.080   7.659  1.00  0.00     0.126 C 
BRANCH   8   9
ATOM      9  C   UNL     1       6.510  -3.066   7.741  1.00  0.00     0.004 C 
ATOM     10  C   UNL     1       5.956  -2.422   9.041  1.00  0.00     0.029 C 
ATOM     11  C   UNL     1       5.910  -2.438   6.463  1.00  0.00     0.029 C 
ATOM     12  C   UNL     1       5.565  -0.937   8.894  1.00  0.00     0.085 C 
ATOM     13  C   UNL     1       5.589  -0.937   6.574  1.00  0.00     0.085 C 
ATOM     14  C   UNL     1       6.780  -0.083   8.520  1.00  0.00     0.027 C 
ATOM     15  N   UNL     1       4.718  -0.807   7.718  1.00  0.00    -0.334 N 
ATOM     16  C   UNL     1       6.781  -0.065   6.981  1.00  0.00     0.027 C 
BRANCH  15  17
ATOM     17  C   UNL     1       3.338  -0.773   7.753  1.00  0.00     0.252 C 
ATOM     18  O   UNL     1       2.741  -0.836   8.830  1.00  0.00    -0.272 OA
BRANCH  17  19
ATOM     19  C   UNL     1       2.587  -0.616   6.394  1.00  0.00     0.207 C 
ATOM     20  C   UNL     1       2.561  -1.941   5.620  1.00  0.00     0.042 C 
ATOM     21  O   UNL     1       1.249  -0.156   6.610  1.00  0.00    -0.368 OA
ATOM     22  C   UNL     1       1.696  -1.892   4.370  1.00  0.00     0.006 C 
ATOM     23  C   UNL     1       0.527   0.043   5.397  1.00  0.00     0.161 C 
ATOM     24  C   UNL     1       0.342  -1.279   4.671  1.00  0.00     0.029 C 
ENDBRANCH  17  19
ENDBRANCH  15  17
ENDBRANCH   8   9
ENDBRANCH   6   8
ENDBRANCH   5   6
ENDBRANCH   4   5
ENDBRANCH   3   4
ENDBRANCH   2   3
ENDBRANCH   1   2
BRANCH   1  25
ATOM     25  C   UNL     1      12.398  -5.205   7.976  1.00  0.00     0.188 C 
BRANCH  25  26
ATOM     26  O   UNL     1      12.920  -6.497   8.262  1.00  0.00    -0.376 OA
BRANCH  26  27
ATOM     27  C   UNL     1      12.487  -7.109   9.477  1.00  0.00     0.202 C 
BRANCH  27  28
ATOM     28  C   UNL     1      12.853  -6.391  10.788  1.00  0.00     0.261 C 
BRANCH  28  29
ATOM     29  O   UNL     1      12.268  -5.078  10.956  1.00  0.00    -0.460 OA
BRANCH  29  30
ATOM     30  C   UNL     1      13.163  -4.074  11.137  1.00  0.00     0.338 C 
ATOM     31  O   UNL     1      14.378  -4.166  11.164  1.00  0.00    -0.246 OA
BRANCH  30  32
ATOM     32  C   UNL     1      12.508  -2.754  11.234  1.00  0.00     0.060 A 
ATOM     33  C   UNL     1      12.700  -1.835  10.194  1.00  0.00     0.016 A 
ATOM     34  C   UNL     1      11.957  -2.334  12.448  1.00  0.00     0.016 A 
ATOM     35  C   UNL     1      12.402  -0.483  10.390  1.00  0.00     0.010 A 
ATOM     36  C   UNL     1      11.662  -0.976  12.642  1.00  0.00     0.010 A 
ATOM     37  C   UNL     1      11.933  -0.034  11.633  1.00  0.00    -0.014 A 
BRANCH  37  38
ATOM     38  C   UNL     1      11.890   1.426  11.922  1.00  0.00     0.031 A 
ATOM     39  C   UNL     1      13.032   2.070  12.669  1.00  0.00     0.074 A 
ATOM     40  C   UNL     1      10.872   2.193  11.492  1.00  0.00     0.049 A 
ATOM     41  N   UNL     1      13.200   3.325  13.008  1.00  0.00    -0.248 NA
ATOM     42  C   UNL     1      14.129   1.183  13.086  1.00  0.00     0.031 C 
ATOM     43  C   UNL     1       9.713   1.717  10.744  1.00  0.00     0.029 A 
ATOM     44  N   UNL     1      10.654   3.542  11.633  1.00  0.00    -0.354 N 
ATOM     45  C   UNL     1      14.422   3.381  13.666  1.00  0.00     0.074 A 
ATOM     46  C   UNL     1      14.936   2.027  13.713  1.00  0.00     0.031 C 
ATOM     47  C   UNL     1       8.896   2.757  10.501  1.00  0.00     0.029 A 
ATOM     48  C   UNL     1       9.468   3.968  11.088  1.00  0.00     0.049 A 
ATOM     49  H   UNL     1      11.288   4.147  12.082  1.00  0.00     0.167 HD
ATOM     50  C   UNL     1      15.071   4.457  14.173  1.00  0.00     0.037 A 
ATOM     51  C   UNL     1       8.899   5.189  11.071  1.00  0.00     0.037 A 
ATOM     52  C   UNL     1      14.573   5.808  14.143  1.00  0.00     0.049 A 
ATOM     53  C   UNL     1       9.613   6.362  11.687  1.00  0.00     0.074 A 
ATOM     54  C   UNL     1      15.170   6.959  14.633  1.00  0.00     0.029 A 
ATOM     55  N   UNL     1      13.360   6.191  13.597  1.00  0.00    -0.354 N 
ATOM     56  N   UNL     1      10.781   6.402  12.280  1.00  0.00    -0.248 NA
ATOM     57  C   UNL     1       8.931   7.664  11.619  1.00  0.00     0.031 C 
ATOM     58  C   UNL     1      14.301   8.034  14.411  1.00  0.00     0.029 A 
ATOM     59  C   UNL     1      13.182   7.558  13.751  1.00  0.00     0.049 A 
ATOM     60  H   UNL     1      12.718   5.583  13.164  1.00  0.00     0.167 HD
ATOM     61  C   UNL     1      10.981   7.731  12.638  1.00  0.00     0.074 A 
ATOM     62  C   UNL     1       9.824   8.469  12.178  1.00  0.00     0.031 C 
ATOM     63  C   UNL     1      12.029   8.287  13.291  1.00  0.00     0.037 A 
BRANCH  50  64
ATOM     64  C   UNL     1      16.406   4.217  14.811  1.00  0.00     0.057 A 
ATOM     65  C   UNL     1      17.549   3.967  14.041  1.00  0.00     0.134 A 
ATOM     66  C   UNL     1      16.561   4.283  16.201  1.00  0.00     0.134 A 
ATOM     67  F   UNL     1      17.463   3.881  12.705  1.00  0.00    -0.206 F 
ATOM     68  C   UNL     1      18.799   3.775  14.633  1.00  0.00     0.040 A 
ATOM     69  C   UNL     1      17.808   4.113  16.803  1.00  0.00     0.040 A 
ATOM     70  F   UNL     1      15.506   4.526  16.993  1.00  0.00    -0.206 F 
ATOM     71  C   UNL     1      18.931   3.855  16.019  1.00  0.00     0.006 A 
ENDBRANCH  50  64
BRANCH  51  72
ATOM     72  C   UNL     1       7.563   5.375  10.453  1.00  0.00     0.057 A 
ATOM     73  C   UNL     1       7.408   6.073   9.250  1.00  0.00     0.134 A 
ATOM     74  C   UNL     1       6.407   4.888  11.073  1.00  0.00     0.134 A 
ATOM     75  F   UNL     1       8.478   6.584   8.624  1.00  0.00    -0.206 F 
ATOM     76  C   UNL     1       6.147   6.299   8.695  1.00  0.00     0.040 A 
ATOM     77  C   UNL     1       5.142   5.086  10.518  1.00  0.00     0.040 A 
ATOM     78  F   UNL     1       6.492   4.213  12.229  1.00  0.00    -0.206 F 
ATOM     79  C   UNL     1       5.010   5.801   9.329  1.00  0.00     0.006 A 
ENDBRANCH  51  72
BRANCH  63  80
ATOM     80  C   UNL     1      11.983   9.768  13.528  1.00  0.00     0.057 A 
ATOM     81  C   UNL     1      11.133  10.336  14.486  1.00  0.00     0.134 A 
ATOM     82  C   UNL     1      12.810  10.636  12.803  1.00  0.00     0.134 A 
ATOM     83  F   UNL     1      10.306   9.561  15.204  1.00  0.00    -0.206 F 
ATOM     84  C   UNL     1      11.087  11.715  14.695  1.00  0.00     0.040 A 
ATOM     85  C   UNL     1      12.790  12.015  13.019  1.00  0.00     0.040 A 
ATOM     86  F   UNL     1      13.654  10.157  11.877  1.00  0.00    -0.206 F 
ATOM     87  C   UNL     1      11.921  12.559  13.963  1.00  0.00     0.006 A 
ENDBRANCH  63  80
ENDBRANCH  37  38
ENDBRANCH  30  32
ENDBRANCH  29  30
ENDBRANCH  28  29
ENDBRANCH  27  28
ENDBRANCH  26  27
ENDBRANCH  25  26
ENDBRANCH   1  25
TORSDOF 20
