REMARK SMILES O=C(OCCOCCOCCOC(=O)c1ccc(-c2c3nc(c(-c4c(F)cccc4F)c4ccc([nH]4)c(-c4c(F)cccc4F)c4nc(c(-c5c(F)cccc5F)c5ccc2[nH]5)C=C4)C=C3)cc1)C1=NN(c2cc(F)ccc2F)[C@@H](c2ccccc2)C1
REMARK SMILES IDX 8 1 7 2 6 3 5 4 4 5 3 6 2 7 1 8 69 9 70 10 87 11 71 12 80 13
REMARK SMILES IDX 72 14 73 15 78 16 74 17 77 18 79 19 75 20 76 21 81 22 82 23
REMARK SMILES IDX 86 24 83 25 85 26 84 27 9 28 10 29 11 30 12 31 13 32 14 33
REMARK SMILES IDX 15 34 16 35 68 36 17 37 67 38 18 39 19 40 20 41 61 42 21 43
REMARK SMILES IDX 66 44 60 45 62 46 22 47 65 48 59 49 58 50 23 52 49 53 32 54
REMARK SMILES IDX 48 55 33 56 36 57 47 58 63 59 34 60 35 61 46 63 64 64 37 65
REMARK SMILES IDX 24 66 25 67 30 68 26 69 27 70 29 71 31 72 28 73 50 74 51 75
REMARK SMILES IDX 56 76 52 77 53 78 55 79 57 80 54 81 38 82 39 83 44 84 40 85
REMARK SMILES IDX 41 86 43 87 45 88 42 89
REMARK H PARENT 62 51 36 62
REMARK Flexibility Score: inf
ROOT
ATOM      1  C   UNL     1       2.167  -2.479   1.381  1.00  0.00     0.188 C 
ENDROOT
BRANCH   1   2
ATOM      2  C   UNL     1       2.727  -1.583   0.271  1.00  0.00     0.188 C 
BRANCH   2   3
ATOM      3  O   UNL     1       4.118  -1.465   0.079  1.00  0.00    -0.376 OA
BRANCH   3   4
ATOM      4  C   UNL     1       4.881  -0.528   0.827  1.00  0.00     0.202 C 
BRANCH   4   5
ATOM      5  C   UNL     1       4.470   0.950   0.953  1.00  0.00     0.261 C 
BRANCH   5   6
ATOM      6  O   UNL     1       3.159   1.349   0.530  1.00  0.00    -0.459 OA
BRANCH   6   7
ATOM      7  C   UNL     1       2.833   1.674  -0.727  1.00  0.00     0.354 C 
ATOM      8  O   UNL     1       1.836   2.334  -0.993  1.00  0.00    -0.245 OA
BRANCH   7   9
ATOM      9  C   UNL     1       3.614   1.091  -1.884  1.00  0.00     0.148 C 
ATOM     10  N   UNL     1       4.830   0.651  -1.802  1.00  0.00    -0.169 NA
ATOM     11  C   UNL     1       2.943   0.928  -3.219  1.00  0.00     0.098 C 
ATOM     12  N   UNL     1       5.172   0.255  -3.050  1.00  0.00    -0.254 N 
ATOM     13  C   UNL     1       4.192   0.678  -4.064  1.00  0.00     0.144 C 
BRANCH  12  14
ATOM     14  C   UNL     1       6.097  -0.768  -3.235  1.00  0.00     0.099 A 
ATOM     15  C   UNL     1       5.872  -2.056  -2.721  1.00  0.00     0.070 A 
ATOM     16  C   UNL     1       7.229  -0.574  -4.037  1.00  0.00     0.148 A 
ATOM     17  C   UNL     1       6.725  -3.106  -3.049  1.00  0.00     0.125 A 
ATOM     18  C   UNL     1       8.110  -1.615  -4.326  1.00  0.00     0.044 A 
ATOM     19  F   UNL     1       7.479   0.641  -4.552  1.00  0.00    -0.205 F 
ATOM     20  F   UNL     1       6.444  -4.346  -2.624  1.00  0.00    -0.207 F 
ATOM     21  C   UNL     1       7.847  -2.895  -3.842  1.00  0.00     0.042 A 
ENDBRANCH  12  14
BRANCH  13  22
ATOM     22  C   UNL     1       4.056  -0.274  -5.233  1.00  0.00    -0.023 A 
ATOM     23  C   UNL     1       3.669  -1.612  -5.069  1.00  0.00     0.006 A 
ATOM     24  C   UNL     1       4.503   0.140  -6.498  1.00  0.00     0.006 A 
ATOM     25  C   UNL     1       3.829  -2.524  -6.114  1.00  0.00     0.000 A 
ATOM     26  C   UNL     1       4.623  -0.769  -7.547  1.00  0.00     0.000 A 
ATOM     27  C   UNL     1       4.301  -2.106  -7.351  1.00  0.00     0.000 A 
ENDBRANCH  13  22
ENDBRANCH   7   9
ENDBRANCH   6   7
ENDBRANCH   5   6
ENDBRANCH   4   5
ENDBRANCH   3   4
ENDBRANCH   2   3
ENDBRANCH   1   2
BRANCH   1  28
ATOM     28  O   UNL     1       2.985  -2.834   2.476  1.00  0.00    -0.376 OA
BRANCH  28  29
ATOM     29  C   UNL     1       4.161  -3.595   2.225  1.00  0.00     0.202 C 
BRANCH  29  30
ATOM     30  C   UNL     1       4.094  -4.848   1.345  1.00  0.00     0.261 C 
BRANCH  30  31
ATOM     31  O   UNL     1       3.677  -4.596  -0.011  1.00  0.00    -0.460 OA
BRANCH  31  32
ATOM     32  C   UNL     1       2.603  -5.306  -0.419  1.00  0.00     0.338 C 
ATOM     33  O   UNL     1       1.933  -6.090   0.248  1.00  0.00    -0.246 OA
BRANCH  32  34
ATOM     34  C   UNL     1       2.230  -4.971  -1.801  1.00  0.00     0.060 A 
ATOM     35  C   UNL     1       0.980  -4.382  -2.043  1.00  0.00     0.016 A 
ATOM     36  C   UNL     1       3.012  -5.423  -2.861  1.00  0.00     0.016 A 
ATOM     37  C   UNL     1       0.484  -4.285  -3.349  1.00  0.00     0.010 A 
ATOM     38  C   UNL     1       2.505  -5.339  -4.162  1.00  0.00     0.010 A 
ATOM     39  C   UNL     1       1.224  -4.800  -4.418  1.00  0.00    -0.014 A 
BRANCH  39  40
ATOM     40  C   UNL     1       0.643  -4.943  -5.785  1.00  0.00     0.031 A 
ATOM     41  C   UNL     1       0.327  -6.324  -6.295  1.00  0.00     0.074 A 
ATOM     42  C   UNL     1       0.465  -3.893  -6.610  1.00  0.00     0.049 A 
ATOM     43  N   UNL     1       0.018  -6.713  -7.506  1.00  0.00    -0.248 NA
ATOM     44  C   UNL     1       0.351  -7.409  -5.300  1.00  0.00     0.031 C 
ATOM     45  C   UNL     1       0.647  -2.488  -6.264  1.00  0.00     0.029 A 
ATOM     46  N   UNL     1       0.192  -3.868  -7.961  1.00  0.00    -0.354 N 
ATOM     47  C   UNL     1      -0.235  -8.074  -7.410  1.00  0.00     0.074 A 
ATOM     48  C   UNL     1       0.049  -8.462  -6.044  1.00  0.00     0.031 C 
ATOM     49  C   UNL     1       0.660  -1.757  -7.393  1.00  0.00     0.029 A 
ATOM     50  C   UNL     1       0.450  -2.643  -8.533  1.00  0.00     0.049 A 
ATOM     51  H   UNL     1      -0.151  -4.643  -8.462  1.00  0.00     0.167 HD
ATOM     52  C   UNL     1      -0.714  -8.916  -8.356  1.00  0.00     0.037 A 
ATOM     53  C   UNL     1       0.568  -2.291  -9.828  1.00  0.00     0.037 A 
ATOM     54  C   UNL     1      -0.995  -8.541  -9.716  1.00  0.00     0.049 A 
ATOM     55  C   UNL     1       0.255  -3.280 -10.909  1.00  0.00     0.074 A 
ATOM     56  C   UNL     1      -1.577  -9.295 -10.720  1.00  0.00     0.029 A 
ATOM     57  N   UNL     1      -0.688  -7.309 -10.270  1.00  0.00    -0.354 N 
ATOM     58  N   UNL     1      -0.053  -4.547 -10.805  1.00  0.00    -0.248 NA
ATOM     59  C   UNL     1       0.254  -2.769 -12.289  1.00  0.00     0.031 C 
ATOM     60  C   UNL     1      -1.576  -8.536 -11.896  1.00  0.00     0.029 A 
ATOM     61  C   UNL     1      -1.034  -7.294 -11.611  1.00  0.00     0.049 A 
ATOM     62  H   UNL     1      -0.284  -6.555  -9.782  1.00  0.00     0.167 HD
ATOM     63  C   UNL     1      -0.360  -4.967 -12.092  1.00  0.00     0.074 A 
ATOM     64  C   UNL     1      -0.148  -3.835 -12.968  1.00  0.00     0.031 C 
ATOM     65  C   UNL     1      -0.826  -6.174 -12.492  1.00  0.00     0.037 A 
BRANCH  52  66
ATOM     66  C   UNL     1      -0.998 -10.326  -7.934  1.00  0.00     0.057 A 
ATOM     67  C   UNL     1      -2.071 -10.630  -7.085  1.00  0.00     0.134 A 
ATOM     68  C   UNL     1      -0.216 -11.389  -8.397  1.00  0.00     0.134 A 
ATOM     69  F   UNL     1      -2.854  -9.653  -6.602  1.00  0.00    -0.206 F 
ATOM     70  C   UNL     1      -2.339 -11.940  -6.688  1.00  0.00     0.040 A 
ATOM     71  C   UNL     1      -0.488 -12.707  -8.026  1.00  0.00     0.040 A 
ATOM     72  F   UNL     1       0.822 -11.166  -9.217  1.00  0.00    -0.206 F 
ATOM     73  C   UNL     1      -1.548 -12.984  -7.163  1.00  0.00     0.006 A 
ENDBRANCH  52  66
BRANCH  53  74
ATOM     74  C   UNL     1       1.052  -0.941 -10.195  1.00  0.00     0.057 A 
ATOM     75  C   UNL     1       0.176   0.121 -10.427  1.00  0.00     0.134 A 
ATOM     76  C   UNL     1       2.419  -0.710 -10.382  1.00  0.00     0.134 A 
ATOM     77  F   UNL     1      -1.147  -0.060 -10.319  1.00  0.00    -0.206 F 
ATOM     78  C   UNL     1       0.647   1.377 -10.816  1.00  0.00     0.040 A 
ATOM     79  C   UNL     1       2.905   0.544 -10.751  1.00  0.00     0.040 A 
ATOM     80  F   UNL     1       3.297  -1.714 -10.246  1.00  0.00    -0.206 F 
ATOM     81  C   UNL     1       2.016   1.594 -10.969  1.00  0.00     0.006 A 
ENDBRANCH  53  74
BRANCH  65  82
ATOM     82  C   UNL     1      -1.228  -6.315 -13.928  1.00  0.00     0.057 A 
ATOM     83  C   UNL     1      -0.291  -6.428 -14.961  1.00  0.00     0.134 A 
ATOM     84  C   UNL     1      -2.585  -6.362 -14.276  1.00  0.00     0.134 A 
ATOM     85  F   UNL     1       1.023  -6.367 -14.697  1.00  0.00    -0.206 F 
ATOM     86  C   UNL     1      -0.689  -6.569 -16.292  1.00  0.00     0.040 A 
ATOM     87  C   UNL     1      -2.995  -6.526 -15.599  1.00  0.00     0.040 A 
ATOM     88  F   UNL     1      -3.533  -6.258 -13.333  1.00  0.00    -0.206 F 
ATOM     89  C   UNL     1      -2.045  -6.627 -16.612  1.00  0.00     0.006 A 
ENDBRANCH  65  82
ENDBRANCH  39  40
ENDBRANCH  32  34
ENDBRANCH  31  32
ENDBRANCH  30  31
ENDBRANCH  29  30
ENDBRANCH  28  29
ENDBRANCH   1  28
TORSDOF 19
