REMARK SMILES O=C(OCCOCCOCCOC(=O)c1ccccc1-c1ccc(/C=C2/SC(=S)N(Cc3ccccc3)C2=O)o1)c1ccc(-c2c3nc(c(-c4c(F)cccc4F)c4ccc([nH]4)c(-c4c(F)cccc4F)c4nc(c(-c5c(F)cccc5F)c5ccc2[nH]5)C=C4)C=C3)cc1
REMARK SMILES IDX 8 1 7 2 6 3 5 4 4 5 3 6 2 7 1 8 41 9 42 10 94 11 43 12 93 13
REMARK SMILES IDX 44 14 45 15 46 16 87 17 47 18 92 19 86 20 88 21 48 22 91 23
REMARK SMILES IDX 85 24 84 25 49 27 75 28 58 29 74 30 59 31 62 32 73 33 89 34
REMARK SMILES IDX 60 35 61 36 72 38 90 39 63 40 50 41 51 42 56 43 52 44 53 45
REMARK SMILES IDX 55 46 57 47 54 48 76 49 77 50 82 51 78 52 79 53 81 54 83 55
REMARK SMILES IDX 80 56 64 57 65 58 70 59 66 60 67 61 69 62 71 63 68 64 9 65
REMARK SMILES IDX 10 66 11 67 12 68 13 69 14 70 15 71 16 72 20 73 17 74 19 75
REMARK SMILES IDX 18 76 21 77 22 78 40 79 23 80 24 81 25 82 26 83 27 84 38 85
REMARK SMILES IDX 28 86 30 87 39 88 29 89 31 90 32 91 33 92 37 93 34 94 36 95
REMARK SMILES IDX 35 96
REMARK H PARENT 88 26 62 37
REMARK Flexibility Score: inf
ROOT
ATOM      1  C   UNL     1       1.961  -0.404   3.163  1.00  0.00     0.188 C 
ENDROOT
BRANCH   1   2
ATOM      2  C   UNL     1       2.629   0.333   2.005  1.00  0.00     0.188 C 
BRANCH   2   3
ATOM      3  O   UNL     1       3.917  -0.189   1.678  1.00  0.00    -0.376 OA
BRANCH   3   4
ATOM      4  C   UNL     1       4.859   0.791   1.231  1.00  0.00     0.202 C 
BRANCH   4   5
ATOM      5  C   UNL     1       4.536   1.487  -0.104  1.00  0.00     0.261 C 
BRANCH   5   6
ATOM      6  O   UNL     1       3.166   1.374  -0.533  1.00  0.00    -0.460 OA
BRANCH   6   7
ATOM      7  C   UNL     1       2.591   0.444  -1.335  1.00  0.00     0.338 C 
ATOM      8  O   UNL     1       1.423   0.603  -1.687  1.00  0.00    -0.246 OA
BRANCH   7   9
ATOM      9  C   UNL     1       3.297  -0.779  -1.811  1.00  0.00     0.060 A 
ATOM     10  C   UNL     1       4.322  -1.410  -1.115  1.00  0.00     0.016 A 
ATOM     11  C   UNL     1       2.831  -1.391  -2.985  1.00  0.00     0.016 A 
ATOM     12  C   UNL     1       4.950  -2.543  -1.601  1.00  0.00     0.010 A 
ATOM     13  C   UNL     1       3.407  -2.581  -3.448  1.00  0.00     0.010 A 
ATOM     14  C   UNL     1       4.489  -3.148  -2.763  1.00  0.00    -0.014 A 
BRANCH  14  15
ATOM     15  C   UNL     1       5.219  -4.323  -3.272  1.00  0.00     0.031 A 
ATOM     16  C   UNL     1       6.042  -4.174  -4.509  1.00  0.00     0.074 A 
ATOM     17  C   UNL     1       5.265  -5.462  -2.557  1.00  0.00     0.049 A 
ATOM     18  N   UNL     1       6.701  -5.084  -5.170  1.00  0.00    -0.248 NA
ATOM     19  C   UNL     1       6.176  -2.811  -5.052  1.00  0.00     0.031 C 
ATOM     20  C   UNL     1       4.681  -5.644  -1.228  1.00  0.00     0.029 A 
ATOM     21  N   UNL     1       5.851  -6.672  -2.828  1.00  0.00    -0.354 N 
ATOM     22  C   UNL     1       7.317  -4.411  -6.212  1.00  0.00     0.074 A 
ATOM     23  C   UNL     1       6.948  -3.018  -6.108  1.00  0.00     0.031 C 
ATOM     24  C   UNL     1       4.936  -6.892  -0.811  1.00  0.00     0.029 A 
ATOM     25  C   UNL     1       5.578  -7.625  -1.878  1.00  0.00     0.049 A 
ATOM     26  H   UNL     1       6.409  -6.840  -3.621  1.00  0.00     0.167 HD
ATOM     27  C   UNL     1       8.120  -4.928  -7.167  1.00  0.00     0.037 A 
ATOM     28  C   UNL     1       5.752  -8.957  -1.888  1.00  0.00     0.037 A 
ATOM     29  C   UNL     1       8.476  -6.319  -7.236  1.00  0.00     0.049 A 
ATOM     30  C   UNL     1       6.467  -9.543  -3.061  1.00  0.00     0.074 A 
ATOM     31  C   UNL     1       9.263  -6.963  -8.171  1.00  0.00     0.029 A 
ATOM     32  N   UNL     1       8.054  -7.285  -6.331  1.00  0.00    -0.354 N 
ATOM     33  N   UNL     1       7.002  -8.918  -4.082  1.00  0.00    -0.248 NA
ATOM     34  C   UNL     1       6.619 -11.001  -3.090  1.00  0.00     0.031 C 
ATOM     35  C   UNL     1       9.263  -8.328  -7.870  1.00  0.00     0.029 A 
ATOM     36  C   UNL     1       8.523  -8.529  -6.715  1.00  0.00     0.049 A 
ATOM     37  H   UNL     1       7.503  -7.110  -5.534  1.00  0.00     0.167 HD
ATOM     38  C   UNL     1       7.581  -9.901  -4.863  1.00  0.00     0.074 A 
ATOM     39  C   UNL     1       7.340 -11.163  -4.190  1.00  0.00     0.031 C 
ATOM     40  C   UNL     1       8.257  -9.768  -6.028  1.00  0.00     0.037 A 
BRANCH  27  41
ATOM     41  C   UNL     1       8.590  -4.001  -8.242  1.00  0.00     0.057 A 
ATOM     42  C   UNL     1       9.582  -3.037  -8.025  1.00  0.00     0.134 A 
ATOM     43  C   UNL     1       8.033  -4.081  -9.524  1.00  0.00     0.134 A 
ATOM     44  F   UNL     1      10.130  -2.885  -6.810  1.00  0.00    -0.206 F 
ATOM     45  C   UNL     1       9.998  -2.180  -9.046  1.00  0.00     0.040 A 
ATOM     46  C   UNL     1       8.455  -3.246 -10.557  1.00  0.00     0.040 A 
ATOM     47  F   UNL     1       7.067  -4.973  -9.791  1.00  0.00    -0.206 F 
ATOM     48  C   UNL     1       9.440  -2.290 -10.319  1.00  0.00     0.006 A 
ENDBRANCH  27  41
BRANCH  28  49
ATOM     49  C   UNL     1       5.151  -9.814  -0.832  1.00  0.00     0.057 A 
ATOM     50  C   UNL     1       5.933 -10.552   0.062  1.00  0.00     0.134 A 
ATOM     51  C   UNL     1       3.758  -9.950  -0.727  1.00  0.00     0.134 A 
ATOM     52  F   UNL     1       7.271 -10.485   0.002  1.00  0.00    -0.206 F 
ATOM     53  C   UNL     1       5.355 -11.412   1.000  1.00  0.00     0.040 A 
ATOM     54  C   UNL     1       3.167 -10.789   0.220  1.00  0.00     0.040 A 
ATOM     55  F   UNL     1       2.945  -9.267  -1.548  1.00  0.00    -0.206 F 
ATOM     56  C   UNL     1       3.969 -11.532   1.080  1.00  0.00     0.006 A 
ENDBRANCH  28  49
BRANCH  40  57
ATOM     57  C   UNL     1       8.798 -11.025  -6.626  1.00  0.00     0.057 A 
ATOM     58  C   UNL     1       7.960 -11.970  -7.229  1.00  0.00     0.134 A 
ATOM     59  C   UNL     1      10.174 -11.280  -6.617  1.00  0.00     0.134 A 
ATOM     60  F   UNL     1       6.630 -11.790  -7.244  1.00  0.00    -0.206 F 
ATOM     61  C   UNL     1       8.473 -13.139  -7.787  1.00  0.00     0.040 A 
ATOM     62  C   UNL     1      10.701 -12.429  -7.200  1.00  0.00     0.040 A 
ATOM     63  F   UNL     1      11.025 -10.408  -6.054  1.00  0.00    -0.206 F 
ATOM     64  C   UNL     1       9.849 -13.366  -7.782  1.00  0.00     0.006 A 
ENDBRANCH  40  57
ENDBRANCH  14  15
ENDBRANCH   7   9
ENDBRANCH   6   7
ENDBRANCH   5   6
ENDBRANCH   4   5
ENDBRANCH   3   4
ENDBRANCH   2   3
ENDBRANCH   1   2
BRANCH   1  65
ATOM     65  O   UNL     1       2.623  -0.372   4.421  1.00  0.00    -0.376 OA
BRANCH  65  66
ATOM     66  C   UNL     1       3.992  -0.753   4.459  1.00  0.00     0.202 C 
BRANCH  66  67
ATOM     67  C   UNL     1       4.358  -2.217   4.177  1.00  0.00     0.261 C 
BRANCH  67  68
ATOM     68  O   UNL     1       3.810  -2.815   2.991  1.00  0.00    -0.460 OA
BRANCH  68  69
ATOM     69  C   UNL     1       2.696  -3.550   3.220  1.00  0.00     0.338 C 
ATOM     70  O   UNL     1       2.010  -3.562   4.233  1.00  0.00    -0.246 OA
BRANCH  69  71
ATOM     71  C   UNL     1       2.451  -4.504   2.133  1.00  0.00     0.071 A 
ATOM     72  C   UNL     1       1.528  -4.202   1.128  1.00  0.00     0.016 A 
ATOM     73  C   UNL     1       3.007  -5.787   2.253  1.00  0.00     0.032 A 
ATOM     74  C   UNL     1       1.124  -5.210   0.252  1.00  0.00     0.001 A 
ATOM     75  C   UNL     1       2.529  -6.803   1.423  1.00  0.00     0.013 A 
ATOM     76  C   UNL     1       1.598  -6.513   0.419  1.00  0.00     0.001 A 
BRANCH  73  77
ATOM     77  C   UNL     1       4.089  -6.013   3.193  1.00  0.00     0.135 A 
ATOM     78  C   UNL     1       4.189  -5.859   4.556  1.00  0.00     0.051 A 
ATOM     79  O   UNL     1       5.323  -6.223   2.648  1.00  0.00    -0.457 OA
ATOM     80  C   UNL     1       5.565  -5.877   4.844  1.00  0.00     0.051 A 
ATOM     81  C   UNL     1       6.241  -6.190   3.669  1.00  0.00     0.128 A 
BRANCH  81  82
ATOM     82  C   UNL     1       7.627  -6.481   3.545  1.00  0.00     0.068 C 
ATOM     83  C   UNL     1       8.109  -7.561   4.173  1.00  0.00     0.084 C 
ATOM     84  S   UNL     1       9.744  -7.807   4.635  1.00  0.00    -0.054 SA
ATOM     85  C   UNL     1       7.267  -8.625   4.786  1.00  0.00     0.266 C 
ATOM     86  C   UNL     1       9.267  -8.888   5.960  1.00  0.00     0.148 C 
ATOM     87  N   UNL     1       7.920  -9.161   5.878  1.00  0.00    -0.288 N 
ATOM     88  O   UNL     1       6.197  -8.995   4.344  1.00  0.00    -0.268 OA
ATOM     89  S   UNL     1      10.366  -9.448   7.081  1.00  0.00    -0.052 S 
BRANCH  87  90
ATOM     90  C   UNL     1       7.161 -10.055   6.752  1.00  0.00     0.163 C 
BRANCH  90  91
ATOM     91  C   UNL     1       6.333  -9.334   7.805  1.00  0.00    -0.028 A 
ATOM     92  C   UNL     1       6.529  -9.611   9.166  1.00  0.00     0.005 A 
ATOM     93  C   UNL     1       5.293  -8.458   7.454  1.00  0.00     0.005 A 
ATOM     94  C   UNL     1       5.709  -9.031  10.140  1.00  0.00     0.000 A 
ATOM     95  C   UNL     1       4.488  -7.860   8.428  1.00  0.00     0.000 A 
ATOM     96  C   UNL     1       4.692  -8.153   9.772  1.00  0.00     0.000 A 
ENDBRANCH  90  91
ENDBRANCH  87  90
ENDBRANCH  81  82
ENDBRANCH  73  77
ENDBRANCH  69  71
ENDBRANCH  68  69
ENDBRANCH  67  68
ENDBRANCH  66  67
ENDBRANCH  65  66
ENDBRANCH   1  65
TORSDOF 21
