REMARK SMILES C[C@H](Cc1cccs1)N(C)C(=O)N1CC[C@@H](CC(=O)OCCOCCOCCOC(=O)c2ccc(-c3c4nc(c(-c5c(F)cccc5F)c5ccc([nH]5)c(-c5c(F)cccc5F)c5nc(c(-c6c(F)cccc6F)c6ccc3[nH]6)C=C5)C=C4)cc2)C1
REMARK SMILES IDX 22 1 21 2 20 3 18 4 19 5 17 6 16 7 13 8 14 9 86 10 15 11
REMARK SMILES IDX 11 12 12 13 9 14 10 15 2 16 1 17 3 18 4 19 5 20 8 21 6 22
REMARK SMILES IDX 7 23 23 24 24 25 25 26 26 27 27 28 28 29 29 30 30 31 31 32
REMARK SMILES IDX 32 33 33 34 85 35 34 36 84 37 35 38 36 39 37 40 78 41 38 42
REMARK SMILES IDX 83 43 77 44 79 45 39 46 82 47 76 48 75 49 40 51 66 52 49 53
REMARK SMILES IDX 65 54 50 55 53 56 64 57 80 58 51 59 52 60 63 62 81 63 54 64
REMARK SMILES IDX 41 65 42 66 47 67 43 68 44 69 46 70 48 71 45 72 67 73 68 74
REMARK SMILES IDX 73 75 69 76 70 77 72 78 74 79 71 80 55 81 56 82 61 83 57 84
REMARK SMILES IDX 58 85 60 86 62 87 59 88
REMARK H PARENT 79 50 53 61
REMARK Flexibility Score: inf
ROOT
ATOM      1  C   UNL     1      -8.349   4.510  -0.532  1.00  0.00     0.202 C 
ENDROOT
BRANCH   1   2
ATOM      2  C   UNL     1      -8.783   3.102  -0.949  1.00  0.00     0.261 C 
BRANCH   2   3
ATOM      3  O   UNL     1      -7.668   2.195  -0.864  1.00  0.00    -0.463 OA
BRANCH   3   4
ATOM      4  C   UNL     1      -7.654   1.157  -1.737  1.00  0.00     0.306 C 
ATOM      5  O   UNL     1      -8.614   0.801  -2.407  1.00  0.00    -0.252 OA
BRANCH   4   6
ATOM      6  C   UNL     1      -6.243   0.627  -1.930  1.00  0.00     0.128 C 
BRANCH   6   7
ATOM      7  C   UNL     1      -5.557  -0.199  -0.829  1.00  0.00     0.021 C 
ATOM      8  N   UNL     1      -3.240   0.147  -0.148  1.00  0.00    -0.324 N 
ATOM      9  C   UNL     1      -4.066   0.800   0.844  1.00  0.00     0.122 C 
ATOM     10  C   UNL     1      -4.075  -0.441  -1.193  1.00  0.00     0.125 C 
ATOM     11  C   UNL     1      -5.500   0.351   0.594  1.00  0.00     0.027 C 
BRANCH   8  12
ATOM     12  C   UNL     1      -1.879   0.280  -0.383  1.00  0.00     0.320 C 
ATOM     13  O   UNL     1      -1.453   0.062  -1.523  1.00  0.00    -0.248 OA
BRANCH  12  14
ATOM     14  N   UNL     1      -1.005   0.651   0.631  1.00  0.00    -0.325 N 
ATOM     15  C   UNL     1      -1.342   0.712   2.043  1.00  0.00     0.149 C 
BRANCH  14  16
ATOM     16  C   UNL     1       0.437   0.914   0.308  1.00  0.00     0.088 C 
ATOM     17  C   UNL     1       0.632   2.211  -0.477  1.00  0.00     0.031 C 
BRANCH  16  18
ATOM     18  C   UNL     1       1.175  -0.336  -0.247  1.00  0.00     0.071 C 
BRANCH  18  19
ATOM     19  C   UNL     1       2.065  -0.096  -1.439  1.00  0.00     0.007 A 
ATOM     20  C   UNL     1       1.691   0.081  -2.758  1.00  0.00     0.015 A 
ATOM     21  S   UNL     1       3.769  -0.031  -1.261  1.00  0.00    -0.149 S 
ATOM     22  C   UNL     1       2.805   0.280  -3.620  1.00  0.00     0.012 A 
ATOM     23  C   UNL     1       3.998   0.226  -2.936  1.00  0.00     0.065 A 
ENDBRANCH  18  19
ENDBRANCH  16  18
ENDBRANCH  14  16
ENDBRANCH  12  14
ENDBRANCH   8  12
ENDBRANCH   6   7
ENDBRANCH   4   6
ENDBRANCH   3   4
ENDBRANCH   2   3
ENDBRANCH   1   2
BRANCH   1  24
ATOM     24  O   UNL     1      -7.458   5.158  -1.438  1.00  0.00    -0.376 OA
BRANCH  24  25
ATOM     25  C   UNL     1      -6.147   4.625  -1.605  1.00  0.00     0.188 C 
BRANCH  25  26
ATOM     26  C   UNL     1      -5.435   4.042  -0.384  1.00  0.00     0.188 C 
BRANCH  26  27
ATOM     27  O   UNL     1      -5.696   4.781   0.801  1.00  0.00    -0.376 OA
BRANCH  27  28
ATOM     28  C   UNL     1      -4.678   4.675   1.790  1.00  0.00     0.202 C 
BRANCH  28  29
ATOM     29  C   UNL     1      -3.716   5.854   1.633  1.00  0.00     0.261 C 
BRANCH  29  30
ATOM     30  O   UNL     1      -3.032   5.856   0.364  1.00  0.00    -0.460 OA
BRANCH  30  31
ATOM     31  C   UNL     1      -2.172   4.827   0.177  1.00  0.00     0.338 C 
ATOM     32  O   UNL     1      -1.880   3.975   0.994  1.00  0.00    -0.246 OA
BRANCH  31  33
ATOM     33  C   UNL     1      -1.786   4.794  -1.249  1.00  0.00     0.060 A 
ATOM     34  C   UNL     1      -2.023   3.634  -2.001  1.00  0.00     0.016 A 
ATOM     35  C   UNL     1      -1.141   5.887  -1.823  1.00  0.00     0.016 A 
ATOM     36  C   UNL     1      -1.567   3.541  -3.318  1.00  0.00     0.010 A 
ATOM     37  C   UNL     1      -0.686   5.793  -3.137  1.00  0.00     0.010 A 
ATOM     38  C   UNL     1      -0.868   4.612  -3.881  1.00  0.00    -0.014 A 
BRANCH  38  39
ATOM     39  C   UNL     1      -0.203   4.510  -5.201  1.00  0.00     0.031 A 
ATOM     40  C   UNL     1       1.288   4.340  -5.242  1.00  0.00     0.074 A 
ATOM     41  C   UNL     1      -0.900   4.682  -6.337  1.00  0.00     0.049 A 
ATOM     42  N   UNL     1       2.117   4.535  -6.232  1.00  0.00    -0.248 NA
ATOM     43  C   UNL     1       1.930   3.905  -3.991  1.00  0.00     0.031 C 
ATOM     44  C   UNL     1      -2.354   4.793  -6.433  1.00  0.00     0.029 A 
ATOM     45  N   UNL     1      -0.461   4.851  -7.627  1.00  0.00    -0.354 N 
ATOM     46  C   UNL     1       3.381   4.280  -5.717  1.00  0.00     0.074 A 
ATOM     47  C   UNL     1       3.212   3.910  -4.329  1.00  0.00     0.031 C 
ATOM     48  C   UNL     1      -2.685   5.068  -7.707  1.00  0.00     0.029 A 
ATOM     49  C   UNL     1      -1.463   5.211  -8.496  1.00  0.00     0.049 A 
ATOM     50  H   UNL     1       0.477   4.727  -7.902  1.00  0.00     0.167 HD
ATOM     51  C   UNL     1       4.575   4.360  -6.348  1.00  0.00     0.037 A 
ATOM     52  C   UNL     1      -1.393   5.671  -9.760  1.00  0.00     0.037 A 
ATOM     53  C   UNL     1       4.735   4.720  -7.729  1.00  0.00     0.049 A 
ATOM     54  C   UNL     1      -0.046   5.846 -10.412  1.00  0.00     0.074 A 
ATOM     55  C   UNL     1       5.902   4.806  -8.467  1.00  0.00     0.029 A 
ATOM     56  N   UNL     1       3.694   5.062  -8.577  1.00  0.00    -0.354 N 
ATOM     57  N   UNL     1       1.147   5.594  -9.928  1.00  0.00    -0.248 NA
ATOM     58  C   UNL     1      -0.033   6.386 -11.780  1.00  0.00     0.031 C 
ATOM     59  C   UNL     1       5.571   5.242  -9.754  1.00  0.00     0.029 A 
ATOM     60  C   UNL     1       4.194   5.386  -9.825  1.00  0.00     0.049 A 
ATOM     61  H   UNL     1       2.742   5.072  -8.328  1.00  0.00     0.167 HD
ATOM     62  C   UNL     1       2.044   5.904 -10.943  1.00  0.00     0.074 A 
ATOM     63  C   UNL     1       1.262   6.369 -12.068  1.00  0.00     0.031 C 
ATOM     64  C   UNL     1       3.395   5.808 -10.945  1.00  0.00     0.037 A 
BRANCH  51  65
ATOM     65  C   UNL     1       5.808   4.086  -5.546  1.00  0.00     0.057 A 
ATOM     66  C   UNL     1       6.208   2.784  -5.231  1.00  0.00     0.134 A 
ATOM     67  C   UNL     1       6.640   5.139  -5.146  1.00  0.00     0.134 A 
ATOM     68  F   UNL     1       5.450   1.735  -5.585  1.00  0.00    -0.206 F 
ATOM     69  C   UNL     1       7.392   2.536  -4.535  1.00  0.00     0.040 A 
ATOM     70  C   UNL     1       7.835   4.904  -4.466  1.00  0.00     0.040 A 
ATOM     71  F   UNL     1       6.312   6.410  -5.425  1.00  0.00    -0.206 F 
ATOM     72  C   UNL     1       8.213   3.598  -4.158  1.00  0.00     0.006 A 
ENDBRANCH  51  65
BRANCH  52  73
ATOM     73  C   UNL     1      -2.629   6.068 -10.481  1.00  0.00     0.057 A 
ATOM     74  C   UNL     1      -3.084   5.346 -11.590  1.00  0.00     0.134 A 
ATOM     75  C   UNL     1      -3.360   7.203 -10.107  1.00  0.00     0.134 A 
ATOM     76  F   UNL     1      -2.411   4.266 -12.014  1.00  0.00    -0.206 F 
ATOM     77  C   UNL     1      -4.207   5.749 -12.314  1.00  0.00     0.040 A 
ATOM     78  C   UNL     1      -4.500   7.603 -10.806  1.00  0.00     0.040 A 
ATOM     79  F   UNL     1      -2.974   7.941  -9.056  1.00  0.00    -0.206 F 
ATOM     80  C   UNL     1      -4.921   6.880 -11.919  1.00  0.00     0.006 A 
ENDBRANCH  52  73
BRANCH  64  81
ATOM     81  C   UNL     1       4.116   6.141 -12.215  1.00  0.00     0.057 A 
ATOM     82  C   UNL     1       4.324   7.463 -12.624  1.00  0.00     0.134 A 
ATOM     83  C   UNL     1       4.684   5.122 -12.992  1.00  0.00     0.134 A 
ATOM     84  F   UNL     1       3.797   8.481 -11.928  1.00  0.00    -0.206 F 
ATOM     85  C   UNL     1       5.069   7.760 -13.766  1.00  0.00     0.040 A 
ATOM     86  C   UNL     1       5.447   5.408 -14.123  1.00  0.00     0.040 A 
ATOM     87  F   UNL     1       4.528   3.835 -12.645  1.00  0.00    -0.206 F 
ATOM     88  C   UNL     1       5.641   6.731 -14.513  1.00  0.00     0.006 A 
ENDBRANCH  64  81
ENDBRANCH  38  39
ENDBRANCH  31  33
ENDBRANCH  30  31
ENDBRANCH  29  30
ENDBRANCH  28  29
ENDBRANCH  27  28
ENDBRANCH  26  27
ENDBRANCH  25  26
ENDBRANCH  24  25
ENDBRANCH   1  24
TORSDOF 23
