REMARK SMILES CCc1ncc(C[N@H+]2CCC[C@@H](c3cccc(C(=O)OCCOCCOCCOC(=O)c4ccc(-c5c6nc(c(-c7c(F)cccc7F)c7ccc([nH]7)c(-c7c(F)cccc7F)c7nc(c(-c8c(F)cccc8F)c8ccc5[nH]8)C=C7)C=C6)cc4)c3)C2)cn1
REMARK SMILES IDX 24 1 23 2 22 3 21 4 20 5 18 6 19 7 17 8 13 9 14 10 86 11
REMARK SMILES IDX 15 12 16 13 12 14 8 15 9 16 87 17 10 19 11 20 7 21 6 22 3 23
REMARK SMILES IDX 4 24 89 25 5 26 88 27 2 28 1 29 25 30 26 31 27 32 28 33
REMARK SMILES IDX 29 34 30 35 31 36 32 37 33 38 85 39 34 40 84 41 35 42 36 43
REMARK SMILES IDX 37 44 78 45 38 46 83 47 77 48 79 49 39 50 82 51 76 52 75 53
REMARK SMILES IDX 40 55 66 56 49 57 65 58 50 59 53 60 64 61 80 62 51 63 52 64
REMARK SMILES IDX 63 66 81 67 54 68 41 69 42 70 47 71 43 72 44 73 46 74 48 75
REMARK SMILES IDX 45 76 67 77 68 78 73 79 69 80 70 81 72 82 74 83 71 84 55 85
REMARK SMILES IDX 56 86 61 87 57 88 58 89 60 90 62 91 59 92
REMARK H PARENT 8 18 79 54 53 65
REMARK Flexibility Score: inf
ROOT
ATOM      1  C   UNL     1      -4.213 -11.922   3.317  1.00  0.00     0.188 C 
ENDROOT
BRANCH   1   2
ATOM      2  O   UNL     1      -3.952 -13.297   3.558  1.00  0.00    -0.376 OA
BRANCH   2   3
ATOM      3  C   UNL     1      -2.859 -13.677   4.386  1.00  0.00     0.202 C 
BRANCH   3   4
ATOM      4  C   UNL     1      -1.462 -13.068   4.181  1.00  0.00     0.261 C 
BRANCH   4   5
ATOM      5  O   UNL     1      -1.442 -11.636   4.105  1.00  0.00    -0.460 OA
BRANCH   5   6
ATOM      6  C   UNL     1      -1.008 -11.115   2.930  1.00  0.00     0.338 C 
ATOM      7  O   UNL     1      -0.546 -11.724   1.979  1.00  0.00    -0.246 OA
BRANCH   6   8
ATOM      8  C   UNL     1      -1.396  -9.688   2.862  1.00  0.00     0.060 A 
ATOM      9  C   UNL     1      -1.630  -7.478   3.847  1.00  0.00    -0.038 A 
ATOM     10  C   UNL     1      -2.291  -7.059   2.677  1.00  0.00     0.004 A 
ATOM     11  C   UNL     1      -1.198  -8.813   3.936  1.00  0.00     0.020 A 
ATOM     12  C   UNL     1      -2.493  -7.936   1.612  1.00  0.00     0.001 A 
ATOM     13  C   UNL     1      -2.031  -9.245   1.696  1.00  0.00     0.016 A 
BRANCH   9  14
ATOM     14  C   UNL     1      -1.211  -6.485   4.925  1.00  0.00     0.074 C 
ATOM     15  N   UNL     1       0.562  -4.716   5.292  1.00  0.00    -0.331 N 
ATOM     16  C   UNL     1      -0.473  -3.738   5.648  1.00  0.00     0.262 C 
ATOM     17  C   UNL     1       0.038  -5.753   4.394  1.00  0.00     0.270 C 
ATOM     18  H   UNL     1       0.834  -5.169   6.164  1.00  0.00     0.348 HD
ATOM     19  C   UNL     1      -1.697  -4.416   6.272  1.00  0.00     0.062 C 
ATOM     20  C   UNL     1      -2.290  -5.470   5.334  1.00  0.00     0.020 C 
BRANCH  15  21
ATOM     21  C   UNL     1       1.794  -4.096   4.755  1.00  0.00     0.302 C 
BRANCH  21  22
ATOM     22  C   UNL     1       1.643  -3.314   3.482  1.00  0.00     0.043 A 
ATOM     23  C   UNL     1       1.077  -1.920   1.212  1.00  0.00     0.127 A 
ATOM     24  N   UNL     1       1.164  -1.235   2.369  1.00  0.00    -0.241 NA
ATOM     25  N   UNL     1       1.300  -3.242   1.097  1.00  0.00    -0.241 NA
ATOM     26  C   UNL     1       1.459  -1.948   3.473  1.00  0.00     0.124 A 
ATOM     27  C   UNL     1       1.592  -3.903   2.235  1.00  0.00     0.124 A 
BRANCH  23  28
ATOM     28  C   UNL     1       0.553  -1.210  -0.007  1.00  0.00     0.074 C 
ATOM     29  C   UNL     1       0.999   0.240  -0.109  1.00  0.00     0.012 C 
ENDBRANCH  23  28
ENDBRANCH  21  22
ENDBRANCH  15  21
ENDBRANCH   9  14
ENDBRANCH   6   8
ENDBRANCH   5   6
ENDBRANCH   4   5
ENDBRANCH   3   4
ENDBRANCH   2   3
ENDBRANCH   1   2
BRANCH   1  30
ATOM     30  C   UNL     1      -4.323 -10.931   4.494  1.00  0.00     0.188 C 
BRANCH  30  31
ATOM     31  O   UNL     1      -4.016 -11.456   5.761  1.00  0.00    -0.376 OA
BRANCH  31  32
ATOM     32  C   UNL     1      -5.037 -12.009   6.572  1.00  0.00     0.202 C 
BRANCH  32  33
ATOM     33  C   UNL     1      -6.452 -12.410   6.104  1.00  0.00     0.261 C 
BRANCH  33  34
ATOM     34  O   UNL     1      -6.828 -12.155   4.748  1.00  0.00    -0.460 OA
BRANCH  34  35
ATOM     35  C   UNL     1      -7.599 -11.061   4.538  1.00  0.00     0.338 C 
ATOM     36  O   UNL     1      -7.962 -10.241   5.361  1.00  0.00    -0.246 OA
BRANCH  35  37
ATOM     37  C   UNL     1      -7.811 -10.911   3.085  1.00  0.00     0.060 A 
ATOM     38  C   UNL     1      -7.224  -9.824   2.425  1.00  0.00     0.016 A 
ATOM     39  C   UNL     1      -8.614 -11.816   2.389  1.00  0.00     0.016 A 
ATOM     40  C   UNL     1      -7.457  -9.627   1.063  1.00  0.00     0.010 A 
ATOM     41  C   UNL     1      -8.862 -11.606   1.029  1.00  0.00     0.010 A 
ATOM     42  C   UNL     1      -8.307 -10.496   0.365  1.00  0.00    -0.014 A 
BRANCH  42  43
ATOM     43  C   UNL     1      -8.744 -10.160  -1.013  1.00  0.00     0.031 A 
ATOM     44  C   UNL     1     -10.089  -9.513  -1.206  1.00  0.00     0.074 A 
ATOM     45  C   UNL     1      -7.958 -10.408  -2.076  1.00  0.00     0.049 A 
ATOM     46  N   UNL     1     -10.710  -9.197  -2.314  1.00  0.00    -0.248 NA
ATOM     47  C   UNL     1     -10.835  -9.176   0.019  1.00  0.00     0.031 C 
ATOM     48  C   UNL     1      -6.619 -10.991  -2.023  1.00  0.00     0.029 A 
ATOM     49  N   UNL     1      -8.186 -10.209  -3.416  1.00  0.00    -0.354 N 
ATOM     50  C   UNL     1     -11.913  -8.624  -1.922  1.00  0.00     0.074 A 
ATOM     51  C   UNL     1     -11.953  -8.666  -0.476  1.00  0.00     0.031 C 
ATOM     52  C   UNL     1      -6.151 -11.122  -3.278  1.00  0.00     0.029 A 
ATOM     53  C   UNL     1      -7.170 -10.664  -4.221  1.00  0.00     0.049 A 
ATOM     54  H   UNL     1      -9.001  -9.780  -3.767  1.00  0.00     0.167 HD
ATOM     55  C   UNL     1     -12.891  -8.097  -2.696  1.00  0.00     0.037 A 
ATOM     56  C   UNL     1      -7.088 -10.730  -5.565  1.00  0.00     0.037 A 
ATOM     57  C   UNL     1     -12.859  -8.062  -4.134  1.00  0.00     0.049 A 
ATOM     58  C   UNL     1      -8.234 -10.220  -6.404  1.00  0.00     0.074 A 
ATOM     59  C   UNL     1     -13.809  -7.558  -5.005  1.00  0.00     0.029 A 
ATOM     60  N   UNL     1     -11.823  -8.553  -4.912  1.00  0.00    -0.354 N 
ATOM     61  N   UNL     1      -9.360  -9.666  -6.024  1.00  0.00    -0.248 NA
ATOM     62  C   UNL     1      -8.095 -10.345  -7.864  1.00  0.00     0.031 C 
ATOM     63  C   UNL     1     -13.367  -7.783  -6.312  1.00  0.00     0.029 A 
ATOM     64  C   UNL     1     -12.118  -8.377  -6.254  1.00  0.00     0.049 A 
ATOM     65  H   UNL     1     -10.999  -8.964  -4.563  1.00  0.00     0.167 HD
ATOM     66  C   UNL     1     -10.040  -9.342  -7.193  1.00  0.00     0.074 A 
ATOM     67  C   UNL     1      -9.196  -9.749  -8.295  1.00  0.00     0.031 C 
ATOM     68  C   UNL     1     -11.257  -8.763  -7.341  1.00  0.00     0.037 A 
BRANCH  55  69
ATOM     69  C   UNL     1     -14.091  -7.520  -2.003  1.00  0.00     0.057 A 
ATOM     70  C   UNL     1     -14.024  -6.306  -1.309  1.00  0.00     0.134 A 
ATOM     71  C   UNL     1     -15.338  -8.153  -2.084  1.00  0.00     0.134 A 
ATOM     72  F   UNL     1     -12.856  -5.657  -1.183  1.00  0.00    -0.206 F 
ATOM     73  C   UNL     1     -15.154  -5.745  -0.710  1.00  0.00     0.040 A 
ATOM     74  C   UNL     1     -16.479  -7.590  -1.511  1.00  0.00     0.040 A 
ATOM     75  F   UNL     1     -15.470  -9.317  -2.738  1.00  0.00    -0.206 F 
ATOM     76  C   UNL     1     -16.388  -6.384  -0.820  1.00  0.00     0.006 A 
ENDBRANCH  55  69
BRANCH  56  77
ATOM     77  C   UNL     1      -5.896 -11.329  -6.223  1.00  0.00     0.057 A 
ATOM     78  C   UNL     1      -5.043 -10.562  -7.025  1.00  0.00     0.134 A 
ATOM     79  C   UNL     1      -5.626 -12.700  -6.125  1.00  0.00     0.134 A 
ATOM     80  F   UNL     1      -5.264  -9.248  -7.181  1.00  0.00    -0.206 F 
ATOM     81  C   UNL     1      -3.988 -11.140  -7.734  1.00  0.00     0.040 A 
ATOM     82  C   UNL     1      -4.555 -13.286  -6.804  1.00  0.00     0.040 A 
ATOM     83  F   UNL     1      -6.405 -13.493  -5.376  1.00  0.00    -0.206 F 
ATOM     84  C   UNL     1      -3.741 -12.506  -7.622  1.00  0.00     0.006 A 
ENDBRANCH  56  77
BRANCH  68  85
ATOM     85  C   UNL     1     -11.724  -8.479  -8.740  1.00  0.00     0.057 A 
ATOM     86  C   UNL     1     -12.117  -9.499  -9.616  1.00  0.00     0.134 A 
ATOM     87  C   UNL     1     -11.819  -7.159  -9.203  1.00  0.00     0.134 A 
ATOM     88  F   UNL     1     -12.041 -10.784  -9.240  1.00  0.00    -0.206 F 
ATOM     89  C   UNL     1     -12.560  -9.219 -10.910  1.00  0.00     0.040 A 
ATOM     90  C   UNL     1     -12.289  -6.865 -10.483  1.00  0.00     0.040 A 
ATOM     91  F   UNL     1     -11.470  -6.133  -8.412  1.00  0.00    -0.206 F 
ATOM     92  C   UNL     1     -12.654  -7.897 -11.344  1.00  0.00     0.006 A 
ENDBRANCH  68  85
ENDBRANCH  42  43
ENDBRANCH  35  37
ENDBRANCH  34  35
ENDBRANCH  33  34
ENDBRANCH  32  33
ENDBRANCH  31  32
ENDBRANCH  30  31
ENDBRANCH   1  30
TORSDOF 21
