REMARK SMILES O=C(OCCOCCOCCOC(=O)[C@@H]1c2[nH]cnc2CCN1C(=O)CCCc1c[nH]c2ccccc12)c1ccc(-c2c3nc(c(-c4c(F)cccc4F)c4ccc([nH]4)c(-c4c(F)cccc4F)c4nc(c(-c5c(F)cccc5F)c5ccc2[nH]5)C=C4)C=C3)cc1
REMARK SMILES IDX 9 1 8 2 7 3 6 4 5 5 4 6 3 7 2 8 1 9 38 10 39 11 91 12 40 13
REMARK SMILES IDX 90 14 41 15 42 16 43 17 84 18 44 19 89 20 83 21 85 22 45 23
REMARK SMILES IDX 88 24 82 25 81 26 46 28 72 29 55 30 71 31 56 32 59 33 70 34
REMARK SMILES IDX 86 35 57 36 58 37 69 39 87 40 60 41 47 42 48 43 53 44 49 45
REMARK SMILES IDX 50 46 52 47 54 48 51 49 73 50 74 51 79 52 75 53 76 54 78 55
REMARK SMILES IDX 80 56 77 57 61 58 62 59 67 60 63 61 64 62 66 63 68 64 65 65
REMARK SMILES IDX 10 66 11 67 12 68 13 69 14 70 15 71 16 72 23 73 17 74 20 75
REMARK SMILES IDX 22 76 18 77 19 79 21 80 24 81 25 82 26 83 27 84 28 85 29 86
REMARK SMILES IDX 30 87 37 88 31 89 32 90 36 91 33 93 35 94 34 95
REMARK H PARENT 85 27 59 38 17 78 31 92
REMARK Flexibility Score: inf
ROOT
ATOM      1  O   UNL     1       1.749  -1.801  -2.400  1.00  0.00    -0.376 OA
ENDROOT
BRANCH   1   2
ATOM      2  C   UNL     1       2.095  -0.688  -1.601  1.00  0.00     0.188 C 
BRANCH   2   3
ATOM      3  C   UNL     1       3.464   0.028  -1.663  1.00  0.00     0.188 C 
BRANCH   3   4
ATOM      4  O   UNL     1       4.659  -0.646  -1.961  1.00  0.00    -0.376 OA
BRANCH   4   5
ATOM      5  C   UNL     1       5.231  -1.637  -1.137  1.00  0.00     0.202 C 
BRANCH   5   6
ATOM      6  C   UNL     1       4.901  -1.853   0.345  1.00  0.00     0.261 C 
BRANCH   6   7
ATOM      7  O   UNL     1       3.612  -1.427   0.785  1.00  0.00    -0.460 OA
BRANCH   7   8
ATOM      8  C   UNL     1       3.193  -0.313   1.415  1.00  0.00     0.338 C 
ATOM      9  O   UNL     1       1.994  -0.212   1.681  1.00  0.00    -0.246 OA
BRANCH   8  10
ATOM     10  C   UNL     1       4.057   0.841   1.765  1.00  0.00     0.060 A 
ATOM     11  C   UNL     1       5.429   0.948   1.537  1.00  0.00     0.016 A 
ATOM     12  C   UNL     1       3.391   1.896   2.418  1.00  0.00     0.016 A 
ATOM     13  C   UNL     1       6.155   1.923   2.193  1.00  0.00     0.010 A 
ATOM     14  C   UNL     1       4.102   2.910   3.022  1.00  0.00     0.010 A 
ATOM     15  C   UNL     1       5.486   2.845   2.995  1.00  0.00    -0.014 A 
BRANCH  15  16
ATOM     16  C   UNL     1       6.277   3.800   3.742  1.00  0.00     0.031 A 
ATOM     17  C   UNL     1       7.017   4.753   2.883  1.00  0.00     0.074 A 
ATOM     18  C   UNL     1       6.229   3.838   5.089  1.00  0.00     0.049 A 
ATOM     19  N   UNL     1       8.297   4.897   2.785  1.00  0.00    -0.248 NA
ATOM     20  C   UNL     1       6.248   5.521   1.890  1.00  0.00     0.031 C 
ATOM     21  C   UNL     1       5.326   3.088   5.968  1.00  0.00     0.029 A 
ATOM     22  N   UNL     1       6.897   4.641   5.960  1.00  0.00    -0.354 N 
ATOM     23  C   UNL     1       8.481   5.955   1.899  1.00  0.00     0.074 A 
ATOM     24  C   UNL     1       7.222   6.153   1.234  1.00  0.00     0.031 C 
ATOM     25  C   UNL     1       5.332   3.649   7.197  1.00  0.00     0.029 A 
ATOM     26  C   UNL     1       6.323   4.709   7.225  1.00  0.00     0.049 A 
ATOM     27  H   UNL     1       7.716   5.130   5.716  1.00  0.00     0.167 HD
ATOM     28  C   UNL     1       9.555   6.779   2.038  1.00  0.00     0.037 A 
ATOM     29  C   UNL     1       6.593   5.627   8.186  1.00  0.00     0.037 A 
ATOM     30  C   UNL     1      10.622   6.114   2.750  1.00  0.00     0.049 A 
ATOM     31  C   UNL     1       7.892   6.261   7.846  1.00  0.00     0.074 A 
ATOM     32  C   UNL     1      11.331   4.940   2.571  1.00  0.00     0.029 A 
ATOM     33  N   UNL     1      10.859   6.490   4.049  1.00  0.00    -0.354 N 
ATOM     34  N   UNL     1       9.040   5.647   7.914  1.00  0.00    -0.248 NA
ATOM     35  C   UNL     1       7.865   7.437   6.989  1.00  0.00     0.031 C 
ATOM     36  C   UNL     1      11.551   4.433   3.886  1.00  0.00     0.029 A 
ATOM     37  C   UNL     1      11.029   5.355   4.793  1.00  0.00     0.049 A 
ATOM     38  H   UNL     1      10.899   7.415   4.386  1.00  0.00     0.167 HD
ATOM     39  C   UNL     1       9.728   6.067   6.785  1.00  0.00     0.074 A 
ATOM     40  C   UNL     1       8.997   7.240   6.308  1.00  0.00     0.031 C 
ATOM     41  C   UNL     1      10.639   5.251   6.178  1.00  0.00     0.037 A 
BRANCH  28  42
ATOM     42  C   UNL     1       9.438   8.293   1.990  1.00  0.00     0.057 A 
ATOM     43  C   UNL     1      10.602   9.058   2.193  1.00  0.00     0.134 A 
ATOM     44  C   UNL     1       8.230   9.015   2.101  1.00  0.00     0.134 A 
ATOM     45  F   UNL     1      11.818   8.500   2.094  1.00  0.00    -0.206 F 
ATOM     46  C   UNL     1      10.560  10.391   2.620  1.00  0.00     0.040 A 
ATOM     47  C   UNL     1       8.180  10.358   2.481  1.00  0.00     0.040 A 
ATOM     48  F   UNL     1       7.026   8.458   1.944  1.00  0.00    -0.206 F 
ATOM     49  C   UNL     1       9.345  11.039   2.787  1.00  0.00     0.006 A 
ENDBRANCH  28  42
BRANCH  29  50
ATOM     50  C   UNL     1       5.676   6.208   9.196  1.00  0.00     0.057 A 
ATOM     51  C   UNL     1       6.169   6.957  10.275  1.00  0.00     0.134 A 
ATOM     52  C   UNL     1       4.286   6.278   8.988  1.00  0.00     0.134 A 
ATOM     53  F   UNL     1       7.484   6.992  10.535  1.00  0.00    -0.206 F 
ATOM     54  C   UNL     1       5.336   7.746  11.081  1.00  0.00     0.040 A 
ATOM     55  C   UNL     1       3.442   7.052   9.791  1.00  0.00     0.040 A 
ATOM     56  F   UNL     1       3.707   5.669   7.943  1.00  0.00    -0.206 F 
ATOM     57  C   UNL     1       3.969   7.803  10.833  1.00  0.00     0.006 A 
ENDBRANCH  29  50
BRANCH  41  58
ATOM     58  C   UNL     1      11.094   4.029   6.925  1.00  0.00     0.057 A 
ATOM     59  C   UNL     1      10.251   2.977   7.315  1.00  0.00     0.134 A 
ATOM     60  C   UNL     1      12.464   3.857   7.147  1.00  0.00     0.134 A 
ATOM     61  F   UNL     1       8.939   3.001   7.048  1.00  0.00    -0.206 F 
ATOM     62  C   UNL     1      10.747   1.834   7.950  1.00  0.00     0.040 A 
ATOM     63  C   UNL     1      12.976   2.704   7.746  1.00  0.00     0.040 A 
ATOM     64  F   UNL     1      13.337   4.795   6.747  1.00  0.00    -0.206 F 
ATOM     65  C   UNL     1      12.115   1.694   8.163  1.00  0.00     0.006 A 
ENDBRANCH  41  58
ENDBRANCH  15  16
ENDBRANCH   8  10
ENDBRANCH   7   8
ENDBRANCH   6   7
ENDBRANCH   5   6
ENDBRANCH   4   5
ENDBRANCH   3   4
ENDBRANCH   2   3
ENDBRANCH   1   2
BRANCH   1  66
ATOM     66  C   UNL     1       2.485  -2.113  -3.558  1.00  0.00     0.202 C 
BRANCH  66  67
ATOM     67  C   UNL     1       2.229  -1.240  -4.786  1.00  0.00     0.261 C 
BRANCH  67  68
ATOM     68  O   UNL     1       2.523   0.149  -4.602  1.00  0.00    -0.461 OA
BRANCH  68  69
ATOM     69  C   UNL     1       1.498   0.975  -4.185  1.00  0.00     0.335 C 
ATOM     70  O   UNL     1       0.367   0.617  -3.940  1.00  0.00    -0.249 OA
BRANCH  69  71
ATOM     71  C   UNL     1       2.086   2.388  -4.016  1.00  0.00     0.244 C 
ATOM     72  C   UNL     1       1.774   3.188  -2.792  1.00  0.00     0.072 A 
ATOM     73  N   UNL     1       2.113   3.309  -5.146  1.00  0.00    -0.323 N 
ATOM     74  N   UNL     1       1.217   2.845  -1.595  1.00  0.00    -0.346 N 
ATOM     75  C   UNL     1       2.154   4.506  -2.641  1.00  0.00     0.066 A 
ATOM     76  C   UNL     1       3.081   4.405  -4.952  1.00  0.00     0.127 C 
ATOM     77  C   UNL     1       1.405   3.913  -0.750  1.00  0.00     0.197 A 
ATOM     78  H   UNL     1       0.768   1.996  -1.378  1.00  0.00     0.167 HD
ATOM     79  N   UNL     1       1.955   4.940  -1.363  1.00  0.00    -0.242 NA
ATOM     80  C   UNL     1       2.704   5.323  -3.756  1.00  0.00     0.080 C 
BRANCH  73  81
ATOM     81  C   UNL     1       1.045   3.334  -6.026  1.00  0.00     0.223 C 
ATOM     82  O   UNL     1      -0.011   2.745  -5.805  1.00  0.00    -0.275 OA
BRANCH  81  83
ATOM     83  C   UNL     1       1.293   3.917  -7.402  1.00  0.00     0.100 C 
BRANCH  83  84
ATOM     84  C   UNL     1       0.790   5.319  -7.704  1.00  0.00     0.015 C 
BRANCH  84  85
ATOM     85  C   UNL     1       1.542   6.515  -7.150  1.00  0.00     0.038 C 
BRANCH  85  86
ATOM     86  C   UNL     1       3.000   6.824  -7.430  1.00  0.00    -0.023 A 
ATOM     87  C   UNL     1       3.512   8.043  -7.006  1.00  0.00     0.087 A 
ATOM     88  C   UNL     1       4.145   6.085  -7.940  1.00  0.00     0.003 A 
ATOM     89  N   UNL     1       4.870   8.006  -7.060  1.00  0.00    -0.361 N 
ATOM     90  C   UNL     1       5.288   6.795  -7.545  1.00  0.00     0.046 A 
ATOM     91  C   UNL     1       4.384   4.863  -8.617  1.00  0.00     0.010 A 
ATOM     92  H   UNL     1       5.466   8.742  -6.789  1.00  0.00     0.166 HD
ATOM     93  C   UNL     1       6.597   6.308  -7.670  1.00  0.00     0.026 A 
ATOM     94  C   UNL     1       5.692   4.376  -8.789  1.00  0.00     0.001 A 
ATOM     95  C   UNL     1       6.783   5.080  -8.299  1.00  0.00     0.002 A 
ENDBRANCH  85  86
ENDBRANCH  84  85
ENDBRANCH  83  84
ENDBRANCH  81  83
ENDBRANCH  73  81
ENDBRANCH  69  71
ENDBRANCH  68  69
ENDBRANCH  67  68
ENDBRANCH  66  67
ENDBRANCH   1  66
TORSDOF 22
