REMARK SMILES O=C1NC(=S)/C(=C/c2ccc(-c3ccc(C(=O)OCCOCCOCCOC(=O)c4ccc(-c5c6nc(c(-c7c(F)cccc7F)c7ccc([nH]7)c(-c7c(F)cccc7F)c7nc(c(-c8c(F)cccc8F)c8ccc5[nH]8)C=C7)C=C6)cc4)cc3)o2)S1
REMARK SMILES IDX 22 1 21 2 20 3 19 4 18 5 16 6 17 7 15 8 12 9 13 10 85 11
REMARK SMILES IDX 14 12 84 13 11 14 8 15 9 16 86 17 10 18 7 19 1 20 2 21 3 22
REMARK SMILES IDX 87 23 4 24 6 26 5 27 23 28 24 29 25 30 26 31 27 32 28 33
REMARK SMILES IDX 29 34 30 35 31 36 83 37 32 38 82 39 33 40 34 41 35 42 76 43
REMARK SMILES IDX 36 44 81 45 75 46 77 47 37 48 80 49 74 50 73 51 38 53 64 54
REMARK SMILES IDX 47 55 63 56 48 57 51 58 62 59 78 60 49 61 50 62 61 64 79 65
REMARK SMILES IDX 52 66 39 67 40 68 45 69 41 70 42 71 44 72 46 73 43 74 65 75
REMARK SMILES IDX 66 76 71 77 67 78 68 79 70 80 72 81 69 82 53 83 54 84 59 85
REMARK SMILES IDX 55 86 56 87 58 88 60 89 57 90
REMARK H PARENT 3 25 77 52 51 63
REMARK Flexibility Score: inf
ROOT
ATOM      1  C   UNL     1      10.241  -8.523   4.722  1.00  0.00     0.188 C 
ENDROOT
BRANCH   1   2
ATOM      2  O   UNL     1      10.556  -9.744   5.362  1.00  0.00    -0.376 OA
BRANCH   2   3
ATOM      3  C   UNL     1      10.296 -10.985   4.727  1.00  0.00     0.202 C 
BRANCH   3   4
ATOM      4  C   UNL     1       9.095 -11.236   3.797  1.00  0.00     0.261 C 
BRANCH   4   5
ATOM      5  O   UNL     1       8.721 -10.162   2.929  1.00  0.00    -0.460 OA
BRANCH   5   6
ATOM      6  C   UNL     1       7.562  -9.536   3.249  1.00  0.00     0.338 C 
ATOM      7  O   UNL     1       6.808  -9.816   4.166  1.00  0.00    -0.246 OA
BRANCH   6   8
ATOM      8  C   UNL     1       7.398  -8.315   2.427  1.00  0.00     0.060 A 
ATOM      9  C   UNL     1       6.810  -6.033   0.915  1.00  0.00     0.017 A 
ATOM     10  C   UNL     1       6.652  -6.008   2.305  1.00  0.00     0.013 A 
ATOM     11  C   UNL     1       7.373  -7.168   0.307  1.00  0.00     0.013 A 
ATOM     12  C   UNL     1       6.929  -7.153   3.057  1.00  0.00     0.016 A 
ATOM     13  C   UNL     1       7.675  -8.307   1.059  1.00  0.00     0.016 A 
BRANCH   9  14
ATOM     14  C   UNL     1       6.185  -5.018   0.085  1.00  0.00     0.134 A 
ATOM     15  C   UNL     1       5.676  -2.947  -0.525  1.00  0.00     0.128 A 
ATOM     16  C   UNL     1       4.929  -3.823  -1.307  1.00  0.00     0.051 A 
ATOM     17  O   UNL     1       6.463  -3.706   0.322  1.00  0.00    -0.457 OA
ATOM     18  C   UNL     1       5.250  -5.134  -0.916  1.00  0.00     0.051 A 
BRANCH  15  19
ATOM     19  C   UNL     1       5.689  -1.525  -0.569  1.00  0.00     0.065 C 
ATOM     20  O   UNL     1       1.211   0.525   0.533  1.00  0.00    -0.261 OA
ATOM     21  C   UNL     1       2.351   0.268   0.200  1.00  0.00     0.289 C 
ATOM     22  N   UNL     1       3.299   1.168  -0.179  1.00  0.00    -0.307 N 
ATOM     23  S   UNL     1       3.023  -1.341   0.117  1.00  0.00    -0.025 SA
ATOM     24  C   UNL     1       4.546   0.712  -0.519  1.00  0.00     0.120 C 
ATOM     25  H   UNL     1       3.092   2.130  -0.208  1.00  0.00     0.171 HD
ATOM     26  C   UNL     1       4.593  -0.775  -0.371  1.00  0.00     0.056 C 
ATOM     27  S   UNL     1       5.717   1.777  -1.042  1.00  0.00    -0.059 S 
ENDBRANCH  15  19
ENDBRANCH   9  14
ENDBRANCH   6   8
ENDBRANCH   5   6
ENDBRANCH   4   5
ENDBRANCH   3   4
ENDBRANCH   2   3
ENDBRANCH   1   2
BRANCH   1  28
ATOM     28  C   UNL     1      10.852  -8.190   3.346  1.00  0.00     0.188 C 
BRANCH  28  29
ATOM     29  O   UNL     1      11.554  -9.214   2.687  1.00  0.00    -0.376 OA
BRANCH  29  30
ATOM     30  C   UNL     1      12.893  -9.509   3.042  1.00  0.00     0.202 C 
BRANCH  30  31
ATOM     31  C   UNL     1      13.745  -8.776   4.101  1.00  0.00     0.261 C 
BRANCH  31  32
ATOM     32  O   UNL     1      13.105  -7.844   4.976  1.00  0.00    -0.460 OA
BRANCH  32  33
ATOM     33  C   UNL     1      13.302  -6.533   4.690  1.00  0.00     0.338 C 
ATOM     34  O   UNL     1      13.926  -6.064   3.755  1.00  0.00    -0.246 OA
BRANCH  33  35
ATOM     35  C   UNL     1      12.483  -5.721   5.609  1.00  0.00     0.060 A 
ATOM     36  C   UNL     1      11.373  -5.032   5.102  1.00  0.00     0.016 A 
ATOM     37  C   UNL     1      12.831  -5.615   6.956  1.00  0.00     0.016 A 
ATOM     38  C   UNL     1      10.612  -4.220   5.942  1.00  0.00     0.010 A 
ATOM     39  C   UNL     1      12.081  -4.781   7.790  1.00  0.00     0.010 A 
ATOM     40  C   UNL     1      10.985  -4.059   7.282  1.00  0.00    -0.014 A 
BRANCH  40  41
ATOM     41  C   UNL     1      10.336  -3.017   8.114  1.00  0.00     0.031 A 
ATOM     42  C   UNL     1      11.049  -1.708   8.316  1.00  0.00     0.074 A 
ATOM     43  C   UNL     1       9.132  -3.223   8.678  1.00  0.00     0.049 A 
ATOM     44  N   UNL     1      10.717  -0.686   9.062  1.00  0.00    -0.248 NA
ATOM     45  C   UNL     1      12.310  -1.533   7.579  1.00  0.00     0.031 C 
ATOM     46  C   UNL     1       8.319  -4.426   8.522  1.00  0.00     0.029 A 
ATOM     47  N   UNL     1       8.392  -2.420   9.511  1.00  0.00    -0.354 N 
ATOM     48  C   UNL     1      11.731   0.248   8.892  1.00  0.00     0.074 A 
ATOM     49  C   UNL     1      12.705  -0.341   7.998  1.00  0.00     0.031 C 
ATOM     50  C   UNL     1       7.195  -4.288   9.248  1.00  0.00     0.029 A 
ATOM     51  C   UNL     1       7.230  -3.006   9.949  1.00  0.00     0.049 A 
ATOM     52  H   UNL     1       8.669  -1.511   9.769  1.00  0.00     0.167 HD
ATOM     53  C   UNL     1      11.837   1.488   9.426  1.00  0.00     0.037 A 
ATOM     54  C   UNL     1       6.316  -2.567  10.837  1.00  0.00     0.037 A 
ATOM     55  C   UNL     1      10.870   2.069  10.321  1.00  0.00     0.049 A 
ATOM     56  C   UNL     1       6.503  -1.221  11.489  1.00  0.00     0.074 A 
ATOM     57  C   UNL     1      10.883   3.323  10.905  1.00  0.00     0.029 A 
ATOM     58  N   UNL     1       9.724   1.430  10.769  1.00  0.00    -0.354 N 
ATOM     59  N   UNL     1       7.453  -0.335  11.308  1.00  0.00    -0.248 NA
ATOM     60  C   UNL     1       5.487  -0.814  12.472  1.00  0.00     0.031 C 
ATOM     61  C   UNL     1       9.776   3.421  11.755  1.00  0.00     0.029 A 
ATOM     62  C   UNL     1       9.037   2.254  11.646  1.00  0.00     0.049 A 
ATOM     63  H   UNL     1       9.440   0.526  10.503  1.00  0.00     0.167 HD
ATOM     64  C   UNL     1       7.129   0.746  12.121  1.00  0.00     0.074 A 
ATOM     65  C   UNL     1       5.890   0.408  12.790  1.00  0.00     0.031 C 
ATOM     66  C   UNL     1       7.797   1.913  12.297  1.00  0.00     0.037 A 
BRANCH  53  67
ATOM     67  C   UNL     1      13.060   2.288   9.082  1.00  0.00     0.057 A 
ATOM     68  C   UNL     1      13.271   2.808   7.798  1.00  0.00     0.134 A 
ATOM     69  C   UNL     1      14.024   2.572  10.058  1.00  0.00     0.134 A 
ATOM     70  F   UNL     1      12.395   2.563   6.812  1.00  0.00    -0.206 F 
ATOM     71  C   UNL     1      14.408   3.558   7.491  1.00  0.00     0.040 A 
ATOM     72  C   UNL     1      15.149   3.347   9.772  1.00  0.00     0.040 A 
ATOM     73  F   UNL     1      13.883   2.111  11.310  1.00  0.00    -0.206 F 
ATOM     74  C   UNL     1      15.347   3.837   8.482  1.00  0.00     0.006 A 
ENDBRANCH  53  67
BRANCH  54  75
ATOM     75  C   UNL     1       5.141  -3.411  11.180  1.00  0.00     0.057 A 
ATOM     76  C   UNL     1       3.842  -3.020  10.834  1.00  0.00     0.134 A 
ATOM     77  C   UNL     1       5.284  -4.608  11.893  1.00  0.00     0.134 A 
ATOM     78  F   UNL     1       3.637  -1.870  10.175  1.00  0.00    -0.206 F 
ATOM     79  C   UNL     1       2.728  -3.776  11.201  1.00  0.00     0.040 A 
ATOM     80  C   UNL     1       4.181  -5.389  12.240  1.00  0.00     0.040 A 
ATOM     81  F   UNL     1       6.500  -5.039  12.258  1.00  0.00    -0.206 F 
ATOM     82  C   UNL     1       2.896  -4.968  11.902  1.00  0.00     0.006 A 
ENDBRANCH  54  75
BRANCH  66  83
ATOM     83  C   UNL     1       7.179   2.938  13.207  1.00  0.00     0.057 A 
ATOM     84  C   UNL     1       7.117   2.763  14.596  1.00  0.00     0.134 A 
ATOM     85  C   UNL     1       6.677   4.139  12.687  1.00  0.00     0.134 A 
ATOM     86  F   UNL     1       7.570   1.633  15.160  1.00  0.00    -0.206 F 
ATOM     87  C   UNL     1       6.555   3.733  15.430  1.00  0.00     0.040 A 
ATOM     88  C   UNL     1       6.143   5.129  13.513  1.00  0.00     0.040 A 
ATOM     89  F   UNL     1       6.715   4.379  11.367  1.00  0.00    -0.206 F 
ATOM     90  C   UNL     1       6.074   4.923  14.889  1.00  0.00     0.006 A 
ENDBRANCH  66  83
ENDBRANCH  40  41
ENDBRANCH  33  35
ENDBRANCH  32  33
ENDBRANCH  31  32
ENDBRANCH  30  31
ENDBRANCH  29  30
ENDBRANCH  28  29
ENDBRANCH   1  28
TORSDOF 19
