REMARK SMILES O=C(CC1(CN2CC3(CCCCC3)CC2=O)CCCCC1)OCCOCCOCCOC(=O)c1ccc(-c2c3nc(c(-c4c(F)cccc4F)c4ccc([nH]4)c(-c4c(F)cccc4F)c4nc(c(-c5c(F)cccc5F)c5ccc2[nH]5)C=C4)C=C3)cc1
REMARK SMILES IDX 26 1 25 2 24 3 23 4 22 5 2 6 1 7 3 8 4 9 17 10 21 11 18 12
REMARK SMILES IDX 20 13 19 14 5 15 6 16 7 17 15 18 8 19 14 20 16 21 9 22 13 23
REMARK SMILES IDX 10 24 12 25 11 26 27 27 28 28 29 29 30 30 31 31 32 32 33 33
REMARK SMILES IDX 34 34 35 35 87 36 36 37 86 38 37 39 38 40 39 41 80 42 40 43
REMARK SMILES IDX 85 44 79 45 81 46 41 47 84 48 78 49 77 50 42 52 68 53 51 54
REMARK SMILES IDX 67 55 52 56 55 57 66 58 82 59 53 60 54 61 65 63 83 64 56 65
REMARK SMILES IDX 43 66 44 67 49 68 45 69 46 70 48 71 50 72 47 73 69 74 70 75
REMARK SMILES IDX 75 76 71 77 72 78 74 79 76 80 73 81 57 82 58 83 63 84 59 85
REMARK SMILES IDX 60 86 62 87 64 88 61 89
REMARK H PARENT 81 51 55 62
REMARK Flexibility Score: inf
ROOT
ATOM      1  C   UNL     1       2.363   2.347  -1.143  1.00  0.00     0.188 C 
ENDROOT
BRANCH   1   2
ATOM      2  O   UNL     1       3.713   2.145  -0.759  1.00  0.00    -0.376 OA
BRANCH   2   3
ATOM      3  C   UNL     1       4.355   0.952  -1.168  1.00  0.00     0.202 C 
BRANCH   3   4
ATOM      4  C   UNL     1       3.557  -0.351  -1.141  1.00  0.00     0.261 C 
BRANCH   4   5
ATOM      5  O   UNL     1       2.204  -0.337  -0.705  1.00  0.00    -0.463 OA
BRANCH   5   6
ATOM      6  C   UNL     1       1.925  -0.468   0.612  1.00  0.00     0.306 C 
ATOM      7  O   UNL     1       0.899  -1.047   0.961  1.00  0.00    -0.252 OA
BRANCH   6   8
ATOM      8  C   UNL     1       2.792   0.286   1.612  1.00  0.00     0.131 C 
BRANCH   8   9
ATOM      9  C   UNL     1       3.784  -0.478   2.538  1.00  0.00    -0.002 C 
ATOM     10  C   UNL     1       3.821   0.391   3.864  1.00  0.00     0.009 C 
ATOM     11  C   UNL     1       3.165  -1.853   2.908  1.00  0.00     0.009 C 
ATOM     12  C   UNL     1       4.380  -0.332   5.088  1.00  0.00     0.001 C 
ATOM     13  C   UNL     1       3.622  -2.517   4.203  1.00  0.00     0.001 C 
ATOM     14  C   UNL     1       3.555  -1.573   5.384  1.00  0.00     0.000 C 
BRANCH   9  15
ATOM     15  C   UNL     1       5.286  -0.418   2.005  1.00  0.00     0.127 C 
BRANCH  15  16
ATOM     16  N   UNL     1       5.885  -1.184   0.896  1.00  0.00    -0.342 N 
ATOM     17  C   UNL     1       5.489  -2.479   0.417  1.00  0.00     0.127 C 
ATOM     18  C   UNL     1       7.291  -1.100   0.704  1.00  0.00     0.223 C 
ATOM     19  C   UNL     1       6.631  -3.395   0.828  1.00  0.00    -0.003 C 
ATOM     20  C   UNL     1       7.791  -2.504   0.326  1.00  0.00     0.109 C 
ATOM     21  O   UNL     1       7.996  -0.124   0.898  1.00  0.00    -0.275 OA
ATOM     22  C   UNL     1       6.617  -3.462   2.367  1.00  0.00     0.009 C 
ATOM     23  C   UNL     1       6.407  -4.741   0.115  1.00  0.00     0.009 C 
ATOM     24  C   UNL     1       7.101  -4.735   3.005  1.00  0.00     0.001 C 
ATOM     25  C   UNL     1       6.745  -5.999   0.913  1.00  0.00     0.001 C 
ATOM     26  C   UNL     1       6.359  -5.897   2.381  1.00  0.00     0.000 C 
ENDBRANCH  15  16
ENDBRANCH   9  15
ENDBRANCH   8   9
ENDBRANCH   6   8
ENDBRANCH   5   6
ENDBRANCH   4   5
ENDBRANCH   3   4
ENDBRANCH   2   3
ENDBRANCH   1   2
BRANCH   1  27
ATOM     27  C   UNL     1       1.972   2.122  -2.608  1.00  0.00     0.188 C 
BRANCH  27  28
ATOM     28  O   UNL     1       3.019   1.584  -3.399  1.00  0.00    -0.376 OA
BRANCH  28  29
ATOM     29  C   UNL     1       3.689   2.511  -4.245  1.00  0.00     0.202 C 
BRANCH  29  30
ATOM     30  C   UNL     1       4.536   3.634  -3.607  1.00  0.00     0.261 C 
BRANCH  30  31
ATOM     31  O   UNL     1       3.972   4.372  -2.507  1.00  0.00    -0.460 OA
BRANCH  31  32
ATOM     32  C   UNL     1       2.975   5.251  -2.764  1.00  0.00     0.338 C 
ATOM     33  O   UNL     1       2.463   5.470  -3.837  1.00  0.00    -0.246 OA
BRANCH  32  34
ATOM     34  C   UNL     1       2.465   5.772  -1.462  1.00  0.00     0.060 A 
ATOM     35  C   UNL     1       1.120   5.535  -1.137  1.00  0.00     0.016 A 
ATOM     36  C   UNL     1       3.293   6.433  -0.550  1.00  0.00     0.016 A 
ATOM     37  C   UNL     1       0.606   5.952   0.092  1.00  0.00     0.010 A 
ATOM     38  C   UNL     1       2.759   6.908   0.660  1.00  0.00     0.010 A 
ATOM     39  C   UNL     1       1.404   6.692   0.975  1.00  0.00    -0.014 A 
BRANCH  39  40
ATOM     40  C   UNL     1       0.727   7.450   2.061  1.00  0.00     0.031 A 
ATOM     41  C   UNL     1       0.232   8.836   1.736  1.00  0.00     0.074 A 
ATOM     42  C   UNL     1       0.462   6.913   3.267  1.00  0.00     0.049 A 
ATOM     43  N   UNL     1      -0.466   9.668   2.466  1.00  0.00    -0.248 NA
ATOM     44  C   UNL     1       0.563   9.345   0.395  1.00  0.00     0.031 C 
ATOM     45  C   UNL     1       0.848   5.575   3.706  1.00  0.00     0.029 A 
ATOM     46  N   UNL     1      -0.209   7.441   4.345  1.00  0.00    -0.354 N 
ATOM     47  C   UNL     1      -0.678  10.783   1.664  1.00  0.00     0.074 A 
ATOM     48  C   UNL     1       0.006  10.544   0.413  1.00  0.00     0.031 C 
ATOM     49  C   UNL     1       0.416   5.389   4.967  1.00  0.00     0.029 A 
ATOM     50  C   UNL     1      -0.266   6.599   5.430  1.00  0.00     0.049 A 
ATOM     51  H   UNL     1      -0.612   8.339   4.340  1.00  0.00     0.167 HD
ATOM     52  C   UNL     1      -1.393  11.901   1.933  1.00  0.00     0.037 A 
ATOM     53  C   UNL     1      -0.799   6.788   6.654  1.00  0.00     0.037 A 
ATOM     54  C   UNL     1      -2.049  12.162   3.186  1.00  0.00     0.049 A 
ATOM     55  C   UNL     1      -1.517   8.081   6.963  1.00  0.00     0.074 A 
ATOM     56  C   UNL     1      -2.781  13.275   3.560  1.00  0.00     0.029 A 
ATOM     57  N   UNL     1      -2.040  11.305   4.275  1.00  0.00    -0.354 N 
ATOM     58  N   UNL     1      -1.738   9.115   6.186  1.00  0.00    -0.248 NA
ATOM     59  C   UNL     1      -2.074   8.225   8.317  1.00  0.00     0.031 C 
ATOM     60  C   UNL     1      -3.171  13.114   4.894  1.00  0.00     0.029 A 
ATOM     61  C   UNL     1      -2.736  11.873   5.330  1.00  0.00     0.049 A 
ATOM     62  H   UNL     1      -1.603  10.422   4.296  1.00  0.00     0.167 HD
ATOM     63  C   UNL     1      -2.479  10.014   6.946  1.00  0.00     0.074 A 
ATOM     64  C   UNL     1      -2.693   9.392   8.235  1.00  0.00     0.031 C 
ATOM     65  C   UNL     1      -2.940  11.246   6.611  1.00  0.00     0.037 A 
BRANCH  52  66
ATOM     66  C   UNL     1      -1.483  12.934   0.848  1.00  0.00     0.057 A 
ATOM     67  C   UNL     1      -2.233  12.717  -0.317  1.00  0.00     0.134 A 
ATOM     68  C   UNL     1      -0.834  14.168   0.978  1.00  0.00     0.134 A 
ATOM     69  F   UNL     1      -2.862  11.548  -0.512  1.00  0.00    -0.206 F 
ATOM     70  C   UNL     1      -2.317  13.682  -1.321  1.00  0.00     0.040 A 
ATOM     71  C   UNL     1      -0.934  15.152  -0.007  1.00  0.00     0.040 A 
ATOM     72  F   UNL     1      -0.100  14.440   2.066  1.00  0.00    -0.206 F 
ATOM     73  C   UNL     1      -1.672  14.907  -1.164  1.00  0.00     0.006 A 
ENDBRANCH  52  66
BRANCH  53  74
ATOM     74  C   UNL     1      -0.663   5.743   7.705  1.00  0.00     0.057 A 
ATOM     75  C   UNL     1      -1.775   5.063   8.218  1.00  0.00     0.134 A 
ATOM     76  C   UNL     1       0.585   5.443   8.267  1.00  0.00     0.134 A 
ATOM     77  F   UNL     1      -3.003   5.326   7.747  1.00  0.00    -0.206 F 
ATOM     78  C   UNL     1      -1.656   4.147   9.266  1.00  0.00     0.040 A 
ATOM     79  C   UNL     1       0.723   4.506   9.293  1.00  0.00     0.040 A 
ATOM     80  F   UNL     1       1.691   6.061   7.828  1.00  0.00    -0.206 F 
ATOM     81  C   UNL     1      -0.402   3.863   9.803  1.00  0.00     0.006 A 
ENDBRANCH  53  74
BRANCH  65  82
ATOM     82  C   UNL     1      -3.747  11.986   7.643  1.00  0.00     0.057 A 
ATOM     83  C   UNL     1      -3.174  12.480   8.822  1.00  0.00     0.134 A 
ATOM     84  C   UNL     1      -5.115  12.217   7.448  1.00  0.00     0.134 A 
ATOM     85  F   UNL     1      -1.870  12.289   9.077  1.00  0.00    -0.206 F 
ATOM     86  C   UNL     1      -3.939  13.137   9.788  1.00  0.00     0.040 A 
ATOM     87  C   UNL     1      -5.884  12.903   8.391  1.00  0.00     0.040 A 
ATOM     88  F   UNL     1      -5.729  11.788   6.335  1.00  0.00    -0.206 F 
ATOM     89  C   UNL     1      -5.298  13.353   9.572  1.00  0.00     0.006 A 
ENDBRANCH  65  82
ENDBRANCH  39  40
ENDBRANCH  32  34
ENDBRANCH  31  32
ENDBRANCH  30  31
ENDBRANCH  29  30
ENDBRANCH  28  29
ENDBRANCH  27  28
ENDBRANCH   1  27
TORSDOF 20
