REMARK SMILES C[C@H]1CCCC[C@H]1[N@H+]1[C@@H](C(=O)OCCOCCOCCOC(=O)c2ccc(-c3c4nc(c(-c5c(F)cccc5F)c5ccc([nH]5)c(-c5c(F)cccc5F)c5nc(c(-c6c(F)cccc6F)c6ccc3[nH]6)C=C5)C=C4)cc2)CC[C@@H]2CCCC[C@@H]21
REMARK SMILES IDX 17 1 16 2 15 3 14 4 13 5 12 6 10 7 11 8 9 9 8 10 85 11 78 13
REMARK SMILES IDX 80 14 84 15 79 16 81 17 83 18 82 19 7 20 1 21 2 22 3 23 4 24
REMARK SMILES IDX 6 25 5 26 18 27 19 28 20 29 21 30 22 31 23 32 24 33 25 34
REMARK SMILES IDX 77 35 26 36 76 37 27 38 28 39 29 40 70 41 30 42 75 43 69 44
REMARK SMILES IDX 71 45 31 46 74 47 68 48 67 49 32 51 58 52 41 53 57 54 42 55
REMARK SMILES IDX 45 56 56 57 72 58 43 59 44 60 55 62 73 63 46 64 33 65 34 66
REMARK SMILES IDX 39 67 35 68 36 69 38 70 40 71 37 72 59 73 60 74 65 75 61 76
REMARK SMILES IDX 62 77 64 78 66 79 63 80 47 81 48 82 53 83 49 84 50 85 52 86
REMARK SMILES IDX 54 87 51 88
REMARK H PARENT 8 12 71 50 45 61
REMARK Flexibility Score: inf
ROOT
ATOM      1  C   UNL     1      -3.890  -0.435   1.641  1.00  0.00     0.188 C 
ENDROOT
BRANCH   1   2
ATOM      2  C   UNL     1      -4.257   0.630   0.575  1.00  0.00     0.188 C 
BRANCH   2   3
ATOM      3  O   UNL     1      -5.118   0.200  -0.471  1.00  0.00    -0.376 OA
BRANCH   3   4
ATOM      4  C   UNL     1      -4.601  -0.749  -1.423  1.00  0.00     0.202 C 
BRANCH   4   5
ATOM      5  C   UNL     1      -3.565  -0.254  -2.468  1.00  0.00     0.261 C 
BRANCH   5   6
ATOM      6  O   UNL     1      -2.157  -0.666  -2.313  1.00  0.00    -0.459 OA
BRANCH   6   7
ATOM      7  C   UNL     1      -1.239   0.250  -2.800  1.00  0.00     0.365 C 
ATOM      8  O   UNL     1      -1.619   1.360  -3.186  1.00  0.00    -0.245 OA
BRANCH   7   9
ATOM      9  C   UNL     1       0.261  -0.209  -2.963  1.00  0.00     0.295 C 
ATOM     10  N   UNL     1       1.335  -0.479  -1.909  1.00  0.00    -0.318 N 
ATOM     11  C   UNL     1       2.747  -0.463  -2.411  1.00  0.00     0.188 C 
ATOM     12  H   UNL     1       0.482  -1.020  -1.769  1.00  0.00     0.349 HD
ATOM     13  C   UNL     1       0.875   0.886  -3.885  1.00  0.00     0.078 C 
ATOM     14  C   UNL     1       2.853  -0.679  -3.928  1.00  0.00     0.048 C 
ATOM     15  C   UNL     1       3.802  -1.422  -1.773  1.00  0.00     0.065 C 
ATOM     16  C   UNL     1       2.104   0.428  -4.652  1.00  0.00     0.016 C 
ATOM     17  C   UNL     1       2.444  -2.111  -4.346  1.00  0.00     0.010 C 
ATOM     18  C   UNL     1       3.950  -2.783  -2.455  1.00  0.00     0.006 C 
ATOM     19  C   UNL     1       2.710  -3.148  -3.249  1.00  0.00     0.001 C 
BRANCH  10  20
ATOM     20  C   UNL     1       1.243  -0.589  -0.451  1.00  0.00     0.187 C 
ATOM     21  C   UNL     1       3.364   0.821   0.479  1.00  0.00     0.014 C 
ATOM     22  C   UNL     1       1.863   0.542   0.462  1.00  0.00     0.044 C 
ATOM     23  C   UNL     1       1.102   1.863   0.332  1.00  0.00     0.009 C 
ATOM     24  C   UNL     1      -0.351   1.697   0.722  1.00  0.00     0.001 C 
ATOM     25  C   UNL     1      -0.155  -0.830   0.069  1.00  0.00     0.065 C 
ATOM     26  C   UNL     1      -0.945   0.452   0.131  1.00  0.00     0.006 C 
ENDBRANCH  10  20
ENDBRANCH   7   9
ENDBRANCH   6   7
ENDBRANCH   5   6
ENDBRANCH   4   5
ENDBRANCH   3   4
ENDBRANCH   2   3
ENDBRANCH   1   2
BRANCH   1  27
ATOM     27  O   UNL     1      -3.565  -1.687   1.054  1.00  0.00    -0.376 OA
BRANCH  27  28
ATOM     28  C   UNL     1      -3.069  -2.745   1.869  1.00  0.00     0.202 C 
BRANCH  28  29
ATOM     29  C   UNL     1      -3.422  -2.737   3.364  1.00  0.00     0.261 C 
BRANCH  29  30
ATOM     30  O   UNL     1      -2.835  -1.616   4.059  1.00  0.00    -0.460 OA
BRANCH  30  31
ATOM     31  C   UNL     1      -1.486  -1.659   4.160  1.00  0.00     0.338 C 
ATOM     32  O   UNL     1      -0.777  -2.624   3.907  1.00  0.00    -0.246 OA
BRANCH  31  33
ATOM     33  C   UNL     1      -0.944  -0.299   4.395  1.00  0.00     0.060 A 
ATOM     34  C   UNL     1       0.244   0.011   3.735  1.00  0.00     0.016 A 
ATOM     35  C   UNL     1      -1.540   0.664   5.215  1.00  0.00     0.016 A 
ATOM     36  C   UNL     1       0.821   1.276   3.850  1.00  0.00     0.010 A 
ATOM     37  C   UNL     1      -0.936   1.930   5.366  1.00  0.00     0.010 A 
ATOM     38  C   UNL     1       0.248   2.248   4.674  1.00  0.00    -0.014 A 
BRANCH  38  39
ATOM     39  C   UNL     1       1.111   3.405   5.035  1.00  0.00     0.031 A 
ATOM     40  C   UNL     1       2.095   3.175   6.152  1.00  0.00     0.074 A 
ATOM     41  C   UNL     1       1.191   4.548   4.326  1.00  0.00     0.049 A 
ATOM     42  N   UNL     1       2.954   3.993   6.700  1.00  0.00    -0.248 NA
ATOM     43  C   UNL     1       2.125   1.809   6.700  1.00  0.00     0.031 C 
ATOM     44  C   UNL     1       0.460   4.853   3.099  1.00  0.00     0.029 A 
ATOM     45  N   UNL     1       1.968   5.666   4.537  1.00  0.00    -0.354 N 
ATOM     46  C   UNL     1       3.611   3.245   7.668  1.00  0.00     0.074 A 
ATOM     47  C   UNL     1       3.056   1.911   7.630  1.00  0.00     0.031 C 
ATOM     48  C   UNL     1       0.824   6.077   2.667  1.00  0.00     0.029 A 
ATOM     49  C   UNL     1       1.772   6.666   3.614  1.00  0.00     0.049 A 
ATOM     50  H   UNL     1       2.606   5.743   5.283  1.00  0.00     0.167 HD
ATOM     51  C   UNL     1       4.582   3.628   8.528  1.00  0.00     0.037 A 
ATOM     52  C   UNL     1       2.277   7.918   3.562  1.00  0.00     0.037 A 
ATOM     53  C   UNL     1       5.128   4.953   8.593  1.00  0.00     0.049 A 
ATOM     54  C   UNL     1       3.223   8.390   4.644  1.00  0.00     0.074 A 
ATOM     55  C   UNL     1       6.052   5.462   9.486  1.00  0.00     0.029 A 
ATOM     56  N   UNL     1       4.792   5.985   7.730  1.00  0.00    -0.354 N 
ATOM     57  N   UNL     1       3.766   7.714   5.628  1.00  0.00    -0.248 NA
ATOM     58  C   UNL     1       3.613   9.810   4.615  1.00  0.00     0.031 C 
ATOM     59  C   UNL     1       6.234   6.819   9.199  1.00  0.00     0.029 A 
ATOM     60  C   UNL     1       5.475   7.136   8.084  1.00  0.00     0.049 A 
ATOM     61  H   UNL     1       4.161   5.910   6.978  1.00  0.00     0.167 HD
ATOM     62  C   UNL     1       4.590   8.610   6.303  1.00  0.00     0.074 A 
ATOM     63  C   UNL     1       4.475   9.880   5.619  1.00  0.00     0.031 C 
ATOM     64  C   UNL     1       5.376   8.395   7.388  1.00  0.00     0.037 A 
BRANCH  51  65
ATOM     65  C   UNL     1       5.011   2.604   9.536  1.00  0.00     0.057 A 
ATOM     66  C   UNL     1       5.743   1.462   9.182  1.00  0.00     0.134 A 
ATOM     67  C   UNL     1       4.602   2.725  10.870  1.00  0.00     0.134 A 
ATOM     68  F   UNL     1       6.130   1.268   7.912  1.00  0.00    -0.206 F 
ATOM     69  C   UNL     1       6.007   0.454  10.110  1.00  0.00     0.040 A 
ATOM     70  C   UNL     1       4.891   1.741  11.813  1.00  0.00     0.040 A 
ATOM     71  F   UNL     1       3.891   3.791  11.270  1.00  0.00    -0.206 F 
ATOM     72  C   UNL     1       5.582   0.593  11.430  1.00  0.00     0.006 A 
ENDBRANCH  51  65
BRANCH  52  73
ATOM     73  C   UNL     1       1.875   8.860   2.479  1.00  0.00     0.057 A 
ATOM     74  C   UNL     1       2.805   9.348   1.552  1.00  0.00     0.134 A 
ATOM     75  C   UNL     1       0.568   9.357   2.393  1.00  0.00     0.134 A 
ATOM     76  F   UNL     1       4.085   8.948   1.605  1.00  0.00    -0.206 F 
ATOM     77  C   UNL     1       2.455  10.300   0.590  1.00  0.00     0.040 A 
ATOM     78  C   UNL     1       0.198  10.289   1.421  1.00  0.00     0.040 A 
ATOM     79  F   UNL     1      -0.368   8.953   3.264  1.00  0.00    -0.206 F 
ATOM     80  C   UNL     1       1.145  10.768   0.519  1.00  0.00     0.006 A 
ENDBRANCH  52  73
BRANCH  64  81
ATOM     81  C   UNL     1       6.237   9.529   7.873  1.00  0.00     0.057 A 
ATOM     82  C   UNL     1       5.705  10.659   8.507  1.00  0.00     0.134 A 
ATOM     83  C   UNL     1       7.632   9.456   7.753  1.00  0.00     0.134 A 
ATOM     84  F   UNL     1       4.379  10.799   8.650  1.00  0.00    -0.206 F 
ATOM     85  C   UNL     1       6.527  11.685   8.981  1.00  0.00     0.040 A 
ATOM     86  C   UNL     1       8.465  10.460   8.250  1.00  0.00     0.040 A 
ATOM     87  F   UNL     1       8.211   8.396   7.169  1.00  0.00    -0.206 F 
ATOM     88  C   UNL     1       7.912  11.582   8.861  1.00  0.00     0.006 A 
ENDBRANCH  64  81
ENDBRANCH  38  39
ENDBRANCH  31  33
ENDBRANCH  30  31
ENDBRANCH  29  30
ENDBRANCH  28  29
ENDBRANCH  27  28
ENDBRANCH   1  27
TORSDOF 18
