REMARK SMILES C[N@@H+](Cc1ncccc1C(=O)OCCOCCOCCOC(=O)c1ccc(-c2c3nc(c(-c4c(F)cccc4F)c4ccc([nH]4)c(-c4c(F)cccc4F)c4nc(c(-c5c(F)cccc5F)c5ccc2[nH]5)C=C4)C=C3)cc1)C[C@@H]1CCN(c2ccccc2)C1
REMARK SMILES IDX 15 1 14 2 13 3 12 4 10 5 11 6 9 7 4 8 5 9 6 10 8 11 7 12
REMARK SMILES IDX 3 13 2 14 1 15 78 17 79 18 80 19 89 20 81 21 82 22 83 23
REMARK SMILES IDX 84 24 88 25 85 26 87 27 86 28 16 29 17 30 18 31 19 32 20 33
REMARK SMILES IDX 21 34 22 35 23 36 24 37 25 38 77 39 26 40 76 41 27 42 28 43
REMARK SMILES IDX 29 44 70 45 30 46 75 47 69 48 71 49 31 50 74 51 68 52 67 53
REMARK SMILES IDX 32 55 58 56 41 57 57 58 42 59 45 60 56 61 72 62 43 63 44 64
REMARK SMILES IDX 55 66 73 67 46 68 33 69 34 70 39 71 35 72 36 73 38 74 40 75
REMARK SMILES IDX 37 76 59 77 60 78 65 79 61 80 62 81 64 82 66 83 63 84 47 85
REMARK SMILES IDX 48 86 53 87 49 88 50 89 52 90 54 91 51 92
REMARK H PARENT 2 16 71 54 45 65
REMARK Flexibility Score: inf
ROOT
ATOM      1  O   UNL     1      -5.100   2.468   2.190  1.00  0.00    -0.376 OA
ENDROOT
BRANCH   1   2
ATOM      2  C   UNL     1      -5.841   2.449   0.982  1.00  0.00     0.202 C 
BRANCH   2   3
ATOM      3  C   UNL     1      -5.771   1.355  -0.102  1.00  0.00     0.261 C 
BRANCH   3   4
ATOM      4  O   UNL     1      -4.993   0.189   0.168  1.00  0.00    -0.460 OA
BRANCH   4   5
ATOM      5  C   UNL     1      -3.793   0.117  -0.456  1.00  0.00     0.340 C 
ATOM      6  O   UNL     1      -3.293   0.983  -1.160  1.00  0.00    -0.246 OA
BRANCH   5   7
ATOM      7  C   UNL     1      -3.116  -1.149  -0.112  1.00  0.00     0.087 A 
ATOM      8  C   UNL     1      -1.729  -1.211   0.081  1.00  0.00     0.109 A 
ATOM      9  N   UNL     1      -1.099  -2.412   0.152  1.00  0.00    -0.254 NA
ATOM     10  C   UNL     1      -1.847  -3.534   0.243  1.00  0.00     0.111 A 
ATOM     11  C   UNL     1      -3.869  -2.325   0.019  1.00  0.00     0.019 A 
ATOM     12  C   UNL     1      -3.225  -3.534   0.244  1.00  0.00     0.021 A 
BRANCH   8  13
ATOM     13  C   UNL     1      -0.946   0.033   0.527  1.00  0.00     0.320 C 
BRANCH  13  14
ATOM     14  N   UNL     1       0.505  -0.046   0.773  1.00  0.00    -0.332 N 
ATOM     15  C   UNL     1       1.293  -0.379  -0.394  1.00  0.00     0.333 C 
ATOM     16  H   UNL     1       0.724   0.935   0.947  1.00  0.00     0.348 HD
BRANCH  14  17
ATOM     17  C   UNL     1       0.977  -0.557   2.062  1.00  0.00     0.267 C 
BRANCH  17  18
ATOM     18  C   UNL     1       0.519  -1.928   2.578  1.00  0.00     0.065 C 
ATOM     19  C   UNL     1       0.635  -2.084   4.104  1.00  0.00     0.032 C 
ATOM     20  C   UNL     1       1.318  -3.125   2.050  1.00  0.00     0.126 C 
ATOM     21  C   UNL     1       0.865  -3.579   4.353  1.00  0.00     0.117 C 
ATOM     22  N   UNL     1       0.990  -4.169   3.026  1.00  0.00    -0.371 N 
BRANCH  22  23
ATOM     23  C   UNL     1       0.368  -5.335   2.632  1.00  0.00     0.037 A 
ATOM     24  C   UNL     1       0.917  -6.123   1.609  1.00  0.00     0.026 A 
ATOM     25  C   UNL     1      -0.831  -5.789   3.202  1.00  0.00     0.026 A 
ATOM     26  C   UNL     1       0.312  -7.314   1.187  1.00  0.00     0.002 A 
ATOM     27  C   UNL     1      -1.451  -6.972   2.779  1.00  0.00     0.002 A 
ATOM     28  C   UNL     1      -0.875  -7.740   1.774  1.00  0.00     0.000 A 
ENDBRANCH  22  23
ENDBRANCH  17  18
ENDBRANCH  14  17
ENDBRANCH  13  14
ENDBRANCH   8  13
ENDBRANCH   5   7
ENDBRANCH   4   5
ENDBRANCH   3   4
ENDBRANCH   2   3
ENDBRANCH   1   2
BRANCH   1  29
ATOM     29  C   UNL     1      -3.978   1.635   2.353  1.00  0.00     0.188 C 
BRANCH  29  30
ATOM     30  C   UNL     1      -4.266   0.268   3.011  1.00  0.00     0.188 C 
BRANCH  30  31
ATOM     31  O   UNL     1      -5.600  -0.178   3.169  1.00  0.00    -0.376 OA
BRANCH  31  32
ATOM     32  C   UNL     1      -6.543   0.649   3.835  1.00  0.00     0.202 C 
BRANCH  32  33
ATOM     33  C   UNL     1      -6.194   1.515   5.065  1.00  0.00     0.261 C 
BRANCH  33  34
ATOM     34  O   UNL     1      -4.883   2.095   5.115  1.00  0.00    -0.460 OA
BRANCH  34  35
ATOM     35  C   UNL     1      -4.031   1.542   6.012  1.00  0.00     0.338 C 
ATOM     36  O   UNL     1      -4.257   0.620   6.776  1.00  0.00    -0.246 OA
BRANCH  35  37
ATOM     37  C   UNL     1      -2.677   2.096   5.807  1.00  0.00     0.060 A 
ATOM     38  C   UNL     1      -1.662   1.225   5.390  1.00  0.00     0.016 A 
ATOM     39  C   UNL     1      -2.393   3.436   6.074  1.00  0.00     0.016 A 
ATOM     40  C   UNL     1      -0.355   1.688   5.255  1.00  0.00     0.010 A 
ATOM     41  C   UNL     1      -1.074   3.893   5.958  1.00  0.00     0.010 A 
ATOM     42  C   UNL     1      -0.045   3.017   5.567  1.00  0.00    -0.014 A 
BRANCH  42  43
ATOM     43  C   UNL     1       1.377   3.429   5.652  1.00  0.00     0.031 A 
ATOM     44  C   UNL     1       2.052   3.419   6.995  1.00  0.00     0.074 A 
ATOM     45  C   UNL     1       2.078   3.762   4.554  1.00  0.00     0.049 A 
ATOM     46  N   UNL     1       3.267   3.779   7.319  1.00  0.00    -0.248 NA
ATOM     47  C   UNL     1       1.245   2.927   8.123  1.00  0.00     0.031 C 
ATOM     48  C   UNL     1       1.569   3.737   3.184  1.00  0.00     0.029 A 
ATOM     49  N   UNL     1       3.375   4.195   4.426  1.00  0.00    -0.354 N 
ATOM     50  C   UNL     1       3.371   3.560   8.687  1.00  0.00     0.074 A 
ATOM     51  C   UNL     1       2.087   3.063   9.135  1.00  0.00     0.031 C 
ATOM     52  C   UNL     1       2.539   4.161   2.354  1.00  0.00     0.029 A 
ATOM     53  C   UNL     1       3.721   4.519   3.137  1.00  0.00     0.049 A 
ATOM     54  H   UNL     1       3.997   4.265   5.185  1.00  0.00     0.167 HD
ATOM     55  C   UNL     1       4.440   3.751   9.496  1.00  0.00     0.037 A 
ATOM     56  C   UNL     1       4.851   5.071   2.651  1.00  0.00     0.037 A 
ATOM     57  C   UNL     1       5.710   4.264   9.056  1.00  0.00     0.049 A 
ATOM     58  C   UNL     1       5.989   5.385   3.590  1.00  0.00     0.074 A 
ATOM     59  C   UNL     1       6.851   4.500   9.803  1.00  0.00     0.029 A 
ATOM     60  N   UNL     1       6.003   4.637   7.752  1.00  0.00    -0.354 N 
ATOM     61  N   UNL     1       6.084   5.171   4.880  1.00  0.00    -0.248 NA
ATOM     62  C   UNL     1       7.180   6.016   3.001  1.00  0.00     0.031 C 
ATOM     63  C   UNL     1       7.813   5.074   8.965  1.00  0.00     0.029 A 
ATOM     64  C   UNL     1       7.296   5.131   7.680  1.00  0.00     0.049 A 
ATOM     65  H   UNL     1       5.385   4.561   6.990  1.00  0.00     0.167 HD
ATOM     66  C   UNL     1       7.351   5.609   5.250  1.00  0.00     0.074 A 
ATOM     67  C   UNL     1       7.993   6.091   4.045  1.00  0.00     0.031 C 
ATOM     68  C   UNL     1       7.932   5.605   6.476  1.00  0.00     0.037 A 
BRANCH  55  69
ATOM     69  C   UNL     1       4.257   3.444  10.955  1.00  0.00     0.057 A 
ATOM     70  C   UNL     1       4.108   2.134  11.427  1.00  0.00     0.134 A 
ATOM     71  C   UNL     1       4.234   4.477  11.900  1.00  0.00     0.134 A 
ATOM     72  F   UNL     1       4.104   1.099  10.573  1.00  0.00    -0.206 F 
ATOM     73  C   UNL     1       3.909   1.865  12.783  1.00  0.00     0.040 A 
ATOM     74  C   UNL     1       4.067   4.219  13.262  1.00  0.00     0.040 A 
ATOM     75  F   UNL     1       4.375   5.755  11.518  1.00  0.00    -0.206 F 
ATOM     76  C   UNL     1       3.894   2.909  13.705  1.00  0.00     0.006 A 
ENDBRANCH  55  69
BRANCH  56  77
ATOM     77  C   UNL     1       4.958   5.395   1.205  1.00  0.00     0.057 A 
ATOM     78  C   UNL     1       5.856   4.721   0.370  1.00  0.00     0.134 A 
ATOM     79  C   UNL     1       4.184   6.412   0.630  1.00  0.00     0.134 A 
ATOM     80  F   UNL     1       6.647   3.758   0.867  1.00  0.00    -0.206 F 
ATOM     81  C   UNL     1       5.994   5.055  -0.979  1.00  0.00     0.040 A 
ATOM     82  C   UNL     1       4.291   6.737  -0.723  1.00  0.00     0.040 A 
ATOM     83  F   UNL     1       3.309   7.102   1.376  1.00  0.00    -0.206 F 
ATOM     84  C   UNL     1       5.204   6.062  -1.530  1.00  0.00     0.006 A 
ENDBRANCH  56  77
BRANCH  68  85
ATOM     85  C   UNL     1       9.349   6.097   6.577  1.00  0.00     0.057 A 
ATOM     86  C   UNL     1       9.683   7.449   6.427  1.00  0.00     0.134 A 
ATOM     87  C   UNL     1      10.390   5.207   6.879  1.00  0.00     0.134 A 
ATOM     88  F   UNL     1       8.739   8.354   6.127  1.00  0.00    -0.206 F 
ATOM     89  C   UNL     1      11.002   7.894   6.549  1.00  0.00     0.040 A 
ATOM     90  C   UNL     1      11.706   5.645   7.034  1.00  0.00     0.040 A 
ATOM     91  F   UNL     1      10.141   3.900   7.048  1.00  0.00    -0.206 F 
ATOM     92  C   UNL     1      12.017   6.991   6.862  1.00  0.00     0.006 A 
ENDBRANCH  68  85
ENDBRANCH  42  43
ENDBRANCH  35  37
ENDBRANCH  34  35
ENDBRANCH  33  34
ENDBRANCH  32  33
ENDBRANCH  31  32
ENDBRANCH  30  31
ENDBRANCH  29  30
ENDBRANCH   1  29
TORSDOF 22
