REMARK SMILES COc1cc(OC)cc(C(=O)C[C@H](C)CC(=O)OCCOCCOCCOC(=O)c2ccc(-c3c4nc(c(-c5c(F)cccc5F)c5ccc([nH]5)c(-c5c(F)cccc5F)c5nc(c(-c6c(F)cccc6F)c6ccc3[nH]6)C=C5)C=C4)cc2)c1
REMARK SMILES IDX 21 1 20 2 19 3 18 4 16 5 17 6 15 7 13 8 14 9 12 10 10 11
REMARK SMILES IDX 11 12 9 13 3 14 4 15 84 16 5 17 8 18 2 19 1 20 6 21 7 22
REMARK SMILES IDX 22 23 23 24 24 25 25 26 26 27 27 28 28 29 29 30 30 31 31 32
REMARK SMILES IDX 83 33 32 34 82 35 33 36 34 37 35 38 76 39 36 40 81 41 75 42
REMARK SMILES IDX 77 43 37 44 80 45 74 46 73 47 38 49 64 50 47 51 63 52 48 53
REMARK SMILES IDX 51 54 62 55 78 56 49 57 50 58 61 60 79 61 52 62 39 63 40 64
REMARK SMILES IDX 45 65 41 66 42 67 44 68 46 69 43 70 65 71 66 72 71 73 67 74
REMARK SMILES IDX 68 75 70 76 72 77 69 78 53 79 54 80 59 81 55 82 56 83 58 84
REMARK SMILES IDX 60 85 57 86
REMARK H PARENT 77 48 51 59
REMARK Flexibility Score: inf
ROOT
ATOM      1  O   UNL     1       8.978  -4.338   0.624  1.00  0.00    -0.376 OA
ENDROOT
BRANCH   1   2
ATOM      2  C   UNL     1       9.459  -3.454   1.639  1.00  0.00     0.202 C 
BRANCH   2   3
ATOM      3  C   UNL     1       9.035  -1.985   1.505  1.00  0.00     0.261 C 
BRANCH   3   4
ATOM      4  O   UNL     1       7.604  -1.780   1.537  1.00  0.00    -0.463 OA
BRANCH   4   5
ATOM      5  C   UNL     1       7.066  -1.128   0.477  1.00  0.00     0.306 C 
ATOM      6  O   UNL     1       7.711  -0.693  -0.473  1.00  0.00    -0.252 OA
BRANCH   5   7
ATOM      7  C   UNL     1       5.548  -1.018   0.492  1.00  0.00     0.126 C 
BRANCH   7   8
ATOM      8  C   UNL     1       4.715  -1.676   1.607  1.00  0.00     0.005 C 
ATOM      9  C   UNL     1       4.975  -1.052   2.982  1.00  0.00     0.009 C 
BRANCH   8  10
ATOM     10  C   UNL     1       3.209  -1.537   1.268  1.00  0.00     0.085 C 
BRANCH  10  11
ATOM     11  C   UNL     1       2.367  -2.689   1.799  1.00  0.00     0.163 C 
ATOM     12  O   UNL     1       1.772  -2.592   2.871  1.00  0.00    -0.294 OA
BRANCH  11  13
ATOM     13  C   UNL     1       2.248  -3.950   1.001  1.00  0.00     0.025 A 
ATOM     14  C   UNL     1       2.734  -5.260  -0.975  1.00  0.00     0.123 A 
ATOM     15  C   UNL     1       1.954  -6.300  -0.468  1.00  0.00     0.092 A 
ATOM     16  C   UNL     1       2.872  -4.084  -0.246  1.00  0.00     0.058 A 
ATOM     17  C   UNL     1       1.336  -6.188   0.778  1.00  0.00     0.123 A 
ATOM     18  C   UNL     1       1.487  -5.013   1.516  1.00  0.00     0.058 A 
BRANCH  14  19
ATOM     19  O   UNL     1       3.307  -5.476  -2.199  1.00  0.00    -0.497 OA
ATOM     20  C   UNL     1       4.562  -4.834  -2.418  1.00  0.00     0.278 C 
ENDBRANCH  14  19
BRANCH  17  21
ATOM     21  O   UNL     1       0.653  -7.303   1.179  1.00  0.00    -0.497 OA
ATOM     22  C   UNL     1      -0.380  -7.097   2.135  1.00  0.00     0.278 C 
ENDBRANCH  17  21
ENDBRANCH  11  13
ENDBRANCH  10  11
ENDBRANCH   8  10
ENDBRANCH   7   8
ENDBRANCH   5   7
ENDBRANCH   4   5
ENDBRANCH   3   4
ENDBRANCH   2   3
ENDBRANCH   1   2
BRANCH   1  23
ATOM     23  C   UNL     1       7.563  -4.482   0.519  1.00  0.00     0.188 C 
BRANCH  23  24
ATOM     24  C   UNL     1       6.868  -5.019   1.771  1.00  0.00     0.188 C 
BRANCH  24  25
ATOM     25  O   UNL     1       7.167  -4.313   2.952  1.00  0.00    -0.376 OA
BRANCH  25  26
ATOM     26  C   UNL     1       7.133  -4.978   4.211  1.00  0.00     0.202 C 
BRANCH  26  27
ATOM     27  C   UNL     1       7.356  -6.500   4.444  1.00  0.00     0.261 C 
BRANCH  27  28
ATOM     28  O   UNL     1       7.114  -7.428   3.376  1.00  0.00    -0.460 OA
BRANCH  28  29
ATOM     29  C   UNL     1       5.826  -7.722   3.096  1.00  0.00     0.338 C 
ATOM     30  O   UNL     1       4.844  -7.353   3.731  1.00  0.00    -0.246 OA
BRANCH  29  31
ATOM     31  C   UNL     1       5.764  -8.305   1.733  1.00  0.00     0.060 A 
ATOM     32  C   UNL     1       5.054  -7.585   0.770  1.00  0.00     0.016 A 
ATOM     33  C   UNL     1       6.402  -9.494   1.370  1.00  0.00     0.016 A 
ATOM     34  C   UNL     1       4.994  -8.030  -0.547  1.00  0.00     0.010 A 
ATOM     35  C   UNL     1       6.287  -9.971   0.050  1.00  0.00     0.010 A 
ATOM     36  C   UNL     1       5.575  -9.241  -0.918  1.00  0.00    -0.014 A 
BRANCH  36  37
ATOM     37  C   UNL     1       5.226  -9.802  -2.249  1.00  0.00     0.031 A 
ATOM     38  C   UNL     1       4.106 -10.800  -2.323  1.00  0.00     0.074 A 
ATOM     39  C   UNL     1       5.764  -9.348  -3.396  1.00  0.00     0.049 A 
ATOM     40  N   UNL     1       3.739 -11.570  -3.314  1.00  0.00    -0.248 NA
ATOM     41  C   UNL     1       3.275 -10.927  -1.116  1.00  0.00     0.031 C 
ATOM     42  C   UNL     1       6.694  -8.229  -3.515  1.00  0.00     0.029 A 
ATOM     43  N   UNL     1       5.591  -9.781  -4.691  1.00  0.00    -0.354 N 
ATOM     44  C   UNL     1       2.671 -12.315  -2.830  1.00  0.00     0.074 A 
ATOM     45  C   UNL     1       2.428 -11.880  -1.472  1.00  0.00     0.031 C 
ATOM     46  C   UNL     1       7.029  -8.078  -4.810  1.00  0.00     0.029 A 
ATOM     47  C   UNL     1       6.404  -9.142  -5.596  1.00  0.00     0.049 A 
ATOM     48  H   UNL     1       4.947 -10.481  -4.945  1.00  0.00     0.167 HD
ATOM     49  C   UNL     1       1.980 -13.295  -3.457  1.00  0.00     0.037 A 
ATOM     50  C   UNL     1       6.668  -9.430  -6.888  1.00  0.00     0.037 A 
ATOM     51  C   UNL     1       2.212 -13.703  -4.816  1.00  0.00     0.049 A 
ATOM     52  C   UNL     1       6.001 -10.621  -7.532  1.00  0.00     0.074 A 
ATOM     53  C   UNL     1       1.607 -14.724  -5.527  1.00  0.00     0.029 A 
ATOM     54  N   UNL     1       3.122 -13.102  -5.673  1.00  0.00    -0.354 N 
ATOM     55  N   UNL     1       5.089 -11.425  -7.041  1.00  0.00    -0.248 NA
ATOM     56  C   UNL     1       6.421 -10.966  -8.900  1.00  0.00     0.031 C 
ATOM     57  C   UNL     1       2.196 -14.781  -6.794  1.00  0.00     0.029 A 
ATOM     58  C   UNL     1       3.117 -13.751  -6.896  1.00  0.00     0.049 A 
ATOM     59  H   UNL     1       3.687 -12.329  -5.446  1.00  0.00     0.167 HD
ATOM     60  C   UNL     1       4.809 -12.349  -8.042  1.00  0.00     0.074 A 
ATOM     61  C   UNL     1       5.643 -12.005  -9.174  1.00  0.00     0.031 C 
ATOM     62  C   UNL     1       3.938 -13.388  -8.024  1.00  0.00     0.037 A 
BRANCH  49  63
ATOM     63  C   UNL     1       0.992 -14.067  -2.634  1.00  0.00     0.057 A 
ATOM     64  C   UNL     1      -0.231 -13.532  -2.214  1.00  0.00     0.134 A 
ATOM     65  C   UNL     1       1.292 -15.380  -2.246  1.00  0.00     0.134 A 
ATOM     66  F   UNL     1      -0.569 -12.274  -2.532  1.00  0.00    -0.206 F 
ATOM     67  C   UNL     1      -1.108 -14.267  -1.413  1.00  0.00     0.040 A 
ATOM     68  C   UNL     1       0.412 -16.134  -1.471  1.00  0.00     0.040 A 
ATOM     69  F   UNL     1       2.449 -15.952  -2.614  1.00  0.00    -0.206 F 
ATOM     70  C   UNL     1      -0.789 -15.573  -1.044  1.00  0.00     0.006 A 
ENDBRANCH  49  63
BRANCH  50  71
ATOM     71  C   UNL     1       7.690  -8.647  -7.635  1.00  0.00     0.057 A 
ATOM     72  C   UNL     1       7.358  -7.884  -8.761  1.00  0.00     0.134 A 
ATOM     73  C   UNL     1       9.041  -8.680  -7.262  1.00  0.00     0.134 A 
ATOM     74  F   UNL     1       6.090  -7.839  -9.196  1.00  0.00    -0.206 F 
ATOM     75  C   UNL     1       8.329  -7.192  -9.490  1.00  0.00     0.040 A 
ATOM     76  C   UNL     1      10.017  -7.968  -7.961  1.00  0.00     0.040 A 
ATOM     77  F   UNL     1       9.434  -9.405  -6.204  1.00  0.00    -0.206 F 
ATOM     78  C   UNL     1       9.662  -7.226  -9.085  1.00  0.00     0.006 A 
ENDBRANCH  50  71
BRANCH  62  79
ATOM     79  C   UNL     1       3.787 -14.205  -9.276  1.00  0.00     0.057 A 
ATOM     80  C   UNL     1       4.766 -15.114  -9.694  1.00  0.00     0.134 A 
ATOM     81  C   UNL     1       2.601 -14.143 -10.021  1.00  0.00     0.134 A 
ATOM     82  F   UNL     1       5.928 -15.217  -9.032  1.00  0.00    -0.206 F 
ATOM     83  C   UNL     1       4.573 -15.928 -10.814  1.00  0.00     0.040 A 
ATOM     84  C   UNL     1       2.386 -14.970 -11.124  1.00  0.00     0.040 A 
ATOM     85  F   UNL     1       1.618 -13.301  -9.668  1.00  0.00    -0.206 F 
ATOM     86  C   UNL     1       3.375 -15.865 -11.524  1.00  0.00     0.006 A 
ENDBRANCH  62  79
ENDBRANCH  36  37
ENDBRANCH  29  31
ENDBRANCH  28  29
ENDBRANCH  27  28
ENDBRANCH  26  27
ENDBRANCH  25  26
ENDBRANCH  24  25
ENDBRANCH  23  24
ENDBRANCH   1  23
TORSDOF 23
