REMARK SMILES C#CC[N@@H+](CC(=O)OCCOCCOCCOC(=O)c1ccc(-c2c3nc(c(-c4c(F)cccc4F)c4ccc([nH]4)c(-c4c(F)cccc4F)c4nc(c(-c5c(F)cccc5F)c5ccc2[nH]5)C=C4)C=C3)cc1)[C@@H](C)Cc1ccco1
REMARK SMILES IDX 12 1 11 2 10 3 9 4 8 5 6 6 7 7 5 8 4 9 3 11 2 12 1 13 74 14
REMARK SMILES IDX 75 15 76 16 77 17 78 18 81 19 79 20 80 21 13 22 14 23 15 24
REMARK SMILES IDX 16 25 17 26 18 27 19 28 20 29 21 30 73 31 22 32 72 33 23 34
REMARK SMILES IDX 24 35 25 36 66 37 26 38 71 39 65 40 67 41 27 42 70 43 64 44
REMARK SMILES IDX 63 45 28 47 54 48 37 49 53 50 38 51 41 52 52 53 68 54 39 55
REMARK SMILES IDX 40 56 51 58 69 59 42 60 29 61 30 62 35 63 31 64 32 65 34 66
REMARK SMILES IDX 36 67 33 68 55 69 56 70 61 71 57 72 58 73 60 74 62 75 59 76
REMARK SMILES IDX 43 77 44 78 49 79 45 80 46 81 48 82 50 83 47 84
REMARK H PARENT 4 10 67 46 41 57
REMARK Flexibility Score: inf
ROOT
ATOM      1  C   UNL     1      -5.322   4.146   0.655  1.00  0.00     0.188 C 
ENDROOT
BRANCH   1   2
ATOM      2  O   UNL     1      -6.091   3.660   1.750  1.00  0.00    -0.376 OA
BRANCH   2   3
ATOM      3  C   UNL     1      -5.484   2.633   2.532  1.00  0.00     0.202 C 
BRANCH   3   4
ATOM      4  C   UNL     1      -5.388   1.243   1.882  1.00  0.00     0.261 C 
BRANCH   4   5
ATOM      5  O   UNL     1      -4.437   1.110   0.796  1.00  0.00    -0.459 OA
BRANCH   5   6
ATOM      6  C   UNL     1      -4.926   0.644  -0.385  1.00  0.00     0.361 C 
ATOM      7  O   UNL     1      -6.132   0.569  -0.622  1.00  0.00    -0.245 OA
BRANCH   6   8
ATOM      8  C   UNL     1      -3.913   0.086  -1.400  1.00  0.00     0.387 C 
BRANCH   8   9
ATOM      9  N   UNL     1      -2.452   0.325  -1.289  1.00  0.00    -0.313 N 
ATOM     10  H   UNL     1      -2.004  -0.349  -1.909  1.00  0.00     0.349 HD
BRANCH   9  11
ATOM     11  C   UNL     1      -1.915  -0.037   0.016  1.00  0.00     0.354 C 
BRANCH  11  12
ATOM     12  C   UNL     1      -0.396  -0.037   0.016  1.00  0.00    -0.047 C 
ATOM     13  C   UNL     1       0.908  -0.037   0.016  1.00  0.00     0.010 C 
ENDBRANCH  11  12
ENDBRANCH   9  11
BRANCH   9  14
ATOM     14  C   UNL     1      -1.980   1.581  -1.898  1.00  0.00     0.189 C 
ATOM     15  C   UNL     1      -2.208   2.693  -0.892  1.00  0.00     0.076 C 
BRANCH  14  16
ATOM     16  C   UNL     1      -0.512   1.712  -2.416  1.00  0.00     0.140 C 
BRANCH  16  17
ATOM     17  C   UNL     1      -0.038   0.819  -3.507  1.00  0.00     0.109 A 
ATOM     18  C   UNL     1       0.715   1.091  -4.634  1.00  0.00     0.046 A 
ATOM     19  O   UNL     1      -0.215  -0.525  -3.385  1.00  0.00    -0.469 OA
ATOM     20  C   UNL     1       1.016  -0.154  -5.230  1.00  0.00     0.042 A 
ATOM     21  C   UNL     1       0.425  -1.106  -4.433  1.00  0.00     0.195 A 
ENDBRANCH  16  17
ENDBRANCH  14  16
ENDBRANCH   9  14
ENDBRANCH   8   9
ENDBRANCH   6   8
ENDBRANCH   5   6
ENDBRANCH   4   5
ENDBRANCH   3   4
ENDBRANCH   2   3
ENDBRANCH   1   2
BRANCH   1  22
ATOM     22  C   UNL     1      -4.031   4.896   1.035  1.00  0.00     0.188 C 
BRANCH  22  23
ATOM     23  O   UNL     1      -3.063   4.018   1.593  1.00  0.00    -0.376 OA
BRANCH  23  24
ATOM     24  C   UNL     1      -1.756   4.494   1.916  1.00  0.00     0.202 C 
BRANCH  24  25
ATOM     25  C   UNL     1      -1.348   5.950   1.659  1.00  0.00     0.261 C 
BRANCH  25  26
ATOM     26  O   UNL     1      -1.709   6.458   0.365  1.00  0.00    -0.460 OA
BRANCH  26  27
ATOM     27  C   UNL     1      -1.018   6.029  -0.717  1.00  0.00     0.338 C 
ATOM     28  O   UNL     1      -0.004   5.355  -0.721  1.00  0.00    -0.246 OA
BRANCH  27  29
ATOM     29  C   UNL     1      -1.851   6.342  -1.909  1.00  0.00     0.060 A 
ATOM     30  C   UNL     1      -2.061   5.358  -2.882  1.00  0.00     0.016 A 
ATOM     31  C   UNL     1      -2.498   7.572  -2.031  1.00  0.00     0.016 A 
ATOM     32  C   UNL     1      -2.966   5.546  -3.919  1.00  0.00     0.010 A 
ATOM     33  C   UNL     1      -3.353   7.797  -3.112  1.00  0.00     0.010 A 
ATOM     34  C   UNL     1      -3.592   6.782  -4.054  1.00  0.00    -0.014 A 
BRANCH  34  35
ATOM     35  C   UNL     1      -4.315   7.080  -5.303  1.00  0.00     0.031 A 
ATOM     36  C   UNL     1      -3.553   7.758  -6.400  1.00  0.00     0.074 A 
ATOM     37  C   UNL     1      -5.598   6.721  -5.473  1.00  0.00     0.049 A 
ATOM     38  N   UNL     1      -3.989   8.278  -7.514  1.00  0.00    -0.248 NA
ATOM     39  C   UNL     1      -2.095   7.861  -6.211  1.00  0.00     0.031 C 
ATOM     40  C   UNL     1      -6.397   5.946  -4.525  1.00  0.00     0.029 A 
ATOM     41  N   UNL     1      -6.456   6.979  -6.510  1.00  0.00    -0.354 N 
ATOM     42  C   UNL     1      -2.867   8.794  -8.146  1.00  0.00     0.074 A 
ATOM     43  C   UNL     1      -1.730   8.525  -7.296  1.00  0.00     0.031 C 
ATOM     44  C   UNL     1      -7.644   5.820  -5.013  1.00  0.00     0.029 A 
ATOM     45  C   UNL     1      -7.739   6.553  -6.274  1.00  0.00     0.049 A 
ATOM     46  H   UNL     1      -6.179   7.427  -7.342  1.00  0.00     0.167 HD
ATOM     47  C   UNL     1      -2.800   9.444  -9.329  1.00  0.00     0.037 A 
ATOM     48  C   UNL     1      -8.867   6.783  -6.974  1.00  0.00     0.037 A 
ATOM     49  C   UNL     1      -3.940   9.700 -10.164  1.00  0.00     0.049 A 
ATOM     50  C   UNL     1      -8.789   7.618  -8.227  1.00  0.00     0.074 A 
ATOM     51  C   UNL     1      -3.989  10.358 -11.378  1.00  0.00     0.029 A 
ATOM     52  N   UNL     1      -5.237   9.309  -9.862  1.00  0.00    -0.354 N 
ATOM     53  N   UNL     1      -7.736   8.144  -8.807  1.00  0.00    -0.248 NA
ATOM     54  C   UNL     1     -10.057   7.910  -8.911  1.00  0.00     0.031 C 
ATOM     55  C   UNL     1      -5.325  10.411 -11.787  1.00  0.00     0.029 A 
ATOM     56  C   UNL     1      -6.100   9.741 -10.853  1.00  0.00     0.049 A 
ATOM     57  H   UNL     1      -5.502   8.800  -9.063  1.00  0.00     0.167 HD
ATOM     58  C   UNL     1      -8.210   8.809  -9.931  1.00  0.00     0.074 A 
ATOM     59  C   UNL     1      -9.645   8.609  -9.959  1.00  0.00     0.031 C 
ATOM     60  C   UNL     1      -7.524   9.523 -10.858  1.00  0.00     0.037 A 
BRANCH  47  61
ATOM     61  C   UNL     1      -1.463   9.973  -9.747  1.00  0.00     0.057 A 
ATOM     62  C   UNL     1      -0.435   9.135 -10.194  1.00  0.00     0.134 A 
ATOM     63  C   UNL     1      -1.207  11.350  -9.707  1.00  0.00     0.134 A 
ATOM     64  F   UNL     1      -0.607   7.805 -10.228  1.00  0.00    -0.206 F 
ATOM     65  C   UNL     1       0.807   9.647 -10.573  1.00  0.00     0.040 A 
ATOM     66  C   UNL     1       0.021  11.875 -10.107  1.00  0.00     0.040 A 
ATOM     67  F   UNL     1      -2.149  12.205  -9.280  1.00  0.00    -0.206 F 
ATOM     68  C   UNL     1       1.035  11.022 -10.537  1.00  0.00     0.006 A 
ENDBRANCH  47  61
BRANCH  48  69
ATOM     69  C   UNL     1     -10.173   6.284  -6.476  1.00  0.00     0.057 A 
ATOM     70  C   UNL     1     -10.894   5.307  -7.172  1.00  0.00     0.134 A 
ATOM     71  C   UNL     1     -10.749   6.796  -5.306  1.00  0.00     0.134 A 
ATOM     72  F   UNL     1     -10.410   4.799  -8.315  1.00  0.00    -0.206 F 
ATOM     73  C   UNL     1     -12.145   4.869  -6.733  1.00  0.00     0.040 A 
ATOM     74  C   UNL     1     -11.986   6.348  -4.840  1.00  0.00     0.040 A 
ATOM     75  F   UNL     1     -10.115   7.740  -4.595  1.00  0.00    -0.206 F 
ATOM     76  C   UNL     1     -12.691   5.386  -5.559  1.00  0.00     0.006 A 
ENDBRANCH  48  69
BRANCH  60  77
ATOM     77  C   UNL     1      -8.308  10.118 -11.990  1.00  0.00     0.057 A 
ATOM     78  C   UNL     1      -9.127  11.239 -11.810  1.00  0.00     0.134 A 
ATOM     79  C   UNL     1      -8.186   9.604 -13.287  1.00  0.00     0.134 A 
ATOM     80  F   UNL     1      -9.293  11.771 -10.589  1.00  0.00    -0.206 F 
ATOM     81  C   UNL     1      -9.809  11.820 -12.880  1.00  0.00     0.040 A 
ATOM     82  C   UNL     1      -8.842  10.192 -14.369  1.00  0.00     0.040 A 
ATOM     83  F   UNL     1      -7.407   8.538 -13.528  1.00  0.00    -0.206 F 
ATOM     84  C   UNL     1      -9.659  11.302 -14.165  1.00  0.00     0.006 A 
ENDBRANCH  60  77
ENDBRANCH  34  35
ENDBRANCH  27  29
ENDBRANCH  26  27
ENDBRANCH  25  26
ENDBRANCH  24  25
ENDBRANCH  23  24
ENDBRANCH  22  23
ENDBRANCH   1  22
TORSDOF 23
