REMARK SMILES COc1cc([C@@H]2CC(=O)Nc3c(C(=O)OCCOCCOCCOC(=O)c4ccc(-c5c6nc(c(-c7c(F)cccc7F)c7ccc([nH]7)c(-c7c(F)cccc7F)c7nc(c(-c8c(F)cccc8F)c8ccc5[nH]8)C=C7)C=C6)cc4)cn(-c4ccc(F)cc4)c32)c(OC)c2c1OCO2
REMARK SMILES IDX 19 1 18 2 17 3 16 4 15 5 13 6 14 7 12 8 6 9 7 10 90 11 8 12
REMARK SMILES IDX 11 13 82 14 9 15 10 16 81 17 5 19 3 20 4 21 95 22 94 23
REMARK SMILES IDX 96 24 91 25 98 26 97 27 2 28 1 29 92 30 93 31 83 32 84 33
REMARK SMILES IDX 89 34 85 35 88 36 86 37 87 38 20 39 21 40 22 41 23 42 24 43
REMARK SMILES IDX 25 44 26 45 27 46 28 47 80 48 29 49 79 50 30 51 31 52 32 53
REMARK SMILES IDX 73 54 33 55 78 56 72 57 74 58 34 59 77 60 71 61 70 62 35 64
REMARK SMILES IDX 61 65 44 66 60 67 45 68 48 69 59 70 75 71 46 72 47 73 58 75
REMARK SMILES IDX 76 76 49 77 36 78 37 79 42 80 38 81 39 82 41 83 43 84 40 85
REMARK SMILES IDX 62 86 63 87 68 88 64 89 65 90 67 91 69 92 66 93 50 94 51 95
REMARK SMILES IDX 56 96 52 97 53 98 55 99 57 100 54 101
REMARK H PARENT 10 18 74 63 48 74
REMARK Flexibility Score: inf
ROOT
ATOM      1  C   UNL     1      -2.258  -0.435 -11.015  1.00  0.00     0.188 C 
ENDROOT
BRANCH   1   2
ATOM      2  O   UNL     1      -1.596  -0.128 -12.237  1.00  0.00    -0.376 OA
BRANCH   2   3
ATOM      3  C   UNL     1      -0.359  -0.744 -12.572  1.00  0.00     0.202 C 
BRANCH   3   4
ATOM      4  C   UNL     1       0.832  -0.749 -11.592  1.00  0.00     0.261 C 
BRANCH   4   5
ATOM      5  O   UNL     1       0.540  -1.139 -10.243  1.00  0.00    -0.460 OA
BRANCH   5   6
ATOM      6  C   UNL     1       0.399  -0.122  -9.353  1.00  0.00     0.341 C 
ATOM      7  O   UNL     1       0.636   1.061  -9.607  1.00  0.00    -0.246 OA
BRANCH   6   8
ATOM      8  C   UNL     1      -0.187  -0.540  -8.090  1.00  0.00     0.102 A 
ATOM      9  C   UNL     1      -0.561  -2.607  -5.052  1.00  0.00     0.082 C 
ATOM     10  C   UNL     1      -0.425  -4.016  -5.653  1.00  0.00     0.115 C 
ATOM     11  C   UNL     1      -0.674  -1.602  -6.157  1.00  0.00     0.055 A 
ATOM     12  C   UNL     1       0.348  -4.103  -6.967  1.00  0.00     0.225 C 
ATOM     13  C   UNL     1      -0.166  -1.789  -7.422  1.00  0.00     0.078 A 
ATOM     14  N   UNL     1      -1.273  -0.363  -6.120  1.00  0.00    -0.317 N 
ATOM     15  O   UNL     1       0.878  -5.158  -7.324  1.00  0.00    -0.275 OA
ATOM     16  N   UNL     1       0.346  -3.009  -7.800  1.00  0.00    -0.324 N 
ATOM     17  C   UNL     1      -0.972   0.286  -7.295  1.00  0.00     0.109 A 
ATOM     18  H   UNL     1       0.727  -3.102  -8.703  1.00  0.00     0.170 HD
BRANCH   9  19
ATOM     19  C   UNL     1       0.565  -2.264  -4.062  1.00  0.00     0.012 A 
ATOM     20  C   UNL     1       1.123  -1.606  -1.762  1.00  0.00     0.165 A 
ATOM     21  C   UNL     1       0.212  -2.101  -2.698  1.00  0.00     0.059 A 
ATOM     22  C   UNL     1       2.417  -1.371  -2.182  1.00  0.00     0.211 A 
ATOM     23  C   UNL     1       2.800  -1.583  -3.491  1.00  0.00     0.211 A 
ATOM     24  O   UNL     1       3.452  -0.933  -1.409  1.00  0.00    -0.449 OA
ATOM     25  C   UNL     1       1.906  -2.025  -4.456  1.00  0.00     0.168 A 
ATOM     26  O   UNL     1       4.119  -1.288  -3.679  1.00  0.00    -0.449 OA
ATOM     27  C   UNL     1       4.536  -0.954  -2.349  1.00  0.00     0.468 C 
BRANCH  20  28
ATOM     28  O   UNL     1       0.648  -1.413  -0.497  1.00  0.00    -0.493 OA
ATOM     29  C   UNL     1       1.017  -0.154   0.064  1.00  0.00     0.278 C 
ENDBRANCH  20  28
BRANCH  25  30
ATOM     30  O   UNL     1       2.200  -2.251  -5.763  1.00  0.00    -0.492 OA
ATOM     31  C   UNL     1       3.505  -1.997  -6.257  1.00  0.00     0.278 C 
ENDBRANCH  25  30
ENDBRANCH   9  19
BRANCH  14  32
ATOM     32  C   UNL     1      -2.054   0.181  -5.084  1.00  0.00     0.046 A 
ATOM     33  C   UNL     1      -1.452   0.483  -3.862  1.00  0.00     0.029 A 
ATOM     34  C   UNL     1      -3.422   0.393  -5.288  1.00  0.00     0.029 A 
ATOM     35  C   UNL     1      -2.237   0.934  -2.804  1.00  0.00     0.041 A 
ATOM     36  C   UNL     1      -4.202   0.846  -4.222  1.00  0.00     0.041 A 
ATOM     37  C   UNL     1      -3.605   1.101  -2.989  1.00  0.00     0.123 A 
ATOM     38  F   UNL     1      -4.360   1.515  -1.963  1.00  0.00    -0.207 F 
ENDBRANCH  14  32
ENDBRANCH   6   8
ENDBRANCH   5   6
ENDBRANCH   4   5
ENDBRANCH   3   4
ENDBRANCH   2   3
ENDBRANCH   1   2
BRANCH   1  39
ATOM     39  C   UNL     1      -2.316  -1.884 -10.481  1.00  0.00     0.188 C 
BRANCH  39  40
ATOM     40  O   UNL     1      -1.443  -2.778 -11.137  1.00  0.00    -0.376 OA
BRANCH  40  41
ATOM     41  C   UNL     1      -1.959  -3.789 -11.986  1.00  0.00     0.202 C 
BRANCH  41  42
ATOM     42  C   UNL     1      -3.038  -3.498 -13.033  1.00  0.00     0.261 C 
BRANCH  42  43
ATOM     43  O   UNL     1      -3.825  -2.343 -12.811  1.00  0.00    -0.460 OA
BRANCH  43  44
ATOM     44  C   UNL     1      -4.890  -2.533 -12.013  1.00  0.00     0.338 C 
ATOM     45  O   UNL     1      -5.129  -3.514 -11.322  1.00  0.00    -0.246 OA
BRANCH  44  46
ATOM     46  C   UNL     1      -5.785  -1.382 -12.143  1.00  0.00     0.060 A 
ATOM     47  C   UNL     1      -6.842  -1.308 -11.236  1.00  0.00     0.016 A 
ATOM     48  C   UNL     1      -5.750  -0.621 -13.322  1.00  0.00     0.016 A 
ATOM     49  C   UNL     1      -7.994  -0.683 -11.646  1.00  0.00     0.010 A 
ATOM     50  C   UNL     1      -6.907  -0.010 -13.738  1.00  0.00     0.010 A 
ATOM     51  C   UNL     1      -8.038  -0.152 -12.940  1.00  0.00    -0.014 A 
BRANCH  51  52
ATOM     52  C   UNL     1      -9.341   0.181 -13.461  1.00  0.00     0.031 A 
ATOM     53  C   UNL     1      -9.900   1.443 -12.949  1.00  0.00     0.074 A 
ATOM     54  C   UNL     1      -9.957  -0.597 -14.369  1.00  0.00     0.049 A 
ATOM     55  N   UNL     1     -10.940   1.599 -12.201  1.00  0.00    -0.248 NA
ATOM     56  C   UNL     1      -9.132   2.670 -13.197  1.00  0.00     0.031 C 
ATOM     57  C   UNL     1      -9.397  -1.696 -15.160  1.00  0.00     0.029 A 
ATOM     58  N   UNL     1     -11.220  -0.480 -14.853  1.00  0.00    -0.354 N 
ATOM     59  C   UNL     1     -11.066   2.971 -12.027  1.00  0.00     0.074 A 
ATOM     60  C   UNL     1      -9.853   3.567 -12.526  1.00  0.00     0.031 C 
ATOM     61  C   UNL     1     -10.240  -1.974 -16.180  1.00  0.00     0.029 A 
ATOM     62  C   UNL     1     -11.438  -1.162 -16.038  1.00  0.00     0.049 A 
ATOM     63  H   UNL     1     -11.920   0.044 -14.401  1.00  0.00     0.167 HD
ATOM     64  C   UNL     1     -12.255   3.535 -11.690  1.00  0.00     0.037 A 
ATOM     65  C   UNL     1     -12.484  -0.969 -16.878  1.00  0.00     0.037 A 
ATOM     66  C   UNL     1     -13.175   2.571 -11.148  1.00  0.00     0.049 A 
ATOM     67  C   UNL     1     -13.556  -0.278 -16.111  1.00  0.00     0.074 A 
ATOM     68  C   UNL     1     -13.153   1.717 -10.062  1.00  0.00     0.029 A 
ATOM     69  N   UNL     1     -14.194   2.123 -11.952  1.00  0.00    -0.354 N 
ATOM     70  N   UNL     1     -14.262  -0.835 -15.167  1.00  0.00    -0.248 NA
ATOM     71  C   UNL     1     -13.549   1.180 -16.100  1.00  0.00     0.031 C 
ATOM     72  C   UNL     1     -13.824   0.539 -10.501  1.00  0.00     0.029 A 
ATOM     73  C   UNL     1     -14.244   0.759 -11.812  1.00  0.00     0.049 A 
ATOM     74  H   UNL     1     -14.777   2.675 -12.521  1.00  0.00     0.167 HD
ATOM     75  C   UNL     1     -14.426   0.158 -14.212  1.00  0.00     0.074 A 
ATOM     76  C   UNL     1     -14.053   1.400 -14.883  1.00  0.00     0.031 C 
ATOM     77  C   UNL     1     -14.569  -0.147 -12.888  1.00  0.00     0.037 A 
BRANCH  64  78
ATOM     78  C   UNL     1     -12.691   4.886 -12.179  1.00  0.00     0.057 A 
ATOM     79  C   UNL     1     -13.812   5.501 -11.601  1.00  0.00     0.134 A 
ATOM     80  C   UNL     1     -12.226   5.472 -13.375  1.00  0.00     0.134 A 
ATOM     81  F   UNL     1     -14.360   5.013 -10.478  1.00  0.00    -0.206 F 
ATOM     82  C   UNL     1     -14.457   6.587 -12.200  1.00  0.00     0.040 A 
ATOM     83  C   UNL     1     -12.828   6.591 -13.951  1.00  0.00     0.040 A 
ATOM     84  F   UNL     1     -11.237   4.934 -14.100  1.00  0.00    -0.206 F 
ATOM     85  C   UNL     1     -13.967   7.134 -13.381  1.00  0.00     0.006 A 
ENDBRANCH  64  78
BRANCH  65  86
ATOM     86  C   UNL     1     -12.490  -1.035 -18.357  1.00  0.00     0.057 A 
ATOM     87  C   UNL     1     -13.697  -1.051 -19.070  1.00  0.00     0.134 A 
ATOM     88  C   UNL     1     -11.328  -0.814 -19.120  1.00  0.00     0.134 A 
ATOM     89  F   UNL     1     -14.864  -1.215 -18.429  1.00  0.00    -0.206 F 
ATOM     90  C   UNL     1     -13.750  -0.831 -20.452  1.00  0.00     0.040 A 
ATOM     91  C   UNL     1     -11.366  -0.607 -20.502  1.00  0.00     0.040 A 
ATOM     92  F   UNL     1     -10.124  -0.699 -18.542  1.00  0.00    -0.206 F 
ATOM     93  C   UNL     1     -12.582  -0.598 -21.171  1.00  0.00     0.006 A 
ENDBRANCH  65  86
BRANCH  77  94
ATOM     94  C   UNL     1     -14.814  -1.582 -12.518  1.00  0.00     0.057 A 
ATOM     95  C   UNL     1     -13.911  -2.623 -12.780  1.00  0.00     0.134 A 
ATOM     96  C   UNL     1     -15.937  -1.898 -11.745  1.00  0.00     0.134 A 
ATOM     97  F   UNL     1     -12.754  -2.395 -13.415  1.00  0.00    -0.206 F 
ATOM     98  C   UNL     1     -14.146  -3.930 -12.342  1.00  0.00     0.040 A 
ATOM     99  C   UNL     1     -16.164  -3.192 -11.270  1.00  0.00     0.040 A 
ATOM    100  F   UNL     1     -16.813  -0.941 -11.400  1.00  0.00    -0.206 F 
ATOM    101  C   UNL     1     -15.274  -4.216 -11.580  1.00  0.00     0.006 A 
ENDBRANCH  77  94
ENDBRANCH  51  52
ENDBRANCH  44  46
ENDBRANCH  43  44
ENDBRANCH  42  43
ENDBRANCH  41  42
ENDBRANCH  40  41
ENDBRANCH  39  40
ENDBRANCH   1  39
TORSDOF 21
