REMARK SMILES CCN(CCC(=O)OCCOCCOCCOC(=O)c1ccc(-c2c3nc(c(-c4c(F)cccc4F)c4ccc([nH]4)c(-c4c(F)cccc4F)c4nc(c(-c5c(F)cccc5F)c5ccc2[nH]5)C=C4)C=C3)cc1)C(=O)c1cc(Cl)ccc1F
REMARK SMILES IDX 12 1 11 2 10 3 9 4 8 5 6 6 7 7 5 8 4 9 3 10 2 11 1 12 74 13
REMARK SMILES IDX 75 14 76 15 77 16 82 17 78 18 81 19 83 20 79 21 80 22 13 23
REMARK SMILES IDX 14 24 15 25 16 26 17 27 18 28 19 29 20 30 21 31 73 32 22 33
REMARK SMILES IDX 72 34 23 35 24 36 25 37 66 38 26 39 71 40 65 41 67 42 27 43
REMARK SMILES IDX 70 44 64 45 63 46 28 48 54 49 37 50 53 51 38 52 41 53 52 54
REMARK SMILES IDX 68 55 39 56 40 57 51 59 69 60 42 61 29 62 30 63 35 64 31 65
REMARK SMILES IDX 32 66 34 67 36 68 33 69 55 70 56 71 61 72 57 73 58 74 60 75
REMARK SMILES IDX 62 76 59 77 43 78 44 79 49 80 45 81 46 82 48 83 50 84 47 85
REMARK H PARENT 67 47 41 58
REMARK Flexibility Score: inf
ROOT
ATOM      1  C   UNL     1       2.842   1.179   5.561  1.00  0.00     0.188 C 
ENDROOT
BRANCH   1   2
ATOM      2  O   UNL     1       3.845   0.041   5.254  1.00  0.00    -0.376 OA
BRANCH   2   3
ATOM      3  C   UNL     1       4.296  -1.911   5.251  1.00  0.00     0.202 C 
BRANCH   3   4
ATOM      4  C   UNL     1       3.322  -3.314   5.077  1.00  0.00     0.261 C 
BRANCH   4   5
ATOM      5  O   UNL     1       2.095  -3.485   5.839  1.00  0.00    -0.463 OA
BRANCH   5   6
ATOM      6  C   UNL     1       0.795  -3.462   5.431  1.00  0.00     0.307 C 
ATOM      7  O   UNL     1      -0.078  -3.619   6.289  1.00  0.00    -0.252 OA
BRANCH   6   8
ATOM      8  C   UNL     1       0.388  -3.262   3.961  1.00  0.00     0.144 C 
BRANCH   8   9
ATOM      9  C   UNL     1       0.241  -1.887   3.246  1.00  0.00     0.131 C 
BRANCH   9  10
ATOM     10  N   UNL     1       1.247  -1.569   2.209  1.00  0.00    -0.338 N 
BRANCH  10  11
ATOM     11  C   UNL     1       0.752  -1.576   0.823  1.00  0.00     0.116 C 
ATOM     12  C   UNL     1       0.618  -0.175   0.228  1.00  0.00     0.027 C 
ENDBRANCH  10  11
BRANCH  10  13
ATOM     13  C   UNL     1       2.570  -1.134   2.374  1.00  0.00     0.256 C 
ATOM     14  O   UNL     1       3.332  -1.011   1.410  1.00  0.00    -0.269 OA
BRANCH  13  15
ATOM     15  C   UNL     1       3.176  -0.849   3.686  1.00  0.00     0.077 A 
ATOM     16  C   UNL     1       4.910  -0.298   3.706  1.00  0.00     0.037 A 
ATOM     17  C   UNL     1       2.329  -1.099   5.278  1.00  0.00     0.136 A 
ATOM     18  C   UNL     1       5.751  -0.082   5.286  1.00  0.00     0.042 A 
ATOM     19  C   UNL     1       3.219  -0.933   6.852  1.00  0.00     0.041 A 
ATOM     20  F   UNL     1       1.011  -1.080   5.430  1.00  0.00    -0.206 F 
ATOM     21  Cl  UNL     1       7.333   0.594   5.350  1.00  0.00    -0.084 Cl
ATOM     22  C   UNL     1       4.913  -0.375   6.845  1.00  0.00     0.023 A 
ENDBRANCH  13  15
ENDBRANCH  10  13
ENDBRANCH   9  10
ENDBRANCH   8   9
ENDBRANCH   6   8
ENDBRANCH   5   6
ENDBRANCH   4   5
ENDBRANCH   3   4
ENDBRANCH   2   3
ENDBRANCH   1   2
BRANCH   1  23
ATOM     23  C   UNL     1       2.288   1.871   4.289  1.00  0.00     0.188 C 
BRANCH  23  24
ATOM     24  O   UNL     1       3.245   2.464   3.420  1.00  0.00    -0.376 OA
BRANCH  24  25
ATOM     25  C   UNL     1       4.239   3.291   4.020  1.00  0.00     0.202 C 
BRANCH  25  26
ATOM     26  C   UNL     1       3.732   4.646   4.521  1.00  0.00     0.261 C 
BRANCH  26  27
ATOM     27  O   UNL     1       2.917   4.494   5.698  1.00  0.00    -0.460 OA
BRANCH  27  28
ATOM     28  C   UNL     1       1.607   4.812   5.541  1.00  0.00     0.338 C 
ATOM     29  O   UNL     1       1.066   5.267   4.559  1.00  0.00    -0.246 OA
BRANCH  28  30
ATOM     30  C   UNL     1       0.853   4.340   6.721  1.00  0.00     0.060 A 
ATOM     31  C   UNL     1      -0.336   3.631   6.497  1.00  0.00     0.016 A 
ATOM     32  C   UNL     1       1.252   4.676   8.016  1.00  0.00     0.016 A 
ATOM     33  C   UNL     1      -1.177   3.329   7.564  1.00  0.00     0.010 A 
ATOM     34  C   UNL     1       0.400   4.393   9.083  1.00  0.00     0.010 A 
ATOM     35  C   UNL     1      -0.842   3.776   8.848  1.00  0.00    -0.014 A 
BRANCH  35  36
ATOM     36  C   UNL     1      -1.903   3.871   9.874  1.00  0.00     0.031 A 
ATOM     37  C   UNL     1      -2.659   5.169   9.972  1.00  0.00     0.074 A 
ATOM     38  C   UNL     1      -2.197   2.837  10.677  1.00  0.00     0.049 A 
ATOM     39  N   UNL     1      -3.567   5.542  10.834  1.00  0.00    -0.248 NA
ATOM     40  C   UNL     1      -2.342   6.187   8.953  1.00  0.00     0.031 C 
ATOM     41  C   UNL     1      -1.567   1.520  10.627  1.00  0.00     0.029 A 
ATOM     42  N   UNL     1      -3.099   2.744  11.704  1.00  0.00    -0.354 N 
ATOM     43  C   UNL     1      -3.929   6.832  10.462  1.00  0.00     0.074 A 
ATOM     44  C   UNL     1      -3.124   7.191   9.317  1.00  0.00     0.031 C 
ATOM     45  C   UNL     1      -2.085   0.754  11.605  1.00  0.00     0.029 A 
ATOM     46  C   UNL     1      -3.058   1.540  12.362  1.00  0.00     0.049 A 
ATOM     47  H   UNL     1      -3.717   3.471  11.947  1.00  0.00     0.167 HD
ATOM     48  C   UNL     1      -4.857   7.641  11.021  1.00  0.00     0.037 A 
ATOM     49  C   UNL     1      -3.713   1.140  13.468  1.00  0.00     0.037 A 
ATOM     50  C   UNL     1      -5.637   7.283  12.172  1.00  0.00     0.049 A 
ATOM     51  C   UNL     1      -4.683   2.089  14.124  1.00  0.00     0.074 A 
ATOM     52  C   UNL     1      -6.581   8.035  12.848  1.00  0.00     0.029 A 
ATOM     53  N   UNL     1      -5.556   6.059  12.820  1.00  0.00    -0.354 N 
ATOM     54  N   UNL     1      -5.012   3.310  13.774  1.00  0.00    -0.248 NA
ATOM     55  C   UNL     1      -5.373   1.605  15.327  1.00  0.00     0.031 C 
ATOM     56  C   UNL     1      -7.048   7.275  13.926  1.00  0.00     0.029 A 
ATOM     57  C   UNL     1      -6.426   6.036  13.895  1.00  0.00     0.049 A 
ATOM     58  H   UNL     1      -4.966   5.317  12.554  1.00  0.00     0.167 HD
ATOM     59  C   UNL     1      -5.964   3.729  14.695  1.00  0.00     0.074 A 
ATOM     60  C   UNL     1      -6.169   2.626  15.612  1.00  0.00     0.031 C 
ATOM     61  C   UNL     1      -6.613   4.916  14.780  1.00  0.00     0.037 A 
BRANCH  48  62
ATOM     62  C   UNL     1      -5.050   8.994  10.403  1.00  0.00     0.057 A 
ATOM     63  C   UNL     1      -5.682   9.153   9.162  1.00  0.00     0.134 A 
ATOM     64  C   UNL     1      -4.602  10.150  11.053  1.00  0.00     0.134 A 
ATOM     65  F   UNL     1      -6.113   8.083   8.477  1.00  0.00    -0.206 F 
ATOM     66  C   UNL     1      -5.844  10.412   8.581  1.00  0.00     0.040 A 
ATOM     67  C   UNL     1      -4.779  11.417  10.492  1.00  0.00     0.040 A 
ATOM     68  F   UNL     1      -3.985  10.069  12.240  1.00  0.00    -0.206 F 
ATOM     69  C   UNL     1      -5.397  11.549   9.250  1.00  0.00     0.006 A 
ENDBRANCH  48  62
BRANCH  49  70
ATOM     70  C   UNL     1      -3.458  -0.204  14.043  1.00  0.00     0.057 A 
ATOM     71  C   UNL     1      -4.437  -1.204  14.026  1.00  0.00     0.134 A 
ATOM     72  C   UNL     1      -2.233  -0.513  14.650  1.00  0.00     0.134 A 
ATOM     73  F   UNL     1      -5.638  -0.961  13.481  1.00  0.00    -0.206 F 
ATOM     74  C   UNL     1      -4.217  -2.454  14.607  1.00  0.00     0.040 A 
ATOM     75  C   UNL     1      -1.991  -1.768  15.213  1.00  0.00     0.040 A 
ATOM     76  F   UNL     1      -1.253   0.400  14.700  1.00  0.00    -0.206 F 
ATOM     77  C   UNL     1      -2.988  -2.740  15.199  1.00  0.00     0.006 A 
ENDBRANCH  49  70
BRANCH  61  78
ATOM     78  C   UNL     1      -7.627   5.063  15.874  1.00  0.00     0.057 A 
ATOM     79  C   UNL     1      -7.250   5.232  17.212  1.00  0.00     0.134 A 
ATOM     80  C   UNL     1      -8.996   5.078  15.576  1.00  0.00     0.134 A 
ATOM     81  F   UNL     1      -5.955   5.216  17.561  1.00  0.00    -0.206 F 
ATOM     82  C   UNL     1      -8.202   5.389  18.220  1.00  0.00     0.040 A 
ATOM     83  C   UNL     1      -9.955   5.259  16.572  1.00  0.00     0.040 A 
ATOM     84  F   UNL     1      -9.420   4.932  14.312  1.00  0.00    -0.206 F 
ATOM     85  C   UNL     1      -9.559   5.409  17.900  1.00  0.00     0.006 A 
ENDBRANCH  61  78
ENDBRANCH  35  36
ENDBRANCH  28  30
ENDBRANCH  27  28
ENDBRANCH  26  27
ENDBRANCH  25  26
ENDBRANCH  24  25
ENDBRANCH  23  24
ENDBRANCH   1  23
TORSDOF 22
