REMARK SMILES CN1C(=O)C[C@H](C(=O)Nc2ccc(C(=O)OCCOCCOCCOC(=O)c3ccc(-c4c5nc(c(-c6c(F)cccc6F)c6ccc([nH]6)c(-c6c(F)cccc6F)c6nc(c(-c7c(F)cccc7F)c7ccc4[nH]7)C=C6)C=C5)cc3)cc2)S/C1=[NH+]\c1cccc(C(F)(F)F)c1
REMARK SMILES IDX 20 1 19 2 18 3 17 4 16 5 14 6 15 7 13 8 10 9 11 10 83 11
REMARK SMILES IDX 12 12 82 13 9 14 7 15 8 16 6 18 1 19 2 20 3 21 85 22 4 23
REMARK SMILES IDX 5 24 84 25 86 26 87 28 88 29 96 30 89 31 91 32 90 33 92 34
REMARK SMILES IDX 93 35 94 36 95 37 21 38 22 39 23 40 24 41 25 42 26 43 27 44
REMARK SMILES IDX 28 45 29 46 81 47 30 48 80 49 31 50 32 51 33 52 74 53 34 54
REMARK SMILES IDX 79 55 73 56 75 57 35 58 78 59 72 60 71 61 36 63 62 64 45 65
REMARK SMILES IDX 61 66 46 67 49 68 60 69 76 70 47 71 48 72 59 74 77 75 50 76
REMARK SMILES IDX 37 77 38 78 43 79 39 80 40 81 42 82 44 83 41 84 63 85 64 86
REMARK SMILES IDX 69 87 65 88 66 89 68 90 70 91 67 92 51 93 52 94 57 95 53 96
REMARK SMILES IDX 54 97 56 98 58 99 55 100
REMARK H PARENT 9 17 86 27 75 62 49 73
REMARK Flexibility Score: inf
ROOT
ATOM      1  C   UNL     1      -2.211  -1.583   3.817  1.00  0.00     0.188 C 
ENDROOT
BRANCH   1   2
ATOM      2  O   UNL     1      -1.329  -1.981   4.846  1.00  0.00    -0.376 OA
BRANCH   2   3
ATOM      3  C   UNL     1       0.071  -1.804   4.706  1.00  0.00     0.202 C 
BRANCH   3   4
ATOM      4  C   UNL     1       0.798  -2.093   3.385  1.00  0.00     0.261 C 
BRANCH   4   5
ATOM      5  O   UNL     1       0.250  -1.427   2.236  1.00  0.00    -0.460 OA
BRANCH   5   6
ATOM      6  C   UNL     1      -0.395  -2.236   1.358  1.00  0.00     0.338 C 
ATOM      7  O   UNL     1      -0.481  -3.451   1.434  1.00  0.00    -0.246 OA
BRANCH   6   8
ATOM      8  C   UNL     1      -1.133  -1.448   0.331  1.00  0.00     0.060 A 
ATOM      9  C   UNL     1      -2.090  -0.420  -2.045  1.00  0.00     0.041 A 
ATOM     10  C   UNL     1      -2.765  -1.482  -1.440  1.00  0.00     0.027 A 
ATOM     11  C   UNL     1      -1.222   0.344  -1.287  1.00  0.00     0.027 A 
ATOM     12  C   UNL     1      -2.234  -2.045  -0.281  1.00  0.00     0.018 A 
ATOM     13  C   UNL     1      -0.763  -0.159  -0.067  1.00  0.00     0.018 A 
BRANCH   9  14
ATOM     14  N   UNL     1      -2.296  -0.223  -3.409  1.00  0.00    -0.325 N 
ATOM     15  C   UNL     1      -1.449  -0.071  -4.466  1.00  0.00     0.238 C 
ATOM     16  O   UNL     1      -2.029   0.032  -5.561  1.00  0.00    -0.273 OA
ATOM     17  H   UNL     1      -3.247  -0.186  -3.660  1.00  0.00     0.169 HD
BRANCH  15  18
ATOM     18  C   UNL     1       0.089  -0.139  -4.482  1.00  0.00     0.160 C 
ATOM     19  C   UNL     1       2.282  -0.826  -0.718  1.00  0.00     0.301 C 
ATOM     20  N   UNL     1       1.622  -0.689  -2.018  1.00  0.00    -0.194 N 
ATOM     21  C   UNL     1       1.598   0.612  -2.517  1.00  0.00     0.311 C 
ATOM     22  C   UNL     1       1.008  -1.814  -2.582  1.00  0.00     0.319 C 
ATOM     23  O   UNL     1       2.074   1.564  -1.887  1.00  0.00    -0.247 OA
ATOM     24  C   UNL     1       0.943   0.914  -3.840  1.00  0.00     0.153 C 
ATOM     25  S   UNL     1       0.763  -1.779  -4.300  1.00  0.00    -0.024 SA
ATOM     26  N   UNL     1       0.697  -2.828  -1.840  1.00  0.00    -0.235 N 
ATOM     27  H   UNL     1       0.912  -2.788  -0.880  1.00  0.00     0.313 HD
BRANCH  26  28
ATOM     28  C   UNL     1       0.068  -3.982  -2.336  1.00  0.00     0.126 A 
ATOM     29  C   UNL     1      -1.223  -3.991  -2.878  1.00  0.00     0.052 A 
ATOM     30  C   UNL     1       0.739  -5.192  -2.225  1.00  0.00     0.064 A 
ATOM     31  C   UNL     1      -1.855  -5.172  -3.263  1.00  0.00     0.005 A 
ATOM     32  C   UNL     1       0.155  -6.384  -2.682  1.00  0.00     0.060 A 
ATOM     33  C   UNL     1      -1.162  -6.370  -3.169  1.00  0.00     0.013 A 
BRANCH  32  34
ATOM     34  C   UNL     1       0.949  -7.659  -2.700  1.00  0.00     0.416 C 
ATOM     35  F   UNL     1       0.410  -8.628  -1.914  1.00  0.00    -0.166 F 
ATOM     36  F   UNL     1       1.025  -8.191  -3.953  1.00  0.00    -0.166 F 
ATOM     37  F   UNL     1       2.237  -7.506  -2.285  1.00  0.00    -0.166 F 
ENDBRANCH  32  34
ENDBRANCH  26  28
ENDBRANCH  15  18
ENDBRANCH   9  14
ENDBRANCH   6   8
ENDBRANCH   5   6
ENDBRANCH   4   5
ENDBRANCH   3   4
ENDBRANCH   2   3
ENDBRANCH   1   2
BRANCH   1  38
ATOM     38  C   UNL     1      -2.152  -0.153   3.244  1.00  0.00     0.188 C 
BRANCH  38  39
ATOM     39  O   UNL     1      -1.279   0.808   3.779  1.00  0.00    -0.376 OA
BRANCH  39  40
ATOM     40  C   UNL     1      -1.511   1.273   5.094  1.00  0.00     0.202 C 
BRANCH  40  41
ATOM     41  C   UNL     1      -2.921   1.389   5.710  1.00  0.00     0.261 C 
BRANCH  41  42
ATOM     42  O   UNL     1      -3.883   0.381   5.355  1.00  0.00    -0.460 OA
BRANCH  42  43
ATOM     43  C   UNL     1      -4.884   0.783   4.519  1.00  0.00     0.338 C 
ATOM     44  O   UNL     1      -5.062   1.893   4.066  1.00  0.00    -0.246 OA
BRANCH  43  45
ATOM     45  C   UNL     1      -5.622  -0.413   4.044  1.00  0.00     0.060 A 
ATOM     46  C   UNL     1      -5.570  -0.769   2.684  1.00  0.00     0.016 A 
ATOM     47  C   UNL     1      -6.382  -1.162   4.937  1.00  0.00     0.016 A 
ATOM     48  C   UNL     1      -6.292  -1.869   2.212  1.00  0.00     0.010 A 
ATOM     49  C   UNL     1      -7.132  -2.239   4.458  1.00  0.00     0.010 A 
ATOM     50  C   UNL     1      -7.115  -2.582   3.092  1.00  0.00    -0.014 A 
BRANCH  50  51
ATOM     51  C   UNL     1      -8.142  -3.527   2.586  1.00  0.00     0.031 A 
ATOM     52  C   UNL     1      -9.548  -3.013   2.435  1.00  0.00     0.074 A 
ATOM     53  C   UNL     1      -7.863  -4.814   2.317  1.00  0.00     0.049 A 
ATOM     54  N   UNL     1     -10.659  -3.669   2.227  1.00  0.00    -0.248 NA
ATOM     55  C   UNL     1      -9.720  -1.554   2.549  1.00  0.00     0.031 C 
ATOM     56  C   UNL     1      -6.538  -5.426   2.355  1.00  0.00     0.029 A 
ATOM     57  N   UNL     1      -8.704  -5.851   1.986  1.00  0.00    -0.354 N 
ATOM     58  C   UNL     1     -11.662  -2.708   2.199  1.00  0.00     0.074 A 
ATOM     59  C   UNL     1     -11.033  -1.428   2.441  1.00  0.00     0.031 C 
ATOM     60  C   UNL     1      -6.658  -6.741   2.092  1.00  0.00     0.029 A 
ATOM     61  C   UNL     1      -8.073  -7.070   1.917  1.00  0.00     0.049 A 
ATOM     62  H   UNL     1      -9.666  -5.731   1.815  1.00  0.00     0.167 HD
ATOM     63  C   UNL     1     -12.988  -2.875   1.988  1.00  0.00     0.037 A 
ATOM     64  C   UNL     1      -8.587  -8.308   1.774  1.00  0.00     0.037 A 
ATOM     65  C   UNL     1     -13.615  -4.149   1.764  1.00  0.00     0.049 A 
ATOM     66  C   UNL     1     -10.084  -8.483   1.660  1.00  0.00     0.074 A 
ATOM     67  C   UNL     1     -14.955  -4.428   1.563  1.00  0.00     0.029 A 
ATOM     68  N   UNL     1     -12.942  -5.360   1.718  1.00  0.00    -0.354 N 
ATOM     69  N   UNL     1     -11.028  -7.573   1.640  1.00  0.00    -0.248 NA
ATOM     70  C   UNL     1     -10.587  -9.862   1.552  1.00  0.00     0.031 C 
ATOM     71  C   UNL     1     -15.099  -5.812   1.439  1.00  0.00     0.029 A 
ATOM     72  C   UNL     1     -13.841  -6.389   1.501  1.00  0.00     0.049 A 
ATOM     73  H   UNL     1     -11.969  -5.471   1.822  1.00  0.00     0.167 HD
ATOM     74  C   UNL     1     -12.224  -8.264   1.467  1.00  0.00     0.074 A 
ATOM     75  C   UNL     1     -11.887  -9.669   1.387  1.00  0.00     0.031 C 
ATOM     76  C   UNL     1     -13.487  -7.780   1.380  1.00  0.00     0.037 A 
BRANCH  63  77
ATOM     77  C   UNL     1     -13.852  -1.648   2.007  1.00  0.00     0.057 A 
ATOM     78  C   UNL     1     -13.797  -0.693   0.984  1.00  0.00     0.134 A 
ATOM     79  C   UNL     1     -14.773  -1.436   3.041  1.00  0.00     0.134 A 
ATOM     80  F   UNL     1     -12.925  -0.827  -0.026  1.00  0.00    -0.206 F 
ATOM     81  C   UNL     1     -14.613   0.439   0.999  1.00  0.00     0.040 A 
ATOM     82  C   UNL     1     -15.615  -0.324   3.051  1.00  0.00     0.040 A 
ATOM     83  F   UNL     1     -14.878  -2.313   4.051  1.00  0.00    -0.206 F 
ATOM     84  C   UNL     1     -15.532   0.621   2.031  1.00  0.00     0.006 A 
ENDBRANCH  63  77
BRANCH  64  85
ATOM     85  C   UNL     1      -7.701  -9.504   1.764  1.00  0.00     0.057 A 
ATOM     86  C   UNL     1      -7.590 -10.311   0.624  1.00  0.00     0.134 A 
ATOM     87  C   UNL     1      -7.005  -9.913   2.908  1.00  0.00     0.134 A 
ATOM     88  F   UNL     1      -8.255  -9.990  -0.496  1.00  0.00    -0.206 F 
ATOM     89  C   UNL     1      -6.850 -11.495   0.631  1.00  0.00     0.040 A 
ATOM     90  C   UNL     1      -6.234 -11.077   2.920  1.00  0.00     0.040 A 
ATOM     91  F   UNL     1      -7.070  -9.190   4.036  1.00  0.00    -0.206 F 
ATOM     92  C   UNL     1      -6.167 -11.880   1.783  1.00  0.00     0.006 A 
ENDBRANCH  64  85
BRANCH  76  93
ATOM     93  C   UNL     1     -14.596  -8.755   1.101  1.00  0.00     0.057 A 
ATOM     94  C   UNL     1     -15.053  -9.665   2.061  1.00  0.00     0.134 A 
ATOM     95  C   UNL     1     -15.262  -8.728  -0.133  1.00  0.00     0.134 A 
ATOM     96  F   UNL     1     -14.455  -9.749   3.259  1.00  0.00    -0.206 F 
ATOM     97  C   UNL     1     -16.122 -10.525   1.799  1.00  0.00     0.040 A 
ATOM     98  C   UNL     1     -16.349  -9.562  -0.396  1.00  0.00     0.040 A 
ATOM     99  F   UNL     1     -14.883  -7.872  -1.094  1.00  0.00    -0.206 F 
ATOM    100  C   UNL     1     -16.779 -10.468   0.571  1.00  0.00     0.006 A 
ENDBRANCH  76  93
ENDBRANCH  50  51
ENDBRANCH  43  45
ENDBRANCH  42  43
ENDBRANCH  41  42
ENDBRANCH  40  41
ENDBRANCH  39  40
ENDBRANCH  38  39
ENDBRANCH   1  38
TORSDOF 21
