REMARK SMILES Cc1ccc(C#N)cc1S(=O)(=O)Nc1cccc(C(=O)OCCOCCOCCOC(=O)c2ccc(-c3c4nc(c(-c5c(F)cccc5F)c5ccc([nH]5)c(-c5c(F)cccc5F)c5nc(c(-c6c(F)cccc6F)c6ccc3[nH]6)C=C5)C=C4)cc2)c1
REMARK SMILES IDX 25 1 24 2 23 3 22 4 21 5 19 6 20 7 18 8 14 9 15 10 87 11
REMARK SMILES IDX 16 12 17 13 13 14 10 16 11 17 12 18 9 19 1 20 2 21 3 22 4 23
REMARK SMILES IDX 8 24 5 25 6 26 7 27 26 28 27 29 28 30 29 31 30 32 31 33
REMARK SMILES IDX 32 34 33 35 34 36 86 37 35 38 85 39 36 40 37 41 38 42 79 43
REMARK SMILES IDX 39 44 84 45 78 46 80 47 40 48 83 49 77 50 76 51 41 53 67 54
REMARK SMILES IDX 50 55 66 56 51 57 54 58 65 59 81 60 52 61 53 62 64 64 82 65
REMARK SMILES IDX 55 66 42 67 43 68 48 69 44 70 45 71 47 72 49 73 46 74 68 75
REMARK SMILES IDX 69 76 74 77 70 78 71 79 73 80 75 81 72 82 56 83 57 84 62 85
REMARK SMILES IDX 58 86 59 87 61 88 63 89 60 90
REMARK H PARENT 13 15 80 52 54 63
REMARK Flexibility Score: inf
ROOT
ATOM      1  C   UNL     1      -2.559  -2.994   1.104  1.00  0.00     0.188 C 
ENDROOT
BRANCH   1   2
ATOM      2  O   UNL     1      -3.153  -4.119   1.721  1.00  0.00    -0.376 OA
BRANCH   2   3
ATOM      3  C   UNL     1      -2.488  -4.755   2.802  1.00  0.00     0.202 C 
BRANCH   3   4
ATOM      4  C   UNL     1      -0.947  -4.889   2.900  1.00  0.00     0.261 C 
BRANCH   4   5
ATOM      5  O   UNL     1      -0.111  -3.845   2.356  1.00  0.00    -0.460 OA
BRANCH   5   6
ATOM      6  C   UNL     1       0.567  -4.151   1.218  1.00  0.00     0.338 C 
ATOM      7  O   UNL     1       0.483  -5.203   0.605  1.00  0.00    -0.246 OA
BRANCH   6   8
ATOM      8  C   UNL     1       1.332  -2.982   0.681  1.00  0.00     0.062 A 
ATOM      9  C   UNL     1       2.368  -0.775   0.876  1.00  0.00     0.050 A 
ATOM     10  C   UNL     1       2.616  -0.758  -0.498  1.00  0.00     0.027 A 
ATOM     11  C   UNL     1       1.807  -1.928   1.476  1.00  0.00     0.042 A 
ATOM     12  C   UNL     1       2.149  -1.814  -1.292  1.00  0.00     0.003 A 
ATOM     13  C   UNL     1       1.483  -2.900  -0.710  1.00  0.00     0.016 A 
BRANCH   9  14
ATOM     14  N   UNL     1       2.364   0.397   1.686  1.00  0.00    -0.280 N 
ATOM     15  H   UNL     1       2.333   0.234   2.657  1.00  0.00     0.180 HD
BRANCH  14  16
ATOM     16  S   UNL     1       2.403   2.007   1.240  1.00  0.00     0.262 S 
ATOM     17  O   UNL     1       3.638   2.242   0.521  1.00  0.00    -0.201 OA
ATOM     18  O   UNL     1       2.122   2.717   2.472  1.00  0.00    -0.201 OA
BRANCH  16  19
ATOM     19  C   UNL     1       1.081   2.489   0.120  1.00  0.00     0.092 A 
ATOM     20  C   UNL     1      -0.407   0.439   0.343  1.00  0.00     0.046 C 
ATOM     21  C   UNL     1       0.022   1.691  -0.323  1.00  0.00    -0.030 A 
ATOM     22  C   UNL     1      -0.774   2.133  -1.398  1.00  0.00     0.006 A 
ATOM     23  C   UNL     1      -0.652   3.421  -1.900  1.00  0.00     0.020 A 
ATOM     24  C   UNL     1       1.165   3.814  -0.359  1.00  0.00     0.042 A 
ATOM     25  C   UNL     1       0.273   4.291  -1.331  1.00  0.00     0.053 A 
BRANCH  25  26
ATOM     26  C   UNL     1       0.271   5.665  -1.731  1.00  0.00     0.099 C 
ATOM     27  N   UNL     1       0.214   6.781  -2.055  1.00  0.00    -0.192 NA
ENDBRANCH  25  26
ENDBRANCH  16  19
ENDBRANCH  14  16
ENDBRANCH   9  14
ENDBRANCH   6   8
ENDBRANCH   5   6
ENDBRANCH   4   5
ENDBRANCH   3   4
ENDBRANCH   2   3
ENDBRANCH   1   2
BRANCH   1  28
ATOM     28  C   UNL     1      -2.110  -1.823   1.992  1.00  0.00     0.188 C 
BRANCH  28  29
ATOM     29  O   UNL     1      -2.205  -2.082   3.370  1.00  0.00    -0.376 OA
BRANCH  29  30
ATOM     30  C   UNL     1      -3.277  -1.517   4.100  1.00  0.00     0.202 C 
BRANCH  30  31
ATOM     31  C   UNL     1      -4.703  -1.331   3.538  1.00  0.00     0.261 C 
BRANCH  31  32
ATOM     32  O   UNL     1      -4.910  -1.368   2.120  1.00  0.00    -0.460 OA
BRANCH  32  33
ATOM     33  C   UNL     1      -4.900  -0.188   1.454  1.00  0.00     0.338 C 
ATOM     34  O   UNL     1      -4.598   0.904   1.898  1.00  0.00    -0.246 OA
BRANCH  33  35
ATOM     35  C   UNL     1      -5.101  -0.485   0.018  1.00  0.00     0.060 A 
ATOM     36  C   UNL     1      -6.278  -1.054  -0.456  1.00  0.00     0.016 A 
ATOM     37  C   UNL     1      -4.056  -0.217  -0.869  1.00  0.00     0.016 A 
ATOM     38  C   UNL     1      -6.388  -1.367  -1.817  1.00  0.00     0.010 A 
ATOM     39  C   UNL     1      -4.138  -0.573  -2.215  1.00  0.00     0.010 A 
ATOM     40  C   UNL     1      -5.318  -1.138  -2.705  1.00  0.00    -0.014 A 
BRANCH  40  41
ATOM     41  C   UNL     1      -5.496  -1.332  -4.165  1.00  0.00     0.031 A 
ATOM     42  C   UNL     1      -4.903  -2.500  -4.896  1.00  0.00     0.074 A 
ATOM     43  C   UNL     1      -6.196  -0.403  -4.841  1.00  0.00     0.049 A 
ATOM     44  N   UNL     1      -5.042  -2.837  -6.154  1.00  0.00    -0.248 NA
ATOM     45  C   UNL     1      -4.034  -3.398  -4.123  1.00  0.00     0.031 C 
ATOM     46  C   UNL     1      -6.774   0.804  -4.249  1.00  0.00     0.029 A 
ATOM     47  N   UNL     1      -6.548  -0.330  -6.164  1.00  0.00    -0.354 N 
ATOM     48  C   UNL     1      -4.305  -4.002  -6.323  1.00  0.00     0.074 A 
ATOM     49  C   UNL     1      -3.672  -4.279  -5.048  1.00  0.00     0.031 C 
ATOM     50  C   UNL     1      -7.441   1.479  -5.196  1.00  0.00     0.029 A 
ATOM     51  C   UNL     1      -7.308   0.773  -6.467  1.00  0.00     0.049 A 
ATOM     52  H   UNL     1      -6.282  -1.002  -6.832  1.00  0.00     0.167 HD
ATOM     53  C   UNL     1      -4.187  -4.775  -7.431  1.00  0.00     0.037 A 
ATOM     54  C   UNL     1      -7.839   1.173  -7.637  1.00  0.00     0.037 A 
ATOM     55  C   UNL     1      -4.796  -4.476  -8.706  1.00  0.00     0.049 A 
ATOM     56  C   UNL     1      -7.638   0.327  -8.864  1.00  0.00     0.074 A 
ATOM     57  C   UNL     1      -4.766  -5.221  -9.873  1.00  0.00     0.029 A 
ATOM     58  N   UNL     1      -5.523  -3.329  -8.989  1.00  0.00    -0.354 N 
ATOM     59  N   UNL     1      -7.019  -0.823  -8.986  1.00  0.00    -0.248 NA
ATOM     60  C   UNL     1      -8.215   0.834 -10.116  1.00  0.00     0.031 C 
ATOM     61  C   UNL     1      -5.410  -4.492 -10.879  1.00  0.00     0.029 A 
ATOM     62  C   UNL     1      -5.910  -3.327 -10.322  1.00  0.00     0.049 A 
ATOM     63  H   UNL     1      -5.734  -2.620  -8.339  1.00  0.00     0.167 HD
ATOM     64  C   UNL     1      -7.158  -1.188 -10.320  1.00  0.00     0.074 A 
ATOM     65  C   UNL     1      -7.937  -0.149 -10.959  1.00  0.00     0.031 C 
ATOM     66  C   UNL     1      -6.681  -2.287 -10.956  1.00  0.00     0.037 A 
BRANCH  53  67
ATOM     67  C   UNL     1      -3.354  -6.023  -7.322  1.00  0.00     0.057 A 
ATOM     68  C   UNL     1      -2.158  -6.155  -8.040  1.00  0.00     0.134 A 
ATOM     69  C   UNL     1      -3.759  -7.116  -6.543  1.00  0.00     0.134 A 
ATOM     70  F   UNL     1      -1.717  -5.158  -8.821  1.00  0.00    -0.206 F 
ATOM     71  C   UNL     1      -1.394  -7.323  -7.982  1.00  0.00     0.040 A 
ATOM     72  C   UNL     1      -2.987  -8.277  -6.452  1.00  0.00     0.040 A 
ATOM     73  F   UNL     1      -4.896  -7.061  -5.834  1.00  0.00    -0.206 F 
ATOM     74  C   UNL     1      -1.803  -8.384  -7.177  1.00  0.00     0.006 A 
ENDBRANCH  53  67
BRANCH  54  75
ATOM     75  C   UNL     1      -8.616   2.436  -7.710  1.00  0.00     0.057 A 
ATOM     76  C   UNL     1      -7.999   3.680  -7.529  1.00  0.00     0.134 A 
ATOM     77  C   UNL     1      -9.985   2.430  -7.999  1.00  0.00     0.134 A 
ATOM     78  F   UNL     1      -6.692   3.752  -7.237  1.00  0.00    -0.206 F 
ATOM     79  C   UNL     1      -8.715   4.872  -7.635  1.00  0.00     0.040 A 
ATOM     80  C   UNL     1     -10.706   3.617  -8.142  1.00  0.00     0.040 A 
ATOM     81  F   UNL     1     -10.629   1.271  -8.197  1.00  0.00    -0.206 F 
ATOM     82  C   UNL     1     -10.070   4.843  -7.957  1.00  0.00     0.006 A 
ENDBRANCH  54  75
BRANCH  66  83
ATOM     83  C   UNL     1      -7.018  -2.437 -12.414  1.00  0.00     0.057 A 
ATOM     84  C   UNL     1      -7.881  -3.453 -12.846  1.00  0.00     0.134 A 
ATOM     85  C   UNL     1      -6.481  -1.592 -13.395  1.00  0.00     0.134 A 
ATOM     86  F   UNL     1      -8.427  -4.304 -11.964  1.00  0.00    -0.206 F 
ATOM     87  C   UNL     1      -8.195  -3.624 -14.195  1.00  0.00     0.040 A 
ATOM     88  C   UNL     1      -6.814  -1.731 -14.744  1.00  0.00     0.040 A 
ATOM     89  F   UNL     1      -5.658  -0.588 -13.052  1.00  0.00    -0.206 F 
ATOM     90  C   UNL     1      -7.669  -2.755 -15.148  1.00  0.00     0.006 A 
ENDBRANCH  66  83
ENDBRANCH  40  41
ENDBRANCH  33  35
ENDBRANCH  32  33
ENDBRANCH  31  32
ENDBRANCH  30  31
ENDBRANCH  29  30
ENDBRANCH  28  29
ENDBRANCH   1  28
TORSDOF 21
