REMARK SMILES O=C(CNC(=O)OCc1ccccc1)NCC(=O)OCCOCCOCCOC(=O)c1ccc(-c2c3nc(c(-c4c(F)cccc4F)c4ccc([nH]4)c(-c4c(F)cccc4F)c4nc(c(-c5c(F)cccc5F)c5ccc2[nH]5)C=C4)C=C3)cc1
REMARK SMILES IDX 21 1 20 2 19 3 17 4 18 5 16 6 15 7 1 8 2 9 3 11 4 12 5 13
REMARK SMILES IDX 6 15 7 16 8 17 9 18 10 19 14 20 11 21 13 22 12 23 22 24
REMARK SMILES IDX 23 25 24 26 25 27 26 28 27 29 28 30 29 31 30 32 31 33 32 34
REMARK SMILES IDX 84 35 33 36 83 37 34 38 35 39 36 40 77 41 37 42 82 43 76 44
REMARK SMILES IDX 78 45 38 46 81 47 75 48 74 49 39 51 65 52 48 53 64 54 49 55
REMARK SMILES IDX 52 56 63 57 79 58 50 59 51 60 62 62 80 63 53 64 40 65 41 66
REMARK SMILES IDX 46 67 42 68 43 69 45 70 47 71 44 72 66 73 67 74 72 75 68 76
REMARK SMILES IDX 69 77 71 78 73 79 70 80 54 81 55 82 60 83 56 84 57 85 59 86
REMARK SMILES IDX 61 87 58 88
REMARK H PARENT 15 10 4 14 78 50 52 61
REMARK Flexibility Score: inf
ROOT
ATOM      1  C   UNL     1       3.341   3.831  -4.233  1.00  0.00     0.202 C 
ENDROOT
BRANCH   1   2
ATOM      2  C   UNL     1       1.943   3.355  -3.791  1.00  0.00     0.261 C 
BRANCH   2   3
ATOM      3  O   UNL     1       1.948   2.274  -2.830  1.00  0.00    -0.462 OA
BRANCH   3   4
ATOM      4  C   UNL     1       1.070   1.261  -3.064  1.00  0.00     0.325 C 
ATOM      5  O   UNL     1       0.261   1.255  -3.988  1.00  0.00    -0.250 OA
BRANCH   4   6
ATOM      6  C   UNL     1       1.270   0.016  -2.180  1.00  0.00     0.238 C 
BRANCH   6   7
ATOM      7  N   UNL     1       2.146  -0.013  -1.016  1.00  0.00    -0.344 N 
ATOM      8  O   UNL     1       0.677   0.924   0.461  1.00  0.00    -0.273 OA
ATOM      9  C   UNL     1       1.751   0.373   0.244  1.00  0.00     0.240 C 
ATOM     10  H   UNL     1       3.071  -0.327  -1.138  1.00  0.00     0.164 HD
BRANCH   9  11
ATOM     11  C   UNL     1       2.826   0.174   1.331  1.00  0.00     0.219 C 
BRANCH  11  12
ATOM     12  N   UNL     1       3.694  -0.953   1.004  1.00  0.00    -0.312 N 
ATOM     13  C   UNL     1       5.052  -1.007   1.076  1.00  0.00     0.407 C 
ATOM     14  H   UNL     1       3.244  -1.772   0.696  1.00  0.00     0.167 HD
ATOM     15  O   UNL     1       5.647  -1.996   0.658  1.00  0.00    -0.225 OA
BRANCH  13  16
ATOM     16  O   UNL     1       5.620   0.095   1.613  1.00  0.00    -0.445 OA
BRANCH  16  17
ATOM     17  C   UNL     1       7.054   0.060   1.731  1.00  0.00     0.270 C 
BRANCH  17  18
ATOM     18  C   UNL     1       7.467  -0.503   3.071  1.00  0.00    -0.011 A 
ATOM     19  C   UNL     1       7.639  -1.886   3.236  1.00  0.00     0.007 A 
ATOM     20  C   UNL     1       7.653   0.335   4.179  1.00  0.00     0.007 A 
ATOM     21  C   UNL     1       7.978  -2.420   4.480  1.00  0.00     0.000 A 
ATOM     22  C   UNL     1       8.001  -0.201   5.423  1.00  0.00     0.000 A 
ATOM     23  C   UNL     1       8.156  -1.577   5.574  1.00  0.00     0.000 A 
ENDBRANCH  17  18
ENDBRANCH  16  17
ENDBRANCH  13  16
ENDBRANCH  11  12
ENDBRANCH   9  11
ENDBRANCH   6   7
ENDBRANCH   4   6
ENDBRANCH   3   4
ENDBRANCH   2   3
ENDBRANCH   1   2
BRANCH   1  24
ATOM     24  O   UNL     1       4.240   2.884  -4.809  1.00  0.00    -0.376 OA
BRANCH  24  25
ATOM     25  C   UNL     1       4.425   1.637  -4.153  1.00  0.00     0.188 C 
BRANCH  25  26
ATOM     26  C   UNL     1       4.699   1.633  -2.640  1.00  0.00     0.188 C 
BRANCH  26  27
ATOM     27  O   UNL     1       4.661   2.894  -2.025  1.00  0.00    -0.376 OA
BRANCH  27  28
ATOM     28  C   UNL     1       5.862   3.511  -1.607  1.00  0.00     0.202 C 
BRANCH  28  29
ATOM     29  C   UNL     1       7.189   3.382  -2.380  1.00  0.00     0.261 C 
BRANCH  29  30
ATOM     30  O   UNL     1       7.411   2.193  -3.150  1.00  0.00    -0.460 OA
BRANCH  30  31
ATOM     31  C   UNL     1       7.892   1.107  -2.499  1.00  0.00     0.338 C 
ATOM     32  O   UNL     1       8.135   1.009  -1.310  1.00  0.00    -0.246 OA
BRANCH  31  33
ATOM     33  C   UNL     1       7.843  -0.024  -3.455  1.00  0.00     0.060 A 
ATOM     34  C   UNL     1       6.950  -1.081  -3.223  1.00  0.00     0.016 A 
ATOM     35  C   UNL     1       8.637  -0.012  -4.603  1.00  0.00     0.016 A 
ATOM     36  C   UNL     1       6.835  -2.119  -4.152  1.00  0.00     0.010 A 
ATOM     37  C   UNL     1       8.546  -1.070  -5.512  1.00  0.00     0.010 A 
ATOM     38  C   UNL     1       7.650  -2.131  -5.290  1.00  0.00    -0.014 A 
BRANCH  38  39
ATOM     39  C   UNL     1       7.686  -3.314  -6.184  1.00  0.00     0.031 A 
ATOM     40  C   UNL     1       8.777  -4.328  -5.991  1.00  0.00     0.074 A 
ATOM     41  C   UNL     1       6.787  -3.474  -7.171  1.00  0.00     0.049 A 
ATOM     42  N   UNL     1       9.097  -5.357  -6.731  1.00  0.00    -0.248 NA
ATOM     43  C   UNL     1       9.625  -4.149  -4.802  1.00  0.00     0.031 C 
ATOM     44  C   UNL     1       5.649  -2.596  -7.431  1.00  0.00     0.029 A 
ATOM     45  N   UNL     1       6.710  -4.428  -8.157  1.00  0.00    -0.354 N 
ATOM     46  C   UNL     1      10.190  -5.943  -6.106  1.00  0.00     0.074 A 
ATOM     47  C   UNL     1      10.492  -5.141  -4.939  1.00  0.00     0.031 C 
ATOM     48  C   UNL     1       4.999  -3.038  -8.522  1.00  0.00     0.029 A 
ATOM     49  C   UNL     1       5.703  -4.201  -9.063  1.00  0.00     0.049 A 
ATOM     50  H   UNL     1       7.319  -5.200  -8.209  1.00  0.00     0.167 HD
ATOM     51  C   UNL     1      10.879  -7.050  -6.471  1.00  0.00     0.037 A 
ATOM     52  C   UNL     1       5.411  -4.834 -10.217  1.00  0.00     0.037 A 
ATOM     53  C   UNL     1      10.585  -7.839  -7.638  1.00  0.00     0.049 A 
ATOM     54  C   UNL     1       6.263  -5.995 -10.665  1.00  0.00     0.074 A 
ATOM     55  C   UNL     1      11.214  -8.989  -8.082  1.00  0.00     0.029 A 
ATOM     56  N   UNL     1       9.586  -7.550  -8.555  1.00  0.00    -0.354 N 
ATOM     57  N   UNL     1       7.281  -6.558 -10.060  1.00  0.00    -0.248 NA
ATOM     58  C   UNL     1       5.931  -6.601 -11.964  1.00  0.00     0.031 C 
ATOM     59  C   UNL     1      10.637  -9.360  -9.300  1.00  0.00     0.029 A 
ATOM     60  C   UNL     1       9.609  -8.476  -9.586  1.00  0.00     0.049 A 
ATOM     61  H   UNL     1       8.954  -6.798  -8.485  1.00  0.00     0.167 HD
ATOM     62  C   UNL     1       7.696  -7.593 -10.890  1.00  0.00     0.074 A 
ATOM     63  C   UNL     1       6.808  -7.593 -12.034  1.00  0.00     0.031 C 
ATOM     64  C   UNL     1       8.720  -8.465 -10.721  1.00  0.00     0.037 A 
BRANCH  51  65
ATOM     65  C   UNL     1      12.047  -7.447  -5.616  1.00  0.00     0.057 A 
ATOM     66  C   UNL     1      11.880  -7.963  -4.324  1.00  0.00     0.134 A 
ATOM     67  C   UNL     1      13.356  -7.330  -6.101  1.00  0.00     0.134 A 
ATOM     68  F   UNL     1      10.654  -8.087  -3.793  1.00  0.00    -0.206 F 
ATOM     69  C   UNL     1      12.975  -8.322  -3.535  1.00  0.00     0.040 A 
ATOM     70  C   UNL     1      14.456  -7.713  -5.333  1.00  0.00     0.040 A 
ATOM     71  F   UNL     1      13.586  -6.848  -7.331  1.00  0.00    -0.206 F 
ATOM     72  C   UNL     1      14.268  -8.203  -4.043  1.00  0.00     0.006 A 
ENDBRANCH  51  65
BRANCH  52  73
ATOM     73  C   UNL     1       4.280  -4.365 -11.060  1.00  0.00     0.057 A 
ATOM     74  C   UNL     1       3.139  -5.155 -11.245  1.00  0.00     0.134 A 
ATOM     75  C   UNL     1       4.323  -3.133 -11.724  1.00  0.00     0.134 A 
ATOM     76  F   UNL     1       3.051  -6.359 -10.660  1.00  0.00    -0.206 F 
ATOM     77  C   UNL     1       2.089  -4.745 -12.068  1.00  0.00     0.040 A 
ATOM     78  C   UNL     1       3.268  -2.697 -12.528  1.00  0.00     0.040 A 
ATOM     79  F   UNL     1       5.390  -2.331 -11.595  1.00  0.00    -0.206 F 
ATOM     80  C   UNL     1       2.150  -3.508 -12.708  1.00  0.00     0.006 A 
ENDBRANCH  52  73
BRANCH  64  81
ATOM     81  C   UNL     1       8.931  -9.507 -11.783  1.00  0.00     0.057 A 
ATOM     82  C   UNL     1       9.446  -9.183 -13.045  1.00  0.00     0.134 A 
ATOM     83  C   UNL     1       8.675 -10.860 -11.520  1.00  0.00     0.134 A 
ATOM     84  F   UNL     1       9.702  -7.906 -13.366  1.00  0.00    -0.206 F 
ATOM     85  C   UNL     1       9.683 -10.163 -14.011  1.00  0.00     0.040 A 
ATOM     86  C   UNL     1       8.934 -11.851 -12.467  1.00  0.00     0.040 A 
ATOM     87  F   UNL     1       8.190 -11.242 -10.329  1.00  0.00    -0.206 F 
ATOM     88  C   UNL     1       9.436 -11.503 -13.719  1.00  0.00     0.006 A 
ENDBRANCH  64  81
ENDBRANCH  38  39
ENDBRANCH  31  33
ENDBRANCH  30  31
ENDBRANCH  29  30
ENDBRANCH  28  29
ENDBRANCH  27  28
ENDBRANCH  26  27
ENDBRANCH  25  26
ENDBRANCH  24  25
ENDBRANCH   1  24
TORSDOF 23
