REMARK SMILES O=C(Cc1ccccc1Nc1c(F)cccc1C(F)(F)F)OCCOCCOCCOC(=O)c1ccc(-c2c3nc(c(-c4c(F)cccc4F)c4ccc([nH]4)c(-c4c(F)cccc4F)c4nc(c(-c5c(F)cccc5F)c5ccc2[nH]5)C=C4)C=C3)cc1
REMARK SMILES IDX 26 1 25 2 24 3 23 4 22 5 2 6 1 7 3 8 4 9 5 10 9 11 6 12 8 13
REMARK SMILES IDX 7 14 10 15 11 17 12 18 17 19 13 20 14 21 16 22 15 23 18 24
REMARK SMILES IDX 19 25 20 26 21 27 27 28 28 29 29 30 30 31 31 32 32 33 33 34
REMARK SMILES IDX 34 35 35 36 87 37 36 38 86 39 37 40 38 41 39 42 80 43 40 44
REMARK SMILES IDX 85 45 79 46 81 47 41 48 84 49 78 50 77 51 42 53 68 54 51 55
REMARK SMILES IDX 67 56 52 57 55 58 66 59 82 60 53 61 54 62 65 64 83 65 56 66
REMARK SMILES IDX 43 67 44 68 49 69 45 70 46 71 48 72 50 73 47 74 69 75 70 76
REMARK SMILES IDX 75 77 71 78 72 79 74 80 76 81 73 82 57 83 58 84 63 85 59 86
REMARK SMILES IDX 60 87 62 88 64 89 61 90
REMARK H PARENT 10 16 81 52 55 63
REMARK Flexibility Score: inf
ROOT
ATOM      1  C   UNL     1       2.273   1.027   1.690  1.00  0.00     0.188 C 
ENDROOT
BRANCH   1   2
ATOM      2  O   UNL     1       3.648   0.680   1.648  1.00  0.00    -0.376 OA
BRANCH   2   3
ATOM      3  C   UNL     1       4.423   1.104   0.532  1.00  0.00     0.202 C 
BRANCH   3   4
ATOM      4  C   UNL     1       3.767   1.148  -0.852  1.00  0.00     0.261 C 
BRANCH   4   5
ATOM      5  O   UNL     1       2.633   0.304  -1.138  1.00  0.00    -0.463 OA
BRANCH   5   6
ATOM      6  C   UNL     1       2.538  -1.040  -1.114  1.00  0.00     0.310 C 
ATOM      7  O   UNL     1       1.621  -1.585  -1.732  1.00  0.00    -0.252 OA
BRANCH   6   8
ATOM      8  C   UNL     1       3.425  -1.839  -0.199  1.00  0.00     0.160 C 
BRANCH   8   9
ATOM      9  C   UNL     1       4.261  -2.873  -0.907  1.00  0.00    -0.013 A 
ATOM     10  C   UNL     1       3.761  -4.181  -1.006  1.00  0.00     0.006 A 
ATOM     11  C   UNL     1       5.511  -2.550  -1.475  1.00  0.00     0.042 A 
ATOM     12  C   UNL     1       4.511  -5.174  -1.625  1.00  0.00     0.000 A 
ATOM     13  C   UNL     1       6.253  -3.563  -2.089  1.00  0.00     0.026 A 
ATOM     14  C   UNL     1       5.755  -4.865  -2.167  1.00  0.00     0.002 A 
BRANCH  11  15
ATOM     15  N   UNL     1       6.104  -1.298  -1.217  1.00  0.00    -0.352 N 
ATOM     16  H   UNL     1       6.031  -1.010  -0.278  1.00  0.00     0.167 HD
BRANCH  15  17
ATOM     17  C   UNL     1       6.785  -0.374  -2.045  1.00  0.00     0.087 A 
ATOM     18  C   UNL     1       7.752   0.440  -1.412  1.00  0.00     0.147 A 
ATOM     19  C   UNL     1       6.498  -0.116  -3.397  1.00  0.00     0.082 A 
ATOM     20  F   UNL     1       7.984   0.265  -0.100  1.00  0.00    -0.205 F 
ATOM     21  C   UNL     1       8.456   1.438  -2.076  1.00  0.00     0.041 A 
ATOM     22  C   UNL     1       7.240   0.887  -4.071  1.00  0.00     0.015 A 
ATOM     23  C   UNL     1       8.207   1.655  -3.421  1.00  0.00     0.004 A 
BRANCH  19  24
ATOM     24  C   UNL     1       5.385  -0.792  -4.163  1.00  0.00     0.418 C 
ATOM     25  F   UNL     1       5.035  -0.093  -5.288  1.00  0.00    -0.166 F 
ATOM     26  F   UNL     1       5.721  -2.031  -4.608  1.00  0.00    -0.166 F 
ATOM     27  F   UNL     1       4.228  -0.912  -3.465  1.00  0.00    -0.166 F 
ENDBRANCH  19  24
ENDBRANCH  15  17
ENDBRANCH  11  15
ENDBRANCH   8   9
ENDBRANCH   6   8
ENDBRANCH   5   6
ENDBRANCH   4   5
ENDBRANCH   3   4
ENDBRANCH   2   3
ENDBRANCH   1   2
BRANCH   1  28
ATOM     28  C   UNL     1       1.915   2.514   1.656  1.00  0.00     0.188 C 
BRANCH  28  29
ATOM     29  O   UNL     1       2.983   3.335   1.207  1.00  0.00    -0.376 OA
BRANCH  29  30
ATOM     30  C   UNL     1       3.512   4.213   2.197  1.00  0.00     0.202 C 
BRANCH  30  31
ATOM     31  C   UNL     1       4.375   3.581   3.307  1.00  0.00     0.261 C 
BRANCH  31  32
ATOM     32  O   UNL     1       3.856   2.402   3.948  1.00  0.00    -0.460 OA
BRANCH  32  33
ATOM     33  C   UNL     1       2.865   2.568   4.841  1.00  0.00     0.338 C 
ATOM     34  O   UNL     1       2.310   3.622   5.132  1.00  0.00    -0.246 OA
BRANCH  33  35
ATOM     35  C   UNL     1       2.434   1.247   5.346  1.00  0.00     0.060 A 
ATOM     36  C   UNL     1       1.111   0.846   5.127  1.00  0.00     0.016 A 
ATOM     37  C   UNL     1       3.296   0.445   6.101  1.00  0.00     0.016 A 
ATOM     38  C   UNL     1       0.631  -0.332   5.700  1.00  0.00     0.010 A 
ATOM     39  C   UNL     1       2.804  -0.721   6.705  1.00  0.00     0.010 A 
ATOM     40  C   UNL     1       1.454  -1.085   6.549  1.00  0.00    -0.014 A 
BRANCH  40  41
ATOM     41  C   UNL     1       0.807  -2.043   7.483  1.00  0.00     0.031 A 
ATOM     42  C   UNL     1       0.387  -1.523   8.835  1.00  0.00     0.074 A 
ATOM     43  C   UNL     1       0.514  -3.308   7.132  1.00  0.00     0.049 A 
ATOM     44  N   UNL     1      -0.265  -2.124   9.797  1.00  0.00    -0.248 NA
ATOM     45  C   UNL     1       0.749  -0.128   9.137  1.00  0.00     0.031 C 
ATOM     46  C   UNL     1       0.823  -3.925   5.845  1.00  0.00     0.029 A 
ATOM     47  N   UNL     1      -0.128  -4.297   7.837  1.00  0.00    -0.354 N 
ATOM     48  C   UNL     1      -0.395  -1.181  10.810  1.00  0.00     0.074 A 
ATOM     49  C   UNL     1       0.277   0.018  10.364  1.00  0.00     0.031 C 
ATOM     50  C   UNL     1       0.368  -5.192   5.851  1.00  0.00     0.029 A 
ATOM     51  C   UNL     1      -0.252  -5.477   7.145  1.00  0.00     0.049 A 
ATOM     52  H   UNL     1      -0.468  -4.171   8.752  1.00  0.00     0.167 HD
ATOM     53  C   UNL     1      -1.028  -1.294  12.001  1.00  0.00     0.037 A 
ATOM     54  C   UNL     1      -0.802  -6.650   7.518  1.00  0.00     0.037 A 
ATOM     55  C   UNL     1      -1.694  -2.484  12.454  1.00  0.00     0.049 A 
ATOM     56  C   UNL     1      -1.446  -6.772   8.878  1.00  0.00     0.074 A 
ATOM     57  C   UNL     1      -2.370  -2.695  13.643  1.00  0.00     0.029 A 
ATOM     58  N   UNL     1      -1.760  -3.670  11.739  1.00  0.00    -0.354 N 
ATOM     59  N   UNL     1      -1.594  -5.864   9.812  1.00  0.00    -0.248 NA
ATOM     60  C   UNL     1      -2.012  -8.085   9.227  1.00  0.00     0.031 C 
ATOM     61  C   UNL     1      -2.804  -4.024  13.668  1.00  0.00     0.029 A 
ATOM     62  C   UNL     1      -2.447  -4.623  12.471  1.00  0.00     0.049 A 
ATOM     63  H   UNL     1      -1.375  -3.812  10.845  1.00  0.00     0.167 HD
ATOM     64  C   UNL     1      -2.305  -6.480  10.836  1.00  0.00     0.074 A 
ATOM     65  C   UNL     1      -2.562  -7.838  10.407  1.00  0.00     0.031 C 
ATOM     66  C   UNL     1      -2.713  -5.966  12.023  1.00  0.00     0.037 A 
BRANCH  53  67
ATOM     67  C   UNL     1      -0.999  -0.099  12.908  1.00  0.00     0.057 A 
ATOM     68  C   UNL     1      -1.735   1.061  12.631  1.00  0.00     0.134 A 
ATOM     69  C   UNL     1      -0.229  -0.112  14.077  1.00  0.00     0.134 A 
ATOM     70  F   UNL     1      -2.477   1.146  11.516  1.00  0.00    -0.206 F 
ATOM     71  C   UNL     1      -1.686   2.174  13.472  1.00  0.00     0.040 A 
ATOM     72  C   UNL     1      -0.193   0.984  14.940  1.00  0.00     0.040 A 
ATOM     73  F   UNL     1       0.499  -1.191  14.401  1.00  0.00    -0.206 F 
ATOM     74  C   UNL     1      -0.918   2.135  14.634  1.00  0.00     0.006 A 
ENDBRANCH  53  67
BRANCH  54  75
ATOM     75  C   UNL     1      -0.786  -7.814   6.594  1.00  0.00     0.057 A 
ATOM     76  C   UNL     1      -1.967  -8.312   6.029  1.00  0.00     0.134 A 
ATOM     77  C   UNL     1       0.404  -8.486   6.293  1.00  0.00     0.134 A 
ATOM     78  F   UNL     1      -3.144  -7.730   6.303  1.00  0.00    -0.206 F 
ATOM     79  C   UNL     1      -1.968  -9.447   5.215  1.00  0.00     0.040 A 
ATOM     80  C   UNL     1       0.421  -9.607   5.460  1.00  0.00     0.040 A 
ATOM     81  F   UNL     1       1.569  -8.064   6.806  1.00  0.00    -0.206 F 
ATOM     82  C   UNL     1      -0.769 -10.095   4.926  1.00  0.00     0.006 A 
ENDBRANCH  54  75
BRANCH  66  83
ATOM     83  C   UNL     1      -3.534  -6.853  12.917  1.00  0.00     0.057 A 
ATOM     84  C   UNL     1      -2.982  -7.946  13.595  1.00  0.00     0.134 A 
ATOM     85  C   UNL     1      -4.893  -6.582  13.126  1.00  0.00     0.134 A 
ATOM     86  F   UNL     1      -1.689  -8.265  13.433  1.00  0.00    -0.206 F 
ATOM     87  C   UNL     1      -3.759  -8.758  14.425  1.00  0.00     0.040 A 
ATOM     88  C   UNL     1      -5.673  -7.369  13.976  1.00  0.00     0.040 A 
ATOM     89  F   UNL     1      -5.483  -5.542  12.518  1.00  0.00    -0.206 F 
ATOM     90  C   UNL     1      -5.107  -8.466  14.621  1.00  0.00     0.006 A 
ENDBRANCH  66  83
ENDBRANCH  40  41
ENDBRANCH  33  35
ENDBRANCH  32  33
ENDBRANCH  31  32
ENDBRANCH  30  31
ENDBRANCH  29  30
ENDBRANCH  28  29
ENDBRANCH   1  28
TORSDOF 21
