REMARK SMILES O=C(OCCOCCOCCOC(=O)c1cc2c(c(S(=O)(=O)Nc3cc(C(F)(F)F)ccc3-n3cccn3)c1)CCC2)c1ccc(-c2c3nc(c(-c4c(F)cccc4F)c4ccc([nH]4)c(-c4c(F)cccc4F)c4nc(c(-c5c(F)cccc5F)c5ccc2[nH]5)C=C4)C=C3)cc1
REMARK SMILES IDX 8 1 7 2 6 3 5 4 4 5 3 6 2 7 1 8 43 9 44 10 96 11 45 12 95 13
REMARK SMILES IDX 46 14 47 15 48 16 89 17 49 18 94 19 88 20 90 21 50 22 93 23
REMARK SMILES IDX 87 24 86 25 51 27 77 28 60 29 76 30 61 31 64 32 75 33 91 34
REMARK SMILES IDX 62 35 63 36 74 38 92 39 65 40 52 41 53 42 58 43 54 44 55 45
REMARK SMILES IDX 57 46 59 47 56 48 78 49 79 50 84 51 80 52 81 53 83 54 85 55
REMARK SMILES IDX 82 56 66 57 67 58 72 59 68 60 69 61 71 62 73 63 70 64 9 65
REMARK SMILES IDX 10 66 11 67 12 68 13 69 14 70 15 71 16 72 39 73 17 74 19 75
REMARK SMILES IDX 18 76 42 77 40 78 41 79 20 80 21 81 22 82 23 83 24 85 25 86
REMARK SMILES IDX 33 87 26 88 32 89 31 90 34 91 35 92 38 93 36 94 37 95 27 96
REMARK SMILES IDX 28 97 29 98 30 99
REMARK H PARENT 90 26 64 37 23 84
REMARK Flexibility Score: inf
ROOT
ATOM      1  C   UNL     1       2.283  -1.798   1.373  1.00  0.00     0.188 C 
ENDROOT
BRANCH   1   2
ATOM      2  C   UNL     1       3.251  -1.615   0.177  1.00  0.00     0.188 C 
BRANCH   2   3
ATOM      3  O   UNL     1       4.601  -1.408   0.518  1.00  0.00    -0.376 OA
BRANCH   3   4
ATOM      4  C   UNL     1       5.203  -0.131   0.478  1.00  0.00     0.202 C 
BRANCH   4   5
ATOM      5  C   UNL     1       4.467   1.167   0.838  1.00  0.00     0.261 C 
BRANCH   5   6
ATOM      6  O   UNL     1       3.053   1.075   1.005  1.00  0.00    -0.460 OA
BRANCH   6   7
ATOM      7  C   UNL     1       2.024   1.377   0.192  1.00  0.00     0.338 C 
ATOM      8  O   UNL     1       0.900   1.444   0.689  1.00  0.00    -0.246 OA
BRANCH   7   9
ATOM      9  C   UNL     1       2.125   1.540  -1.286  1.00  0.00     0.060 A 
ATOM     10  C   UNL     1       3.293   1.706  -2.031  1.00  0.00     0.016 A 
ATOM     11  C   UNL     1       0.889   1.561  -1.965  1.00  0.00     0.016 A 
ATOM     12  C   UNL     1       3.216   2.086  -3.366  1.00  0.00     0.010 A 
ATOM     13  C   UNL     1       0.806   1.907  -3.303  1.00  0.00     0.010 A 
ATOM     14  C   UNL     1       1.970   2.251  -3.974  1.00  0.00    -0.014 A 
BRANCH  14  15
ATOM     15  C   UNL     1       1.937   2.735  -5.346  1.00  0.00     0.031 A 
ATOM     16  C   UNL     1       2.546   1.821  -6.346  1.00  0.00     0.074 A 
ATOM     17  C   UNL     1       1.337   3.892  -5.693  1.00  0.00     0.049 A 
ATOM     18  N   UNL     1       3.565   2.045  -7.109  1.00  0.00    -0.248 NA
ATOM     19  C   UNL     1       2.023   0.449  -6.429  1.00  0.00     0.031 C 
ATOM     20  C   UNL     1       0.474   4.743  -4.869  1.00  0.00     0.029 A 
ATOM     21  N   UNL     1       1.303   4.510  -6.907  1.00  0.00    -0.354 N 
ATOM     22  C   UNL     1       3.702   0.911  -7.908  1.00  0.00     0.074 A 
ATOM     23  C   UNL     1       2.821  -0.084  -7.356  1.00  0.00     0.031 C 
ATOM     24  C   UNL     1      -0.169   5.629  -5.662  1.00  0.00     0.029 A 
ATOM     25  C   UNL     1       0.335   5.500  -7.019  1.00  0.00     0.049 A 
ATOM     26  H   UNL     1       1.913   4.274  -7.643  1.00  0.00     0.167 HD
ATOM     27  C   UNL     1       4.370   0.961  -9.092  1.00  0.00     0.037 A 
ATOM     28  C   UNL     1      -0.062   6.123  -8.158  1.00  0.00     0.037 A 
ATOM     29  C   UNL     1       5.270   2.085  -9.136  1.00  0.00     0.049 A 
ATOM     30  C   UNL     1       0.999   5.925  -9.174  1.00  0.00     0.074 A 
ATOM     31  C   UNL     1       6.351   2.494  -8.378  1.00  0.00     0.029 A 
ATOM     32  N   UNL     1       4.901   3.181  -9.875  1.00  0.00    -0.354 N 
ATOM     33  N   UNL     1       2.171   6.492  -9.128  1.00  0.00    -0.248 NA
ATOM     34  C   UNL     1       0.907   4.749 -10.027  1.00  0.00     0.031 C 
ATOM     35  C   UNL     1       6.253   3.916  -8.333  1.00  0.00     0.029 A 
ATOM     36  C   UNL     1       5.158   4.290  -9.113  1.00  0.00     0.049 A 
ATOM     37  H   UNL     1       4.522   3.172 -10.783  1.00  0.00     0.167 HD
ATOM     38  C   UNL     1       3.049   5.514  -9.568  1.00  0.00     0.074 A 
ATOM     39  C   UNL     1       2.207   4.502 -10.201  1.00  0.00     0.031 C 
ATOM     40  C   UNL     1       4.341   5.479  -9.128  1.00  0.00     0.037 A 
BRANCH  27  41
ATOM     41  C   UNL     1       3.931   0.231 -10.341  1.00  0.00     0.057 A 
ATOM     42  C   UNL     1       4.722   0.324 -11.503  1.00  0.00     0.134 A 
ATOM     43  C   UNL     1       2.634  -0.283 -10.546  1.00  0.00     0.134 A 
ATOM     44  F   UNL     1       5.976   0.796 -11.447  1.00  0.00    -0.206 F 
ATOM     45  C   UNL     1       4.225   0.027 -12.778  1.00  0.00     0.040 A 
ATOM     46  C   UNL     1       2.145  -0.629 -11.809  1.00  0.00     0.040 A 
ATOM     47  F   UNL     1       1.735  -0.389  -9.561  1.00  0.00    -0.206 F 
ATOM     48  C   UNL     1       2.927  -0.438 -12.936  1.00  0.00     0.006 A 
ENDBRANCH  27  41
BRANCH  28  49
ATOM     49  C   UNL     1      -1.405   6.632  -8.523  1.00  0.00     0.057 A 
ATOM     50  C   UNL     1      -1.581   7.503  -9.608  1.00  0.00     0.134 A 
ATOM     51  C   UNL     1      -2.576   6.057  -7.999  1.00  0.00     0.134 A 
ATOM     52  F   UNL     1      -0.523   8.072 -10.204  1.00  0.00    -0.206 F 
ATOM     53  C   UNL     1      -2.843   7.764 -10.159  1.00  0.00     0.040 A 
ATOM     54  C   UNL     1      -3.842   6.316  -8.534  1.00  0.00     0.040 A 
ATOM     55  F   UNL     1      -2.523   5.153  -7.011  1.00  0.00    -0.206 F 
ATOM     56  C   UNL     1      -3.978   7.159  -9.629  1.00  0.00     0.006 A 
ENDBRANCH  28  49
BRANCH  40  57
ATOM     57  C   UNL     1       4.868   6.673  -8.383  1.00  0.00     0.057 A 
ATOM     58  C   UNL     1       4.353   7.132  -7.161  1.00  0.00     0.134 A 
ATOM     59  C   UNL     1       6.035   7.288  -8.849  1.00  0.00     0.134 A 
ATOM     60  F   UNL     1       3.300   6.540  -6.582  1.00  0.00    -0.206 F 
ATOM     61  C   UNL     1       4.949   8.186  -6.461  1.00  0.00     0.040 A 
ATOM     62  C   UNL     1       6.661   8.316  -8.141  1.00  0.00     0.040 A 
ATOM     63  F   UNL     1       6.617   6.864  -9.982  1.00  0.00    -0.206 F 
ATOM     64  C   UNL     1       6.112   8.776  -6.948  1.00  0.00     0.006 A 
ENDBRANCH  40  57
ENDBRANCH  14  15
ENDBRANCH   7   9
ENDBRANCH   6   7
ENDBRANCH   5   6
ENDBRANCH   4   5
ENDBRANCH   3   4
ENDBRANCH   2   3
ENDBRANCH   1   2
BRANCH   1  65
ATOM     65  O   UNL     1       2.739  -2.090   2.690  1.00  0.00    -0.376 OA
BRANCH  65  66
ATOM     66  C   UNL     1       4.009  -2.670   2.909  1.00  0.00     0.202 C 
BRANCH  66  67
ATOM     67  C   UNL     1       4.215  -4.117   2.449  1.00  0.00     0.261 C 
BRANCH  67  68
ATOM     68  O   UNL     1       3.844  -4.395   1.089  1.00  0.00    -0.460 OA
BRANCH  68  69
ATOM     69  C   UNL     1       2.630  -4.954   0.888  1.00  0.00     0.338 C 
ATOM     70  O   UNL     1       1.773  -5.221   1.733  1.00  0.00    -0.246 OA
BRANCH  69  71
ATOM     71  C   UNL     1       2.434  -5.182  -0.555  1.00  0.00     0.061 A 
ATOM     72  C   UNL     1       3.336  -6.024  -1.202  1.00  0.00     0.019 A 
ATOM     73  C   UNL     1       1.354  -4.588  -1.257  1.00  0.00     0.038 A 
ATOM     74  C   UNL     1       3.131  -6.263  -2.543  1.00  0.00    -0.043 A 
ATOM     75  C   UNL     1       1.187  -4.795  -2.646  1.00  0.00     0.092 A 
ATOM     76  C   UNL     1       2.113  -5.616  -3.279  1.00  0.00    -0.024 A 
ATOM     77  C   UNL     1       3.902  -7.220  -3.405  1.00  0.00     0.036 C 
ATOM     78  C   UNL     1       2.295  -5.989  -4.716  1.00  0.00     0.037 C 
ATOM     79  C   UNL     1       2.901  -7.385  -4.548  1.00  0.00     0.010 C 
BRANCH  75  80
ATOM     80  S   UNL     1      -0.011  -3.818  -3.541  1.00  0.00     0.262 S 
ATOM     81  O   UNL     1      -0.644  -2.937  -2.576  1.00  0.00    -0.201 OA
ATOM     82  O   UNL     1       0.671  -3.236  -4.678  1.00  0.00    -0.201 OA
BRANCH  80  83
ATOM     83  N   UNL     1      -1.306  -4.729  -4.191  1.00  0.00    -0.277 N 
ATOM     84  H   UNL     1      -2.211  -4.340  -4.183  1.00  0.00     0.180 HD
BRANCH  83  85
ATOM     85  C   UNL     1      -1.125  -6.041  -4.749  1.00  0.00     0.075 A 
ATOM     86  C   UNL     1      -0.903  -6.169  -6.133  1.00  0.00     0.042 A 
ATOM     87  C   UNL     1      -1.038  -7.179  -3.933  1.00  0.00     0.089 A 
ATOM     88  C   UNL     1      -0.516  -7.407  -6.692  1.00  0.00     0.058 A 
ATOM     89  C   UNL     1      -0.674  -8.416  -4.487  1.00  0.00     0.031 A 
ATOM     90  C   UNL     1      -0.421  -8.529  -5.856  1.00  0.00     0.015 A 
BRANCH  87  91
ATOM     91  N   UNL     1      -1.266  -7.100  -2.539  1.00  0.00    -0.239 N 
ATOM     92  C   UNL     1      -2.127  -6.262  -1.867  1.00  0.00     0.115 A 
ATOM     93  N   UNL     1      -0.504  -7.819  -1.679  1.00  0.00    -0.177 NA
ATOM     94  C   UNL     1      -1.767  -6.299  -0.544  1.00  0.00     0.042 A 
ATOM     95  C   UNL     1      -0.739  -7.253  -0.491  1.00  0.00     0.135 A 
ENDBRANCH  87  91
BRANCH  88  96
ATOM     96  C   UNL     1      -0.130  -7.501  -8.153  1.00  0.00     0.416 C 
ATOM     97  F   UNL     1      -1.202  -7.431  -8.986  1.00  0.00    -0.166 F 
ATOM     98  F   UNL     1       0.707  -6.495  -8.530  1.00  0.00    -0.166 F 
ATOM     99  F   UNL     1       0.520  -8.656  -8.467  1.00  0.00    -0.166 F 
ENDBRANCH  88  96
ENDBRANCH  83  85
ENDBRANCH  80  83
ENDBRANCH  75  80
ENDBRANCH  69  71
ENDBRANCH  68  69
ENDBRANCH  67  68
ENDBRANCH  66  67
ENDBRANCH  65  66
ENDBRANCH   1  65
TORSDOF 22
