REMARK SMILES CC(C)CC[C@@H](C(=O)OCCOCCOCCOC(=O)c1ccc(-c2c3nc(c(-c4c(F)cccc4F)c4ccc([nH]4)c(-c4c(F)cccc4F)c4nc(c(-c5c(F)cccc5F)c5ccc2[nH]5)C=C4)C=C3)cc1)c1ccc(Br)cc1
REMARK SMILES IDX 13 1 12 2 11 3 10 4 9 5 7 6 8 7 6 8 5 9 4 10 2 11 1 12 3 13
REMARK SMILES IDX 75 14 76 15 81 16 77 17 80 18 78 19 79 20 14 21 15 22 16 23
REMARK SMILES IDX 17 24 18 25 19 26 20 27 21 28 22 29 74 30 23 31 73 32 24 33
REMARK SMILES IDX 25 34 26 35 67 36 27 37 72 38 66 39 68 40 28 41 71 42 65 43
REMARK SMILES IDX 64 44 29 46 55 47 38 48 54 49 39 50 42 51 53 52 69 53 40 54
REMARK SMILES IDX 41 55 52 57 70 58 43 59 30 60 31 61 36 62 32 63 33 64 35 65
REMARK SMILES IDX 37 66 34 67 56 68 57 69 62 70 58 71 59 72 61 73 63 74 60 75
REMARK SMILES IDX 44 76 45 77 50 78 46 79 47 80 49 81 51 82 48 83
REMARK H PARENT 68 45 42 56
REMARK Flexibility Score: inf
ROOT
ATOM      1  C   UNL     1      -3.532   3.849   3.229  1.00  0.00     0.188 C 
ENDROOT
BRANCH   1   2
ATOM      2  O   UNL     1      -3.246   5.239   3.324  1.00  0.00    -0.376 OA
BRANCH   2   3
ATOM      3  C   UNL     1      -2.430   5.787   2.287  1.00  0.00     0.202 C 
BRANCH   3   4
ATOM      4  C   UNL     1      -1.024   5.181   2.129  1.00  0.00     0.261 C 
BRANCH   4   5
ATOM      5  O   UNL     1      -1.018   3.747   1.945  1.00  0.00    -0.463 OA
BRANCH   5   6
ATOM      6  C   UNL     1      -0.213   3.023   2.774  1.00  0.00     0.313 C 
ATOM      7  O   UNL     1       0.552   3.528   3.591  1.00  0.00    -0.252 OA
BRANCH   6   8
ATOM      8  C   UNL     1      -0.386   1.496   2.643  1.00  0.00     0.129 C 
BRANCH   8   9
ATOM      9  C   UNL     1      -1.100   0.999   1.358  1.00  0.00     0.020 C 
BRANCH   9  10
ATOM     10  C   UNL     1      -0.601   1.529   0.007  1.00  0.00     0.004 C 
BRANCH  10  11
ATOM     11  C   UNL     1       0.921   1.508  -0.206  1.00  0.00    -0.017 C 
ATOM     12  C   UNL     1       1.486   0.087  -0.211  1.00  0.00     0.007 C 
ATOM     13  C   UNL     1       1.262   2.209  -1.523  1.00  0.00     0.007 C 
ENDBRANCH  10  11
ENDBRANCH   9  10
ENDBRANCH   8   9
BRANCH   8  14
ATOM     14  C   UNL     1      -0.964   0.803   3.901  1.00  0.00    -0.034 A 
ATOM     15  C   UNL     1      -1.356   1.495   5.061  1.00  0.00     0.006 A 
ATOM     16  C   UNL     1      -1.046  -0.605   3.938  1.00  0.00     0.006 A 
ATOM     17  C   UNL     1      -1.804   0.814   6.203  1.00  0.00     0.016 A 
ATOM     18  C   UNL     1      -1.494  -1.288   5.073  1.00  0.00     0.016 A 
ATOM     19  C   UNL     1      -1.854  -0.576   6.209  1.00  0.00     0.017 A 
ATOM     20  Br  UNL     1      -2.332  -1.511   7.779  1.00  0.00    -0.051 Br
ENDBRANCH   8  14
ENDBRANCH   6   8
ENDBRANCH   5   6
ENDBRANCH   4   5
ENDBRANCH   3   4
ENDBRANCH   2   3
ENDBRANCH   1   2
BRANCH   1  21
ATOM     21  C   UNL     1      -4.283   3.393   1.981  1.00  0.00     0.188 C 
BRANCH  21  22
ATOM     22  O   UNL     1      -3.841   3.951   0.754  1.00  0.00    -0.376 OA
BRANCH  22  23
ATOM     23  C   UNL     1      -4.635   3.667  -0.402  1.00  0.00     0.202 C 
BRANCH  23  24
ATOM     24  C   UNL     1      -6.154   3.927  -0.287  1.00  0.00     0.261 C 
BRANCH  24  25
ATOM     25  O   UNL     1      -6.852   3.168   0.728  1.00  0.00    -0.460 OA
BRANCH  25  26
ATOM     26  C   UNL     1      -6.653   1.831   0.759  1.00  0.00     0.338 C 
ATOM     27  O   UNL     1      -6.177   1.152  -0.136  1.00  0.00    -0.246 OA
BRANCH  26  28
ATOM     28  C   UNL     1      -6.863   1.335   2.150  1.00  0.00     0.060 A 
ATOM     29  C   UNL     1      -6.028   0.306   2.610  1.00  0.00     0.016 A 
ATOM     30  C   UNL     1      -7.817   1.885   3.014  1.00  0.00     0.016 A 
ATOM     31  C   UNL     1      -6.204  -0.236   3.886  1.00  0.00     0.010 A 
ATOM     32  C   UNL     1      -8.000   1.335   4.292  1.00  0.00     0.010 A 
ATOM     33  C   UNL     1      -7.236   0.229   4.710  1.00  0.00    -0.014 A 
BRANCH  33  34
ATOM     34  C   UNL     1      -7.683  -0.617   5.851  1.00  0.00     0.031 A 
ATOM     35  C   UNL     1      -8.859  -1.535   5.628  1.00  0.00     0.074 A 
ATOM     36  C   UNL     1      -7.045  -0.636   7.036  1.00  0.00     0.049 A 
ATOM     37  N   UNL     1      -9.417  -2.394   6.444  1.00  0.00    -0.248 NA
ATOM     38  C   UNL     1      -9.496  -1.469   4.303  1.00  0.00     0.031 C 
ATOM     39  C   UNL     1      -5.889   0.180   7.392  1.00  0.00     0.029 A 
ATOM     40  N   UNL     1      -7.289  -1.386   8.163  1.00  0.00    -0.354 N 
ATOM     41  C   UNL     1     -10.470  -2.959   5.735  1.00  0.00     0.074 A 
ATOM     42  C   UNL     1     -10.499  -2.321   4.438  1.00  0.00     0.031 C 
ATOM     43  C   UNL     1      -5.525  -0.112   8.654  1.00  0.00     0.029 A 
ATOM     44  C   UNL     1      -6.418  -1.135   9.196  1.00  0.00     0.049 A 
ATOM     45  H   UNL     1      -8.021  -2.042   8.225  1.00  0.00     0.167 HD
ATOM     46  C   UNL     1     -11.332  -3.930   6.116  1.00  0.00     0.037 A 
ATOM     47  C   UNL     1      -6.348  -1.670  10.433  1.00  0.00     0.037 A 
ATOM     48  C   UNL     1     -11.313  -4.578   7.400  1.00  0.00     0.049 A 
ATOM     49  C   UNL     1      -7.339  -2.733  10.846  1.00  0.00     0.074 A 
ATOM     50  C   UNL     1     -12.144  -5.579   7.872  1.00  0.00     0.029 A 
ATOM     51  N   UNL     1     -10.420  -4.286   8.419  1.00  0.00    -0.354 N 
ATOM     52  N   UNL     1      -8.311  -3.278  10.155  1.00  0.00    -0.248 NA
ATOM     53  C   UNL     1      -7.216  -3.257  12.215  1.00  0.00     0.031 C 
ATOM     54  C   UNL     1     -11.785  -5.859   9.194  1.00  0.00     0.029 A 
ATOM     55  C   UNL     1     -10.690  -5.078   9.523  1.00  0.00     0.049 A 
ATOM     56  H   UNL     1      -9.701  -3.616   8.365  1.00  0.00     0.167 HD
ATOM     57  C   UNL     1      -8.888  -4.230  10.991  1.00  0.00     0.074 A 
ATOM     58  C   UNL     1      -8.147  -4.200  12.233  1.00  0.00     0.031 C 
ATOM     59  C   UNL     1      -9.938  -5.055  10.751  1.00  0.00     0.037 A 
BRANCH  46  60
ATOM     60  C   UNL     1     -12.392  -4.334   5.133  1.00  0.00     0.057 A 
ATOM     61  C   UNL     1     -12.091  -5.055   3.970  1.00  0.00     0.134 A 
ATOM     62  C   UNL     1     -13.736  -4.018   5.367  1.00  0.00     0.134 A 
ATOM     63  F   UNL     1     -10.821  -5.372   3.675  1.00  0.00    -0.206 F 
ATOM     64  C   UNL     1     -13.086  -5.427   3.064  1.00  0.00     0.040 A 
ATOM     65  C   UNL     1     -14.743  -4.410   4.485  1.00  0.00     0.040 A 
ATOM     66  F   UNL     1     -14.094  -3.330   6.462  1.00  0.00    -0.206 F 
ATOM     67  C   UNL     1     -14.418  -5.112   3.326  1.00  0.00     0.006 A 
ENDBRANCH  46  60
BRANCH  47  68
ATOM     68  C   UNL     1      -5.303  -1.220  11.392  1.00  0.00     0.057 A 
ATOM     69  C   UNL     1      -4.293  -2.087  11.831  1.00  0.00     0.134 A 
ATOM     70  C   UNL     1      -5.325   0.067  11.941  1.00  0.00     0.134 A 
ATOM     71  F   UNL     1      -4.235  -3.345  11.371  1.00  0.00    -0.206 F 
ATOM     72  C   UNL     1      -3.364  -1.700  12.800  1.00  0.00     0.040 A 
ATOM     73  C   UNL     1      -4.384   0.477  12.888  1.00  0.00     0.040 A 
ATOM     74  F   UNL     1      -6.267   0.946  11.569  1.00  0.00    -0.206 F 
ATOM     75  C   UNL     1      -3.407  -0.412  13.329  1.00  0.00     0.006 A 
ENDBRANCH  47  68
BRANCH  59  76
ATOM     76  C   UNL     1     -10.311  -6.037  11.827  1.00  0.00     0.057 A 
ATOM     77  C   UNL     1     -10.882  -5.637  13.042  1.00  0.00     0.134 A 
ATOM     78  C   UNL     1     -10.113  -7.411  11.632  1.00  0.00     0.134 A 
ATOM     79  F   UNL     1     -11.095  -4.338  13.299  1.00  0.00    -0.206 F 
ATOM     80  C   UNL     1     -11.204  -6.562  14.038  1.00  0.00     0.040 A 
ATOM     81  C   UNL     1     -10.461  -8.348  12.607  1.00  0.00     0.040 A 
ATOM     82  F   UNL     1      -9.586  -7.868  10.486  1.00  0.00    -0.206 F 
ATOM     83  C   UNL     1     -10.998  -7.923  13.819  1.00  0.00     0.006 A 
ENDBRANCH  59  76
ENDBRANCH  33  34
ENDBRANCH  26  28
ENDBRANCH  25  26
ENDBRANCH  24  25
ENDBRANCH  23  24
ENDBRANCH  22  23
ENDBRANCH  21  22
ENDBRANCH   1  21
TORSDOF 21
