REMARK SMILES CC(C)CCNC(=O)[C@@H](C)Oc1ccc(N)cc1C(=O)OCCOCCOCCOC(=O)c1ccc(-c2c3nc(c(-c4c(F)cccc4F)c4ccc([nH]4)c(-c4c(F)cccc4F)c4nc(c(-c5c(F)cccc5F)c5ccc2[nH]5)C=C4)C=C3)cc1
REMARK SMILES IDX 23 1 22 2 21 3 19 4 20 5 18 6 12 7 13 8 14 9 17 10 15 11
REMARK SMILES IDX 11 12 9 13 10 14 7 15 6 16 8 18 5 19 4 20 2 21 1 22 3 23
REMARK SMILES IDX 16 24 24 27 25 28 26 29 27 30 28 31 29 32 30 33 31 34 32 35
REMARK SMILES IDX 33 36 34 37 86 38 35 39 85 40 36 41 37 42 38 43 79 44 39 45
REMARK SMILES IDX 84 46 78 47 80 48 40 49 83 50 77 51 76 52 41 54 67 55 50 56
REMARK SMILES IDX 66 57 51 58 54 59 65 60 81 61 52 62 53 63 64 65 82 66 55 67
REMARK SMILES IDX 42 68 43 69 48 70 44 71 45 72 47 73 49 74 46 75 68 76 69 77
REMARK SMILES IDX 74 78 70 79 71 80 73 81 75 82 72 83 56 84 57 85 62 86 58 87
REMARK SMILES IDX 59 88 61 89 63 90 60 91
REMARK H PARENT 6 17 16 25 16 26 80 53 54 64
REMARK Flexibility Score: inf
ROOT
ATOM      1  C   UNL     1      -8.448  -1.256  -1.700  1.00  0.00     0.202 C 
ENDROOT
BRANCH   1   2
ATOM      2  C   UNL     1      -7.494  -2.225  -2.425  1.00  0.00     0.261 C 
BRANCH   2   3
ATOM      3  O   UNL     1      -6.111  -2.158  -2.043  1.00  0.00    -0.460 OA
BRANCH   3   4
ATOM      4  C   UNL     1      -5.294  -1.619  -2.974  1.00  0.00     0.342 C 
ATOM      5  O   UNL     1      -5.636  -1.216  -4.079  1.00  0.00    -0.246 OA
BRANCH   4   6
ATOM      6  C   UNL     1      -3.923  -1.364  -2.480  1.00  0.00     0.104 A 
ATOM      7  C   UNL     1      -3.109  -2.307  -1.851  1.00  0.00     0.135 A 
ATOM      8  C   UNL     1      -1.738  -2.134  -1.993  1.00  0.00     0.049 A 
ATOM      9  C   UNL     1      -1.212  -0.894  -2.387  1.00  0.00     0.029 A 
ATOM     10  C   UNL     1      -3.396  -0.099  -2.814  1.00  0.00     0.045 A 
ATOM     11  C   UNL     1      -2.050   0.183  -2.632  1.00  0.00     0.032 A 
BRANCH   7  12
ATOM     12  O   UNL     1      -3.626  -3.393  -1.216  1.00  0.00    -0.480 OA
BRANCH  12  13
ATOM     13  C   UNL     1      -3.188  -3.682   0.125  1.00  0.00     0.258 C 
ATOM     14  C   UNL     1      -4.042  -2.993   1.199  1.00  0.00     0.064 C 
BRANCH  13  15
ATOM     15  C   UNL     1      -1.703  -3.829   0.610  1.00  0.00     0.260 C 
ATOM     16  N   UNL     1      -0.974  -2.794   1.133  1.00  0.00    -0.353 N 
ATOM     17  H   UNL     1      -0.217  -3.055   1.705  1.00  0.00     0.163 HD
ATOM     18  O   UNL     1      -1.139  -4.929   0.559  1.00  0.00    -0.271 OA
BRANCH  16  19
ATOM     19  C   UNL     1      -1.163  -1.369   0.960  1.00  0.00     0.116 C 
BRANCH  19  20
ATOM     20  C   UNL     1      -0.509  -0.486   2.013  1.00  0.00     0.024 C 
BRANCH  20  21
ATOM     21  C   UNL     1       1.024  -0.351   1.886  1.00  0.00    -0.016 C 
ATOM     22  C   UNL     1       1.489   0.114   0.499  1.00  0.00     0.007 C 
ATOM     23  C   UNL     1       1.523   0.644   2.937  1.00  0.00     0.007 C 
ENDBRANCH  20  21
ENDBRANCH  19  20
ENDBRANCH  16  19
ENDBRANCH  13  15
ENDBRANCH  12  13
ENDBRANCH   7  12
BRANCH  11  24
ATOM     24  N   UNL     1      -1.544   1.450  -2.854  1.00  0.00    -0.399 N 
ATOM     25  H   UNL     1      -0.586   1.627  -2.718  1.00  0.00     0.156 HD
ATOM     26  H   UNL     1      -2.143   2.175  -3.147  1.00  0.00     0.156 HD
ENDBRANCH  11  24
ENDBRANCH   4   6
ENDBRANCH   3   4
ENDBRANCH   2   3
ENDBRANCH   1   2
BRANCH   1  27
ATOM     27  O   UNL     1      -8.119   0.114  -1.509  1.00  0.00    -0.376 OA
BRANCH  27  28
ATOM     28  C   UNL     1      -6.825   0.483  -1.057  1.00  0.00     0.188 C 
BRANCH  28  29
ATOM     29  C   UNL     1      -6.175  -0.274   0.116  1.00  0.00     0.188 C 
BRANCH  29  30
ATOM     30  O   UNL     1      -6.924  -1.374   0.571  1.00  0.00    -0.376 OA
BRANCH  30  31
ATOM     31  C   UNL     1      -7.684  -1.256   1.759  1.00  0.00     0.202 C 
BRANCH  31  32
ATOM     32  C   UNL     1      -8.444   0.026   2.148  1.00  0.00     0.261 C 
BRANCH  32  33
ATOM     33  O   UNL     1      -7.988   1.275   1.618  1.00  0.00    -0.460 OA
BRANCH  33  34
ATOM     34  C   UNL     1      -7.015   1.921   2.303  1.00  0.00     0.338 C 
ATOM     35  O   UNL     1      -6.426   1.537   3.291  1.00  0.00    -0.246 OA
BRANCH  34  36
ATOM     36  C   UNL     1      -6.651   3.123   1.521  1.00  0.00     0.060 A 
ATOM     37  C   UNL     1      -5.362   3.225   0.978  1.00  0.00     0.016 A 
ATOM     38  C   UNL     1      -7.586   4.140   1.328  1.00  0.00     0.016 A 
ATOM     39  C   UNL     1      -4.995   4.367   0.260  1.00  0.00     0.010 A 
ATOM     40  C   UNL     1      -7.211   5.289   0.630  1.00  0.00     0.010 A 
ATOM     41  C   UNL     1      -5.906   5.421   0.121  1.00  0.00    -0.014 A 
BRANCH  41  42
ATOM     42  C   UNL     1      -5.460   6.749  -0.365  1.00  0.00     0.031 A 
ATOM     43  C   UNL     1      -5.167   7.811   0.657  1.00  0.00     0.074 A 
ATOM     44  C   UNL     1      -5.359   7.025  -1.676  1.00  0.00     0.049 A 
ATOM     45  N   UNL     1      -4.921   9.084   0.491  1.00  0.00    -0.248 NA
ATOM     46  C   UNL     1      -5.166   7.372   2.062  1.00  0.00     0.031 C 
ATOM     47  C   UNL     1      -5.574   6.072  -2.762  1.00  0.00     0.029 A 
ATOM     48  N   UNL     1      -5.078   8.209  -2.312  1.00  0.00    -0.354 N 
ATOM     49  C   UNL     1      -4.758   9.603   1.769  1.00  0.00     0.074 A 
ATOM     50  C   UNL     1      -4.959   8.514   2.699  1.00  0.00     0.031 C 
ATOM     51  C   UNL     1      -5.445   6.717  -3.935  1.00  0.00     0.029 A 
ATOM     52  C   UNL     1      -5.186   8.134  -3.679  1.00  0.00     0.049 A 
ATOM     53  H   UNL     1      -4.824   9.031  -1.834  1.00  0.00     0.167 HD
ATOM     54  C   UNL     1      -4.468  10.874   2.135  1.00  0.00     0.037 A 
ATOM     55  C   UNL     1      -5.123   9.107  -4.610  1.00  0.00     0.037 A 
ATOM     56  C   UNL     1      -4.285  11.956   1.204  1.00  0.00     0.049 A 
ATOM     57  C   UNL     1      -4.880  10.531  -4.180  1.00  0.00     0.074 A 
ATOM     58  C   UNL     1      -3.977  13.278   1.469  1.00  0.00     0.029 A 
ATOM     59  N   UNL     1      -4.409  11.842  -0.173  1.00  0.00    -0.354 N 
ATOM     60  N   UNL     1      -4.711  11.015  -2.973  1.00  0.00    -0.248 NA
ATOM     61  C   UNL     1      -4.819  11.545  -5.244  1.00  0.00     0.031 C 
ATOM     62  C   UNL     1      -3.974  13.976   0.257  1.00  0.00     0.029 A 
ATOM     63  C   UNL     1      -4.208  13.075  -0.769  1.00  0.00     0.049 A 
ATOM     64  H   UNL     1      -4.610  11.007  -0.654  1.00  0.00     0.167 HD
ATOM     65  C   UNL     1      -4.486  12.379  -3.134  1.00  0.00     0.074 A 
ATOM     66  C   UNL     1      -4.539  12.644  -4.556  1.00  0.00     0.031 C 
ATOM     67  C   UNL     1      -4.248  13.322  -2.189  1.00  0.00     0.037 A 
BRANCH  54  68
ATOM     68  C   UNL     1      -4.375  11.161   3.606  1.00  0.00     0.057 A 
ATOM     69  C   UNL     1      -3.342  10.648   4.402  1.00  0.00     0.134 A 
ATOM     70  C   UNL     1      -5.337  11.960   4.236  1.00  0.00     0.134 A 
ATOM     71  F   UNL     1      -2.397   9.861   3.866  1.00  0.00    -0.206 F 
ATOM     72  C   UNL     1      -3.289  10.889   5.776  1.00  0.00     0.040 A 
ATOM     73  C   UNL     1      -5.277  12.236   5.603  1.00  0.00     0.040 A 
ATOM     74  F   UNL     1      -6.352  12.487   3.535  1.00  0.00    -0.206 F 
ATOM     75  C   UNL     1      -4.257  11.691   6.379  1.00  0.00     0.006 A 
ENDBRANCH  54  68
BRANCH  55  76
ATOM     76  C   UNL     1      -5.312   8.770  -6.044  1.00  0.00     0.057 A 
ATOM     77  C   UNL     1      -4.252   8.856  -6.954  1.00  0.00     0.134 A 
ATOM     78  C   UNL     1      -6.555   8.360  -6.541  1.00  0.00     0.134 A 
ATOM     79  F   UNL     1      -3.043   9.267  -6.544  1.00  0.00    -0.206 F 
ATOM     80  C   UNL     1      -4.423   8.558  -8.307  1.00  0.00     0.040 A 
ATOM     81  C   UNL     1      -6.734   8.033  -7.886  1.00  0.00     0.040 A 
ATOM     82  F   UNL     1      -7.612   8.259  -5.722  1.00  0.00    -0.206 F 
ATOM     83  C   UNL     1      -5.667   8.138  -8.775  1.00  0.00     0.006 A 
ENDBRANCH  55  76
BRANCH  67  84
ATOM     84  C   UNL     1      -3.961  14.722  -2.656  1.00  0.00     0.057 A 
ATOM     85  C   UNL     1      -4.953  15.551  -3.193  1.00  0.00     0.134 A 
ATOM     86  C   UNL     1      -2.678  15.267  -2.503  1.00  0.00     0.134 A 
ATOM     87  F   UNL     1      -6.200  15.091  -3.376  1.00  0.00    -0.206 F 
ATOM     88  C   UNL     1      -4.676  16.865  -3.578  1.00  0.00     0.040 A 
ATOM     89  C   UNL     1      -2.397  16.588  -2.855  1.00  0.00     0.040 A 
ATOM     90  F   UNL     1      -1.683  14.532  -1.985  1.00  0.00    -0.206 F 
ATOM     91  C   UNL     1      -3.397  17.390  -3.400  1.00  0.00     0.006 A 
ENDBRANCH  67  84
ENDBRANCH  41  42
ENDBRANCH  34  36
ENDBRANCH  33  34
ENDBRANCH  32  33
ENDBRANCH  31  32
ENDBRANCH  30  31
ENDBRANCH  29  30
ENDBRANCH  28  29
ENDBRANCH  27  28
ENDBRANCH   1  27
TORSDOF 24
