REMARK SMILES CC(C)(C)OC(=O)N1CCC2(CC1)CNc1ccc(C(=O)OCCOCCOCCOC(=O)c3ccc(-c4c5nc(c(-c6c(F)cccc6F)c6ccc([nH]6)c(-c6c(F)cccc6F)c6nc(c(-c7c(F)cccc7F)c7ccc4[nH]7)C=C6)C=C5)cc3)cc12
REMARK SMILES IDX 26 1 25 2 24 3 23 4 22 5 20 6 21 7 19 8 6 9 7 10 8 11 9 12
REMARK SMILES IDX 13 13 10 14 12 15 11 16 14 17 89 18 15 19 16 20 88 21 17 23
REMARK SMILES IDX 18 24 5 25 2 26 1 27 3 28 4 29 27 30 28 31 29 32 30 33 31 34
REMARK SMILES IDX 32 35 33 36 34 37 35 38 87 39 36 40 86 41 37 42 38 43 39 44
REMARK SMILES IDX 80 45 40 46 85 47 79 48 81 49 41 50 84 51 78 52 77 53 42 55
REMARK SMILES IDX 68 56 51 57 67 58 52 59 55 60 66 61 82 62 53 63 54 64 65 66
REMARK SMILES IDX 83 67 56 68 43 69 44 70 49 71 45 72 46 73 48 74 50 75 47 76
REMARK SMILES IDX 69 77 70 78 75 79 71 80 72 81 74 82 76 83 73 84 57 85 58 86
REMARK SMILES IDX 63 87 59 88 60 89 62 90 64 91 61 92
REMARK H PARENT 15 22 81 54 55 65
REMARK Flexibility Score: inf
ROOT
ATOM      1  C   UNL     1      -1.292   5.193   6.682  1.00  0.00     0.188 C 
ENDROOT
BRANCH   1   2
ATOM      2  O   UNL     1      -1.260   4.490   7.909  1.00  0.00    -0.376 OA
BRANCH   2   3
ATOM      3  C   UNL     1      -0.362   4.862   8.941  1.00  0.00     0.202 C 
BRANCH   3   4
ATOM      4  C   UNL     1       1.121   5.090   8.644  1.00  0.00     0.261 C 
BRANCH   4   5
ATOM      5  O   UNL     1       1.367   6.001   7.567  1.00  0.00    -0.460 OA
BRANCH   5   6
ATOM      6  C   UNL     1       1.998   5.464   6.493  1.00  0.00     0.338 C 
ATOM      7  O   UNL     1       2.389   4.315   6.371  1.00  0.00    -0.246 OA
BRANCH   6   8
ATOM      8  C   UNL     1       2.014   6.434   5.376  1.00  0.00     0.060 A 
ATOM      9  C   UNL     1       0.510   3.933  -1.483  1.00  0.00     0.410 C 
ATOM     10  O   UNL     1      -0.533   4.026  -2.115  1.00  0.00    -0.224 OA
ATOM     11  N   UNL     1       1.076   4.986  -0.793  1.00  0.00    -0.308 N 
ATOM     12  C   UNL     1       0.253   6.137  -0.462  1.00  0.00     0.124 C 
ATOM     13  C   UNL     1       2.468   5.009  -0.362  1.00  0.00     0.124 C 
ATOM     14  C   UNL     1       0.321   6.423   1.044  1.00  0.00     0.035 C 
ATOM     15  C   UNL     1       2.571   5.284   1.130  1.00  0.00     0.035 C 
ATOM     16  C   UNL     1       1.783   6.545   1.530  1.00  0.00     0.018 C 
ATOM     17  C   UNL     1       2.431   7.863   0.988  1.00  0.00     0.124 C 
ATOM     18  C   UNL     1       1.886   6.813   3.014  1.00  0.00    -0.016 A 
ATOM     19  N   UNL     1       2.264   8.877   2.029  1.00  0.00    -0.384 N 
ATOM     20  C   UNL     1       2.170   8.165   3.224  1.00  0.00     0.038 A 
ATOM     21  C   UNL     1       1.814   5.932   4.081  1.00  0.00     0.022 A 
ATOM     22  H   UNL     1       2.225   9.853   1.911  1.00  0.00     0.160 HD
ATOM     23  C   UNL     1       2.286   8.685   4.500  1.00  0.00     0.027 A 
ATOM     24  C   UNL     1       2.222   7.809   5.589  1.00  0.00     0.018 A 
BRANCH   9  25
ATOM     25  O   UNL     1       1.195   2.789  -1.270  1.00  0.00    -0.444 OA
BRANCH  25  26
ATOM     26  C   UNL     1       0.627   1.488  -1.548  1.00  0.00     0.106 C 
ATOM     27  C   UNL     1       1.252   0.596  -0.478  1.00  0.00     0.056 C 
ATOM     28  C   UNL     1       1.081   1.018  -2.928  1.00  0.00     0.056 C 
ATOM     29  C   UNL     1      -0.898   1.397  -1.410  1.00  0.00     0.056 C 
ENDBRANCH  25  26
ENDBRANCH   9  25
ENDBRANCH   6   8
ENDBRANCH   5   6
ENDBRANCH   4   5
ENDBRANCH   3   4
ENDBRANCH   2   3
ENDBRANCH   1   2
BRANCH   1  30
ATOM     30  C   UNL     1      -1.448   6.729   6.624  1.00  0.00     0.188 C 
BRANCH  30  31
ATOM     31  O   UNL     1      -1.760   7.471   7.787  1.00  0.00    -0.376 OA
BRANCH  31  32
ATOM     32  C   UNL     1      -2.914   7.128   8.540  1.00  0.00     0.202 C 
BRANCH  32  33
ATOM     33  C   UNL     1      -4.270   7.068   7.836  1.00  0.00     0.261 C 
BRANCH  33  34
ATOM     34  O   UNL     1      -4.324   6.039   6.836  1.00  0.00    -0.460 OA
BRANCH  34  35
ATOM     35  C   UNL     1      -4.618   6.453   5.579  1.00  0.00     0.338 C 
ATOM     36  O   UNL     1      -4.871   7.584   5.207  1.00  0.00    -0.246 OA
BRANCH  35  37
ATOM     37  C   UNL     1      -4.402   5.324   4.655  1.00  0.00     0.060 A 
ATOM     38  C   UNL     1      -5.114   4.133   4.809  1.00  0.00     0.016 A 
ATOM     39  C   UNL     1      -3.465   5.469   3.624  1.00  0.00     0.016 A 
ATOM     40  C   UNL     1      -4.896   3.085   3.911  1.00  0.00     0.010 A 
ATOM     41  C   UNL     1      -3.237   4.415   2.738  1.00  0.00     0.010 A 
ATOM     42  C   UNL     1      -3.963   3.221   2.868  1.00  0.00    -0.014 A 
BRANCH  42  43
ATOM     43  C   UNL     1      -3.874   2.175   1.820  1.00  0.00     0.031 A 
ATOM     44  C   UNL     1      -2.836   1.093   1.870  1.00  0.00     0.074 A 
ATOM     45  C   UNL     1      -4.764   2.233   0.813  1.00  0.00     0.049 A 
ATOM     46  N   UNL     1      -2.720   0.017   1.130  1.00  0.00    -0.248 NA
ATOM     47  C   UNL     1      -1.781   1.246   2.879  1.00  0.00     0.031 C 
ATOM     48  C   UNL     1      -5.804   3.256   0.670  1.00  0.00     0.029 A 
ATOM     49  N   UNL     1      -4.952   1.413  -0.267  1.00  0.00    -0.354 N 
ATOM     50  C   UNL     1      -1.587  -0.651   1.591  1.00  0.00     0.074 A 
ATOM     51  C   UNL     1      -1.037   0.170   2.652  1.00  0.00     0.031 C 
ATOM     52  C   UNL     1      -6.546   2.978  -0.413  1.00  0.00     0.029 A 
ATOM     53  C   UNL     1      -6.021   1.776  -1.048  1.00  0.00     0.049 A 
ATOM     54  H   UNL     1      -4.376   0.639  -0.464  1.00  0.00     0.167 HD
ATOM     55  C   UNL     1      -1.053  -1.821   1.144  1.00  0.00     0.037 A 
ATOM     56  C   UNL     1      -6.528   1.189  -2.146  1.00  0.00     0.037 A 
ATOM     57  C   UNL     1      -1.565  -2.537  -0.006  1.00  0.00     0.049 A 
ATOM     58  C   UNL     1      -5.877  -0.062  -2.659  1.00  0.00     0.074 A 
ATOM     59  C   UNL     1      -1.112  -3.720  -0.567  1.00  0.00     0.029 A 
ATOM     60  N   UNL     1      -2.619  -2.106  -0.808  1.00  0.00    -0.354 N 
ATOM     61  N   UNL     1      -4.875  -0.743  -2.156  1.00  0.00    -0.248 NA
ATOM     62  C   UNL     1      -6.432  -0.626  -3.896  1.00  0.00     0.031 C 
ATOM     63  C   UNL     1      -1.810  -3.941  -1.760  1.00  0.00     0.029 A 
ATOM     64  C   UNL     1      -2.775  -2.957  -1.894  1.00  0.00     0.049 A 
ATOM     65  H   UNL     1      -3.174  -1.313  -0.630  1.00  0.00     0.167 HD
ATOM     66  C   UNL     1      -4.691  -1.826  -3.002  1.00  0.00     0.074 A 
ATOM     67  C   UNL     1      -5.702  -1.723  -4.036  1.00  0.00     0.031 C 
ATOM     68  C   UNL     1      -3.769  -2.818  -2.931  1.00  0.00     0.037 A 
BRANCH  55  69
ATOM     69  C   UNL     1       0.187  -2.347   1.847  1.00  0.00     0.057 A 
ATOM     70  C   UNL     1       1.399  -2.558   1.167  1.00  0.00     0.134 A 
ATOM     71  C   UNL     1       0.188  -2.655   3.215  1.00  0.00     0.134 A 
ATOM     72  F   UNL     1       1.488  -2.405  -0.162  1.00  0.00    -0.206 F 
ATOM     73  C   UNL     1       2.566  -2.958   1.823  1.00  0.00     0.040 A 
ATOM     74  C   UNL     1       1.351  -3.047   3.887  1.00  0.00     0.040 A 
ATOM     75  F   UNL     1      -0.936  -2.538   3.939  1.00  0.00    -0.206 F 
ATOM     76  C   UNL     1       2.549  -3.185   3.193  1.00  0.00     0.006 A 
ENDBRANCH  55  69
BRANCH  56  77
ATOM     77  C   UNL     1      -7.737   1.742  -2.802  1.00  0.00     0.057 A 
ATOM     78  C   UNL     1      -7.708   2.952  -3.504  1.00  0.00     0.134 A 
ATOM     79  C   UNL     1      -8.955   1.054  -2.751  1.00  0.00     0.134 A 
ATOM     80  F   UNL     1      -6.574   3.662  -3.584  1.00  0.00    -0.206 F 
ATOM     81  C   UNL     1      -8.847   3.459  -4.131  1.00  0.00     0.040 A 
ATOM     82  C   UNL     1     -10.096   1.538  -3.392  1.00  0.00     0.040 A 
ATOM     83  F   UNL     1      -9.041  -0.118  -2.105  1.00  0.00    -0.206 F 
ATOM     84  C   UNL     1     -10.044   2.747  -4.083  1.00  0.00     0.006 A 
ENDBRANCH  56  77
BRANCH  68  85
ATOM     85  C   UNL     1      -3.832  -3.871  -4.003  1.00  0.00     0.057 A 
ATOM     86  C   UNL     1      -4.243  -5.174  -3.696  1.00  0.00     0.134 A 
ATOM     87  C   UNL     1      -3.488  -3.600  -5.334  1.00  0.00     0.134 A 
ATOM     88  F   UNL     1      -4.582  -5.505  -2.440  1.00  0.00    -0.206 F 
ATOM     89  C   UNL     1      -4.314  -6.168  -4.673  1.00  0.00     0.040 A 
ATOM     90  C   UNL     1      -3.585  -4.578  -6.327  1.00  0.00     0.040 A 
ATOM     91  F   UNL     1      -3.102  -2.369  -5.701  1.00  0.00    -0.206 F 
ATOM     92  C   UNL     1      -3.994  -5.868  -5.995  1.00  0.00     0.006 A 
ENDBRANCH  68  85
ENDBRANCH  42  43
ENDBRANCH  35  37
ENDBRANCH  34  35
ENDBRANCH  33  34
ENDBRANCH  32  33
ENDBRANCH  31  32
ENDBRANCH  30  31
ENDBRANCH   1  30
TORSDOF 19
