REMARK SMILES C[C@H]1CC[C@@](NC(=O)N[C@H]2CCOC2)(C(=O)OCCOCCOCCOC(=O)c2ccc(-c3c4nc(c(-c5c(F)cccc5F)c5ccc([nH]5)c(-c5c(F)cccc5F)c5nc(c(-c6c(F)cccc6F)c6ccc3[nH]6)C=C5)C=C4)cc2)CC1
REMARK SMILES IDX 21 1 20 2 19 3 18 4 17 5 15 6 16 7 5 8 1 9 2 10 84 11 3 12
REMARK SMILES IDX 83 13 4 14 6 15 7 16 8 18 9 19 10 21 11 22 14 23 12 24 13 25
REMARK SMILES IDX 22 26 23 27 24 28 25 29 26 30 27 31 28 32 29 33 30 34 82 35
REMARK SMILES IDX 31 36 81 37 32 38 33 39 34 40 75 41 35 42 80 43 74 44 76 45
REMARK SMILES IDX 36 46 79 47 73 48 72 49 37 51 63 52 46 53 62 54 47 55 50 56
REMARK SMILES IDX 61 57 77 58 48 59 49 60 60 62 78 63 51 64 38 65 39 66 44 67
REMARK SMILES IDX 40 68 41 69 43 70 45 71 42 72 64 73 65 74 70 75 66 76 67 77
REMARK SMILES IDX 69 78 71 79 68 80 52 81 53 82 58 83 54 84 55 85 57 86 59 87
REMARK SMILES IDX 56 88
REMARK H PARENT 6 17 9 20 76 50 50 61
REMARK Flexibility Score: inf
ROOT
ATOM      1  C   UNL     1      -3.036   0.673   0.750  1.00  0.00     0.188 C 
ENDROOT
BRANCH   1   2
ATOM      2  O   UNL     1      -2.553   1.854   0.117  1.00  0.00    -0.376 OA
BRANCH   2   3
ATOM      3  C   UNL     1      -2.347   1.731  -1.286  1.00  0.00     0.202 C 
BRANCH   3   4
ATOM      4  C   UNL     1      -3.629   1.919  -2.103  1.00  0.00     0.261 C 
BRANCH   4   5
ATOM      5  O   UNL     1      -4.238   0.790  -2.783  1.00  0.00    -0.461 OA
BRANCH   5   6
ATOM      6  C   UNL     1      -4.124  -0.521  -2.454  1.00  0.00     0.331 C 
ATOM      7  O   UNL     1      -3.493  -0.973  -1.506  1.00  0.00    -0.249 OA
BRANCH   6   8
ATOM      8  C   UNL     1      -4.882  -1.403  -3.449  1.00  0.00     0.139 C 
ATOM      9  C   UNL     1      -7.236  -3.285  -0.214  1.00  0.00     0.007 C 
ATOM     10  C   UNL     1      -6.771  -2.976  -1.641  1.00  0.00    -0.014 C 
ATOM     11  C   UNL     1      -5.308  -3.389  -1.850  1.00  0.00     0.006 C 
ATOM     12  C   UNL     1      -6.997  -1.494  -1.952  1.00  0.00     0.006 C 
ATOM     13  C   UNL     1      -4.724  -2.915  -3.194  1.00  0.00     0.041 C 
ATOM     14  C   UNL     1      -6.397  -1.069  -3.295  1.00  0.00     0.041 C 
BRANCH   8  15
ATOM     15  N   UNL     1      -4.466  -1.028  -4.831  1.00  0.00    -0.322 N 
ATOM     16  C   UNL     1      -3.358  -0.949  -5.567  1.00  0.00     0.316 C 
ATOM     17  H   UNL     1      -5.249  -0.756  -5.362  1.00  0.00     0.166 HD
ATOM     18  O   UNL     1      -3.526  -0.876  -6.790  1.00  0.00    -0.249 OA
ATOM     19  N   UNL     1      -2.094  -0.894  -5.148  1.00  0.00    -0.333 N 
ATOM     20  H   UNL     1      -1.463  -0.967  -5.900  1.00  0.00     0.165 HD
BRANCH  19  21
ATOM     21  C   UNL     1      -1.397  -0.757  -3.887  1.00  0.00     0.112 C 
ATOM     22  C   UNL     1      -0.858  -2.042  -3.309  1.00  0.00     0.056 C 
ATOM     23  C   UNL     1      -0.135   0.108  -3.906  1.00  0.00     0.185 C 
ATOM     24  C   UNL     1       0.103  -1.524  -2.260  1.00  0.00     0.162 C 
ATOM     25  O   UNL     1       0.666  -0.311  -2.785  1.00  0.00    -0.379 OA
ENDBRANCH  19  21
ENDBRANCH   8  15
ENDBRANCH   6   8
ENDBRANCH   5   6
ENDBRANCH   4   5
ENDBRANCH   3   4
ENDBRANCH   2   3
ENDBRANCH   1   2
BRANCH   1  26
ATOM     26  C   UNL     1      -4.572   0.579   0.712  1.00  0.00     0.188 C 
BRANCH  26  27
ATOM     27  O   UNL     1      -5.308   1.705   1.178  1.00  0.00    -0.376 OA
BRANCH  27  28
ATOM     28  C   UNL     1      -4.772   2.354   2.322  1.00  0.00     0.202 C 
BRANCH  28  29
ATOM     29  C   UNL     1      -4.780   1.526   3.618  1.00  0.00     0.261 C 
BRANCH  29  30
ATOM     30  O   UNL     1      -4.135   0.235   3.493  1.00  0.00    -0.460 OA
BRANCH  30  31
ATOM     31  C   UNL     1      -4.861  -0.831   3.905  1.00  0.00     0.338 C 
ATOM     32  O   UNL     1      -5.956  -0.809   4.443  1.00  0.00    -0.246 OA
BRANCH  31  33
ATOM     33  C   UNL     1      -4.193  -2.114   3.589  1.00  0.00     0.060 A 
ATOM     34  C   UNL     1      -4.441  -2.739   2.363  1.00  0.00     0.016 A 
ATOM     35  C   UNL     1      -3.574  -2.834   4.610  1.00  0.00     0.016 A 
ATOM     36  C   UNL     1      -4.166  -4.095   2.182  1.00  0.00     0.010 A 
ATOM     37  C   UNL     1      -3.267  -4.191   4.418  1.00  0.00     0.010 A 
ATOM     38  C   UNL     1      -3.623  -4.850   3.225  1.00  0.00    -0.014 A 
BRANCH  38  39
ATOM     39  C   UNL     1      -3.636  -6.340   3.144  1.00  0.00     0.031 A 
ATOM     40  C   UNL     1      -4.530  -7.114   4.082  1.00  0.00     0.074 A 
ATOM     41  C   UNL     1      -2.951  -7.015   2.201  1.00  0.00     0.049 A 
ATOM     42  N   UNL     1      -4.570  -8.400   4.327  1.00  0.00    -0.248 NA
ATOM     43  C   UNL     1      -5.515  -6.329   4.844  1.00  0.00     0.031 C 
ATOM     44  C   UNL     1      -2.145  -6.415   1.139  1.00  0.00     0.029 A 
ATOM     45  N   UNL     1      -2.839  -8.368   1.981  1.00  0.00    -0.354 N 
ATOM     46  C   UNL     1      -5.532  -8.566   5.317  1.00  0.00     0.074 A 
ATOM     47  C   UNL     1      -6.059  -7.254   5.620  1.00  0.00     0.031 C 
ATOM     48  C   UNL     1      -1.633  -7.394   0.373  1.00  0.00     0.029 A 
ATOM     49  C   UNL     1      -2.008  -8.689   0.936  1.00  0.00     0.049 A 
ATOM     50  H   UNL     1      -3.309  -9.043   2.522  1.00  0.00     0.167 HD
ATOM     51  C   UNL     1      -5.936  -9.708   5.924  1.00  0.00     0.037 A 
ATOM     52  C   UNL     1      -1.558  -9.886   0.509  1.00  0.00     0.037 A 
ATOM     53  C   UNL     1      -5.465 -11.024   5.580  1.00  0.00     0.049 A 
ATOM     54  C   UNL     1      -1.966 -11.138   1.238  1.00  0.00     0.074 A 
ATOM     55  C   UNL     1      -5.804 -12.240   6.149  1.00  0.00     0.029 A 
ATOM     56  N   UNL     1      -4.571 -11.297   4.558  1.00  0.00    -0.354 N 
ATOM     57  N   UNL     1      -2.785 -11.278   2.251  1.00  0.00    -0.248 NA
ATOM     58  C   UNL     1      -1.365 -12.399   0.776  1.00  0.00     0.031 C 
ATOM     59  C   UNL     1      -5.090 -13.247   5.490  1.00  0.00     0.029 A 
ATOM     60  C   UNL     1      -4.339 -12.661   4.484  1.00  0.00     0.049 A 
ATOM     61  H   UNL     1      -4.162 -10.622   3.970  1.00  0.00     0.167 HD
ATOM     62  C   UNL     1      -2.802 -12.637   2.543  1.00  0.00     0.074 A 
ATOM     63  C   UNL     1      -1.934 -13.283   1.582  1.00  0.00     0.031 C 
ATOM     64  C   UNL     1      -3.470 -13.291   3.525  1.00  0.00     0.037 A 
BRANCH  51  65
ATOM     65  C   UNL     1      -6.902  -9.577   7.065  1.00  0.00     0.057 A 
ATOM     66  C   UNL     1      -8.256  -9.278   6.873  1.00  0.00     0.134 A 
ATOM     67  C   UNL     1      -6.463  -9.775   8.381  1.00  0.00     0.134 A 
ATOM     68  F   UNL     1      -8.735  -9.058   5.640  1.00  0.00    -0.206 F 
ATOM     69  C   UNL     1      -9.135  -9.158   7.952  1.00  0.00     0.040 A 
ATOM     70  C   UNL     1      -7.337  -9.683   9.465  1.00  0.00     0.040 A 
ATOM     71  F   UNL     1      -5.178 -10.068   8.633  1.00  0.00    -0.206 F 
ATOM     72  C   UNL     1      -8.676  -9.368   9.252  1.00  0.00     0.006 A 
ENDBRANCH  51  65
BRANCH  52  73
ATOM     73  C   UNL     1      -0.605  -9.961  -0.629  1.00  0.00     0.057 A 
ATOM     74  C   UNL     1      -0.968 -10.550  -1.845  1.00  0.00     0.134 A 
ATOM     75  C   UNL     1       0.705  -9.477  -0.513  1.00  0.00     0.134 A 
ATOM     76  F   UNL     1      -2.197 -11.062  -2.007  1.00  0.00    -0.206 F 
ATOM     77  C   UNL     1      -0.062 -10.663  -2.901  1.00  0.00     0.040 A 
ATOM     78  C   UNL     1       1.612  -9.558  -1.569  1.00  0.00     0.040 A 
ATOM     79  F   UNL     1       1.118  -8.909   0.630  1.00  0.00    -0.206 F 
ATOM     80  C   UNL     1       1.231 -10.159  -2.767  1.00  0.00     0.006 A 
ENDBRANCH  52  73
BRANCH  64  81
ATOM     81  C   UNL     1      -3.301 -14.781   3.591  1.00  0.00     0.057 A 
ATOM     82  C   UNL     1      -2.113 -15.369   4.044  1.00  0.00     0.134 A 
ATOM     83  C   UNL     1      -4.342 -15.637   3.210  1.00  0.00     0.134 A 
ATOM     84  F   UNL     1      -1.073 -14.605   4.412  1.00  0.00    -0.206 F 
ATOM     85  C   UNL     1      -1.956 -16.756   4.088  1.00  0.00     0.040 A 
ATOM     86  C   UNL     1      -4.205 -17.025   3.272  1.00  0.00     0.040 A 
ATOM     87  F   UNL     1      -5.509 -15.139   2.775  1.00  0.00    -0.206 F 
ATOM     88  C   UNL     1      -3.006 -17.587   3.704  1.00  0.00     0.006 A 
ENDBRANCH  64  81
ENDBRANCH  38  39
ENDBRANCH  31  33
ENDBRANCH  30  31
ENDBRANCH  29  30
ENDBRANCH  28  29
ENDBRANCH  27  28
ENDBRANCH  26  27
ENDBRANCH   1  26
TORSDOF 19
