REMARK SMILES CCc1ccc(N2C(=O)C[C@@H](SC[C@@H](NC(C)=O)C(=O)OCCOCCOCCOC(=O)c3ccc(-c4c5nc(c(-c6c(F)cccc6F)c6ccc([nH]6)c(-c6c(F)cccc6F)c6nc(c(-c7c(F)cccc7F)c7ccc4[nH]7)C=C6)C=C5)cc3)C2=O)cc1
REMARK SMILES IDX 24 1 23 2 22 3 21 4 19 5 20 6 14 7 13 8 12 9 11 10 7 11 8 12
REMARK SMILES IDX 87 13 9 14 10 15 88 16 6 17 3 18 4 19 90 20 5 21 89 22 2 23
REMARK SMILES IDX 1 24 15 25 16 26 17 28 18 29 25 30 26 31 27 32 28 33 29 34
REMARK SMILES IDX 30 35 31 36 32 37 33 38 34 39 86 40 35 41 85 42 36 43 37 44
REMARK SMILES IDX 38 45 79 46 39 47 84 48 78 49 80 50 40 51 83 52 77 53 76 54
REMARK SMILES IDX 41 56 67 57 50 58 66 59 51 60 54 61 65 62 81 63 52 64 53 65
REMARK SMILES IDX 64 67 82 68 55 69 42 70 43 71 48 72 44 73 45 74 47 75 49 76
REMARK SMILES IDX 46 77 68 78 69 79 74 80 70 81 71 82 73 83 75 84 72 85 56 86
REMARK SMILES IDX 57 87 62 88 58 89 59 90 61 91 63 92 60 93
REMARK H PARENT 15 27 80 55 54 66
REMARK Flexibility Score: inf
ROOT
ATOM      1  O   UNL     1      10.623   7.203   7.245  1.00  0.00    -0.376 OA
ENDROOT
BRANCH   1   2
ATOM      2  C   UNL     1      10.601   8.161   6.191  1.00  0.00     0.202 C 
BRANCH   2   3
ATOM      3  C   UNL     1       9.790   7.907   4.910  1.00  0.00     0.261 C 
BRANCH   3   4
ATOM      4  O   UNL     1       8.371   7.761   5.098  1.00  0.00    -0.462 OA
BRANCH   4   5
ATOM      5  C   UNL     1       7.837   6.577   4.712  1.00  0.00     0.329 C 
ATOM      6  O   UNL     1       8.496   5.611   4.333  1.00  0.00    -0.250 OA
BRANCH   5   7
ATOM      7  C   UNL     1       6.298   6.546   4.734  1.00  0.00     0.202 C 
BRANCH   7   8
ATOM      8  C   UNL     1       5.527   7.690   5.414  1.00  0.00     0.107 C 
BRANCH   8   9
ATOM      9  S   UNL     1       3.862   7.192   6.075  1.00  0.00    -0.145 SA
BRANCH   9  10
ATOM     10  C   UNL     1       2.947   6.897   4.529  1.00  0.00     0.146 C 
ATOM     11  N   UNL     1       1.593   5.131   3.796  1.00  0.00    -0.250 N 
ATOM     12  C   UNL     1       0.760   6.217   3.897  1.00  0.00     0.235 C 
ATOM     13  C   UNL     1       2.879   5.426   4.183  1.00  0.00     0.247 C 
ATOM     14  O   UNL     1      -0.407   6.317   3.544  1.00  0.00    -0.274 OA
ATOM     15  C   UNL     1       1.489   7.315   4.618  1.00  0.00     0.125 C 
ATOM     16  O   UNL     1       3.859   4.691   4.114  1.00  0.00    -0.273 OA
BRANCH  11  17
ATOM     17  C   UNL     1       1.235   3.881   3.238  1.00  0.00     0.052 A 
ATOM     18  C   UNL     1       0.665   1.387   2.043  1.00  0.00    -0.048 A 
ATOM     19  C   UNL     1       1.427   1.456   3.213  1.00  0.00     0.006 A 
ATOM     20  C   UNL     1       0.169   2.575   1.492  1.00  0.00     0.006 A 
ATOM     21  C   UNL     1       1.726   2.692   3.793  1.00  0.00     0.027 A 
ATOM     22  C   UNL     1       0.431   3.809   2.097  1.00  0.00     0.027 A 
BRANCH  18  23
ATOM     23  C   UNL     1       0.368   0.053   1.404  1.00  0.00     0.032 C 
ATOM     24  C   UNL     1       0.963  -0.087   0.009  1.00  0.00     0.009 C 
ENDBRANCH  18  23
ENDBRANCH  11  17
ENDBRANCH   9  10
ENDBRANCH   8   9
ENDBRANCH   7   8
BRANCH   7  25
ATOM     25  N   UNL     1       5.884   6.329   3.350  1.00  0.00    -0.342 N 
ATOM     26  C   UNL     1       6.145   7.263   2.379  1.00  0.00     0.217 C 
ATOM     27  H   UNL     1       5.410   5.500   3.110  1.00  0.00     0.164 HD
ATOM     28  C   UNL     1       5.660   6.884   1.016  1.00  0.00     0.114 C 
ATOM     29  O   UNL     1       6.733   8.316   2.600  1.00  0.00    -0.275 OA
ENDBRANCH   7  25
ENDBRANCH   5   7
ENDBRANCH   4   5
ENDBRANCH   3   4
ENDBRANCH   2   3
ENDBRANCH   1   2
BRANCH   1  30
ATOM     30  C   UNL     1       9.422   6.558   7.636  1.00  0.00     0.188 C 
BRANCH  30  31
ATOM     31  C   UNL     1       8.181   7.410   7.925  1.00  0.00     0.188 C 
BRANCH  31  32
ATOM     32  O   UNL     1       8.307   8.784   7.656  1.00  0.00    -0.376 OA
BRANCH  32  33
ATOM     33  C   UNL     1       8.626   9.685   8.705  1.00  0.00     0.202 C 
BRANCH  33  34
ATOM     34  C   UNL     1       9.381   9.289   9.993  1.00  0.00     0.261 C 
BRANCH  34  35
ATOM     35  O   UNL     1       9.290   7.930  10.440  1.00  0.00    -0.460 OA
BRANCH  35  36
ATOM     36  C   UNL     1       8.188   7.577  11.142  1.00  0.00     0.338 C 
ATOM     37  O   UNL     1       7.260   8.299  11.470  1.00  0.00    -0.246 OA
BRANCH  36  38
ATOM     38  C   UNL     1       8.172   6.096  11.215  1.00  0.00     0.060 A 
ATOM     39  C   UNL     1       7.112   5.400  10.613  1.00  0.00     0.016 A 
ATOM     40  C   UNL     1       9.218   5.397  11.819  1.00  0.00     0.016 A 
ATOM     41  C   UNL     1       7.086   4.004  10.629  1.00  0.00     0.010 A 
ATOM     42  C   UNL     1       9.173   4.000  11.866  1.00  0.00     0.010 A 
ATOM     43  C   UNL     1       8.094   3.299  11.295  1.00  0.00    -0.014 A 
BRANCH  43  44
ATOM     44  C   UNL     1       7.914   1.856  11.594  1.00  0.00     0.031 A 
ATOM     45  C   UNL     1       7.388   1.479  12.952  1.00  0.00     0.074 A 
ATOM     46  C   UNL     1       8.203   0.899  10.695  1.00  0.00     0.049 A 
ATOM     47  N   UNL     1       7.235   0.296  13.488  1.00  0.00    -0.248 NA
ATOM     48  C   UNL     1       6.985   2.594  13.824  1.00  0.00     0.031 C 
ATOM     49  C   UNL     1       8.669   1.128   9.330  1.00  0.00     0.029 A 
ATOM     50  N   UNL     1       8.160  -0.469  10.813  1.00  0.00    -0.354 N 
ATOM     51  C   UNL     1       6.736   0.525  14.764  1.00  0.00     0.074 A 
ATOM     52  C   UNL     1       6.636   1.959  14.931  1.00  0.00     0.031 C 
ATOM     53  C   UNL     1       8.892  -0.062   8.743  1.00  0.00     0.029 A 
ATOM     54  C   UNL     1       8.620  -1.132   9.702  1.00  0.00     0.049 A 
ATOM     55  H   UNL     1       7.830  -0.931  11.618  1.00  0.00     0.167 HD
ATOM     56  C   UNL     1       6.388  -0.377  15.712  1.00  0.00     0.037 A 
ATOM     57  C   UNL     1       8.829  -2.448   9.498  1.00  0.00     0.037 A 
ATOM     58  C   UNL     1       6.490  -1.802  15.547  1.00  0.00     0.049 A 
ATOM     59  C   UNL     1       8.513  -3.432  10.598  1.00  0.00     0.074 A 
ATOM     60  C   UNL     1       6.144  -2.799  16.442  1.00  0.00     0.029 A 
ATOM     61  N   UNL     1       6.987  -2.433  14.417  1.00  0.00    -0.354 N 
ATOM     62  N   UNL     1       8.020  -3.210  11.793  1.00  0.00    -0.248 NA
ATOM     63  C   UNL     1       8.783  -4.851  10.319  1.00  0.00     0.031 C 
ATOM     64  C   UNL     1       6.489  -4.031  15.878  1.00  0.00     0.029 A 
ATOM     65  C   UNL     1       6.985  -3.805  14.604  1.00  0.00     0.049 A 
ATOM     66  H   UNL     1       7.294  -1.974  13.602  1.00  0.00     0.167 HD
ATOM     67  C   UNL     1       7.889  -4.459  12.392  1.00  0.00     0.074 A 
ATOM     68  C   UNL     1       8.344  -5.435  11.424  1.00  0.00     0.031 C 
ATOM     69  C   UNL     1       7.430  -4.770  13.630  1.00  0.00     0.037 A 
BRANCH  56  70
ATOM     70  C   UNL     1       5.902   0.158  17.028  1.00  0.00     0.057 A 
ATOM     71  C   UNL     1       4.662   0.797  17.161  1.00  0.00     0.134 A 
ATOM     72  C   UNL     1       6.678   0.009  18.184  1.00  0.00     0.134 A 
ATOM     73  F   UNL     1       3.876   0.988  16.090  1.00  0.00    -0.206 F 
ATOM     74  C   UNL     1       4.224   1.292  18.391  1.00  0.00     0.040 A 
ATOM     75  C   UNL     1       6.238   0.471  19.424  1.00  0.00     0.040 A 
ATOM     76  F   UNL     1       7.875  -0.596  18.128  1.00  0.00    -0.206 F 
ATOM     77  C   UNL     1       5.011   1.122  19.529  1.00  0.00     0.006 A 
ENDBRANCH  56  70
BRANCH  57  78
ATOM     78  C   UNL     1       9.391  -2.924   8.207  1.00  0.00     0.057 A 
ATOM     79  C   UNL     1       8.634  -3.706   7.327  1.00  0.00     0.134 A 
ATOM     80  C   UNL     1      10.712  -2.640   7.838  1.00  0.00     0.134 A 
ATOM     81  F   UNL     1       7.371  -4.039   7.636  1.00  0.00    -0.206 F 
ATOM     82  C   UNL     1       9.173  -4.203   6.138  1.00  0.00     0.040 A 
ATOM     83  C   UNL     1      11.255  -3.105   6.639  1.00  0.00     0.040 A 
ATOM     84  F   UNL     1      11.495  -1.901   8.638  1.00  0.00    -0.206 F 
ATOM     85  C   UNL     1      10.486  -3.897   5.789  1.00  0.00     0.006 A 
ENDBRANCH  57  78
BRANCH  69  86
ATOM     86  C   UNL     1       7.346  -6.225  13.997  1.00  0.00     0.057 A 
ATOM     87  C   UNL     1       8.486  -7.004  14.231  1.00  0.00     0.134 A 
ATOM     88  C   UNL     1       6.099  -6.843  14.166  1.00  0.00     0.134 A 
ATOM     89  F   UNL     1       9.711  -6.479  14.079  1.00  0.00    -0.206 F 
ATOM     90  C   UNL     1       8.391  -8.349  14.595  1.00  0.00     0.040 A 
ATOM     91  C   UNL     1       5.990  -8.178  14.560  1.00  0.00     0.040 A 
ATOM     92  F   UNL     1       4.964  -6.154  13.971  1.00  0.00    -0.206 F 
ATOM     93  C   UNL     1       7.139  -8.937  14.768  1.00  0.00     0.006 A 
ENDBRANCH  69  86
ENDBRANCH  43  44
ENDBRANCH  36  38
ENDBRANCH  35  36
ENDBRANCH  34  35
ENDBRANCH  33  34
ENDBRANCH  32  33
ENDBRANCH  31  32
ENDBRANCH  30  31
ENDBRANCH   1  30
TORSDOF 23
