REMARK SMILES CN(Cc1csc(Br)c1)c1cccc(F)c1C(=O)OCCOCCOCCOC(=O)c1ccc(-c2c3nc(c(-c4c(F)cccc4F)c4ccc([nH]4)c(-c4c(F)cccc4F)c4nc(c(-c5c(F)cccc5F)c5ccc2[nH]5)C=C4)C=C3)cc1
REMARK SMILES IDX 23 1 22 2 21 3 20 4 19 5 17 6 18 7 16 8 10 9 11 10 12 11
REMARK SMILES IDX 14 12 13 13 15 14 2 15 1 16 3 17 4 18 5 19 9 20 6 21 7 22
REMARK SMILES IDX 8 23 24 24 25 25 26 26 27 27 28 28 29 29 30 30 31 31 32 32
REMARK SMILES IDX 84 33 33 34 83 35 34 36 35 37 36 38 77 39 37 40 82 41 76 42
REMARK SMILES IDX 78 43 38 44 81 45 75 46 74 47 39 49 65 50 48 51 64 52 49 53
REMARK SMILES IDX 52 54 63 55 79 56 50 57 51 58 62 60 80 61 53 62 40 63 41 64
REMARK SMILES IDX 46 65 42 66 43 67 45 68 47 69 44 70 66 71 67 72 72 73 68 74
REMARK SMILES IDX 69 75 71 76 73 77 70 78 54 79 55 80 60 81 56 82 57 83 59 84
REMARK SMILES IDX 61 85 58 86
REMARK H PARENT 78 48 52 59
REMARK Flexibility Score: inf
ROOT
ATOM      1  C   UNL     1      -2.014  -2.991  -0.300  1.00  0.00     0.188 C 
ENDROOT
BRANCH   1   2
ATOM      2  O   UNL     1      -3.733  -2.119   0.550  1.00  0.00    -0.376 OA
BRANCH   2   3
ATOM      3  C   UNL     1      -5.172  -2.003  -0.654  1.00  0.00     0.202 C 
BRANCH   3   4
ATOM      4  C   UNL     1      -4.770  -2.251  -2.497  1.00  0.00     0.261 C 
BRANCH   4   5
ATOM      5  O   UNL     1      -3.222  -2.693  -3.041  1.00  0.00    -0.460 OA
BRANCH   5   6
ATOM      6  C   UNL     1      -2.098  -1.812  -3.344  1.00  0.00     0.343 C 
ATOM      7  O   UNL     1      -2.285  -0.726  -3.889  1.00  0.00    -0.246 OA
BRANCH   6   8
ATOM      8  C   UNL     1      -0.573  -2.195  -2.832  1.00  0.00     0.119 A 
ATOM      9  C   UNL     1       0.358  -1.794  -1.677  1.00  0.00     0.054 A 
ATOM     10  C   UNL     1       1.707  -2.238  -1.733  1.00  0.00     0.027 A 
ATOM     11  C   UNL     1       2.197  -2.997  -2.789  1.00  0.00     0.005 A 
ATOM     12  C   UNL     1      -0.002  -3.001  -3.829  1.00  0.00     0.139 A 
ATOM     13  C   UNL     1       1.345  -3.387  -3.815  1.00  0.00     0.040 A 
ATOM     14  F   UNL     1      -0.740  -3.426  -4.867  1.00  0.00    -0.206 F 
BRANCH   9  15
ATOM     15  N   UNL     1       0.106  -1.056  -0.427  1.00  0.00    -0.369 N 
ATOM     16  C   UNL     1       0.788   0.241  -0.359  1.00  0.00     0.144 C 
BRANCH  15  17
ATOM     17  C   UNL     1      -0.102  -1.809   1.092  1.00  0.00     0.152 C 
BRANCH  17  18
ATOM     18  C   UNL     1      -1.803  -2.034   1.623  1.00  0.00    -0.017 A 
ATOM     19  C   UNL     1      -2.354  -0.793   1.006  1.00  0.00     0.071 A 
ATOM     20  C   UNL     1      -2.932  -3.555   1.390  1.00  0.00     0.033 A 
ATOM     21  S   UNL     1      -3.055  -1.291  -1.013  1.00  0.00    -0.136 S 
ATOM     22  C   UNL     1      -3.719  -3.564  -0.261  1.00  0.00     0.070 A 
ATOM     23  Br  UNL     1      -4.789  -4.942  -1.056  1.00  0.00    -0.039 Br
ENDBRANCH  17  18
ENDBRANCH  15  17
ENDBRANCH   9  15
ENDBRANCH   6   8
ENDBRANCH   5   6
ENDBRANCH   4   5
ENDBRANCH   3   4
ENDBRANCH   2   3
ENDBRANCH   1   2
BRANCH   1  24
ATOM     24  C   UNL     1      -1.277  -4.546  -0.131  1.00  0.00     0.188 C 
BRANCH  24  25
ATOM     25  O   UNL     1      -1.996  -5.541  -0.860  1.00  0.00    -0.376 OA
BRANCH  25  26
ATOM     26  C   UNL     1      -1.903  -6.919  -0.521  1.00  0.00     0.202 C 
BRANCH  26  27
ATOM     27  C   UNL     1      -2.438  -7.305   0.870  1.00  0.00     0.261 C 
BRANCH  27  28
ATOM     28  O   UNL     1      -1.710  -6.738   1.972  1.00  0.00    -0.460 OA
BRANCH  28  29
ATOM     29  C   UNL     1      -0.371  -6.927   1.975  1.00  0.00     0.338 C 
ATOM     30  O   UNL     1       0.269  -7.688   1.273  1.00  0.00    -0.246 OA
BRANCH  29  31
ATOM     31  C   UNL     1       0.236  -5.857   2.799  1.00  0.00     0.060 A 
ATOM     32  C   UNL     1       1.370  -5.207   2.295  1.00  0.00     0.016 A 
ATOM     33  C   UNL     1      -0.319  -5.465   4.021  1.00  0.00     0.016 A 
ATOM     34  C   UNL     1       2.007  -4.229   3.057  1.00  0.00     0.010 A 
ATOM     35  C   UNL     1       0.322  -4.488   4.787  1.00  0.00     0.010 A 
ATOM     36  C   UNL     1       1.522  -3.913   4.333  1.00  0.00    -0.014 A 
BRANCH  36  37
ATOM     37  C   UNL     1       2.426  -3.222   5.285  1.00  0.00     0.031 A 
ATOM     38  C   UNL     1       3.262  -4.081   6.193  1.00  0.00     0.074 A 
ATOM     39  C   UNL     1       2.577  -1.887   5.301  1.00  0.00     0.049 A 
ATOM     40  N   UNL     1       4.175  -3.728   7.060  1.00  0.00    -0.248 NA
ATOM     41  C   UNL     1       3.035  -5.534   6.111  1.00  0.00     0.031 C 
ATOM     42  C   UNL     1       1.844  -0.952   4.460  1.00  0.00     0.029 A 
ATOM     43  N   UNL     1       3.410  -1.089   6.044  1.00  0.00    -0.354 N 
ATOM     44  C   UNL     1       4.640  -4.914   7.611  1.00  0.00     0.074 A 
ATOM     45  C   UNL     1       3.869  -5.990   7.029  1.00  0.00     0.031 C 
ATOM     46  C   UNL     1       2.282   0.295   4.702  1.00  0.00     0.029 A 
ATOM     47  C   UNL     1       3.297   0.249   5.753  1.00  0.00     0.049 A 
ATOM     48  H   UNL     1       4.031  -1.442   6.722  1.00  0.00     0.167 HD
ATOM     49  C   UNL     1       5.638  -5.096   8.505  1.00  0.00     0.037 A 
ATOM     50  C   UNL     1       3.933   1.314   6.283  1.00  0.00     0.037 A 
ATOM     51  C   UNL     1       6.384  -4.026   9.106  1.00  0.00     0.049 A 
ATOM     52  C   UNL     1       4.965   1.099   7.359  1.00  0.00     0.074 A 
ATOM     53  C   UNL     1       7.399  -4.107  10.041  1.00  0.00     0.029 A 
ATOM     54  N   UNL     1       6.188  -2.678   8.842  1.00  0.00    -0.354 N 
ATOM     55  N   UNL     1       5.409  -0.027   7.865  1.00  0.00    -0.248 NA
ATOM     56  C   UNL     1       5.587   2.300   7.936  1.00  0.00     0.031 C 
ATOM     57  C   UNL     1       7.776  -2.808  10.389  1.00  0.00     0.029 A 
ATOM     58  C   UNL     1       7.049  -1.917   9.614  1.00  0.00     0.049 A 
ATOM     59  H   UNL     1       5.534  -2.317   8.201  1.00  0.00     0.167 HD
ATOM     60  C   UNL     1       6.381   0.327   8.794  1.00  0.00     0.074 A 
ATOM     61  C   UNL     1       6.468   1.772   8.776  1.00  0.00     0.031 C 
ATOM     62  C   UNL     1       7.136  -0.477   9.584  1.00  0.00     0.037 A 
BRANCH  49  63
ATOM     63  C   UNL     1       5.959  -6.510   8.893  1.00  0.00     0.057 A 
ATOM     64  C   UNL     1       5.700  -6.974  10.188  1.00  0.00     0.134 A 
ATOM     65  C   UNL     1       6.538  -7.410   7.987  1.00  0.00     0.134 A 
ATOM     66  F   UNL     1       5.145  -6.166  11.104  1.00  0.00    -0.206 F 
ATOM     67  C   UNL     1       6.015  -8.278  10.571  1.00  0.00     0.040 A 
ATOM     68  C   UNL     1       6.826  -8.726   8.349  1.00  0.00     0.040 A 
ATOM     69  F   UNL     1       6.790  -7.035   6.723  1.00  0.00    -0.206 F 
ATOM     70  C   UNL     1       6.572  -9.160   9.648  1.00  0.00     0.006 A 
ENDBRANCH  49  63
BRANCH  50  71
ATOM     71  C   UNL     1       3.626   2.679   5.783  1.00  0.00     0.057 A 
ATOM     72  C   UNL     1       2.382   3.282   6.010  1.00  0.00     0.134 A 
ATOM     73  C   UNL     1       4.565   3.406   5.042  1.00  0.00     0.134 A 
ATOM     74  F   UNL     1       1.438   2.640   6.713  1.00  0.00    -0.206 F 
ATOM     75  C   UNL     1       2.074   4.543   5.495  1.00  0.00     0.040 A 
ATOM     76  C   UNL     1       4.280   4.678   4.543  1.00  0.00     0.040 A 
ATOM     77  F   UNL     1       5.783   2.894   4.811  1.00  0.00    -0.206 F 
ATOM     78  C   UNL     1       3.026   5.245   4.761  1.00  0.00     0.006 A 
ENDBRANCH  50  71
BRANCH  62  79
ATOM     79  C   UNL     1       8.161   0.169  10.475  1.00  0.00     0.057 A 
ATOM     80  C   UNL     1       9.529  -0.041  10.248  1.00  0.00     0.134 A 
ATOM     81  C   UNL     1       7.803   0.914  11.604  1.00  0.00     0.134 A 
ATOM     82  F   UNL     1       9.943  -0.758   9.192  1.00  0.00    -0.206 F 
ATOM     83  C   UNL     1      10.500   0.449  11.122  1.00  0.00     0.040 A 
ATOM     84  C   UNL     1       8.767   1.438  12.469  1.00  0.00     0.040 A 
ATOM     85  F   UNL     1       6.512   1.158  11.878  1.00  0.00    -0.206 F 
ATOM     86  C   UNL     1      10.120   1.195  12.235  1.00  0.00     0.006 A 
ENDBRANCH  62  79
ENDBRANCH  36  37
ENDBRANCH  29  31
ENDBRANCH  28  29
ENDBRANCH  27  28
ENDBRANCH  26  27
ENDBRANCH  25  26
ENDBRANCH  24  25
ENDBRANCH   1  24
TORSDOF 20
