REMARK SMILES O=C(CC1CN(C(=O)C[C@H]2CCCCO2)C1)OCCOCCOCCOC(=O)c1ccc(-c2c3nc(c(-c4c(F)cccc4F)c4ccc([nH]4)c(-c4c(F)cccc4F)c4nc(c(-c5c(F)cccc5F)c5ccc2[nH]5)C=C4)C=C3)cc1
REMARK SMILES IDX 21 1 20 2 19 3 18 4 17 5 2 6 1 7 3 8 4 9 5 10 16 11 6 12
REMARK SMILES IDX 7 13 8 14 9 15 10 16 11 17 15 18 12 19 14 20 13 21 22 22
REMARK SMILES IDX 23 23 24 24 25 25 26 26 27 27 28 28 29 29 30 30 82 31 31 32
REMARK SMILES IDX 81 33 32 34 33 35 34 36 75 37 35 38 80 39 74 40 76 41 36 42
REMARK SMILES IDX 79 43 73 44 72 45 37 47 63 48 46 49 62 50 47 51 50 52 61 53
REMARK SMILES IDX 77 54 48 55 49 56 60 58 78 59 51 60 38 61 39 62 44 63 40 64
REMARK SMILES IDX 41 65 43 66 45 67 42 68 64 69 65 70 70 71 66 72 67 73 69 74
REMARK SMILES IDX 71 75 68 76 52 77 53 78 58 79 54 80 55 81 57 82 59 83 56 84
REMARK H PARENT 76 46 50 57
REMARK Flexibility Score: inf
ROOT
ATOM      1  C   UNL     1      12.461  -3.766   3.780  1.00  0.00     0.188 C 
ENDROOT
BRANCH   1   2
ATOM      2  O   UNL     1      11.461  -3.000   3.124  1.00  0.00    -0.376 OA
BRANCH   2   3
ATOM      3  C   UNL     1      10.818  -1.946   3.818  1.00  0.00     0.202 C 
BRANCH   3   4
ATOM      4  C   UNL     1       9.924  -2.271   5.008  1.00  0.00     0.261 C 
BRANCH   4   5
ATOM      5  O   UNL     1      10.364  -3.359   5.818  1.00  0.00    -0.463 OA
BRANCH   5   6
ATOM      6  C   UNL     1       9.729  -4.552   5.800  1.00  0.00     0.306 C 
ATOM      7  O   UNL     1       9.677  -5.239   6.816  1.00  0.00    -0.252 OA
BRANCH   6   8
ATOM      8  C   UNL     1       9.226  -5.087   4.483  1.00  0.00     0.130 C 
BRANCH   8   9
ATOM      9  C   UNL     1       7.907  -4.537   3.967  1.00  0.00     0.039 C 
ATOM     10  C   UNL     1       7.946  -3.695   2.662  1.00  0.00     0.125 C 
ATOM     11  C   UNL     1       7.105  -5.581   3.172  1.00  0.00     0.125 C 
ATOM     12  N   UNL     1       6.872  -4.542   2.198  1.00  0.00    -0.342 N 
ATOM     13  C   UNL     1       6.030  -4.388   1.139  1.00  0.00     0.225 C 
ATOM     14  O   UNL     1       6.077  -3.409   0.396  1.00  0.00    -0.275 OA
BRANCH  13  15
ATOM     15  C   UNL     1       5.045  -5.508   0.911  1.00  0.00     0.132 C 
BRANCH  15  16
ATOM     16  C   UNL     1       5.538  -6.518  -0.125  1.00  0.00     0.127 C 
ATOM     17  C   UNL     1       6.811  -7.250   0.320  1.00  0.00     0.033 C 
ATOM     18  O   UNL     1       4.472  -7.466  -0.299  1.00  0.00    -0.378 OA
ATOM     19  C   UNL     1       7.172  -8.401  -0.610  1.00  0.00     0.005 C 
ATOM     20  C   UNL     1       4.772  -8.467  -1.270  1.00  0.00     0.160 C 
ATOM     21  C   UNL     1       5.963  -9.300  -0.821  1.00  0.00     0.029 C 
ENDBRANCH  15  16
ENDBRANCH  13  15
ENDBRANCH   8   9
ENDBRANCH   6   8
ENDBRANCH   5   6
ENDBRANCH   4   5
ENDBRANCH   3   4
ENDBRANCH   2   3
ENDBRANCH   1   2
BRANCH   1  22
ATOM     22  C   UNL     1      13.647  -3.122   4.518  1.00  0.00     0.188 C 
BRANCH  22  23
ATOM     23  O   UNL     1      13.796  -1.716   4.550  1.00  0.00    -0.376 OA
BRANCH  23  24
ATOM     24  C   UNL     1      14.004  -1.001   3.336  1.00  0.00     0.202 C 
BRANCH  24  25
ATOM     25  C   UNL     1      15.030  -1.526   2.338  1.00  0.00     0.261 C 
BRANCH  25  26
ATOM     26  O   UNL     1      14.588  -2.743   1.710  1.00  0.00    -0.460 OA
BRANCH  26  27
ATOM     27  C   UNL     1      15.516  -3.726   1.694  1.00  0.00     0.338 C 
ATOM     28  O   UNL     1      16.649  -3.680   2.141  1.00  0.00    -0.246 OA
BRANCH  27  29
ATOM     29  C   UNL     1      14.957  -4.974   1.151  1.00  0.00     0.060 A 
ATOM     30  C   UNL     1      15.002  -6.108   1.970  1.00  0.00     0.016 A 
ATOM     31  C   UNL     1      14.597  -5.076  -0.195  1.00  0.00     0.016 A 
ATOM     32  C   UNL     1      14.780  -7.368   1.421  1.00  0.00     0.010 A 
ATOM     33  C   UNL     1      14.385  -6.344  -0.747  1.00  0.00     0.010 A 
ATOM     34  C   UNL     1      14.543  -7.495   0.046  1.00  0.00    -0.014 A 
BRANCH  34  35
ATOM     35  C   UNL     1      14.727  -8.826  -0.584  1.00  0.00     0.031 A 
ATOM     36  C   UNL     1      16.077  -9.163  -1.163  1.00  0.00     0.074 A 
ATOM     37  C   UNL     1      13.747  -9.745  -0.583  1.00  0.00     0.049 A 
ATOM     38  N   UNL     1      16.492 -10.275  -1.717  1.00  0.00    -0.248 NA
ATOM     39  C   UNL     1      17.097  -8.103  -1.108  1.00  0.00     0.031 C 
ATOM     40  C   UNL     1      12.412  -9.560  -0.020  1.00  0.00     0.029 A 
ATOM     41  N   UNL     1      13.736 -11.028  -1.071  1.00  0.00    -0.354 N 
ATOM     42  C   UNL     1      17.815 -10.046  -2.075  1.00  0.00     0.074 A 
ATOM     43  C   UNL     1      18.126  -8.683  -1.708  1.00  0.00     0.031 C 
ATOM     44  C   UNL     1      11.707 -10.693  -0.195  1.00  0.00     0.029 A 
ATOM     45  C   UNL     1      12.538 -11.673  -0.895  1.00  0.00     0.049 A 
ATOM     46  H   UNL     1      14.514 -11.445  -1.506  1.00  0.00     0.167 HD
ATOM     47  C   UNL     1      18.699 -10.897  -2.649  1.00  0.00     0.037 A 
ATOM     48  C   UNL     1      12.159 -12.913  -1.260  1.00  0.00     0.037 A 
ATOM     49  C   UNL     1      18.400 -12.255  -3.013  1.00  0.00     0.049 A 
ATOM     50  C   UNL     1      13.146 -13.825  -1.943  1.00  0.00     0.074 A 
ATOM     51  C   UNL     1      19.234 -13.198  -3.588  1.00  0.00     0.029 A 
ATOM     52  N   UNL     1      17.166 -12.861  -2.842  1.00  0.00    -0.354 N 
ATOM     53  N   UNL     1      14.403 -13.610  -2.245  1.00  0.00    -0.248 NA
ATOM     54  C   UNL     1      12.659 -15.159  -2.325  1.00  0.00     0.031 C 
ATOM     55  C   UNL     1      18.492 -14.366  -3.800  1.00  0.00     0.029 A 
ATOM     56  C   UNL     1      17.210 -14.162  -3.315  1.00  0.00     0.049 A 
ATOM     57  H   UNL     1      16.375 -12.432  -2.443  1.00  0.00     0.167 HD
ATOM     58  C   UNL     1      14.867 -14.791  -2.812  1.00  0.00     0.074 A 
ATOM     59  C   UNL     1      13.757 -15.720  -2.809  1.00  0.00     0.031 C 
ATOM     60  C   UNL     1      16.104 -15.083  -3.286  1.00  0.00     0.037 A 
BRANCH  47  61
ATOM     61  C   UNL     1      20.072 -10.366  -2.937  1.00  0.00     0.057 A 
ATOM     62  C   UNL     1      21.004 -10.133  -1.918  1.00  0.00     0.134 A 
ATOM     63  C   UNL     1      20.470 -10.100  -4.253  1.00  0.00     0.134 A 
ATOM     64  F   UNL     1      20.677 -10.352  -0.635  1.00  0.00    -0.206 F 
ATOM     65  C   UNL     1      22.276  -9.631  -2.195  1.00  0.00     0.040 A 
ATOM     66  C   UNL     1      21.748  -9.620  -4.545  1.00  0.00     0.040 A 
ATOM     67  F   UNL     1      19.626 -10.304  -5.275  1.00  0.00    -0.206 F 
ATOM     68  C   UNL     1      22.653  -9.378  -3.513  1.00  0.00     0.006 A 
ENDBRANCH  47  61
BRANCH  48  69
ATOM     69  C   UNL     1      10.780 -13.383  -0.975  1.00  0.00     0.057 A 
ATOM     70  C   UNL     1      10.538 -14.379  -0.022  1.00  0.00     0.134 A 
ATOM     71  C   UNL     1       9.679 -12.875  -1.673  1.00  0.00     0.134 A 
ATOM     72  F   UNL     1      11.557 -14.921   0.662  1.00  0.00    -0.206 F 
ATOM     73  C   UNL     1       9.253 -14.870   0.211  1.00  0.00     0.040 A 
ATOM     74  C   UNL     1       8.385 -13.340  -1.435  1.00  0.00     0.040 A 
ATOM     75  F   UNL     1       9.845 -11.917  -2.597  1.00  0.00    -0.206 F 
ATOM     76  C   UNL     1       8.171 -14.348  -0.496  1.00  0.00     0.006 A 
ENDBRANCH  48  69
BRANCH  60  77
ATOM     77  C   UNL     1      16.340 -16.478  -3.788  1.00  0.00     0.057 A 
ATOM     78  C   UNL     1      15.809 -16.933  -5.001  1.00  0.00     0.134 A 
ATOM     79  C   UNL     1      17.143 -17.366  -3.059  1.00  0.00     0.134 A 
ATOM     80  F   UNL     1      15.024 -16.135  -5.741  1.00  0.00    -0.206 F 
ATOM     81  C   UNL     1      16.046 -18.230  -5.460  1.00  0.00     0.040 A 
ATOM     82  C   UNL     1      17.408 -18.657  -3.520  1.00  0.00     0.040 A 
ATOM     83  F   UNL     1      17.691 -16.990  -1.894  1.00  0.00    -0.206 F 
ATOM     84  C   UNL     1      16.853 -19.094  -4.720  1.00  0.00     0.006 A 
ENDBRANCH  60  77
ENDBRANCH  34  35
ENDBRANCH  27  29
ENDBRANCH  26  27
ENDBRANCH  25  26
ENDBRANCH  24  25
ENDBRANCH  23  24
ENDBRANCH  22  23
ENDBRANCH   1  22
TORSDOF 20
