REMARK SMILES Nc1ccc(C(=O)N[C@H]2CCCCC[C@@H]2C(=O)OCCOCCOCCOC(=O)c2ccc(-c3c4nc(c(-c5c(F)cccc5F)c5ccc([nH]5)c(-c5c(F)cccc5F)c5nc(c(-c6c(F)cccc6F)c6ccc3[nH]6)C=C5)C=C4)cc2)cc1Cl
REMARK SMILES IDX 22 1 21 2 20 3 19 4 18 5 16 6 17 7 15 8 9 9 8 10 6 11 7 12
REMARK SMILES IDX 5 14 2 15 3 16 85 17 4 18 84 19 86 20 1 21 10 24 11 25 14 27
REMARK SMILES IDX 13 28 12 29 23 31 24 32 25 33 26 34 27 35 28 36 29 37 30 38
REMARK SMILES IDX 31 39 83 40 32 41 82 42 33 43 34 44 35 45 76 46 36 47 81 48
REMARK SMILES IDX 75 49 77 50 37 51 80 52 74 53 73 54 38 56 64 57 47 58 63 59
REMARK SMILES IDX 48 60 51 61 62 62 78 63 49 64 50 65 61 67 79 68 52 69 39 70
REMARK SMILES IDX 40 71 45 72 41 73 42 74 44 75 46 76 43 77 65 78 66 79 71 80
REMARK SMILES IDX 67 81 68 82 70 83 72 84 69 85 53 86 54 87 59 88 55 89 56 90
REMARK SMILES IDX 58 91 60 92 57 93
REMARK H PARENT 8 13 1 22 1 23 77 55 51 66
REMARK Flexibility Score: 90.00
ROOT
ATOM      1  C   UNL     1       5.245   3.965   4.201  1.00  0.00     0.188 C 
ENDROOT
BRANCH   1   2
ATOM      2  O   UNL     1       4.870   5.280   3.838  1.00  0.00    -0.376 OA
BRANCH   2   3
ATOM      3  C   UNL     1       4.949   5.569   2.453  1.00  0.00     0.202 C 
BRANCH   3   4
ATOM      4  C   UNL     1       4.103   4.661   1.560  1.00  0.00     0.261 C 
BRANCH   4   5
ATOM      5  O   UNL     1       4.549   3.293   1.314  1.00  0.00    -0.463 OA
BRANCH   5   6
ATOM      6  C   UNL     1       5.843   2.898   1.132  1.00  0.00     0.311 C 
ATOM      7  O   UNL     1       6.824   3.605   1.305  1.00  0.00    -0.252 OA
BRANCH   6   8
ATOM      8  C   UNL     1       5.921   1.433   0.686  1.00  0.00     0.121 C 
BRANCH   8   9
ATOM      9  C   UNL     1       4.937   1.130  -0.496  1.00  0.00     0.096 C 
BRANCH   9  10
ATOM     10  N   UNL     1       5.532   1.228  -1.879  1.00  0.00    -0.348 N 
ATOM     11  C   UNL     1       5.779   2.176  -2.863  1.00  0.00     0.251 C 
ATOM     12  O   UNL     1       6.029   1.740  -3.989  1.00  0.00    -0.269 OA
ATOM     13  H   UNL     1       5.843   0.343  -2.177  1.00  0.00     0.164 HD
BRANCH  11  14
ATOM     14  C   UNL     1       5.855   3.656  -2.678  1.00  0.00     0.041 A 
ATOM     15  C   UNL     1       6.362   6.412  -2.103  1.00  0.00     0.050 A 
ATOM     16  C   UNL     1       5.891   5.540  -1.148  1.00  0.00     0.028 A 
ATOM     17  C   UNL     1       6.543   5.893  -3.392  1.00  0.00     0.064 A 
ATOM     18  C   UNL     1       5.529   4.236  -1.483  1.00  0.00     0.016 A 
ATOM     19  C   UNL     1       6.330   4.522  -3.671  1.00  0.00     0.036 A 
ATOM     20  Cl  UNL     1       7.041   6.940  -4.672  1.00  0.00    -0.082 Cl
BRANCH  15  21
ATOM     21  N   UNL     1       6.644   7.711  -1.714  1.00  0.00    -0.398 N 
ATOM     22  H   UNL     1       6.487   7.992  -0.784  1.00  0.00     0.156 HD
ATOM     23  H   UNL     1       7.003   8.354  -2.368  1.00  0.00     0.156 HD
ENDBRANCH  15  21
ENDBRANCH  11  14
ENDBRANCH   9  10
BRANCH   9  24
ATOM     24  C   UNL     1       4.265  -0.267  -0.376  1.00  0.00     0.026 C 
BRANCH  24  25
ATOM     25  C   UNL     1       5.224  -1.451  -0.192  1.00  0.00     0.002 CG0
ATOM     26  G   UNL     1       5.467  -1.813   1.269  1.00  0.00     0.000 G0
ENDBRANCH  24  25
ENDBRANCH   9  24
ENDBRANCH   8   9
BRANCH   8  27
ATOM     27  C   UNL     1       5.720   0.617   1.990  1.00  0.00     0.017 C 
BRANCH  27  28
ATOM     28  C   UNL     1       6.304  -0.788   2.017  1.00  0.00     0.001 C 
BRANCH  28  29
ATOM     29  C   UNL     1       5.467  -1.813   1.269  1.00  0.00     0.000 CG0
ATOM     30  G   UNL     1       5.224  -1.451  -0.192  1.00  0.00     0.000 G0
ENDBRANCH  28  29
ENDBRANCH  27  28
ENDBRANCH   8  27
ENDBRANCH   6   8
ENDBRANCH   5   6
ENDBRANCH   4   5
ENDBRANCH   3   4
ENDBRANCH   2   3
ENDBRANCH   1   2
BRANCH   1  31
ATOM     31  C   UNL     1       4.109   2.921   4.115  1.00  0.00     0.188 C 
BRANCH  31  32
ATOM     32  O   UNL     1       2.749   3.313   4.058  1.00  0.00    -0.376 OA
BRANCH  32  33
ATOM     33  C   UNL     1       2.322   4.388   4.872  1.00  0.00     0.202 C 
BRANCH  33  34
ATOM     34  C   UNL     1       2.523   4.253   6.388  1.00  0.00     0.261 C 
BRANCH  34  35
ATOM     35  O   UNL     1       3.861   3.905   6.803  1.00  0.00    -0.460 OA
BRANCH  35  36
ATOM     36  C   UNL     1       4.054   2.621   7.200  1.00  0.00     0.338 C 
ATOM     37  O   UNL     1       3.200   1.750   7.307  1.00  0.00    -0.246 OA
BRANCH  36  38
ATOM     38  C   UNL     1       5.507   2.317   7.275  1.00  0.00     0.060 A 
ATOM     39  C   UNL     1       6.022   1.254   6.509  1.00  0.00     0.016 A 
ATOM     40  C   UNL     1       6.354   3.044   8.109  1.00  0.00     0.016 A 
ATOM     41  C   UNL     1       7.369   0.898   6.596  1.00  0.00     0.010 A 
ATOM     42  C   UNL     1       7.695   2.657   8.232  1.00  0.00     0.010 A 
ATOM     43  C   UNL     1       8.199   1.559   7.507  1.00  0.00    -0.014 A 
BRANCH  43  44
ATOM     44  C   UNL     1       9.498   0.948   7.891  1.00  0.00     0.031 A 
ATOM     45  C   UNL     1       9.535   0.103   9.138  1.00  0.00     0.074 A 
ATOM     46  C   UNL     1      10.613   1.105   7.156  1.00  0.00     0.049 A 
ATOM     47  N   UNL     1      10.555  -0.451   9.742  1.00  0.00    -0.248 NA
ATOM     48  C   UNL     1       8.240  -0.147   9.793  1.00  0.00     0.031 C 
ATOM     49  C   UNL     1      10.702   1.833   5.892  1.00  0.00     0.029 A 
ATOM     50  N   UNL     1      11.895   0.666   7.384  1.00  0.00    -0.354 N 
ATOM     51  C   UNL     1      10.027  -1.098  10.853  1.00  0.00     0.074 A 
ATOM     52  C   UNL     1       8.603  -0.848  10.855  1.00  0.00     0.031 C 
ATOM     53  C   UNL     1      11.979   1.810   5.468  1.00  0.00     0.029 A 
ATOM     54  C   UNL     1      12.801   1.102   6.448  1.00  0.00     0.049 A 
ATOM     55  H   UNL     1      12.140   0.093   8.146  1.00  0.00     0.167 HD
ATOM     56  C   UNL     1      10.669  -1.837  11.787  1.00  0.00     0.037 A 
ATOM     57  C   UNL     1      14.143   0.971   6.409  1.00  0.00     0.037 A 
ATOM     58  C   UNL     1      12.086  -2.086  11.788  1.00  0.00     0.049 A 
ATOM     59  C   UNL     1      14.850   0.225   7.515  1.00  0.00     0.074 A 
ATOM     60  C   UNL     1      12.831  -2.825  12.690  1.00  0.00     0.029 A 
ATOM     61  N   UNL     1      12.974  -1.597  10.842  1.00  0.00    -0.354 N 
ATOM     62  N   UNL     1      14.345  -0.386   8.560  1.00  0.00    -0.248 NA
ATOM     63  C   UNL     1      16.317   0.150   7.434  1.00  0.00     0.031 C 
ATOM     64  C   UNL     1      14.176  -2.735  12.323  1.00  0.00     0.029 A 
ATOM     65  C   UNL     1      14.262  -1.996  11.155  1.00  0.00     0.049 A 
ATOM     66  H   UNL     1      12.725  -1.047  10.064  1.00  0.00     0.167 HD
ATOM     67  C   UNL     1      15.425  -0.946   9.236  1.00  0.00     0.074 A 
ATOM     68  C   UNL     1      16.611  -0.613   8.477  1.00  0.00     0.031 C 
ATOM     69  C   UNL     1      15.434  -1.673  10.381  1.00  0.00     0.037 A 
BRANCH  56  70
ATOM     70  C   UNL     1       9.848  -2.403  12.909  1.00  0.00     0.057 A 
ATOM     71  C   UNL     1       8.936  -3.447  12.710  1.00  0.00     0.134 A 
ATOM     72  C   UNL     1       9.997  -1.916  14.214  1.00  0.00     0.134 A 
ATOM     73  F   UNL     1       8.731  -3.947  11.482  1.00  0.00    -0.206 F 
ATOM     74  C   UNL     1       8.187  -3.973  13.765  1.00  0.00     0.040 A 
ATOM     75  C   UNL     1       9.277  -2.453  15.282  1.00  0.00     0.040 A 
ATOM     76  F   UNL     1      10.855  -0.918  14.476  1.00  0.00    -0.206 F 
ATOM     77  C   UNL     1       8.364  -3.481  15.057  1.00  0.00     0.006 A 
ENDBRANCH  56  70
BRANCH  57  78
ATOM     78  C   UNL     1      14.928   1.585   5.305  1.00  0.00     0.057 A 
ATOM     79  C   UNL     1      15.635   0.797   4.388  1.00  0.00     0.134 A 
ATOM     80  C   UNL     1      15.035   2.976   5.171  1.00  0.00     0.134 A 
ATOM     81  F   UNL     1      15.599  -0.540   4.480  1.00  0.00    -0.206 F 
ATOM     82  C   UNL     1      16.439   1.366   3.398  1.00  0.00     0.040 A 
ATOM     83  C   UNL     1      15.809   3.558   4.166  1.00  0.00     0.040 A 
ATOM     84  F   UNL     1      14.389   3.790   6.019  1.00  0.00    -0.206 F 
ATOM     85  C   UNL     1      16.523   2.752   3.282  1.00  0.00     0.006 A 
ENDBRANCH  57  78
BRANCH  69  86
ATOM     86  C   UNL     1      16.756  -2.207  10.857  1.00  0.00     0.057 A 
ATOM     87  C   UNL     1      17.751  -1.376  11.386  1.00  0.00     0.134 A 
ATOM     88  C   UNL     1      17.015  -3.585  10.830  1.00  0.00     0.134 A 
ATOM     89  F   UNL     1      17.573  -0.047  11.434  1.00  0.00    -0.206 F 
ATOM     90  C   UNL     1      18.965  -1.891  11.845  1.00  0.00     0.040 A 
ATOM     91  C   UNL     1      18.212  -4.114  11.315  1.00  0.00     0.040 A 
ATOM     92  F   UNL     1      16.101  -4.441  10.350  1.00  0.00    -0.206 F 
ATOM     93  C   UNL     1      19.195  -3.265  11.817  1.00  0.00     0.006 A 
ENDBRANCH  69  86
ENDBRANCH  43  44
ENDBRANCH  36  38
ENDBRANCH  35  36
ENDBRANCH  34  35
ENDBRANCH  33  34
ENDBRANCH  32  33
ENDBRANCH  31  32
ENDBRANCH   1  31
TORSDOF 20
