REMARK SMILES CCc1ccc2c(c1)C=C(C(=O)OCCOCCOCCOC(=O)c1ccc(-c3c4nc(c(-c5c(F)cccc5F)c5ccc([nH]5)c(-c5c(F)cccc5F)c5nc(c(-c6c(F)cccc6F)c6ccc3[nH]6)C=C5)C=C4)cc1)[C@H](C(F)(F)F)O2
REMARK SMILES IDX 18 1 17 2 16 3 15 4 14 5 13 6 11 7 12 8 10 9 3 10 4 11 8 12
REMARK SMILES IDX 5 13 7 14 6 15 9 16 84 17 79 18 2 19 1 20 80 21 81 22 82 23
REMARK SMILES IDX 83 24 19 25 20 26 21 27 22 28 23 29 24 30 25 31 26 32 78 33
REMARK SMILES IDX 27 34 77 35 28 36 29 37 30 38 71 39 31 40 76 41 70 42 72 43
REMARK SMILES IDX 32 44 75 45 69 46 68 47 33 49 59 50 42 51 58 52 43 53 46 54
REMARK SMILES IDX 57 55 73 56 44 57 45 58 56 60 74 61 47 62 34 63 35 64 40 65
REMARK SMILES IDX 36 66 37 67 39 68 41 69 38 70 60 71 61 72 66 73 62 74 63 75
REMARK SMILES IDX 65 76 67 77 64 78 48 79 49 80 54 81 50 82 51 83 53 84 55 85
REMARK SMILES IDX 52 86
REMARK H PARENT 72 48 46 59
REMARK Flexibility Score: inf
ROOT
ATOM      1  C   UNL     1       6.610   3.779   5.220  1.00  0.00     0.188 C 
ENDROOT
BRANCH   1   2
ATOM      2  C   UNL     1       6.613   4.871   6.310  1.00  0.00     0.188 C 
BRANCH   2   3
ATOM      3  O   UNL     1       7.110   4.404   7.551  1.00  0.00    -0.376 OA
BRANCH   3   4
ATOM      4  C   UNL     1       6.195   4.289   8.625  1.00  0.00     0.202 C 
BRANCH   4   5
ATOM      5  C   UNL     1       5.083   3.243   8.480  1.00  0.00     0.261 C 
BRANCH   5   6
ATOM      6  O   UNL     1       4.391   3.252   7.221  1.00  0.00    -0.460 OA
BRANCH   6   7
ATOM      7  C   UNL     1       3.376   4.129   7.065  1.00  0.00     0.338 C 
ATOM      8  O   UNL     1       3.007   4.953   7.883  1.00  0.00    -0.246 OA
BRANCH   7   9
ATOM      9  C   UNL     1       2.829   4.007   5.696  1.00  0.00     0.087 C 
ATOM     10  C   UNL     1       1.011   1.424   2.027  1.00  0.00    -0.047 A 
ATOM     11  C   UNL     1       0.509   2.611   1.474  1.00  0.00     0.007 A 
ATOM     12  C   UNL     1       1.718   1.486   3.241  1.00  0.00     0.015 A 
ATOM     13  C   UNL     1       0.724   3.836   2.106  1.00  0.00     0.047 A 
ATOM     14  C   UNL     1       1.918   2.711   3.890  1.00  0.00     0.018 A 
ATOM     15  C   UNL     1       1.434   3.884   3.301  1.00  0.00     0.128 A 
ATOM     16  C   UNL     1       2.521   2.788   5.220  1.00  0.00     0.027 C 
ATOM     17  O   UNL     1       1.557   5.112   3.898  1.00  0.00    -0.475 OA
ATOM     18  C   UNL     1       2.668   5.234   4.827  1.00  0.00     0.316 C 
BRANCH  10  19
ATOM     19  C   UNL     1       0.721   0.092   1.373  1.00  0.00     0.032 C 
ATOM     20  C   UNL     1       1.243  -0.018  -0.054  1.00  0.00     0.009 C 
ENDBRANCH  10  19
BRANCH  18  21
ATOM     21  C   UNL     1       2.562   6.599   5.524  1.00  0.00     0.430 C 
ATOM     22  F   UNL     1       3.698   6.891   6.205  1.00  0.00    -0.167 F 
ATOM     23  F   UNL     1       2.423   7.589   4.604  1.00  0.00    -0.167 F 
ATOM     24  F   UNL     1       1.515   6.687   6.367  1.00  0.00    -0.167 F 
ENDBRANCH  18  21
ENDBRANCH   7   9
ENDBRANCH   6   7
ENDBRANCH   5   6
ENDBRANCH   4   5
ENDBRANCH   3   4
ENDBRANCH   2   3
ENDBRANCH   1   2
BRANCH   1  25
ATOM     25  O   UNL     1       7.406   2.612   5.392  1.00  0.00    -0.376 OA
BRANCH  25  26
ATOM     26  C   UNL     1       8.715   2.734   5.933  1.00  0.00     0.202 C 
BRANCH  26  27
ATOM     27  C   UNL     1       9.742   3.550   5.141  1.00  0.00     0.261 C 
BRANCH  27  28
ATOM     28  O   UNL     1       9.321   4.893   4.845  1.00  0.00    -0.460 OA
BRANCH  28  29
ATOM     29  C   UNL     1       9.146   5.168   3.529  1.00  0.00     0.338 C 
ATOM     30  O   UNL     1       9.331   4.424   2.582  1.00  0.00    -0.246 OA
BRANCH  29  31
ATOM     31  C   UNL     1       8.520   6.496   3.381  1.00  0.00     0.060 A 
ATOM     32  C   UNL     1       7.284   6.576   2.726  1.00  0.00     0.016 A 
ATOM     33  C   UNL     1       9.165   7.653   3.822  1.00  0.00     0.016 A 
ATOM     34  C   UNL     1       6.689   7.817   2.503  1.00  0.00     0.010 A 
ATOM     35  C   UNL     1       8.579   8.899   3.574  1.00  0.00     0.010 A 
ATOM     36  C   UNL     1       7.349   8.988   2.899  1.00  0.00    -0.014 A 
BRANCH  36  37
ATOM     37  C   UNL     1       6.811  10.312   2.510  1.00  0.00     0.031 A 
ATOM     38  C   UNL     1       7.313  10.969   1.256  1.00  0.00     0.074 A 
ATOM     39  C   UNL     1       5.890  10.929   3.271  1.00  0.00     0.049 A 
ATOM     40  N   UNL     1       7.039  12.154   0.773  1.00  0.00    -0.248 NA
ATOM     41  C   UNL     1       8.247  10.183   0.435  1.00  0.00     0.031 C 
ATOM     42  C   UNL     1       5.289  10.378   4.484  1.00  0.00     0.029 A 
ATOM     43  N   UNL     1       5.313  12.167   3.138  1.00  0.00    -0.354 N 
ATOM     44  C   UNL     1       7.764  12.257  -0.407  1.00  0.00     0.074 A 
ATOM     45  C   UNL     1       8.507  11.024  -0.557  1.00  0.00     0.031 C 
ATOM     46  C   UNL     1       4.444  11.287   5.000  1.00  0.00     0.029 A 
ATOM     47  C   UNL     1       4.471  12.492   4.172  1.00  0.00     0.049 A 
ATOM     48  H   UNL     1       5.487  12.764   2.375  1.00  0.00     0.167 HD
ATOM     49  C   UNL     1       7.805  13.286  -1.287  1.00  0.00     0.037 A 
ATOM     50  C   UNL     1       3.822  13.642   4.435  1.00  0.00     0.037 A 
ATOM     51  C   UNL     1       7.079  14.519  -1.132  1.00  0.00     0.049 A 
ATOM     52  C   UNL     1       3.963  14.809   3.494  1.00  0.00     0.074 A 
ATOM     53  C   UNL     1       7.042  15.610  -1.983  1.00  0.00     0.029 A 
ATOM     54  N   UNL     1       6.274  14.829  -0.048  1.00  0.00    -0.354 N 
ATOM     55  N   UNL     1       4.632  14.890   2.370  1.00  0.00    -0.248 NA
ATOM     56  C   UNL     1       3.262  16.048   3.865  1.00  0.00     0.031 C 
ATOM     57  C   UNL     1       6.251  16.600  -1.389  1.00  0.00     0.029 A 
ATOM     58  C   UNL     1       5.761  16.108  -0.191  1.00  0.00     0.049 A 
ATOM     59  H   UNL     1       6.093  14.229   0.712  1.00  0.00     0.167 HD
ATOM     60  C   UNL     1       4.417  16.176   1.889  1.00  0.00     0.074 A 
ATOM     61  C   UNL     1       3.546  16.837   2.838  1.00  0.00     0.031 C 
ATOM     62  C   UNL     1       4.898  16.756   0.763  1.00  0.00     0.037 A 
BRANCH  49  63
ATOM     63  C   UNL     1       8.689  13.129  -2.487  1.00  0.00     0.057 A 
ATOM     64  C   UNL     1       8.339  12.295  -3.556  1.00  0.00     0.134 A 
ATOM     65  C   UNL     1       9.888  13.845  -2.587  1.00  0.00     0.134 A 
ATOM     66  F   UNL     1       7.210  11.572  -3.513  1.00  0.00    -0.206 F 
ATOM     67  C   UNL     1       9.161  12.165  -4.677  1.00  0.00     0.040 A 
ATOM     68  C   UNL     1      10.707  13.739  -3.712  1.00  0.00     0.040 A 
ATOM     69  F   UNL     1      10.278  14.662  -1.598  1.00  0.00    -0.206 F 
ATOM     70  C   UNL     1      10.346  12.893  -4.759  1.00  0.00     0.006 A 
ENDBRANCH  49  63
BRANCH  50  71
ATOM     71  C   UNL     1       3.002  13.767   5.665  1.00  0.00     0.057 A 
ATOM     72  C   UNL     1       1.607  13.850   5.601  1.00  0.00     0.134 A 
ATOM     73  C   UNL     1       3.596  13.835   6.931  1.00  0.00     0.134 A 
ATOM     74  F   UNL     1       0.983  13.822   4.414  1.00  0.00    -0.206 F 
ATOM     75  C   UNL     1       0.832  14.010   6.751  1.00  0.00     0.040 A 
ATOM     76  C   UNL     1       2.833  13.972   8.091  1.00  0.00     0.040 A 
ATOM     77  F   UNL     1       4.930  13.767   7.057  1.00  0.00    -0.206 F 
ATOM     78  C   UNL     1       1.446  14.066   8.001  1.00  0.00     0.006 A 
ENDBRANCH  50  71
BRANCH  62  79
ATOM     79  C   UNL     1       4.479  18.170   0.484  1.00  0.00     0.057 A 
ATOM     80  C   UNL     1       5.005  19.249   1.205  1.00  0.00     0.134 A 
ATOM     81  C   UNL     1       3.570  18.458  -0.542  1.00  0.00     0.134 A 
ATOM     82  F   UNL     1       5.870  19.040   2.209  1.00  0.00    -0.206 F 
ATOM     83  C   UNL     1       4.628  20.564   0.927  1.00  0.00     0.040 A 
ATOM     84  C   UNL     1       3.203  19.770  -0.844  1.00  0.00     0.040 A 
ATOM     85  F   UNL     1       3.035  17.470  -1.275  1.00  0.00    -0.206 F 
ATOM     86  C   UNL     1       3.729  20.828  -0.105  1.00  0.00     0.006 A 
ENDBRANCH  62  79
ENDBRANCH  36  37
ENDBRANCH  29  31
ENDBRANCH  28  29
ENDBRANCH  27  28
ENDBRANCH  26  27
ENDBRANCH  25  26
ENDBRANCH   1  25
TORSDOF 19
