REMARK SMILES O=C(Cc1cncnc1N1CCC2(CC1)OCCC[C@@H]2O)OCCOCCOCCOC(=O)c1ccc(-c2c3nc(c(-c4c(F)cccc4F)c4ccc([nH]4)c(-c4c(F)cccc4F)c4nc(c(-c5c(F)cccc5F)c5ccc2[nH]5)C=C4)C=C3)cc1
REMARK SMILES IDX 26 1 25 2 24 3 23 4 22 5 2 6 1 7 3 8 4 9 5 10 9 11 6 12 8 13
REMARK SMILES IDX 7 14 10 15 11 16 15 17 12 18 14 19 13 20 16 21 20 22 17 23
REMARK SMILES IDX 19 24 18 25 21 26 27 28 28 29 29 30 30 31 31 32 32 33 33 34
REMARK SMILES IDX 34 35 35 36 87 37 36 38 86 39 37 40 38 41 39 42 80 43 40 44
REMARK SMILES IDX 85 45 79 46 81 47 41 48 84 49 78 50 77 51 42 53 68 54 51 55
REMARK SMILES IDX 67 56 52 57 55 58 66 59 82 60 53 61 54 62 65 64 83 65 56 66
REMARK SMILES IDX 43 67 44 68 49 69 45 70 46 71 48 72 50 73 47 74 69 75 70 76
REMARK SMILES IDX 75 77 71 78 72 79 74 80 76 81 73 82 57 83 58 84 63 85 59 86
REMARK SMILES IDX 60 87 62 88 64 89 61 90
REMARK H PARENT 21 27 81 52 55 63
REMARK Flexibility Score: inf
ROOT
ATOM      1  C   UNL     1       1.683   1.426   1.488  1.00  0.00     0.188 C 
ENDROOT
BRANCH   1   2
ATOM      2  O   UNL     1       2.716   1.051   0.584  1.00  0.00    -0.376 OA
BRANCH   2   3
ATOM      3  C   UNL     1       2.393   1.143  -0.790  1.00  0.00     0.202 C 
BRANCH   3   4
ATOM      4  C   UNL     1       2.400  -0.182  -1.535  1.00  0.00     0.261 C 
BRANCH   4   5
ATOM      5  O   UNL     1       1.546  -1.149  -0.937  1.00  0.00    -0.463 OA
BRANCH   5   6
ATOM      6  C   UNL     1       1.839  -1.761   0.228  1.00  0.00     0.310 C 
ATOM      7  O   UNL     1       0.923  -2.338   0.819  1.00  0.00    -0.252 OA
BRANCH   6   8
ATOM      8  C   UNL     1       3.233  -1.732   0.837  1.00  0.00     0.163 C 
BRANCH   8   9
ATOM      9  C   UNL     1       4.384  -2.323   0.073  1.00  0.00     0.024 A 
ATOM     10  C   UNL     1       4.403  -3.714  -0.000  1.00  0.00     0.121 A 
ATOM     11  C   UNL     1       5.474  -1.659  -0.519  1.00  0.00     0.135 A 
ATOM     12  N   UNL     1       5.390  -4.433  -0.546  1.00  0.00    -0.244 NA
ATOM     13  N   UNL     1       6.479  -2.373  -1.065  1.00  0.00    -0.219 NA
ATOM     14  C   UNL     1       6.396  -3.712  -1.040  1.00  0.00     0.224 A 
BRANCH  11  15
ATOM     15  N   UNL     1       5.558  -0.258  -0.674  1.00  0.00    -0.356 N 
ATOM     16  C   UNL     1       6.093   0.153  -1.989  1.00  0.00     0.121 C 
ATOM     17  C   UNL     1       6.320   0.439   0.366  1.00  0.00     0.121 C 
ATOM     18  C   UNL     1       5.777   1.626  -2.293  1.00  0.00     0.060 C 
ATOM     19  C   UNL     1       6.045   1.945   0.249  1.00  0.00     0.060 C 
ATOM     20  C   UNL     1       6.010   2.649  -1.146  1.00  0.00     0.097 C 
ATOM     21  O   UNL     1       7.289   3.318  -1.319  1.00  0.00    -0.372 OA
ATOM     22  C   UNL     1       4.895   3.784  -1.157  1.00  0.00     0.146 C 
ATOM     23  C   UNL     1       7.392   4.271  -2.392  1.00  0.00     0.161 C 
ATOM     24  C   UNL     1       4.920   4.617  -2.427  1.00  0.00     0.037 C 
ATOM     25  C   UNL     1       6.269   5.303  -2.492  1.00  0.00     0.031 C 
BRANCH  22  26
ATOM     26  O   UNL     1       5.046   4.718  -0.078  1.00  0.00    -0.390 OA
ATOM     27  H   UNL     1       5.885   5.196  -0.179  1.00  0.00     0.211 HD
ENDBRANCH  22  26
ENDBRANCH  11  15
ENDBRANCH   8   9
ENDBRANCH   6   8
ENDBRANCH   5   6
ENDBRANCH   4   5
ENDBRANCH   3   4
ENDBRANCH   2   3
ENDBRANCH   1   2
BRANCH   1  28
ATOM     28  C   UNL     1       1.418   2.938   1.502  1.00  0.00     0.188 C 
BRANCH  28  29
ATOM     29  O   UNL     1       2.542   3.825   1.497  1.00  0.00    -0.376 OA
BRANCH  29  30
ATOM     30  C   UNL     1       3.688   3.452   2.255  1.00  0.00     0.202 C 
BRANCH  30  31
ATOM     31  C   UNL     1       4.162   4.504   3.255  1.00  0.00     0.261 C 
BRANCH  31  32
ATOM     32  O   UNL     1       3.889   4.013   4.564  1.00  0.00    -0.460 OA
BRANCH  32  33
ATOM     33  C   UNL     1       2.557   3.921   4.772  1.00  0.00     0.338 C 
ATOM     34  O   UNL     1       1.695   4.649   4.330  1.00  0.00    -0.246 OA
BRANCH  33  35
ATOM     35  C   UNL     1       2.285   2.623   5.409  1.00  0.00     0.060 A 
ATOM     36  C   UNL     1       1.047   2.036   5.120  1.00  0.00     0.016 A 
ATOM     37  C   UNL     1       3.181   2.032   6.307  1.00  0.00     0.016 A 
ATOM     38  C   UNL     1       0.624   0.949   5.855  1.00  0.00     0.010 A 
ATOM     39  C   UNL     1       2.749   0.954   7.065  1.00  0.00     0.010 A 
ATOM     40  C   UNL     1       1.433   0.500   6.902  1.00  0.00    -0.014 A 
BRANCH  40  41
ATOM     41  C   UNL     1       0.747  -0.138   8.032  1.00  0.00     0.031 A 
ATOM     42  C   UNL     1       0.291   0.757   9.152  1.00  0.00     0.074 A 
ATOM     43  C   UNL     1       0.460  -1.443   7.979  1.00  0.00     0.049 A 
ATOM     44  N   UNL     1      -0.350   0.456  10.248  1.00  0.00    -0.248 NA
ATOM     45  C   UNL     1       0.598   2.195   9.019  1.00  0.00     0.031 C 
ATOM     46  C   UNL     1       0.804  -2.337   6.875  1.00  0.00     0.029 A 
ATOM     47  N   UNL     1      -0.199  -2.233   8.873  1.00  0.00    -0.354 N 
ATOM     48  C   UNL     1      -0.504   1.656  10.934  1.00  0.00     0.074 A 
ATOM     49  C   UNL     1       0.131   2.688  10.153  1.00  0.00     0.031 C 
ATOM     50  C   UNL     1       0.352  -3.569   7.163  1.00  0.00     0.029 A 
ATOM     51  C   UNL     1      -0.276  -3.542   8.480  1.00  0.00     0.049 A 
ATOM     52  H   UNL     1      -0.582  -1.896   9.716  1.00  0.00     0.167 HD
ATOM     53  C   UNL     1      -1.127   1.867  12.115  1.00  0.00     0.037 A 
ATOM     54  C   UNL     1      -0.788  -4.594   9.140  1.00  0.00     0.037 A 
ATOM     55  C   UNL     1      -1.748   0.808  12.862  1.00  0.00     0.049 A 
ATOM     56  C   UNL     1      -1.415  -4.344  10.484  1.00  0.00     0.074 A 
ATOM     57  C   UNL     1      -2.414   0.875  14.070  1.00  0.00     0.029 A 
ATOM     58  N   UNL     1      -1.768  -0.522  12.460  1.00  0.00    -0.354 N 
ATOM     59  N   UNL     1      -1.559  -3.211  11.134  1.00  0.00    -0.248 NA
ATOM     60  C   UNL     1      -1.960  -5.513  11.180  1.00  0.00     0.031 C 
ATOM     61  C   UNL     1      -2.782  -0.426  14.429  1.00  0.00     0.029 A 
ATOM     62  C   UNL     1      -2.410  -1.293  13.411  1.00  0.00     0.049 A 
ATOM     63  H   UNL     1      -1.381  -0.865  11.622  1.00  0.00     0.167 HD
ATOM     64  C   UNL     1      -2.243  -3.524  12.301  1.00  0.00     0.074 A 
ATOM     65  C   UNL     1      -2.494  -4.953  12.255  1.00  0.00     0.031 C 
ATOM     66  C   UNL     1      -2.636  -2.715  13.317  1.00  0.00     0.037 A 
BRANCH  53  67
ATOM     67  C   UNL     1      -1.105   3.260  12.678  1.00  0.00     0.057 A 
ATOM     68  C   UNL     1      -1.807   4.322  12.091  1.00  0.00     0.134 A 
ATOM     69  C   UNL     1      -0.360   3.544  13.830  1.00  0.00     0.134 A 
ATOM     70  F   UNL     1      -2.521   4.130  10.971  1.00  0.00    -0.206 F 
ATOM     71  C   UNL     1      -1.748   5.617  12.613  1.00  0.00     0.040 A 
ATOM     72  C   UNL     1      -0.317   4.828  14.379  1.00  0.00     0.040 A 
ATOM     73  F   UNL     1       0.344   2.579  14.441  1.00  0.00    -0.206 F 
ATOM     74  C   UNL     1      -1.006   5.871  13.765  1.00  0.00     0.006 A 
ENDBRANCH  53  67
BRANCH  54  75
ATOM     75  C   UNL     1      -0.727  -5.947   8.537  1.00  0.00     0.057 A 
ATOM     76  C   UNL     1      -1.887  -6.612   8.129  1.00  0.00     0.134 A 
ATOM     77  C   UNL     1       0.496  -6.601   8.338  1.00  0.00     0.134 A 
ATOM     78  F   UNL     1      -3.089  -6.041   8.300  1.00  0.00    -0.206 F 
ATOM     79  C   UNL     1      -1.838  -7.886   7.563  1.00  0.00     0.040 A 
ATOM     80  C   UNL     1       0.563  -7.863   7.747  1.00  0.00     0.040 A 
ATOM     81  F   UNL     1       1.647  -6.011   8.695  1.00  0.00    -0.206 F 
ATOM     82  C   UNL     1      -0.609  -8.513   7.366  1.00  0.00     0.006 A 
ENDBRANCH  54  75
BRANCH  66  83
ATOM     83  C   UNL     1      -3.417  -3.360  14.424  1.00  0.00     0.057 A 
ATOM     84  C   UNL     1      -2.828  -4.252  15.328  1.00  0.00     0.134 A 
ATOM     85  C   UNL     1      -4.776  -3.064  14.593  1.00  0.00     0.134 A 
ATOM     86  F   UNL     1      -1.533  -4.583  15.213  1.00  0.00    -0.206 F 
ATOM     87  C   UNL     1      -3.575  -4.861  16.336  1.00  0.00     0.040 A 
ATOM     88  C   UNL     1      -5.523  -3.638  15.619  1.00  0.00     0.040 A 
ATOM     89  F   UNL     1      -5.395  -2.204  13.770  1.00  0.00    -0.206 F 
ATOM     90  C   UNL     1      -4.925  -4.550  16.486  1.00  0.00     0.006 A 
ENDBRANCH  66  83
ENDBRANCH  40  41
ENDBRANCH  33  35
ENDBRANCH  32  33
ENDBRANCH  31  32
ENDBRANCH  30  31
ENDBRANCH  29  30
ENDBRANCH  28  29
ENDBRANCH   1  28
TORSDOF 20
