REMARK SMILES C[C@@H](SC1CCOCC1)c1ccc(C(=O)OCCOCCOCCOC(=O)c2ccc(-c3c4nc(c(-c5c(F)cccc5F)c5ccc([nH]5)c(-c5c(F)cccc5F)c5nc(c(-c6c(F)cccc6F)c6ccc3[nH]6)C=C5)C=C4)cc2)o1
REMARK SMILES IDX 20 1 19 2 18 3 17 4 16 5 14 6 15 7 13 8 10 9 11 10 82 11
REMARK SMILES IDX 12 12 2 13 1 14 3 15 4 16 5 17 9 18 6 19 8 20 7 21 21 22
REMARK SMILES IDX 22 23 23 24 24 25 25 26 26 27 27 28 28 29 29 30 81 31 30 32
REMARK SMILES IDX 80 33 31 34 32 35 33 36 74 37 34 38 79 39 73 40 75 41 35 42
REMARK SMILES IDX 78 43 72 44 71 45 36 47 62 48 45 49 61 50 46 51 49 52 60 53
REMARK SMILES IDX 76 54 47 55 48 56 59 58 77 59 50 60 37 61 38 62 43 63 39 64
REMARK SMILES IDX 40 65 42 66 44 67 41 68 63 69 64 70 69 71 65 72 66 73 68 74
REMARK SMILES IDX 70 75 67 76 51 77 52 78 57 79 53 80 54 81 56 82 58 83 55 84
REMARK H PARENT 75 46 49 57
REMARK Flexibility Score: inf
ROOT
ATOM      1  C   UNL     1      -4.566   3.641   2.579  1.00  0.00     0.188 C 
ENDROOT
BRANCH   1   2
ATOM      2  O   UNL     1      -5.660   4.330   1.984  1.00  0.00    -0.376 OA
BRANCH   2   3
ATOM      3  C   UNL     1      -6.652   3.594   1.278  1.00  0.00     0.202 C 
BRANCH   3   4
ATOM      4  C   UNL     1      -6.193   2.850   0.022  1.00  0.00     0.261 C 
BRANCH   4   5
ATOM      5  O   UNL     1      -5.249   1.809   0.327  1.00  0.00    -0.457 OA
BRANCH   5   6
ATOM      6  C   UNL     1      -4.056   1.875  -0.336  1.00  0.00     0.374 C 
ATOM      7  O   UNL     1      -3.816   2.645  -1.259  1.00  0.00    -0.242 OA
BRANCH   6   8
ATOM      8  C   UNL     1      -3.102   0.988   0.290  1.00  0.00     0.211 A 
ATOM      9  C   UNL     1      -1.054   0.406   0.897  1.00  0.00     0.117 A 
ATOM     10  C   UNL     1      -1.911  -0.487   1.508  1.00  0.00     0.048 A 
ATOM     11  O   UNL     1      -1.775   1.276   0.132  1.00  0.00    -0.453 OA
ATOM     12  C   UNL     1      -3.222  -0.124   1.105  1.00  0.00     0.058 A 
BRANCH   9  13
ATOM     13  C   UNL     1       0.449   0.505   0.824  1.00  0.00     0.110 C 
ATOM     14  C   UNL     1       0.882  -0.206  -0.461  1.00  0.00     0.028 C 
BRANCH  13  15
ATOM     15  S   UNL     1       0.964   2.281   0.879  1.00  0.00    -0.147 SA
BRANCH  15  16
ATOM     16  C   UNL     1       2.773   2.275   1.255  1.00  0.00     0.052 C 
ATOM     17  C   UNL     1       3.336   3.604   0.719  1.00  0.00     0.043 C 
ATOM     18  C   UNL     1       3.579   1.109   0.695  1.00  0.00     0.043 C 
ATOM     19  C   UNL     1       4.851   3.678   0.864  1.00  0.00     0.161 C 
ATOM     20  C   UNL     1       5.073   1.328   0.889  1.00  0.00     0.161 C 
ATOM     21  O   UNL     1       5.476   2.543   0.267  1.00  0.00    -0.381 OA
ENDBRANCH  15  16
ENDBRANCH  13  15
ENDBRANCH   9  13
ENDBRANCH   6   8
ENDBRANCH   5   6
ENDBRANCH   4   5
ENDBRANCH   3   4
ENDBRANCH   2   3
ENDBRANCH   1   2
BRANCH   1  22
ATOM     22  C   UNL     1      -4.825   2.332   3.349  1.00  0.00     0.188 C 
BRANCH  22  23
ATOM     23  O   UNL     1      -6.179   2.134   3.727  1.00  0.00    -0.376 OA
BRANCH  23  24
ATOM     24  C   UNL     1      -6.429   2.083   5.124  1.00  0.00     0.202 C 
BRANCH  24  25
ATOM     25  C   UNL     1      -6.488   3.474   5.761  1.00  0.00     0.261 C 
BRANCH  25  26
ATOM     26  O   UNL     1      -5.262   4.220   5.676  1.00  0.00    -0.460 OA
BRANCH  26  27
ATOM     27  C   UNL     1      -4.203   3.732   6.359  1.00  0.00     0.338 C 
ATOM     28  O   UNL     1      -4.166   2.730   7.049  1.00  0.00    -0.246 OA
BRANCH  27  29
ATOM     29  C   UNL     1      -3.024   4.543   6.001  1.00  0.00     0.060 A 
ATOM     30  C   UNL     1      -1.889   3.903   5.491  1.00  0.00     0.016 A 
ATOM     31  C   UNL     1      -3.042   5.930   6.173  1.00  0.00     0.016 A 
ATOM     32  C   UNL     1      -0.754   4.651   5.174  1.00  0.00     0.010 A 
ATOM     33  C   UNL     1      -1.901   6.674   5.870  1.00  0.00     0.010 A 
ATOM     34  C   UNL     1      -0.743   6.036   5.395  1.00  0.00    -0.014 A 
BRANCH  34  35
ATOM     35  C   UNL     1       0.521   6.801   5.282  1.00  0.00     0.031 A 
ATOM     36  C   UNL     1       1.330   7.045   6.526  1.00  0.00     0.074 A 
ATOM     37  C   UNL     1       0.942   7.285   4.101  1.00  0.00     0.049 A 
ATOM     38  N   UNL     1       2.441   7.720   6.677  1.00  0.00    -0.248 NA
ATOM     39  C   UNL     1       0.814   6.445   7.767  1.00  0.00     0.031 C 
ATOM     40  C   UNL     1       0.266   7.101   2.820  1.00  0.00     0.029 A 
ATOM     41  N   UNL     1       2.042   8.049   3.798  1.00  0.00    -0.354 N 
ATOM     42  C   UNL     1       2.758   7.624   8.025  1.00  0.00     0.074 A 
ATOM     43  C   UNL     1       1.708   6.852   8.655  1.00  0.00     0.031 C 
ATOM     44  C   UNL     1       0.957   7.751   1.867  1.00  0.00     0.029 A 
ATOM     45  C   UNL     1       2.108   8.415   2.477  1.00  0.00     0.049 A 
ATOM     46  H   UNL     1       2.717   8.310   4.465  1.00  0.00     0.167 HD
ATOM     47  C   UNL     1       3.831   8.126   8.681  1.00  0.00     0.037 A 
ATOM     48  C   UNL     1       2.989   9.211   1.840  1.00  0.00     0.037 A 
ATOM     49  C   UNL     1       4.870   8.906   8.064  1.00  0.00     0.049 A 
ATOM     50  C   UNL     1       4.130   9.826   2.604  1.00  0.00     0.074 A 
ATOM     51  C   UNL     1       6.010   9.435   8.642  1.00  0.00     0.029 A 
ATOM     52  N   UNL     1       4.884   9.283   6.730  1.00  0.00    -0.354 N 
ATOM     53  N   UNL     1       4.447   9.692   3.869  1.00  0.00    -0.248 NA
ATOM     54  C   UNL     1       5.039  10.703   1.849  1.00  0.00     0.031 C 
ATOM     55  C   UNL     1       6.695  10.167   7.665  1.00  0.00     0.029 A 
ATOM     56  C   UNL     1       6.001  10.059   6.471  1.00  0.00     0.049 A 
ATOM     57  H   UNL     1       4.201   9.035   6.065  1.00  0.00     0.167 HD
ATOM     58  C   UNL     1       5.601  10.443   4.056  1.00  0.00     0.074 A 
ATOM     59  C   UNL     1       5.934  11.026   2.772  1.00  0.00     0.031 C 
ATOM     60  C   UNL     1       6.323  10.629   5.188  1.00  0.00     0.037 A 
BRANCH  47  61
ATOM     61  C   UNL     1       3.917   7.857  10.152  1.00  0.00     0.057 A 
ATOM     62  C   UNL     1       4.246   6.589  10.650  1.00  0.00     0.134 A 
ATOM     63  C   UNL     1       3.677   8.877  11.080  1.00  0.00     0.134 A 
ATOM     64  F   UNL     1       4.470   5.566   9.811  1.00  0.00    -0.206 F 
ATOM     65  C   UNL     1       4.310   6.340  12.022  1.00  0.00     0.040 A 
ATOM     66  C   UNL     1       3.759   8.645  12.454  1.00  0.00     0.040 A 
ATOM     67  F   UNL     1       3.358  10.113  10.667  1.00  0.00    -0.206 F 
ATOM     68  C   UNL     1       4.070   7.372  12.928  1.00  0.00     0.006 A 
ENDBRANCH  47  61
BRANCH  48  69
ATOM     69  C   UNL     1       2.826   9.482   0.391  1.00  0.00     0.057 A 
ATOM     70  C   UNL     1       3.699   8.925  -0.550  1.00  0.00     0.134 A 
ATOM     71  C   UNL     1       1.809  10.319  -0.083  1.00  0.00     0.134 A 
ATOM     72  F   UNL     1       4.707   8.136  -0.151  1.00  0.00    -0.206 F 
ATOM     73  C   UNL     1       3.573   9.200  -1.913  1.00  0.00     0.040 A 
ATOM     74  C   UNL     1       1.660  10.586  -1.444  1.00  0.00     0.040 A 
ATOM     75  F   UNL     1       0.947  10.887   0.772  1.00  0.00    -0.206 F 
ATOM     76  C   UNL     1       2.548  10.029  -2.363  1.00  0.00     0.006 A 
ENDBRANCH  48  69
BRANCH  60  77
ATOM     77  C   UNL     1       7.562  11.469   5.087  1.00  0.00     0.057 A 
ATOM     78  C   UNL     1       7.502  12.863   4.977  1.00  0.00     0.134 A 
ATOM     79  C   UNL     1       8.831  10.877   5.146  1.00  0.00     0.134 A 
ATOM     80  F   UNL     1       6.318  13.489   4.903  1.00  0.00    -0.206 F 
ATOM     81  C   UNL     1       8.661  13.639   4.914  1.00  0.00     0.040 A 
ATOM     82  C   UNL     1       9.996  11.644   5.106  1.00  0.00     0.040 A 
ATOM     83  F   UNL     1       8.957   9.547   5.261  1.00  0.00    -0.206 F 
ATOM     84  C   UNL     1       9.912  13.030   4.985  1.00  0.00     0.006 A 
ENDBRANCH  60  77
ENDBRANCH  34  35
ENDBRANCH  27  29
ENDBRANCH  26  27
ENDBRANCH  25  26
ENDBRANCH  24  25
ENDBRANCH  23  24
ENDBRANCH  22  23
ENDBRANCH   1  22
TORSDOF 20
