REMARK SMILES Cc1ccc(C(N)=O)c(NCc2ccc(C(=O)OCCOCCOCCOC(=O)c3ccc(-c4c5nc(c(-c6c(F)cccc6F)c6ccc([nH]6)c(-c6c(F)cccc6F)c6nc(c(-c7c(F)cccc7F)c7ccc4[nH]7)C=C6)C=C5)cc3)o2)n1
REMARK SMILES IDX 22 1 21 2 20 3 19 4 18 5 16 6 17 7 15 8 12 9 13 10 84 11
REMARK SMILES IDX 14 12 11 13 10 14 9 16 1 17 2 18 3 19 85 20 4 21 5 22 6 23
REMARK SMILES IDX 7 24 8 25 23 28 24 29 25 30 26 31 27 32 28 33 29 34 30 35
REMARK SMILES IDX 31 36 83 37 32 38 82 39 33 40 34 41 35 42 76 43 36 44 81 45
REMARK SMILES IDX 75 46 77 47 37 48 80 49 74 50 73 51 38 53 64 54 47 55 63 56
REMARK SMILES IDX 48 57 51 58 62 59 78 60 49 61 50 62 61 64 79 65 52 66 39 67
REMARK SMILES IDX 40 68 45 69 41 70 42 71 44 72 46 73 43 74 65 75 66 76 71 77
REMARK SMILES IDX 67 78 68 79 70 80 72 81 69 82 53 83 54 84 59 85 55 86 56 87
REMARK SMILES IDX 58 88 60 89 57 90
REMARK H PARENT 10 15 7 26 7 27 77 52 51 63
REMARK Flexibility Score: inf
ROOT
ATOM      1  C   UNL     1      -2.025   9.114  -2.366  1.00  0.00     0.188 C 
ENDROOT
BRANCH   1   2
ATOM      2  O   UNL     1      -1.374  10.219  -2.984  1.00  0.00    -0.376 OA
BRANCH   2   3
ATOM      3  C   UNL     1      -0.944  10.123  -4.335  1.00  0.00     0.202 C 
BRANCH   3   4
ATOM      4  C   UNL     1       0.180   9.129  -4.635  1.00  0.00     0.261 C 
BRANCH   4   5
ATOM      5  O   UNL     1      -0.192   7.770  -4.354  1.00  0.00    -0.457 OA
BRANCH   5   6
ATOM      6  C   UNL     1       0.540   7.144  -3.385  1.00  0.00     0.374 C 
ATOM      7  O   UNL     1       1.532   7.620  -2.845  1.00  0.00    -0.242 OA
BRANCH   6   8
ATOM      8  C   UNL     1      -0.100   5.905  -3.008  1.00  0.00     0.211 A 
ATOM      9  C   UNL     1      -0.664   4.350  -1.540  1.00  0.00     0.124 A 
ATOM     10  C   UNL     1      -1.300   4.022  -2.720  1.00  0.00     0.048 A 
ATOM     11  O   UNL     1       0.080   5.477  -1.720  1.00  0.00    -0.452 OA
ATOM     12  C   UNL     1      -0.952   5.029  -3.658  1.00  0.00     0.058 A 
BRANCH   9  13
ATOM     13  C   UNL     1      -0.647   3.786  -0.158  1.00  0.00     0.190 C 
BRANCH  13  14
ATOM     14  N   UNL     1      -1.529   2.647   0.067  1.00  0.00    -0.362 N 
ATOM     15  H   UNL     1      -2.481   2.789   0.275  1.00  0.00     0.162 HD
BRANCH  14  16
ATOM     16  C   UNL     1      -1.011   1.356  -0.016  1.00  0.00     0.139 A 
ATOM     17  C   UNL     1       2.391  -0.058  -0.127  1.00  0.00     0.067 C 
ATOM     18  C   UNL     1       0.894  -0.006  -0.102  1.00  0.00     0.040 A 
ATOM     19  C   UNL     1       0.137  -1.164  -0.041  1.00  0.00     0.024 A 
ATOM     20  N   UNL     1       0.334   1.228  -0.105  1.00  0.00    -0.236 NA
ATOM     21  C   UNL     1      -1.246  -1.044   0.012  1.00  0.00     0.019 A 
ATOM     22  C   UNL     1      -1.841   0.225   0.018  1.00  0.00     0.081 A 
BRANCH  22  23
ATOM     23  C   UNL     1      -3.327   0.270   0.065  1.00  0.00     0.252 C 
ATOM     24  N   UNL     1      -3.951   1.409  -0.360  1.00  0.00    -0.365 N 
ATOM     25  O   UNL     1      -3.987  -0.692   0.441  1.00  0.00    -0.269 OA
ATOM     26  H   UNL     1      -3.417   2.179  -0.661  1.00  0.00     0.159 HD
ATOM     27  H   UNL     1      -4.934   1.459  -0.365  1.00  0.00     0.159 HD
ENDBRANCH  22  23
ENDBRANCH  14  16
ENDBRANCH  13  14
ENDBRANCH   9  13
ENDBRANCH   6   8
ENDBRANCH   5   6
ENDBRANCH   4   5
ENDBRANCH   3   4
ENDBRANCH   2   3
ENDBRANCH   1   2
BRANCH   1  28
ATOM     28  C   UNL     1      -3.043   8.275  -3.161  1.00  0.00     0.188 C 
BRANCH  28  29
ATOM     29  O   UNL     1      -3.577   8.930  -4.302  1.00  0.00    -0.376 OA
BRANCH  29  30
ATOM     30  C   UNL     1      -4.970   9.205  -4.266  1.00  0.00     0.202 C 
BRANCH  30  31
ATOM     31  C   UNL     1      -5.303  10.464  -3.463  1.00  0.00     0.261 C 
BRANCH  31  32
ATOM     32  O   UNL     1      -4.969  10.386  -2.067  1.00  0.00    -0.460 OA
BRANCH  32  33
ATOM     33  C   UNL     1      -5.652   9.485  -1.329  1.00  0.00     0.338 C 
ATOM     34  O   UNL     1      -6.521   8.722  -1.709  1.00  0.00    -0.246 OA
BRANCH  33  35
ATOM     35  C   UNL     1      -5.056   9.461   0.020  1.00  0.00     0.060 A 
ATOM     36  C   UNL     1      -4.606   8.242   0.539  1.00  0.00     0.016 A 
ATOM     37  C   UNL     1      -4.951  10.637   0.768  1.00  0.00     0.016 A 
ATOM     38  C   UNL     1      -4.067   8.194   1.826  1.00  0.00     0.010 A 
ATOM     39  C   UNL     1      -4.426  10.584   2.060  1.00  0.00     0.010 A 
ATOM     40  C   UNL     1      -4.003   9.360   2.604  1.00  0.00    -0.014 A 
BRANCH  40  41
ATOM     41  C   UNL     1      -3.641   9.279   4.039  1.00  0.00     0.031 A 
ATOM     42  C   UNL     1      -4.741   9.166   5.056  1.00  0.00     0.074 A 
ATOM     43  C   UNL     1      -2.357   9.316   4.435  1.00  0.00     0.049 A 
ATOM     44  N   UNL     1      -4.663   9.119   6.361  1.00  0.00    -0.248 NA
ATOM     45  C   UNL     1      -6.113   9.096   4.529  1.00  0.00     0.031 C 
ATOM     46  C   UNL     1      -1.198   9.405   3.550  1.00  0.00     0.029 A 
ATOM     47  N   UNL     1      -1.818   9.293   5.698  1.00  0.00    -0.354 N 
ATOM     48  C   UNL     1      -5.972   9.011   6.811  1.00  0.00     0.074 A 
ATOM     49  C   UNL     1      -6.827   9.027   5.643  1.00  0.00     0.031 C 
ATOM     50  C   UNL     1      -0.081   9.444   4.299  1.00  0.00     0.029 A 
ATOM     51  C   UNL     1      -0.450   9.406   5.714  1.00  0.00     0.049 A 
ATOM     52  H   UNL     1      -2.361   9.204   6.514  1.00  0.00     0.167 HD
ATOM     53  C   UNL     1      -6.424   8.900   8.082  1.00  0.00     0.037 A 
ATOM     54  C   UNL     1       0.403   9.489   6.754  1.00  0.00     0.037 A 
ATOM     55  C   UNL     1      -5.583   8.899   9.248  1.00  0.00     0.049 A 
ATOM     56  C   UNL     1      -0.130   9.436   8.162  1.00  0.00     0.074 A 
ATOM     57  C   UNL     1      -5.950   8.776  10.577  1.00  0.00     0.029 A 
ATOM     58  N   UNL     1      -4.204   9.040   9.224  1.00  0.00    -0.354 N 
ATOM     59  N   UNL     1      -1.366   9.295   8.575  1.00  0.00    -0.248 NA
ATOM     60  C   UNL     1       0.855   9.555   9.248  1.00  0.00     0.031 C 
ATOM     61  C   UNL     1      -4.795   8.881  11.360  1.00  0.00     0.029 A 
ATOM     62  C   UNL     1      -3.707   9.030  10.516  1.00  0.00     0.049 A 
ATOM     63  H   UNL     1      -3.660   9.134   8.409  1.00  0.00     0.167 HD
ATOM     64  C   UNL     1      -1.305   9.282   9.963  1.00  0.00     0.074 A 
ATOM     65  C   UNL     1       0.090   9.421  10.323  1.00  0.00     0.031 C 
ATOM     66  C   UNL     1      -2.315   9.162  10.860  1.00  0.00     0.037 A 
BRANCH  53  67
ATOM     67  C   UNL     1      -7.906   8.791   8.273  1.00  0.00     0.057 A 
ATOM     68  C   UNL     1      -8.599   7.611   7.974  1.00  0.00     0.134 A 
ATOM     69  C   UNL     1      -8.643   9.868   8.778  1.00  0.00     0.134 A 
ATOM     70  F   UNL     1      -7.950   6.550   7.471  1.00  0.00    -0.206 F 
ATOM     71  C   UNL     1      -9.979   7.513   8.154  1.00  0.00     0.040 A 
ATOM     72  C   UNL     1     -10.021   9.775   8.981  1.00  0.00     0.040 A 
ATOM     73  F   UNL     1      -8.037  11.025   9.083  1.00  0.00    -0.206 F 
ATOM     74  C   UNL     1     -10.693   8.596   8.665  1.00  0.00     0.006 A 
ENDBRANCH  53  67
BRANCH  54  75
ATOM     75  C   UNL     1       1.859   9.643   6.511  1.00  0.00     0.057 A 
ATOM     76  C   UNL     1       2.752   8.601   6.783  1.00  0.00     0.134 A 
ATOM     77  C   UNL     1       2.393  10.845   6.033  1.00  0.00     0.134 A 
ATOM     78  F   UNL     1       2.301   7.435   7.270  1.00  0.00    -0.206 F 
ATOM     79  C   UNL     1       4.128   8.752   6.601  1.00  0.00     0.040 A 
ATOM     80  C   UNL     1       3.764  11.003   5.827  1.00  0.00     0.040 A 
ATOM     81  F   UNL     1       1.588  11.883   5.761  1.00  0.00    -0.206 F 
ATOM     82  C   UNL     1       4.636   9.956   6.117  1.00  0.00     0.006 A 
ENDBRANCH  54  75
BRANCH  66  83
ATOM     83  C   UNL     1      -1.948   9.143  12.314  1.00  0.00     0.057 A 
ATOM     84  C   UNL     1      -1.574  10.307  12.996  1.00  0.00     0.134 A 
ATOM     85  C   UNL     1      -2.017   7.953  13.050  1.00  0.00     0.134 A 
ATOM     86  F   UNL     1      -1.478  11.475  12.344  1.00  0.00    -0.206 F 
ATOM     87  C   UNL     1      -1.266  10.285  14.357  1.00  0.00     0.040 A 
ATOM     88  C   UNL     1      -1.732   7.923  14.416  1.00  0.00     0.040 A 
ATOM     89  F   UNL     1      -2.377   6.805  12.457  1.00  0.00    -0.206 F 
ATOM     90  C   UNL     1      -1.351   9.092  15.072  1.00  0.00     0.006 A 
ENDBRANCH  66  83
ENDBRANCH  40  41
ENDBRANCH  33  35
ENDBRANCH  32  33
ENDBRANCH  31  32
ENDBRANCH  30  31
ENDBRANCH  29  30
ENDBRANCH  28  29
ENDBRANCH   1  28
TORSDOF 21
