REMARK SMILES O=C(OCCOCCOCCOC(=O)c1c(F)cccc1N[C@H]1CCCc2ccccc21)c1ccc(-c2c3nc(c(-c4c(F)cccc4F)c4ccc([nH]4)c(-c4c(F)cccc4F)c4nc(c(-c5c(F)cccc5F)c5ccc2[nH]5)C=C4)C=C3)cc1
REMARK SMILES IDX 7 1 6 2 5 3 4 4 3 5 2 6 1 7 33 8 34 9 86 10 35 11 85 12
REMARK SMILES IDX 36 13 37 14 38 15 79 16 39 17 84 18 78 19 80 20 40 21 83 22
REMARK SMILES IDX 77 23 76 24 41 26 67 27 50 28 66 29 51 30 54 31 65 32 81 33
REMARK SMILES IDX 52 34 53 35 64 37 82 38 55 39 42 40 43 41 48 42 44 43 45 44
REMARK SMILES IDX 47 45 49 46 46 47 68 48 69 49 74 50 70 51 71 52 73 53 75 54
REMARK SMILES IDX 72 55 56 56 57 57 62 58 58 59 59 60 61 61 63 62 60 63 8 64
REMARK SMILES IDX 9 65 10 66 11 67 12 68 13 69 14 70 15 71 16 72 21 73 17 74
REMARK SMILES IDX 18 75 20 76 19 77 22 78 23 80 24 81 32 82 25 83 27 84 31 85
REMARK SMILES IDX 26 86 28 87 30 88 29 89
REMARK H PARENT 80 25 54 36 22 79
REMARK Flexibility Score: inf
ROOT
ATOM      1  C   UNL     1       1.079   2.355  -1.242  1.00  0.00     0.188 C 
ENDROOT
BRANCH   1   2
ATOM      2  O   UNL     1       1.358   3.347  -0.274  1.00  0.00    -0.376 OA
BRANCH   2   3
ATOM      3  C   UNL     1       2.604   4.039  -0.229  1.00  0.00     0.202 C 
BRANCH   3   4
ATOM      4  C   UNL     1       3.898   3.382  -0.744  1.00  0.00     0.261 C 
BRANCH   4   5
ATOM      5  O   UNL     1       4.227   2.242   0.062  1.00  0.00    -0.460 OA
BRANCH   5   6
ATOM      6  C   UNL     1       3.953   1.026  -0.459  1.00  0.00     0.338 C 
ATOM      7  O   UNL     1       4.165   0.658  -1.605  1.00  0.00    -0.246 OA
BRANCH   6   8
ATOM      8  C   UNL     1       3.206   0.266   0.569  1.00  0.00     0.060 A 
ATOM      9  C   UNL     1       2.552   0.998   1.567  1.00  0.00     0.016 A 
ATOM     10  C   UNL     1       3.104  -1.128   0.545  1.00  0.00     0.016 A 
ATOM     11  C   UNL     1       1.905   0.366   2.595  1.00  0.00     0.010 A 
ATOM     12  C   UNL     1       2.429  -1.779   1.587  1.00  0.00     0.010 A 
ATOM     13  C   UNL     1       1.873  -1.024   2.635  1.00  0.00    -0.014 A 
BRANCH  13  14
ATOM     14  C   UNL     1       1.466  -1.588   3.932  1.00  0.00     0.031 A 
ATOM     15  C   UNL     1       2.550  -2.011   4.875  1.00  0.00     0.074 A 
ATOM     16  C   UNL     1       0.209  -1.412   4.379  1.00  0.00     0.049 A 
ATOM     17  N   UNL     1       2.444  -2.446   6.100  1.00  0.00    -0.248 NA
ATOM     18  C   UNL     1       3.940  -1.854   4.407  1.00  0.00     0.031 C 
ATOM     19  C   UNL     1      -0.847  -0.712   3.648  1.00  0.00     0.029 A 
ATOM     20  N   UNL     1      -0.379  -1.745   5.569  1.00  0.00    -0.354 N 
ATOM     21  C   UNL     1       3.746  -2.602   6.549  1.00  0.00     0.074 A 
ATOM     22  C   UNL     1       4.631  -2.241   5.468  1.00  0.00     0.031 C 
ATOM     23  C   UNL     1      -1.960  -0.699   4.396  1.00  0.00     0.029 A 
ATOM     24  C   UNL     1      -1.722  -1.462   5.604  1.00  0.00     0.049 A 
ATOM     25  H   UNL     1       0.111  -2.146   6.323  1.00  0.00     0.167 HD
ATOM     26  C   UNL     1       4.152  -2.998   7.773  1.00  0.00     0.037 A 
ATOM     27  C   UNL     1      -2.668  -1.833   6.483  1.00  0.00     0.037 A 
ATOM     28  C   UNL     1       3.248  -3.324   8.838  1.00  0.00     0.049 A 
ATOM     29  C   UNL     1      -2.219  -2.519   7.731  1.00  0.00     0.074 A 
ATOM     30  C   UNL     1       3.549  -3.785  10.104  1.00  0.00     0.029 A 
ATOM     31  N   UNL     1       1.867  -3.226   8.756  1.00  0.00    -0.354 N 
ATOM     32  N   UNL     1      -0.992  -2.753   8.127  1.00  0.00    -0.248 NA
ATOM     33  C   UNL     1      -3.257  -2.972   8.662  1.00  0.00     0.031 C 
ATOM     34  C   UNL     1       2.346  -4.041  10.764  1.00  0.00     0.029 A 
ATOM     35  C   UNL     1       1.297  -3.679   9.932  1.00  0.00     0.049 A 
ATOM     36  H   UNL     1       1.368  -2.886   7.979  1.00  0.00     0.167 HD
ATOM     37  C   UNL     1      -1.104  -3.348   9.369  1.00  0.00     0.074 A 
ATOM     38  C   UNL     1      -2.521  -3.445   9.661  1.00  0.00     0.031 C 
ATOM     39  C   UNL     1      -0.117  -3.763  10.196  1.00  0.00     0.037 A 
BRANCH  26  40
ATOM     40  C   UNL     1       5.619  -3.173   7.999  1.00  0.00     0.057 A 
ATOM     41  C   UNL     1       6.159  -4.463   8.073  1.00  0.00     0.134 A 
ATOM     42  C   UNL     1       6.483  -2.091   8.201  1.00  0.00     0.134 A 
ATOM     43  F   UNL     1       5.381  -5.537   7.875  1.00  0.00    -0.206 F 
ATOM     44  C   UNL     1       7.504  -4.673   8.373  1.00  0.00     0.040 A 
ATOM     45  C   UNL     1       7.837  -2.289   8.480  1.00  0.00     0.040 A 
ATOM     46  F   UNL     1       6.031  -0.832   8.110  1.00  0.00    -0.206 F 
ATOM     47  C   UNL     1       8.346  -3.583   8.580  1.00  0.00     0.006 A 
ENDBRANCH  26  40
BRANCH  27  48
ATOM     48  C   UNL     1      -4.104  -1.662   6.148  1.00  0.00     0.057 A 
ATOM     49  C   UNL     1      -4.681  -2.415   5.114  1.00  0.00     0.134 A 
ATOM     50  C   UNL     1      -4.937  -0.781   6.841  1.00  0.00     0.134 A 
ATOM     51  F   UNL     1      -3.938  -3.285   4.413  1.00  0.00    -0.206 F 
ATOM     52  C   UNL     1      -6.028  -2.289   4.772  1.00  0.00     0.040 A 
ATOM     53  C   UNL     1      -6.293  -0.660   6.524  1.00  0.00     0.040 A 
ATOM     54  F   UNL     1      -4.452  -0.050   7.854  1.00  0.00    -0.206 F 
ATOM     55  C   UNL     1      -6.840  -1.411   5.484  1.00  0.00     0.006 A 
ENDBRANCH  27  48
BRANCH  39  56
ATOM     56  C   UNL     1      -0.522  -4.356  11.505  1.00  0.00     0.057 A 
ATOM     57  C   UNL     1      -0.271  -3.670  12.700  1.00  0.00     0.134 A 
ATOM     58  C   UNL     1      -1.036  -5.653  11.586  1.00  0.00     0.134 A 
ATOM     59  F   UNL     1       0.230  -2.426  12.680  1.00  0.00    -0.206 F 
ATOM     60  C   UNL     1      -0.478  -4.275  13.937  1.00  0.00     0.040 A 
ATOM     61  C   UNL     1      -1.275  -6.258  12.819  1.00  0.00     0.040 A 
ATOM     62  F   UNL     1      -1.311  -6.348  10.472  1.00  0.00    -0.206 F 
ATOM     63  C   UNL     1      -0.978  -5.575  13.997  1.00  0.00     0.006 A 
ENDBRANCH  39  56
ENDBRANCH  13  14
ENDBRANCH   6   8
ENDBRANCH   5   6
ENDBRANCH   4   5
ENDBRANCH   3   4
ENDBRANCH   2   3
ENDBRANCH   1   2
BRANCH   1  64
ATOM     64  C   UNL     1       0.180   2.676  -2.449  1.00  0.00     0.188 C 
BRANCH  64  65
ATOM     65  O   UNL     1      -0.599   3.851  -2.561  1.00  0.00    -0.376 OA
BRANCH  65  66
ATOM     66  C   UNL     1      -0.907   4.601  -1.407  1.00  0.00     0.202 C 
BRANCH  66  67
ATOM     67  C   UNL     1      -1.830   3.981  -0.350  1.00  0.00     0.261 C 
BRANCH  67  68
ATOM     68  O   UNL     1      -1.665   2.582  -0.060  1.00  0.00    -0.460 OA
BRANCH  68  69
ATOM     69  C   UNL     1      -2.452   1.734  -0.775  1.00  0.00     0.343 C 
ATOM     70  O   UNL     1      -3.110   1.997  -1.767  1.00  0.00    -0.246 OA
BRANCH  69  71
ATOM     71  C   UNL     1      -2.561   0.455  -0.062  1.00  0.00     0.118 A 
ATOM     72  C   UNL     1      -3.538   0.474   0.946  1.00  0.00     0.139 A 
ATOM     73  C   UNL     1      -1.864  -0.736  -0.376  1.00  0.00     0.052 A 
ATOM     74  F   UNL     1      -4.202   1.603   1.240  1.00  0.00    -0.206 F 
ATOM     75  C   UNL     1      -3.853  -0.667   1.664  1.00  0.00     0.040 A 
ATOM     76  C   UNL     1      -2.075  -1.809   0.512  1.00  0.00     0.027 A 
ATOM     77  C   UNL     1      -3.097  -1.810   1.465  1.00  0.00     0.005 A 
BRANCH  73  78
ATOM     78  N   UNL     1      -0.989  -0.879  -1.459  1.00  0.00    -0.377 N 
ATOM     79  H   UNL     1      -0.754  -0.071  -1.971  1.00  0.00     0.161 HD
BRANCH  78  80
ATOM     80  C   UNL     1      -0.391  -2.171  -1.885  1.00  0.00     0.110 C 
ATOM     81  C   UNL     1      -1.493  -3.204  -2.227  1.00  0.00     0.030 C 
ATOM     82  C   UNL     1       0.569  -1.972  -3.066  1.00  0.00    -0.023 A 
ATOM     83  C   UNL     1      -0.949  -4.370  -3.036  1.00  0.00     0.007 C 
ATOM     84  C   UNL     1       0.484  -2.744  -4.248  1.00  0.00    -0.043 A 
ATOM     85  C   UNL     1       1.649  -1.086  -2.948  1.00  0.00     0.006 A 
ATOM     86  C   UNL     1      -0.522  -3.855  -4.398  1.00  0.00     0.036 C 
ATOM     87  C   UNL     1       1.371  -2.518  -5.314  1.00  0.00     0.004 A 
ATOM     88  C   UNL     1       2.572  -0.921  -3.986  1.00  0.00     0.000 A 
ATOM     89  C   UNL     1       2.417  -1.613  -5.180  1.00  0.00     0.000 A 
ENDBRANCH  78  80
ENDBRANCH  73  78
ENDBRANCH  69  71
ENDBRANCH  68  69
ENDBRANCH  67  68
ENDBRANCH  66  67
ENDBRANCH  65  66
ENDBRANCH  64  65
ENDBRANCH   1  64
TORSDOF 19
