REMARK SMILES C=CCOc1ccccc1C(=O)N[C@H](C(=O)OCCOCCOCCOC(=O)c1ccc(-c2c3nc(c(-c4c(F)cccc4F)c4ccc([nH]4)c(-c4c(F)cccc4F)c4nc(c(-c5c(F)cccc5F)c5ccc2[nH]5)C=C4)C=C3)cc1)[C@@H](C)O
REMARK SMILES IDX 20 1 19 2 18 3 17 4 15 5 16 6 14 7 13 8 11 9 12 10 10 12
REMARK SMILES IDX 5 13 6 14 7 15 9 16 8 17 4 18 3 19 2 20 1 21 83 22 84 23
REMARK SMILES IDX 85 24 21 26 22 27 23 28 24 29 25 30 26 31 27 32 28 33 29 34
REMARK SMILES IDX 30 35 82 36 31 37 81 38 32 39 33 40 34 41 75 42 35 43 80 44
REMARK SMILES IDX 74 45 76 46 36 47 79 48 73 49 72 50 37 52 63 53 46 54 62 55
REMARK SMILES IDX 47 56 50 57 61 58 77 59 48 60 49 61 60 63 78 64 51 65 38 66
REMARK SMILES IDX 39 67 44 68 40 69 41 70 43 71 45 72 42 73 64 74 65 75 70 76
REMARK SMILES IDX 66 77 67 78 69 79 71 80 68 81 52 82 53 83 58 84 54 85 55 86
REMARK SMILES IDX 57 87 59 88 56 89
REMARK H PARENT 13 11 85 25 76 51 50 62
REMARK Flexibility Score: inf
ROOT
ATOM      1  O   UNL     1       4.105  -0.640   0.578  1.00  0.00    -0.376 OA
ENDROOT
BRANCH   1   2
ATOM      2  C   UNL     1       3.818  -0.307  -0.779  1.00  0.00     0.202 C 
BRANCH   2   3
ATOM      3  C   UNL     1       2.692  -1.105  -1.447  1.00  0.00     0.261 C 
BRANCH   3   4
ATOM      4  O   UNL     1       1.415  -0.695  -0.926  1.00  0.00    -0.462 OA
BRANCH   4   5
ATOM      5  C   UNL     1       0.421  -1.611  -0.842  1.00  0.00     0.331 C 
ATOM      6  O   UNL     1       0.535  -2.778  -1.204  1.00  0.00    -0.250 OA
BRANCH   5   7
ATOM      7  C   UNL     1      -0.768  -1.119   0.026  1.00  0.00     0.221 C 
BRANCH   7   8
ATOM      8  N   UNL     1      -0.453  -1.820   1.333  1.00  0.00    -0.336 N 
ATOM      9  C   UNL     1      -0.794  -1.832   2.659  1.00  0.00     0.255 C 
ATOM     10  O   UNL     1      -0.265  -2.690   3.368  1.00  0.00    -0.269 OA
ATOM     11  H   UNL     1       0.236  -2.504   1.172  1.00  0.00     0.164 HD
BRANCH   9  12
ATOM     12  C   UNL     1      -1.616  -0.799   3.306  1.00  0.00     0.081 A 
ATOM     13  C   UNL     1      -2.701  -0.206   2.693  1.00  0.00     0.132 A 
ATOM     14  C   UNL     1      -3.107   1.056   3.132  1.00  0.00     0.047 A 
ATOM     15  C   UNL     1      -2.529   1.638   4.269  1.00  0.00     0.004 A 
ATOM     16  C   UNL     1      -1.194  -0.321   4.556  1.00  0.00     0.018 A 
ATOM     17  C   UNL     1      -1.618   0.916   5.026  1.00  0.00     0.001 A 
BRANCH  13  18
ATOM     18  O   UNL     1      -3.264  -0.743   1.573  1.00  0.00    -0.489 OA
BRANCH  18  19
ATOM     19  C   UNL     1      -4.267  -1.726   1.813  1.00  0.00     0.257 C 
BRANCH  19  20
ATOM     20  C   UNL     1      -3.677  -3.101   1.725  1.00  0.00     0.006 C 
ATOM     21  C   UNL     1      -3.657  -3.974   2.740  1.00  0.00     0.007 C 
ENDBRANCH  19  20
ENDBRANCH  18  19
ENDBRANCH  13  18
ENDBRANCH   9  12
ENDBRANCH   7   8
BRANCH   7  22
ATOM     22  C   UNL     1      -1.066   0.432  -0.078  1.00  0.00     0.145 C 
ATOM     23  C   UNL     1      -0.595   1.137  -1.352  1.00  0.00     0.041 C 
BRANCH  22  24
ATOM     24  O   UNL     1      -2.473   0.749  -0.155  1.00  0.00    -0.391 OA
ATOM     25  H   UNL     1      -2.835   0.413  -0.990  1.00  0.00     0.211 HD
ENDBRANCH  22  24
ENDBRANCH   7  22
ENDBRANCH   5   7
ENDBRANCH   4   5
ENDBRANCH   3   4
ENDBRANCH   2   3
ENDBRANCH   1   2
BRANCH   1  26
ATOM     26  C   UNL     1       3.034  -0.649   1.513  1.00  0.00     0.188 C 
BRANCH  26  27
ATOM     27  C   UNL     1       2.116   0.581   1.584  1.00  0.00     0.188 C 
BRANCH  27  28
ATOM     28  O   UNL     1       2.557   1.723   0.872  1.00  0.00    -0.376 OA
BRANCH  28  29
ATOM     29  C   UNL     1       2.774   2.862   1.703  1.00  0.00     0.202 C 
BRANCH  29  30
ATOM     30  C   UNL     1       4.014   2.709   2.591  1.00  0.00     0.261 C 
BRANCH  30  31
ATOM     31  O   UNL     1       3.910   1.615   3.528  1.00  0.00    -0.460 OA
BRANCH  31  32
ATOM     32  C   UNL     1       3.299   1.867   4.709  1.00  0.00     0.338 C 
ATOM     33  O   UNL     1       2.863   2.937   5.094  1.00  0.00    -0.246 OA
BRANCH  32  34
ATOM     34  C   UNL     1       3.164   0.601   5.468  1.00  0.00     0.060 A 
ATOM     35  C   UNL     1       2.219  -0.339   5.072  1.00  0.00     0.016 A 
ATOM     36  C   UNL     1       3.880   0.383   6.641  1.00  0.00     0.016 A 
ATOM     37  C   UNL     1       1.951  -1.463   5.849  1.00  0.00     0.010 A 
ATOM     38  C   UNL     1       3.621  -0.765   7.419  1.00  0.00     0.010 A 
ATOM     39  C   UNL     1       2.616  -1.682   7.053  1.00  0.00    -0.014 A 
BRANCH  39  40
ATOM     40  C   UNL     1       2.120  -2.754   7.972  1.00  0.00     0.031 A 
ATOM     41  C   UNL     1       1.623  -2.375   9.346  1.00  0.00     0.074 A 
ATOM     42  C   UNL     1       1.960  -4.035   7.574  1.00  0.00     0.049 A 
ATOM     43  N   UNL     1       1.344  -3.139  10.373  1.00  0.00    -0.248 NA
ATOM     44  C   UNL     1       1.399  -0.941   9.590  1.00  0.00     0.031 C 
ATOM     45  C   UNL     1       2.211  -4.554   6.229  1.00  0.00     0.029 A 
ATOM     46  N   UNL     1       1.513  -5.136   8.271  1.00  0.00    -0.354 N 
ATOM     47  C   UNL     1       0.991  -2.275  11.403  1.00  0.00     0.074 A 
ATOM     48  C   UNL     1       1.069  -0.931  10.873  1.00  0.00     0.031 C 
ATOM     49  C   UNL     1       1.881  -5.855   6.189  1.00  0.00     0.029 A 
ATOM     50  C   UNL     1       1.510  -6.294   7.530  1.00  0.00     0.049 A 
ATOM     51  H   UNL     1       1.224  -5.098   9.211  1.00  0.00     0.167 HD
ATOM     52  C   UNL     1       0.644  -2.576  12.677  1.00  0.00     0.037 A 
ATOM     53  C   UNL     1       1.300  -7.575   7.892  1.00  0.00     0.037 A 
ATOM     54  C   UNL     1       0.488  -3.914  13.185  1.00  0.00     0.049 A 
ATOM     55  C   UNL     1       1.023  -7.900   9.334  1.00  0.00     0.074 A 
ATOM     56  C   UNL     1       0.172  -4.318  14.472  1.00  0.00     0.029 A 
ATOM     57  N   UNL     1       0.608  -5.066  12.424  1.00  0.00    -0.354 N 
ATOM     58  N   UNL     1       0.847  -7.088  10.347  1.00  0.00    -0.248 NA
ATOM     59  C   UNL     1       0.951  -9.325   9.690  1.00  0.00     0.031 C 
ATOM     60  C   UNL     1       0.140  -5.716  14.498  1.00  0.00     0.029 A 
ATOM     61  C   UNL     1       0.389  -6.181  13.217  1.00  0.00     0.049 A 
ATOM     62  H   UNL     1       0.817  -5.088  11.463  1.00  0.00     0.167 HD
ATOM     63  C   UNL     1       0.635  -7.899  11.454  1.00  0.00     0.074 A 
ATOM     64  C   UNL     1       0.679  -9.268  10.986  1.00  0.00     0.031 C 
ATOM     65  C   UNL     1       0.432  -7.541  12.745  1.00  0.00     0.037 A 
BRANCH  52  66
ATOM     66  C   UNL     1       0.483  -1.434  13.637  1.00  0.00     0.057 A 
ATOM     67  C   UNL     1      -0.626  -0.580  13.619  1.00  0.00     0.134 A 
ATOM     68  C   UNL     1       1.457  -1.208  14.619  1.00  0.00     0.134 A 
ATOM     69  F   UNL     1      -1.584  -0.729  12.692  1.00  0.00    -0.206 F 
ATOM     70  C   UNL     1      -0.751   0.469  14.533  1.00  0.00     0.040 A 
ATOM     71  C   UNL     1       1.331  -0.181  15.554  1.00  0.00     0.040 A 
ATOM     72  F   UNL     1       2.543  -1.993  14.693  1.00  0.00    -0.206 F 
ATOM     73  C   UNL     1       0.226   0.666  15.508  1.00  0.00     0.006 A 
ENDBRANCH  52  66
BRANCH  53  74
ATOM     74  C   UNL     1       1.447  -8.667   6.893  1.00  0.00     0.057 A 
ATOM     75  C   UNL     1       0.364  -9.470   6.519  1.00  0.00     0.134 A 
ATOM     76  C   UNL     1       2.691  -8.956   6.314  1.00  0.00     0.134 A 
ATOM     77  F   UNL     1      -0.845  -9.273   7.066  1.00  0.00    -0.206 F 
ATOM     78  C   UNL     1       0.512 -10.523   5.613  1.00  0.00     0.040 A 
ATOM     79  C   UNL     1       2.846  -9.983   5.382  1.00  0.00     0.040 A 
ATOM     80  F   UNL     1       3.774  -8.236   6.640  1.00  0.00    -0.206 F 
ATOM     81  C   UNL     1       1.756 -10.775   5.035  1.00  0.00     0.006 A 
ENDBRANCH  53  74
BRANCH  65  82
ATOM     82  C   UNL     1       0.213  -8.644  13.738  1.00  0.00     0.057 A 
ATOM     83  C   UNL     1       1.258  -9.476  14.160  1.00  0.00     0.134 A 
ATOM     84  C   UNL     1      -1.053  -8.861  14.297  1.00  0.00     0.134 A 
ATOM     85  F   UNL     1       2.491  -9.329  13.653  1.00  0.00    -0.206 F 
ATOM     86  C   UNL     1       1.045 -10.502  15.083  1.00  0.00     0.040 A 
ATOM     87  C   UNL     1      -1.272  -9.867  15.239  1.00  0.00     0.040 A 
ATOM     88  F   UNL     1      -2.095  -8.095  13.943  1.00  0.00    -0.206 F 
ATOM     89  C   UNL     1      -0.222 -10.696  15.630  1.00  0.00     0.006 A 
ENDBRANCH  65  82
ENDBRANCH  39  40
ENDBRANCH  32  34
ENDBRANCH  31  32
ENDBRANCH  30  31
ENDBRANCH  29  30
ENDBRANCH  28  29
ENDBRANCH  27  28
ENDBRANCH  26  27
ENDBRANCH   1  26
TORSDOF 24
