REMARK SMILES O=C(COc1ccc([N+](=O)[O-])cc1)Nc1ccc(C(=O)OCCOCCOCCOC(=O)c2ccc(-c3c4nc(c(-c5c(F)cccc5F)c5ccc([nH]5)c(-c5c(F)cccc5F)c5nc(c(-c6c(F)cccc6F)c6ccc3[nH]6)C=C5)C=C4)cc2)c(O)c1
REMARK SMILES IDX 24 1 23 2 22 3 21 4 19 5 20 6 18 7 15 8 16 9 89 10 17 11
REMARK SMILES IDX 87 12 14 13 1 14 2 15 3 17 4 18 5 19 6 20 13 21 7 22 12 23
REMARK SMILES IDX 8 24 9 25 10 26 11 27 88 28 25 30 26 31 27 32 28 33 29 34
REMARK SMILES IDX 30 35 31 36 32 37 33 38 34 39 86 40 35 41 85 42 36 43 37 44
REMARK SMILES IDX 38 45 79 46 39 47 84 48 78 49 80 50 40 51 83 52 77 53 76 54
REMARK SMILES IDX 41 56 67 57 50 58 66 59 51 60 54 61 65 62 81 63 52 64 53 65
REMARK SMILES IDX 64 67 82 68 55 69 42 70 43 71 48 72 44 73 45 74 47 75 49 76
REMARK SMILES IDX 46 77 68 78 69 79 74 80 70 81 71 82 73 83 75 84 72 85 56 86
REMARK SMILES IDX 57 87 62 88 58 89 59 90 61 91 63 92 60 93
REMARK H PARENT 14 16 88 29 80 55 54 66
REMARK Flexibility Score: inf
ROOT
ATOM      1  O   UNL     1      -0.013   9.029  -0.475  1.00  0.00    -0.376 OA
ENDROOT
BRANCH   1   2
ATOM      2  C   UNL     1      -1.383   8.678  -0.338  1.00  0.00     0.202 C 
BRANCH   2   3
ATOM      3  C   UNL     1      -1.922   7.352  -0.874  1.00  0.00     0.261 C 
BRANCH   3   4
ATOM      4  O   UNL     1      -1.175   6.216  -0.428  1.00  0.00    -0.460 OA
BRANCH   4   5
ATOM      5  C   UNL     1      -0.720   5.408  -1.413  1.00  0.00     0.341 C 
ATOM      6  O   UNL     1      -0.886   5.556  -2.615  1.00  0.00    -0.246 OA
BRANCH   5   7
ATOM      7  C   UNL     1       0.211   4.392  -0.884  1.00  0.00     0.101 A 
ATOM      8  C   UNL     1       1.947   2.304  -0.206  1.00  0.00     0.045 A 
ATOM      9  C   UNL     1       2.292   3.194  -1.228  1.00  0.00     0.027 A 
ATOM     10  C   UNL     1       0.797   2.539   0.554  1.00  0.00     0.073 A 
ATOM     11  C   UNL     1       1.414   4.218  -1.583  1.00  0.00     0.022 A 
ATOM     12  C   UNL     1      -0.068   3.585   0.219  1.00  0.00     0.132 A 
BRANCH   8  13
ATOM     13  N   UNL     1       2.719   1.129  -0.109  1.00  0.00    -0.323 N 
ATOM     14  O   UNL     1       1.326  -0.246   1.165  1.00  0.00    -0.271 OA
ATOM     15  C   UNL     1       2.287  -0.079   0.419  1.00  0.00     0.262 C 
ATOM     16  H   UNL     1       3.644   1.169  -0.444  1.00  0.00     0.170 HD
BRANCH  15  17
ATOM     17  C   UNL     1       3.112  -1.271  -0.083  1.00  0.00     0.329 C 
BRANCH  17  18
ATOM     18  O   UNL     1       3.867  -1.029  -1.271  1.00  0.00    -0.484 OA
BRANCH  18  19
ATOM     19  C   UNL     1       3.198  -1.318  -2.432  1.00  0.00     0.120 A 
ATOM     20  C   UNL     1       3.750  -2.295  -3.262  1.00  0.00     0.053 A 
ATOM     21  C   UNL     1       2.104  -0.568  -2.870  1.00  0.00     0.053 A 
ATOM     22  C   UNL     1       3.212  -2.526  -4.533  1.00  0.00     0.089 A 
ATOM     23  C   UNL     1       1.569  -0.778  -4.144  1.00  0.00     0.089 A 
ATOM     24  C   UNL     1       2.131  -1.751  -4.977  1.00  0.00     0.269 A 
BRANCH  24  25
ATOM     25  N   UNL     1       1.608  -1.930  -6.337  1.00  0.00     0.062 N 
ATOM     26  O   UNL     1       2.107  -2.826  -7.033  1.00  0.00    -0.258 OA
ATOM     27  O   UNL     1       0.707  -1.167  -6.713  1.00  0.00    -0.258 OA
ENDBRANCH  24  25
ENDBRANCH  18  19
ENDBRANCH  17  18
ENDBRANCH  15  17
ENDBRANCH   8  13
BRANCH  12  28
ATOM     28  O   UNL     1      -1.208   3.769   0.947  1.00  0.00    -0.507 OA
ATOM     29  H   UNL     1      -1.794   4.468   0.731  1.00  0.00     0.293 HD
ENDBRANCH  12  28
ENDBRANCH   5   7
ENDBRANCH   4   5
ENDBRANCH   3   4
ENDBRANCH   2   3
ENDBRANCH   1   2
BRANCH   1  30
ATOM     30  C   UNL     1       0.998   8.065  -0.255  1.00  0.00     0.188 C 
BRANCH  30  31
ATOM     31  C   UNL     1       1.150   7.363   1.112  1.00  0.00     0.188 C 
BRANCH  31  32
ATOM     32  O   UNL     1       0.317   7.676   2.209  1.00  0.00    -0.376 OA
BRANCH  32  33
ATOM     33  C   UNL     1       0.203   9.012   2.667  1.00  0.00     0.202 C 
BRANCH  33  34
ATOM     34  C   UNL     1       1.432   9.897   2.888  1.00  0.00     0.261 C 
BRANCH  34  35
ATOM     35  O   UNL     1       2.376   9.898   1.811  1.00  0.00    -0.460 OA
BRANCH  35  36
ATOM     36  C   UNL     1       3.588   9.385   2.117  1.00  0.00     0.338 C 
ATOM     37  O   UNL     1       3.961   8.934   3.195  1.00  0.00    -0.246 OA
BRANCH  36  38
ATOM     38  C   UNL     1       4.401   9.284   0.899  1.00  0.00     0.060 A 
ATOM     39  C   UNL     1       4.826   8.014   0.487  1.00  0.00     0.016 A 
ATOM     40  C   UNL     1       4.797  10.430   0.208  1.00  0.00     0.016 A 
ATOM     41  C   UNL     1       5.677   7.887  -0.607  1.00  0.00     0.010 A 
ATOM     42  C   UNL     1       5.668  10.303  -0.876  1.00  0.00     0.010 A 
ATOM     43  C   UNL     1       6.134   9.035  -1.268  1.00  0.00    -0.014 A 
BRANCH  43  44
ATOM     44  C   UNL     1       7.229   8.922  -2.258  1.00  0.00     0.031 A 
ATOM     45  C   UNL     1       8.639   9.170  -1.803  1.00  0.00     0.074 A 
ATOM     46  C   UNL     1       6.976   8.597  -3.537  1.00  0.00     0.049 A 
ATOM     47  N   UNL     1       9.747   9.180  -2.498  1.00  0.00    -0.248 NA
ATOM     48  C   UNL     1       8.824   9.445  -0.369  1.00  0.00     0.031 C 
ATOM     49  C   UNL     1       5.657   8.298  -4.089  1.00  0.00     0.029 A 
ATOM     50  N   UNL     1       7.827   8.479  -4.606  1.00  0.00    -0.354 N 
ATOM     51  C   UNL     1      10.758   9.467  -1.591  1.00  0.00     0.074 A 
ATOM     52  C   UNL     1      10.130   9.650  -0.299  1.00  0.00     0.031 C 
ATOM     53  C   UNL     1       5.784   8.047  -5.404  1.00  0.00     0.029 A 
ATOM     54  C   UNL     1       7.186   8.199  -5.788  1.00  0.00     0.049 A 
ATOM     55  H   UNL     1       8.803   8.584  -4.534  1.00  0.00     0.167 HD
ATOM     56  C   UNL     1      12.089   9.566  -1.812  1.00  0.00     0.037 A 
ATOM     57  C   UNL     1       7.677   8.103  -7.038  1.00  0.00     0.037 A 
ATOM     58  C   UNL     1      12.711   9.394  -3.098  1.00  0.00     0.049 A 
ATOM     59  C   UNL     1       9.153   8.293  -7.273  1.00  0.00     0.074 A 
ATOM     60  C   UNL     1      14.055   9.457  -3.421  1.00  0.00     0.029 A 
ATOM     61  N   UNL     1      12.027   9.139  -4.276  1.00  0.00    -0.354 N 
ATOM     62  N   UNL     1      10.106   8.534  -6.405  1.00  0.00    -0.248 NA
ATOM     63  C   UNL     1       9.621   8.196  -8.664  1.00  0.00     0.031 C 
ATOM     64  C   UNL     1      14.179   9.288  -4.804  1.00  0.00     0.029 A 
ATOM     65  C   UNL     1      12.918   9.068  -5.334  1.00  0.00     0.049 A 
ATOM     66  H   UNL     1      11.051   9.026  -4.350  1.00  0.00     0.167 HD
ATOM     67  C   UNL     1      11.286   8.589  -7.138  1.00  0.00     0.074 A 
ATOM     68  C   UNL     1      10.930   8.347  -8.520  1.00  0.00     0.031 C 
ATOM     69  C   UNL     1      12.550   8.818  -6.705  1.00  0.00     0.037 A 
BRANCH  56  70
ATOM     70  C   UNL     1      12.957   9.904  -0.637  1.00  0.00     0.057 A 
ATOM     71  C   UNL     1      13.207   8.983   0.389  1.00  0.00     0.134 A 
ATOM     72  C   UNL     1      13.565  11.162  -0.539  1.00  0.00     0.134 A 
ATOM     73  F   UNL     1      12.642   7.767   0.363  1.00  0.00    -0.206 F 
ATOM     74  C   UNL     1      14.011   9.310   1.482  1.00  0.00     0.040 A 
ATOM     75  C   UNL     1      14.391  11.492   0.536  1.00  0.00     0.040 A 
ATOM     76  F   UNL     1      13.368  12.090  -1.488  1.00  0.00    -0.206 F 
ATOM     77  C   UNL     1      14.611  10.566   1.554  1.00  0.00     0.006 A 
ENDBRANCH  56  70
BRANCH  57  78
ATOM     78  C   UNL     1       6.763   7.828  -8.175  1.00  0.00     0.057 A 
ATOM     79  C   UNL     1       6.801   6.607  -8.858  1.00  0.00     0.134 A 
ATOM     80  C   UNL     1       5.844   8.787  -8.618  1.00  0.00     0.134 A 
ATOM     81  F   UNL     1       7.677   5.659  -8.494  1.00  0.00    -0.206 F 
ATOM     82  C   UNL     1       5.971   6.355  -9.950  1.00  0.00     0.040 A 
ATOM     83  C   UNL     1       4.990   8.540  -9.694  1.00  0.00     0.040 A 
ATOM     84  F   UNL     1       5.760   9.978  -8.007  1.00  0.00    -0.206 F 
ATOM     85  C   UNL     1       5.057   7.322 -10.368  1.00  0.00     0.006 A 
ENDBRANCH  57  78
BRANCH  69  86
ATOM     86  C   UNL     1      13.649   8.778  -7.727  1.00  0.00     0.057 A 
ATOM     87  C   UNL     1      13.823   9.800  -8.668  1.00  0.00     0.134 A 
ATOM     88  C   UNL     1      14.572   7.725  -7.738  1.00  0.00     0.134 A 
ATOM     89  F   UNL     1      12.966  10.832  -8.719  1.00  0.00    -0.206 F 
ATOM     90  C   UNL     1      14.865   9.765  -9.597  1.00  0.00     0.040 A 
ATOM     91  C   UNL     1      15.633   7.692  -8.644  1.00  0.00     0.040 A 
ATOM     92  F   UNL     1      14.469   6.718  -6.856  1.00  0.00    -0.206 F 
ATOM     93  C   UNL     1      15.778   8.712  -9.582  1.00  0.00     0.006 A 
ENDBRANCH  69  86
ENDBRANCH  43  44
ENDBRANCH  36  38
ENDBRANCH  35  36
ENDBRANCH  34  35
ENDBRANCH  33  34
ENDBRANCH  32  33
ENDBRANCH  31  32
ENDBRANCH  30  31
ENDBRANCH   1  30
TORSDOF 23
