REMARK SMILES Cc1cccc(O[C@H](C)C(=O)NNC(=O)[C@H]2[C@@H]3CC[C@@H](C3)[C@@H]2C(=O)OCCOCCOCCOC(=O)c2ccc(-c3c4nc(c(-c5c(F)cccc5F)c5ccc([nH]5)c(-c5c(F)cccc5F)c5nc(c(-c6c(F)cccc6F)c6ccc3[nH]6)C=C5)C=C4)cc2)c1
REMARK SMILES IDX 28 1 27 2 26 3 25 4 23 5 24 6 22 7 16 8 17 9 18 10 21 11
REMARK SMILES IDX 20 12 19 13 14 14 13 15 15 17 12 18 10 19 11 20 8 22 9 23
REMARK SMILES IDX 7 24 6 25 1 26 2 27 3 28 91 29 4 30 5 31 29 32 30 33 31 34
REMARK SMILES IDX 32 35 33 36 34 37 35 38 36 39 37 40 38 41 90 42 39 43 89 44
REMARK SMILES IDX 40 45 41 46 42 47 83 48 43 49 88 50 82 51 84 52 44 53 87 54
REMARK SMILES IDX 81 55 80 56 45 58 71 59 54 60 70 61 55 62 58 63 69 64 85 65
REMARK SMILES IDX 56 66 57 67 68 69 86 70 59 71 46 72 47 73 52 74 48 75 49 76
REMARK SMILES IDX 51 77 53 78 50 79 72 80 73 81 78 82 74 83 75 84 77 85 79 86
REMARK SMILES IDX 76 87 60 88 61 89 66 90 62 91 63 92 65 93 67 94 64 95
REMARK H PARENT 13 16 12 21 84 57 58 68
REMARK Flexibility Score: inf
ROOT
ATOM      1  O   UNL     1       6.955   5.299  -0.725  1.00  0.00    -0.376 OA
ENDROOT
BRANCH   1   2
ATOM      2  C   UNL     1       5.792   6.113  -0.975  1.00  0.00     0.202 C 
BRANCH   2   3
ATOM      3  C   UNL     1       4.353   5.971  -1.943  1.00  0.00     0.261 C 
BRANCH   3   4
ATOM      4  O   UNL     1       3.202   4.629  -2.488  1.00  0.00    -0.463 OA
BRANCH   4   5
ATOM      5  C   UNL     1       3.162   3.269  -3.123  1.00  0.00     0.310 C 
ATOM      6  O   UNL     1       4.120   2.555  -3.443  1.00  0.00    -0.252 OA
BRANCH   5   7
ATOM      7  C   UNL     1       1.896   2.530  -3.426  1.00  0.00     0.115 C 
ATOM      8  C   UNL     1       1.976   1.117  -2.735  1.00  0.00     0.098 C 
ATOM      9  C   UNL     1       1.593   0.094  -3.846  1.00  0.00     0.003 C 
ATOM     10  C   UNL     1       2.832  -0.166  -4.717  1.00  0.00     0.005 C 
ATOM     11  C   UNL     1       0.725   0.922  -4.788  1.00  0.00     0.009 C 
ATOM     12  C   UNL     1       1.774   2.033  -4.940  1.00  0.00     0.004 C 
ATOM     13  C   UNL     1       2.942   1.148  -5.503  1.00  0.00     0.005 C 
BRANCH   8  14
ATOM     14  C   UNL     1       1.249   0.764  -1.466  1.00  0.00     0.242 C 
ATOM     15  N   UNL     1       0.088   1.343  -1.086  1.00  0.00    -0.267 N 
ATOM     16  H   UNL     1      -0.362   0.941  -0.308  1.00  0.00     0.191 HD
ATOM     17  O   UNL     1       1.656  -0.178  -0.773  1.00  0.00    -0.273 OA
BRANCH  15  18
ATOM     18  N   UNL     1      -0.534   2.418  -1.652  1.00  0.00    -0.264 N 
ATOM     19  C   UNL     1      -0.754   3.573  -0.947  1.00  0.00     0.279 C 
ATOM     20  O   UNL     1      -0.568   4.655  -1.511  1.00  0.00    -0.269 OA
ATOM     21  H   UNL     1      -0.832   2.363  -2.589  1.00  0.00     0.191 HD
BRANCH  19  22
ATOM     22  C   UNL     1      -1.465   3.481   0.433  1.00  0.00     0.260 C 
ATOM     23  C   UNL     1      -2.835   2.815   0.263  1.00  0.00     0.064 C 
BRANCH  22  24
ATOM     24  O   UNL     1      -0.812   3.300   1.674  1.00  0.00    -0.481 OA
BRANCH  24  25
ATOM     25  C   UNL     1      -0.359   2.152   2.235  1.00  0.00     0.120 A 
ATOM     26  C   UNL     1       2.059   1.502   5.133  1.00  0.00     0.044 C 
ATOM     27  C   UNL     1       1.156   1.284   3.956  1.00  0.00    -0.047 A 
ATOM     28  C   UNL     1       0.893  -0.016   3.528  1.00  0.00     0.003 A 
ATOM     29  C   UNL     1       0.539   2.356   3.292  1.00  0.00     0.049 A 
ATOM     30  C   UNL     1      -0.041  -0.235   2.523  1.00  0.00     0.004 A 
ATOM     31  C   UNL     1      -0.703   0.843   1.926  1.00  0.00     0.046 A 
ENDBRANCH  24  25
ENDBRANCH  22  24
ENDBRANCH  19  22
ENDBRANCH  15  18
ENDBRANCH   8  14
ENDBRANCH   5   7
ENDBRANCH   4   5
ENDBRANCH   3   4
ENDBRANCH   2   3
ENDBRANCH   1   2
BRANCH   1  32
ATOM     32  C   UNL     1       7.182   4.454   0.411  1.00  0.00     0.188 C 
BRANCH  32  33
ATOM     33  C   UNL     1       6.676   4.834   1.778  1.00  0.00     0.188 C 
BRANCH  33  34
ATOM     34  O   UNL     1       5.476   5.549   1.621  1.00  0.00    -0.376 OA
BRANCH  34  35
ATOM     35  C   UNL     1       5.069   6.280   2.753  1.00  0.00     0.202 C 
BRANCH  35  36
ATOM     36  C   UNL     1       4.530   5.345   3.839  1.00  0.00     0.261 C 
BRANCH  36  37
ATOM     37  O   UNL     1       3.558   4.429   3.276  1.00  0.00    -0.460 OA
BRANCH  37  38
ATOM     38  C   UNL     1       3.987   3.153   2.997  1.00  0.00     0.338 C 
ATOM     39  O   UNL     1       4.712   2.485   3.731  1.00  0.00    -0.246 OA
BRANCH  38  40
ATOM     40  C   UNL     1       3.732   2.816   1.560  1.00  0.00     0.060 A 
ATOM     41  C   UNL     1       4.507   1.903   0.824  1.00  0.00     0.016 A 
ATOM     42  C   UNL     1       3.113   3.777   0.851  1.00  0.00     0.016 A 
ATOM     43  C   UNL     1       4.974   2.184  -0.521  1.00  0.00     0.010 A 
ATOM     44  C   UNL     1       3.746   4.109  -0.335  1.00  0.00     0.010 A 
ATOM     45  C   UNL     1       4.785   3.426  -1.124  1.00  0.00    -0.014 A 
BRANCH  45  46
ATOM     46  C   UNL     1       5.649   3.963  -2.633  1.00  0.00     0.031 A 
ATOM     47  C   UNL     1       5.005   4.705  -4.171  1.00  0.00     0.074 A 
ATOM     48  C   UNL     1       6.937   3.588  -2.793  1.00  0.00     0.049 A 
ATOM     49  N   UNL     1       5.305   4.298  -5.392  1.00  0.00    -0.248 NA
ATOM     50  C   UNL     1       3.786   5.681  -4.396  1.00  0.00     0.031 C 
ATOM     51  C   UNL     1       7.872   4.008  -3.829  1.00  0.00     0.029 A 
ATOM     52  N   UNL     1       7.684   2.696  -2.019  1.00  0.00    -0.354 N 
ATOM     53  C   UNL     1       4.492   5.033  -6.286  1.00  0.00     0.074 A 
ATOM     54  C   UNL     1       3.337   5.381  -5.590  1.00  0.00     0.031 C 
ATOM     55  C   UNL     1       8.925   3.170  -3.811  1.00  0.00     0.029 A 
ATOM     56  C   UNL     1       8.600   2.093  -2.890  1.00  0.00     0.049 A 
ATOM     57  H   UNL     1       7.586   2.526  -1.054  1.00  0.00     0.167 HD
ATOM     58  C   UNL     1       4.966   5.688  -7.384  1.00  0.00     0.037 A 
ATOM     59  C   UNL     1       8.463   0.766  -3.167  1.00  0.00     0.037 A 
ATOM     60  C   UNL     1       6.256   5.126  -7.681  1.00  0.00     0.049 A 
ATOM     61  C   UNL     1       8.166   0.535  -4.639  1.00  0.00     0.074 A 
ATOM     62  C   UNL     1       7.564   5.428  -7.363  1.00  0.00     0.029 A 
ATOM     63  N   UNL     1       6.233   3.788  -7.970  1.00  0.00    -0.354 N 
ATOM     64  N   UNL     1       8.046   1.487  -5.529  1.00  0.00    -0.248 NA
ATOM     65  C   UNL     1       7.929  -0.784  -5.216  1.00  0.00     0.031 C 
ATOM     66  C   UNL     1       8.292   4.186  -7.365  1.00  0.00     0.029 A 
ATOM     67  C   UNL     1       7.427   3.164  -7.727  1.00  0.00     0.049 A 
ATOM     68  H   UNL     1       5.439   3.322  -8.318  1.00  0.00     0.167 HD
ATOM     69  C   UNL     1       7.667   0.961  -6.729  1.00  0.00     0.074 A 
ATOM     70  C   UNL     1       7.601  -0.470  -6.481  1.00  0.00     0.031 C 
ATOM     71  C   UNL     1       7.404   1.713  -7.839  1.00  0.00     0.037 A 
BRANCH  58  72
ATOM     72  C   UNL     1       4.356   6.977  -7.971  1.00  0.00     0.057 A 
ATOM     73  C   UNL     1       5.176   7.834  -8.724  1.00  0.00     0.134 A 
ATOM     74  C   UNL     1       3.043   7.495  -7.796  1.00  0.00     0.134 A 
ATOM     75  F   UNL     1       6.418   7.471  -9.072  1.00  0.00    -0.206 F 
ATOM     76  C   UNL     1       4.772   9.109  -9.165  1.00  0.00     0.040 A 
ATOM     77  C   UNL     1       2.646   8.792  -8.173  1.00  0.00     0.040 A 
ATOM     78  F   UNL     1       2.026   6.768  -7.327  1.00  0.00    -0.206 F 
ATOM     79  C   UNL     1       3.517   9.612  -8.858  1.00  0.00     0.006 A 
ENDBRANCH  58  72
BRANCH  59  80
ATOM     80  C   UNL     1       7.973  -0.035  -1.987  1.00  0.00     0.057 A 
ATOM     81  C   UNL     1       8.618   0.138  -0.736  1.00  0.00     0.134 A 
ATOM     82  C   UNL     1       6.737  -0.691  -1.947  1.00  0.00     0.134 A 
ATOM     83  F   UNL     1       9.818   0.741  -0.671  1.00  0.00    -0.206 F 
ATOM     84  C   UNL     1       8.009  -0.182   0.483  1.00  0.00     0.040 A 
ATOM     85  C   UNL     1       6.132  -1.054  -0.728  1.00  0.00     0.040 A 
ATOM     86  F   UNL     1       6.027  -0.886  -3.065  1.00  0.00    -0.206 F 
ATOM     87  C   UNL     1       6.750  -0.766   0.489  1.00  0.00     0.006 A 
ENDBRANCH  59  80
BRANCH  71  88
ATOM     88  C   UNL     1       7.015   1.081  -9.151  1.00  0.00     0.057 A 
ATOM     89  C   UNL     1       7.758   0.021  -9.677  1.00  0.00     0.134 A 
ATOM     90  C   UNL     1       5.983   1.569  -9.984  1.00  0.00     0.134 A 
ATOM     91  F   UNL     1       8.809  -0.482  -9.012  1.00  0.00    -0.206 F 
ATOM     92  C   UNL     1       7.455  -0.557 -10.913  1.00  0.00     0.040 A 
ATOM     93  C   UNL     1       5.725   1.056 -11.254  1.00  0.00     0.040 A 
ATOM     94  F   UNL     1       5.143   2.542  -9.605  1.00  0.00    -0.206 F 
ATOM     95  C   UNL     1       6.448  -0.030 -11.713  1.00  0.00     0.006 A 
ENDBRANCH  71  88
ENDBRANCH  45  46
ENDBRANCH  38  40
ENDBRANCH  37  38
ENDBRANCH  36  37
ENDBRANCH  35  36
ENDBRANCH  34  35
ENDBRANCH  33  34
ENDBRANCH  32  33
ENDBRANCH   1  32
TORSDOF 22
