REMARK SMILES O=CN[C@@H](CCS[C@@H]1CCO[C@]2(CCOC2)C1)C(=O)OCCOCCOCCOC(=O)c1ccc(-c2c3nc(c(-c4c(F)cccc4F)c4ccc([nH]4)c(-c4c(F)cccc4F)c4nc(c(-c5c(F)cccc5F)c5ccc2[nH]5)C=C4)C=C3)cc1
REMARK SMILES IDX 24 1 23 2 22 3 21 4 20 5 18 6 19 7 4 8 3 9 1 10 2 11 5 13
REMARK SMILES IDX 6 14 7 15 8 16 9 17 17 18 10 19 12 20 11 21 13 22 16 23
REMARK SMILES IDX 14 24 15 25 25 26 26 27 27 28 28 29 29 30 30 31 31 32 32 33
REMARK SMILES IDX 33 34 85 35 34 36 84 37 35 38 36 39 37 40 78 41 38 42 83 43
REMARK SMILES IDX 77 44 79 45 39 46 82 47 76 48 75 49 40 51 66 52 49 53 65 54
REMARK SMILES IDX 50 55 53 56 64 57 80 58 51 59 52 60 63 62 81 63 54 64 41 65
REMARK SMILES IDX 42 66 47 67 43 68 44 69 46 70 48 71 45 72 67 73 68 74 73 75
REMARK SMILES IDX 69 76 70 77 72 78 74 79 71 80 55 81 56 82 61 83 57 84 58 85
REMARK SMILES IDX 60 86 62 87 59 88
REMARK H PARENT 3 12 79 50 53 61
REMARK Flexibility Score: inf
ROOT
ATOM      1  C   UNL     1       3.752   3.934  -0.214  1.00  0.00     0.188 C 
ENDROOT
BRANCH   1   2
ATOM      2  O   UNL     1       4.279   4.561  -1.429  1.00  0.00    -0.376 OA
BRANCH   2   3
ATOM      3  C   UNL     1       5.611   4.288  -2.166  1.00  0.00     0.202 C 
BRANCH   3   4
ATOM      4  C   UNL     1       6.178   2.630  -3.362  1.00  0.00     0.261 C 
BRANCH   4   5
ATOM      5  O   UNL     1       5.903   0.897  -2.912  1.00  0.00    -0.462 OA
BRANCH   5   6
ATOM      6  C   UNL     1       5.298   0.123  -1.844  1.00  0.00     0.328 C 
ATOM      7  O   UNL     1       5.379   0.295  -0.620  1.00  0.00    -0.250 OA
BRANCH   6   8
ATOM      8  C   UNL     1       4.305  -0.956  -2.239  1.00  0.00     0.192 C 
BRANCH   8   9
ATOM      9  N   UNL     1       2.968  -0.647  -1.674  1.00  0.00    -0.345 N 
ATOM     10  O   UNL     1       1.540  -0.212   0.034  1.00  0.00    -0.279 OA
ATOM     11  C   UNL     1       2.577  -0.724  -0.371  1.00  0.00     0.337 C 
ATOM     12  H   UNL     1       2.282  -0.351  -2.316  1.00  0.00     0.164 HD
ENDBRANCH   8   9
BRANCH   8  13
ATOM     13  C   UNL     1       4.279  -1.113  -3.734  1.00  0.00     0.048 C 
BRANCH  13  14
ATOM     14  C   UNL     1       3.894   0.156  -4.509  1.00  0.00     0.072 C 
BRANCH  14  15
ATOM     15  S   UNL     1       3.062   1.494  -3.572  1.00  0.00    -0.158 SA
BRANCH  15  16
ATOM     16  C   UNL     1       4.391   2.605  -2.609  1.00  0.00     0.052 C 
ATOM     17  C   UNL     1       4.526   3.973  -3.988  1.00  0.00     0.043 C 
ATOM     18  C   UNL     1       6.036   2.512  -1.370  1.00  0.00     0.052 C 
ATOM     19  C   UNL     1       6.262   4.625  -4.364  1.00  0.00     0.162 C 
ATOM     20  C   UNL     1       7.677   3.350  -1.986  1.00  0.00     0.095 C 
ATOM     21  O   UNL     1       7.527   4.499  -3.213  1.00  0.00    -0.372 OA
ATOM     22  C   UNL     1       8.799   2.355  -2.411  1.00  0.00     0.066 C 
ATOM     23  C   UNL     1       8.445   3.934  -0.766  1.00  0.00     0.195 C 
ATOM     24  C   UNL     1       9.292   1.795  -1.106  1.00  0.00     0.163 C 
ATOM     25  O   UNL     1       9.142   2.838  -0.143  1.00  0.00    -0.378 OA
ENDBRANCH  15  16
ENDBRANCH  14  15
ENDBRANCH  13  14
ENDBRANCH   8  13
ENDBRANCH   6   8
ENDBRANCH   5   6
ENDBRANCH   4   5
ENDBRANCH   3   4
ENDBRANCH   2   3
ENDBRANCH   1   2
BRANCH   1  26
ATOM     26  C   UNL     1       2.253   3.487  -0.395  1.00  0.00     0.188 C 
BRANCH  26  27
ATOM     27  O   UNL     1       1.418   4.295  -1.208  1.00  0.00    -0.376 OA
BRANCH  27  28
ATOM     28  C   UNL     1       1.581   5.696  -1.084  1.00  0.00     0.202 C 
BRANCH  28  29
ATOM     29  C   UNL     1       1.246   6.302   0.284  1.00  0.00     0.261 C 
BRANCH  29  30
ATOM     30  O   UNL     1       1.979   5.735   1.392  1.00  0.00    -0.460 OA
BRANCH  30  31
ATOM     31  C   UNL     1       1.290   4.872   2.185  1.00  0.00     0.338 C 
ATOM     32  O   UNL     1       0.109   4.583   2.105  1.00  0.00    -0.246 OA
BRANCH  31  33
ATOM     33  C   UNL     1       2.227   4.164   3.090  1.00  0.00     0.060 A 
ATOM     34  C   UNL     1       2.302   2.760   3.057  1.00  0.00     0.016 A 
ATOM     35  C   UNL     1       2.951   4.882   4.040  1.00  0.00     0.016 A 
ATOM     36  C   UNL     1       3.059   2.072   4.004  1.00  0.00     0.010 A 
ATOM     37  C   UNL     1       3.680   4.191   5.012  1.00  0.00     0.010 A 
ATOM     38  C   UNL     1       3.693   2.784   5.027  1.00  0.00    -0.014 A 
BRANCH  38  39
ATOM     39  C   UNL     1       4.137   2.057   6.241  1.00  0.00     0.031 A 
ATOM     40  C   UNL     1       3.208   2.028   7.426  1.00  0.00     0.074 A 
ATOM     41  C   UNL     1       5.309   1.403   6.281  1.00  0.00     0.049 A 
ATOM     42  N   UNL     1       3.380   1.498   8.610  1.00  0.00    -0.248 NA
ATOM     43  C   UNL     1       1.906   2.694   7.250  1.00  0.00     0.031 C 
ATOM     44  C   UNL     1       6.265   1.311   5.180  1.00  0.00     0.029 A 
ATOM     45  N   UNL     1       5.894   0.695   7.299  1.00  0.00    -0.354 N 
ATOM     46  C   UNL     1       2.216   1.775   9.318  1.00  0.00     0.074 A 
ATOM     47  C   UNL     1       1.362   2.551   8.447  1.00  0.00     0.031 C 
ATOM     48  C   UNL     1       7.327   0.595   5.587  1.00  0.00     0.029 A 
ATOM     49  C   UNL     1       7.138   0.207   6.984  1.00  0.00     0.049 A 
ATOM     50  H   UNL     1       5.464   0.550   8.173  1.00  0.00     0.167 HD
ATOM     51  C   UNL     1       1.884   1.406  10.578  1.00  0.00     0.037 A 
ATOM     52  C   UNL     1       8.026  -0.459   7.747  1.00  0.00     0.037 A 
ATOM     53  C   UNL     1       2.741   0.638  11.443  1.00  0.00     0.049 A 
ATOM     54  C   UNL     1       7.665  -0.792   9.173  1.00  0.00     0.074 A 
ATOM     55  C   UNL     1       2.503   0.209  12.736  1.00  0.00     0.029 A 
ATOM     56  N   UNL     1       4.009   0.192  11.100  1.00  0.00    -0.354 N 
ATOM     57  N   UNL     1       6.561  -0.536   9.834  1.00  0.00    -0.248 NA
ATOM     58  C   UNL     1       8.676  -1.517   9.956  1.00  0.00     0.031 C 
ATOM     59  C   UNL     1       3.651  -0.444  13.197  1.00  0.00     0.029 A 
ATOM     60  C   UNL     1       4.577  -0.487  12.166  1.00  0.00     0.049 A 
ATOM     61  H   UNL     1       4.442   0.336  10.228  1.00  0.00     0.167 HD
ATOM     62  C   UNL     1       6.728  -1.101  11.093  1.00  0.00     0.074 A 
ATOM     63  C   UNL     1       8.035  -1.726  11.096  1.00  0.00     0.031 C 
ATOM     64  C   UNL     1       5.879  -1.105  12.152  1.00  0.00     0.037 A 
BRANCH  51  65
ATOM     65  C   UNL     1       0.552   1.865  11.104  1.00  0.00     0.057 A 
ATOM     66  C   UNL     1      -0.660   1.369  10.602  1.00  0.00     0.134 A 
ATOM     67  C   UNL     1       0.482   2.811  12.134  1.00  0.00     0.134 A 
ATOM     68  F   UNL     1      -0.667   0.473   9.604  1.00  0.00    -0.206 F 
ATOM     69  C   UNL     1      -1.890   1.821  11.085  1.00  0.00     0.040 A 
ATOM     70  C   UNL     1      -0.742   3.246  12.648  1.00  0.00     0.040 A 
ATOM     71  F   UNL     1       1.601   3.327  12.664  1.00  0.00    -0.206 F 
ATOM     72  C   UNL     1      -1.933   2.757  12.116  1.00  0.00     0.006 A 
ENDBRANCH  51  65
BRANCH  52  73
ATOM     73  C   UNL     1       9.344  -0.855   7.188  1.00  0.00     0.057 A 
ATOM     74  C   UNL     1       9.680  -2.201   6.997  1.00  0.00     0.134 A 
ATOM     75  C   UNL     1      10.312   0.101   6.856  1.00  0.00     0.134 A 
ATOM     76  F   UNL     1       8.807  -3.167   7.319  1.00  0.00    -0.206 F 
ATOM     77  C   UNL     1      10.935  -2.583   6.520  1.00  0.00     0.040 A 
ATOM     78  C   UNL     1      11.560  -0.265   6.349  1.00  0.00     0.040 A 
ATOM     79  F   UNL     1      10.056   1.408   7.016  1.00  0.00    -0.206 F 
ATOM     80  C   UNL     1      11.878  -1.612   6.189  1.00  0.00     0.006 A 
ENDBRANCH  52  73
BRANCH  64  81
ATOM     81  C   UNL     1       6.319  -1.855  13.380  1.00  0.00     0.057 A 
ATOM     82  C   UNL     1       7.384  -1.423  14.181  1.00  0.00     0.134 A 
ATOM     83  C   UNL     1       5.658  -3.029  13.768  1.00  0.00     0.134 A 
ATOM     84  F   UNL     1       8.066  -0.312  13.864  1.00  0.00    -0.206 F 
ATOM     85  C   UNL     1       7.806  -2.155  15.292  1.00  0.00     0.040 A 
ATOM     86  C   UNL     1       6.047  -3.749  14.899  1.00  0.00     0.040 A 
ATOM     87  F   UNL     1       4.618  -3.494  13.059  1.00  0.00    -0.206 F 
ATOM     88  C   UNL     1       7.134  -3.320  15.656  1.00  0.00     0.006 A 
ENDBRANCH  64  81
ENDBRANCH  38  39
ENDBRANCH  31  33
ENDBRANCH  30  31
ENDBRANCH  29  30
ENDBRANCH  28  29
ENDBRANCH  27  28
ENDBRANCH  26  27
ENDBRANCH   1  26
TORSDOF 22
