REMARK SMILES O=C(OCCOCCOCCOC(=O)c1ccc(-c2c3nc(c(-c4c(F)cccc4F)c4ccc([nH]4)c(-c4c(F)cccc4F)c4nc(c(-c5c(F)cccc5F)c5ccc2[nH]5)C=C4)C=C3)cc1)C1=Cc2cc(Cl)cc(Cl)c2O[C@@H]1C(F)(F)F
REMARK SMILES IDX 8 1 7 2 6 3 5 4 4 5 3 6 2 7 1 8 69 9 70 10 80 11 71 12 79 13
REMARK SMILES IDX 72 14 78 15 73 16 76 17 74 18 75 19 77 20 81 21 82 22 83 23
REMARK SMILES IDX 84 24 9 25 10 26 11 27 12 28 13 29 14 30 15 31 16 32 68 33
REMARK SMILES IDX 17 34 67 35 18 36 19 37 20 38 61 39 21 40 66 41 60 42 62 43
REMARK SMILES IDX 22 44 65 45 59 46 58 47 23 49 49 50 32 51 48 52 33 53 36 54
REMARK SMILES IDX 47 55 63 56 34 57 35 58 46 60 64 61 37 62 24 63 25 64 30 65
REMARK SMILES IDX 26 66 27 67 29 68 31 69 28 70 50 71 51 72 56 73 52 74 53 75
REMARK SMILES IDX 55 76 57 77 54 78 38 79 39 80 44 81 40 82 41 83 43 84 45 85
REMARK SMILES IDX 42 86
REMARK H PARENT 62 48 36 59
REMARK Flexibility Score: inf
ROOT
ATOM      1  C   UNL     1       1.195   1.683  -3.212  1.00  0.00     0.188 C 
ENDROOT
BRANCH   1   2
ATOM      2  C   UNL     1       1.372   1.334  -1.736  1.00  0.00     0.188 C 
BRANCH   2   3
ATOM      3  O   UNL     1       2.722   1.437  -1.303  1.00  0.00    -0.376 OA
BRANCH   3   4
ATOM      4  C   UNL     1       3.545   0.301  -1.578  1.00  0.00     0.202 C 
BRANCH   4   5
ATOM      5  C   UNL     1       3.144  -0.969  -0.818  1.00  0.00     0.261 C 
BRANCH   5   6
ATOM      6  O   UNL     1       2.356  -0.661   0.355  1.00  0.00    -0.460 OA
BRANCH   6   7
ATOM      7  C   UNL     1       2.781  -1.065   1.572  1.00  0.00     0.338 C 
ATOM      8  O   UNL     1       2.200  -1.933   2.210  1.00  0.00    -0.246 OA
BRANCH   7   9
ATOM      9  C   UNL     1       3.855  -0.234   2.175  1.00  0.00     0.087 C 
ATOM     10  C   UNL     1       4.813  -0.928   2.820  1.00  0.00     0.027 C 
ATOM     11  C   UNL     1       4.221   1.065   1.514  1.00  0.00     0.316 C 
ATOM     12  C   UNL     1       5.992  -1.091   1.940  1.00  0.00     0.020 A 
ATOM     13  O   UNL     1       5.486   0.984   0.793  1.00  0.00    -0.474 OA
ATOM     14  C   UNL     1       6.839  -2.189   2.111  1.00  0.00     0.032 A 
ATOM     15  C   UNL     1       6.207  -0.186   0.889  1.00  0.00     0.146 A 
ATOM     16  C   UNL     1       7.830  -2.444   1.166  1.00  0.00     0.043 A 
ATOM     17  C   UNL     1       7.172  -0.489  -0.083  1.00  0.00     0.085 A 
ATOM     18  Cl  UNL     1       8.882  -3.788   1.376  1.00  0.00    -0.084 Cl
ATOM     19  C   UNL     1       7.965  -1.632   0.042  1.00  0.00     0.045 A 
ATOM     20  Cl  UNL     1       7.370   0.478  -1.500  1.00  0.00    -0.080 Cl
BRANCH  11  21
ATOM     21  C   UNL     1       4.153   2.271   2.451  1.00  0.00     0.430 C 
ATOM     22  F   UNL     1       4.141   3.433   1.756  1.00  0.00    -0.167 F 
ATOM     23  F   UNL     1       3.016   2.249   3.191  1.00  0.00    -0.167 F 
ATOM     24  F   UNL     1       5.195   2.312   3.308  1.00  0.00    -0.167 F 
ENDBRANCH  11  21
ENDBRANCH   7   9
ENDBRANCH   6   7
ENDBRANCH   5   6
ENDBRANCH   4   5
ENDBRANCH   3   4
ENDBRANCH   2   3
ENDBRANCH   1   2
BRANCH   1  25
ATOM     25  O   UNL     1       2.233   1.113  -4.000  1.00  0.00    -0.376 OA
BRANCH  25  26
ATOM     26  C   UNL     1       3.026   2.062  -4.716  1.00  0.00     0.202 C 
BRANCH  26  27
ATOM     27  C   UNL     1       4.001   2.962  -3.921  1.00  0.00     0.261 C 
BRANCH  27  28
ATOM     28  O   UNL     1       3.485   3.644  -2.764  1.00  0.00    -0.460 OA
BRANCH  28  29
ATOM     29  C   UNL     1       2.705   4.723  -2.974  1.00  0.00     0.338 C 
ATOM     30  O   UNL     1       2.331   5.158  -4.047  1.00  0.00    -0.246 OA
BRANCH  29  31
ATOM     31  C   UNL     1       2.260   5.255  -1.668  1.00  0.00     0.060 A 
ATOM     32  C   UNL     1       0.942   5.025  -1.263  1.00  0.00     0.016 A 
ATOM     33  C   UNL     1       3.097   6.073  -0.903  1.00  0.00     0.016 A 
ATOM     34  C   UNL     1       0.445   5.641  -0.113  1.00  0.00     0.010 A 
ATOM     35  C   UNL     1       2.592   6.706   0.244  1.00  0.00     0.010 A 
ATOM     36  C   UNL     1       1.250   6.524   0.621  1.00  0.00    -0.014 A 
BRANCH  36  37
ATOM     37  C   UNL     1       0.602   7.385   1.646  1.00  0.00     0.031 A 
ATOM     38  C   UNL     1       0.121   8.754   1.242  1.00  0.00     0.074 A 
ATOM     39  C   UNL     1       0.350   6.927   2.886  1.00  0.00     0.049 A 
ATOM     40  N   UNL     1      -0.570   9.631   1.926  1.00  0.00    -0.248 NA
ATOM     41  C   UNL     1       0.456   9.187  -0.124  1.00  0.00     0.031 C 
ATOM     42  C   UNL     1       0.736   5.615   3.398  1.00  0.00     0.029 A 
ATOM     43  N   UNL     1      -0.306   7.521   3.937  1.00  0.00    -0.354 N 
ATOM     44  C   UNL     1      -0.777  10.704   1.067  1.00  0.00     0.074 A 
ATOM     45  C   UNL     1      -0.093  10.392  -0.170  1.00  0.00     0.031 C 
ATOM     46  C   UNL     1       0.314   5.504   4.671  1.00  0.00     0.029 A 
ATOM     47  C   UNL     1      -0.360   6.741   5.066  1.00  0.00     0.049 A 
ATOM     48  H   UNL     1      -0.700   8.422   3.886  1.00  0.00     0.167 HD
ATOM     49  C   UNL     1      -1.488  11.837   1.277  1.00  0.00     0.037 A 
ATOM     50  C   UNL     1      -0.887   6.999   6.279  1.00  0.00     0.037 A 
ATOM     51  C   UNL     1      -2.143  12.168   2.516  1.00  0.00     0.049 A 
ATOM     52  C   UNL     1      -1.605   8.305   6.516  1.00  0.00     0.074 A 
ATOM     53  C   UNL     1      -2.875  13.300   2.831  1.00  0.00     0.029 A 
ATOM     54  N   UNL     1      -2.134  11.372   3.651  1.00  0.00    -0.354 N 
ATOM     55  N   UNL     1      -1.828   9.293   5.683  1.00  0.00    -0.248 NA
ATOM     56  C   UNL     1      -2.159   8.521   7.860  1.00  0.00     0.031 C 
ATOM     57  C   UNL     1      -3.266  13.212   4.171  1.00  0.00     0.029 A 
ATOM     58  C   UNL     1      -2.829  11.998   4.675  1.00  0.00     0.049 A 
ATOM     59  H   UNL     1      -1.698  10.492   3.720  1.00  0.00     0.167 HD
ATOM     60  C   UNL     1      -2.568  10.233   6.393  1.00  0.00     0.074 A 
ATOM     61  C   UNL     1      -2.780   9.683   7.715  1.00  0.00     0.031 C 
ATOM     62  C   UNL     1      -3.029  11.443   5.990  1.00  0.00     0.037 A 
BRANCH  49  63
ATOM     63  C   UNL     1      -1.582  12.813   0.139  1.00  0.00     0.057 A 
ATOM     64  C   UNL     1      -2.342  12.537  -1.006  1.00  0.00     0.134 A 
ATOM     65  C   UNL     1      -0.933  14.053   0.199  1.00  0.00     0.134 A 
ATOM     66  F   UNL     1      -2.977  11.362  -1.134  1.00  0.00    -0.206 F 
ATOM     67  C   UNL     1      -2.437  13.450  -2.058  1.00  0.00     0.040 A 
ATOM     68  C   UNL     1      -1.043  14.985  -0.834  1.00  0.00     0.040 A 
ATOM     69  F   UNL     1      -0.192  14.383   1.267  1.00  0.00    -0.206 F 
ATOM     70  C   UNL     1      -1.792  14.682  -1.970  1.00  0.00     0.006 A 
ENDBRANCH  49  63
BRANCH  50  71
ATOM     71  C   UNL     1      -0.748   6.010   7.381  1.00  0.00     0.057 A 
ATOM     72  C   UNL     1      -1.858   5.353   7.926  1.00  0.00     0.134 A 
ATOM     73  C   UNL     1       0.502   5.740   7.953  1.00  0.00     0.134 A 
ATOM     74  F   UNL     1      -3.087   5.589   7.443  1.00  0.00    -0.206 F 
ATOM     75  C   UNL     1      -1.735   4.486   9.014  1.00  0.00     0.040 A 
ATOM     76  C   UNL     1       0.644   4.853   9.021  1.00  0.00     0.040 A 
ATOM     77  F   UNL     1       1.606   6.339   7.482  1.00  0.00    -0.206 F 
ATOM     78  C   UNL     1      -0.479   4.231   9.562  1.00  0.00     0.006 A 
ENDBRANCH  50  71
BRANCH  62  79
ATOM     79  C   UNL     1      -3.831  12.239   6.983  1.00  0.00     0.057 A 
ATOM     80  C   UNL     1      -3.251  12.799   8.129  1.00  0.00     0.134 A 
ATOM     81  C   UNL     1      -5.202  12.453   6.787  1.00  0.00     0.134 A 
ATOM     82  F   UNL     1      -1.945  12.626   8.384  1.00  0.00    -0.206 F 
ATOM     83  C   UNL     1      -4.011  13.505   9.063  1.00  0.00     0.040 A 
ATOM     84  C   UNL     1      -5.966  13.186   7.697  1.00  0.00     0.040 A 
ATOM     85  F   UNL     1      -5.822  11.959   5.704  1.00  0.00    -0.206 F 
ATOM     86  C   UNL     1      -5.373  13.703   8.846  1.00  0.00     0.006 A 
ENDBRANCH  62  79
ENDBRANCH  36  37
ENDBRANCH  29  31
ENDBRANCH  28  29
ENDBRANCH  27  28
ENDBRANCH  26  27
ENDBRANCH  25  26
ENDBRANCH   1  25
TORSDOF 18
