REMARK SMILES Cc1c(Cl)cc2c(c1C)O[C@@H](C(F)(F)F)C(C(=O)OCCOCCOCCOC(=O)c1ccc(-c3c4nc(c(-c5c(F)cccc5F)c5ccc([nH]5)c(-c5c(F)cccc5F)c5nc(c(-c6c(F)cccc6F)c6ccc3[nH]6)C=C5)C=C4)cc1)=C2
REMARK SMILES IDX 24 1 23 2 22 3 21 4 20 5 19 6 17 7 18 8 16 9 1 10 2 11 3 12
REMARK SMILES IDX 8 13 4 14 5 15 7 16 9 17 6 18 10 19 85 20 11 21 12 22 13 23
REMARK SMILES IDX 14 24 15 25 25 26 26 27 27 28 28 29 29 30 30 31 31 32 32 33
REMARK SMILES IDX 84 34 33 35 83 36 34 37 35 38 36 39 77 40 37 41 82 42 76 43
REMARK SMILES IDX 78 44 38 45 81 46 75 47 74 48 39 50 65 51 48 52 64 53 49 54
REMARK SMILES IDX 52 55 63 56 79 57 50 58 51 59 62 61 80 62 53 63 40 64 41 65
REMARK SMILES IDX 46 66 42 67 43 68 45 69 47 70 44 71 66 72 67 73 72 74 68 75
REMARK SMILES IDX 69 76 71 77 73 78 70 79 54 80 55 81 60 82 56 83 57 84 59 85
REMARK SMILES IDX 61 86 58 87
REMARK H PARENT 78 49 52 60
REMARK Flexibility Score: inf
ROOT
ATOM      1  C   UNL     1       0.466  -1.771   8.491  1.00  0.00     0.188 C 
ENDROOT
BRANCH   1   2
ATOM      2  C   UNL     1      -0.634  -0.822   9.004  1.00  0.00     0.188 C 
BRANCH   2   3
ATOM      3  O   UNL     1      -1.436  -1.202  10.111  1.00  0.00    -0.376 OA
BRANCH   3   4
ATOM      4  C   UNL     1      -2.040  -2.490  10.136  1.00  0.00     0.202 C 
BRANCH   4   5
ATOM      5  C   UNL     1      -2.792  -3.022   8.905  1.00  0.00     0.261 C 
BRANCH   5   6
ATOM      6  O   UNL     1      -2.038  -2.997   7.679  1.00  0.00    -0.460 OA
BRANCH   6   7
ATOM      7  C   UNL     1      -2.582  -2.287   6.668  1.00  0.00     0.338 C 
ATOM      8  O   UNL     1      -3.677  -1.746   6.673  1.00  0.00    -0.246 OA
BRANCH   7   9
ATOM      9  C   UNL     1      -1.614  -2.099   5.570  1.00  0.00     0.087 C 
ATOM     10  C   UNL     1       1.060   0.157   0.071  1.00  0.00     0.046 C 
ATOM     11  C   UNL     1       0.503  -0.105   1.448  1.00  0.00    -0.026 A 
ATOM     12  C   UNL     1       0.166   0.960   2.307  1.00  0.00     0.045 A 
ATOM     13  C   UNL     1       0.316  -1.433   1.911  1.00  0.00    -0.004 A 
ATOM     14  Cl  UNL     1       0.429   2.615   1.877  1.00  0.00    -0.084 Cl
ATOM     15  C   UNL     1      -0.418   0.723   3.554  1.00  0.00     0.032 A 
ATOM     16  C   UNL     1      -0.317  -1.654   3.153  1.00  0.00     0.131 A 
ATOM     17  C   UNL     1       0.766  -2.640   1.124  1.00  0.00     0.049 C 
ATOM     18  C   UNL     1      -0.688  -0.582   3.966  1.00  0.00     0.019 A 
ATOM     19  O   UNL     1      -0.629  -2.953   3.469  1.00  0.00    -0.475 OA
ATOM     20  C   UNL     1      -1.448  -0.827   5.178  1.00  0.00     0.027 C 
ATOM     21  C   UNL     1      -1.018  -3.270   4.837  1.00  0.00     0.316 C 
BRANCH  21  22
ATOM     22  C   UNL     1       0.172  -3.973   5.515  1.00  0.00     0.430 C 
ATOM     23  F   UNL     1       1.197  -3.127   5.764  1.00  0.00    -0.167 F 
ATOM     24  F   UNL     1      -0.179  -4.569   6.674  1.00  0.00    -0.167 F 
ATOM     25  F   UNL     1       0.661  -4.959   4.717  1.00  0.00    -0.167 F 
ENDBRANCH  21  22
ENDBRANCH   7   9
ENDBRANCH   6   7
ENDBRANCH   5   6
ENDBRANCH   4   5
ENDBRANCH   3   4
ENDBRANCH   2   3
ENDBRANCH   1   2
BRANCH   1  26
ATOM     26  O   UNL     1       0.534  -3.027   9.111  1.00  0.00    -0.376 OA
BRANCH  26  27
ATOM     27  C   UNL     1       1.395  -3.239  10.215  1.00  0.00     0.202 C 
BRANCH  27  28
ATOM     28  C   UNL     1       2.083  -2.137  11.047  1.00  0.00     0.261 C 
BRANCH  28  29
ATOM     29  O   UNL     1       1.937  -0.777  10.631  1.00  0.00    -0.460 OA
BRANCH  29  30
ATOM     30  C   UNL     1       2.961  -0.258   9.909  1.00  0.00     0.338 C 
ATOM     31  O   UNL     1       3.978  -0.817   9.553  1.00  0.00    -0.246 OA
BRANCH  30  32
ATOM     32  C   UNL     1       2.545   1.081   9.444  1.00  0.00     0.060 A 
ATOM     33  C   UNL     1       2.297   1.278   8.078  1.00  0.00     0.016 A 
ATOM     34  C   UNL     1       2.405   2.130  10.353  1.00  0.00     0.016 A 
ATOM     35  C   UNL     1       1.913   2.535   7.615  1.00  0.00     0.010 A 
ATOM     36  C   UNL     1       2.050   3.396   9.883  1.00  0.00     0.010 A 
ATOM     37  C   UNL     1       1.826   3.609   8.511  1.00  0.00    -0.014 A 
BRANCH  37  38
ATOM     38  C   UNL     1       1.698   4.990   7.991  1.00  0.00     0.031 A 
ATOM     39  C   UNL     1       2.950   5.801   7.811  1.00  0.00     0.074 A 
ATOM     40  C   UNL     1       0.501   5.509   7.667  1.00  0.00     0.049 A 
ATOM     41  N   UNL     1       3.087   7.045   7.435  1.00  0.00    -0.248 NA
ATOM     42  C   UNL     1       4.220   5.112   8.094  1.00  0.00     0.031 C 
ATOM     43  C   UNL     1      -0.776   4.803   7.742  1.00  0.00     0.029 A 
ATOM     44  N   UNL     1       0.170   6.761   7.211  1.00  0.00    -0.354 N 
ATOM     45  C   UNL     1       4.455   7.287   7.434  1.00  0.00     0.074 A 
ATOM     46  C   UNL     1       5.104   6.075   7.881  1.00  0.00     0.031 C 
ATOM     47  C   UNL     1      -1.756   5.637   7.351  1.00  0.00     0.029 A 
ATOM     48  C   UNL     1      -1.179   6.944   7.035  1.00  0.00     0.049 A 
ATOM     49  H   UNL     1       0.838   7.461   7.028  1.00  0.00     0.167 HD
ATOM     50  C   UNL     1       5.111   8.416   7.079  1.00  0.00     0.037 A 
ATOM     51  C   UNL     1      -1.867   8.047   6.680  1.00  0.00     0.037 A 
ATOM     52  C   UNL     1       4.462   9.623   6.643  1.00  0.00     0.049 A 
ATOM     53  C   UNL     1      -1.121   9.325   6.392  1.00  0.00     0.074 A 
ATOM     54  C   UNL     1       5.041  10.821   6.266  1.00  0.00     0.029 A 
ATOM     55  N   UNL     1       3.090   9.786   6.530  1.00  0.00    -0.354 N 
ATOM     56  N   UNL     1       0.172   9.547   6.389  1.00  0.00    -0.248 NA
ATOM     57  C   UNL     1      -1.929  10.509   6.062  1.00  0.00     0.031 C 
ATOM     58  C   UNL     1       4.018  11.728   5.978  1.00  0.00     0.029 A 
ATOM     59  C   UNL     1       2.802  11.076   6.117  1.00  0.00     0.049 A 
ATOM     60  H   UNL     1       2.420   9.090   6.717  1.00  0.00     0.167 HD
ATOM     61  C   UNL     1       0.332  10.880   6.030  1.00  0.00     0.074 A 
ATOM     62  C   UNL     1      -0.995  11.416   5.811  1.00  0.00     0.031 C 
ATOM     63  C   UNL     1       1.476  11.596   5.894  1.00  0.00     0.037 A 
BRANCH  50  64
ATOM     64  C   UNL     1       6.608   8.405   7.163  1.00  0.00     0.057 A 
ATOM     65  C   UNL     1       7.392   7.675   6.260  1.00  0.00     0.134 A 
ATOM     66  C   UNL     1       7.276   9.177   8.122  1.00  0.00     0.134 A 
ATOM     67  F   UNL     1       6.814   6.902   5.328  1.00  0.00    -0.206 F 
ATOM     68  C   UNL     1       8.786   7.704   6.315  1.00  0.00     0.040 A 
ATOM     69  C   UNL     1       8.669   9.236   8.169  1.00  0.00     0.040 A 
ATOM     70  F   UNL     1       6.585   9.900   9.016  1.00  0.00    -0.206 F 
ATOM     71  C   UNL     1       9.429   8.496   7.265  1.00  0.00     0.006 A 
ENDBRANCH  50  64
BRANCH  51  72
ATOM     72  C   UNL     1      -3.349   7.997   6.577  1.00  0.00     0.057 A 
ATOM     73  C   UNL     1      -3.991   8.117   5.339  1.00  0.00     0.134 A 
ATOM     74  C   UNL     1      -4.158   7.831   7.708  1.00  0.00     0.134 A 
ATOM     75  F   UNL     1      -3.274   8.305   4.222  1.00  0.00    -0.206 F 
ATOM     76  C   UNL     1      -5.383   8.081   5.230  1.00  0.00     0.040 A 
ATOM     77  C   UNL     1      -5.549   7.766   7.611  1.00  0.00     0.040 A 
ATOM     78  F   UNL     1      -3.606   7.715   8.925  1.00  0.00    -0.206 F 
ATOM     79  C   UNL     1      -6.165   7.896   6.368  1.00  0.00     0.006 A 
ENDBRANCH  51  72
BRANCH  63  80
ATOM     80  C   UNL     1       1.360  13.031   5.465  1.00  0.00     0.057 A 
ATOM     81  C   UNL     1       0.873  14.022   6.324  1.00  0.00     0.134 A 
ATOM     82  C   UNL     1       1.823  13.439   4.206  1.00  0.00     0.134 A 
ATOM     83  F   UNL     1       0.407  13.699   7.540  1.00  0.00    -0.206 F 
ATOM     84  C   UNL     1       0.837  15.365   5.944  1.00  0.00     0.040 A 
ATOM     85  C   UNL     1       1.820  14.781   3.825  1.00  0.00     0.040 A 
ATOM     86  F   UNL     1       2.317  12.543   3.338  1.00  0.00    -0.206 F 
ATOM     87  C   UNL     1       1.322  15.749   4.695  1.00  0.00     0.006 A 
ENDBRANCH  63  80
ENDBRANCH  37  38
ENDBRANCH  30  32
ENDBRANCH  29  30
ENDBRANCH  28  29
ENDBRANCH  27  28
ENDBRANCH  26  27
ENDBRANCH   1  26
TORSDOF 18
