REMARK SMILES Cc1cccc(C(=O)Nc2cc(C(=O)OCCOCCOCCOC(=O)c3ccc(-c4c5nc(c(-c6c(F)cccc6F)c6ccc([nH]6)c(-c6c(F)cccc6F)c6nc(c(-c7c(F)cccc7F)c7ccc4[nH]7)C=C6)C=C5)cc3)ccc2N2CC[NH+](CC(=O)NC(C)(C)C)CC2)c1
REMARK SMILES IDX 19 1 18 2 17 3 16 4 15 5 13 6 14 7 12 8 10 9 11 10 83 11
REMARK SMILES IDX 82 12 81 13 9 14 7 15 8 16 6 18 1 19 2 20 3 21 98 22 4 23
REMARK SMILES IDX 5 24 84 25 85 26 97 27 86 28 96 29 87 30 88 32 89 33 90 34
REMARK SMILES IDX 91 35 92 37 93 38 94 39 95 40 20 41 21 42 22 43 23 44 24 45
REMARK SMILES IDX 25 46 26 47 27 48 28 49 80 50 29 51 79 52 30 53 31 54 32 55
REMARK SMILES IDX 73 56 33 57 78 58 72 59 74 60 34 61 77 62 71 63 70 64 35 66
REMARK SMILES IDX 61 67 44 68 60 69 45 70 48 71 59 72 75 73 46 74 47 75 58 77
REMARK SMILES IDX 76 78 49 79 36 80 37 81 42 82 38 83 39 84 41 85 43 86 40 87
REMARK SMILES IDX 62 88 63 89 68 90 64 91 65 92 67 93 69 94 66 95 50 96 51 97
REMARK SMILES IDX 56 98 52 99 53 100 55 101 57 102 54 103
REMARK H PARENT 9 17 87 31 91 36 74 65 48 76
REMARK Flexibility Score: inf
ROOT
ATOM      1  C   UNL     1       5.225   1.137  -5.634  1.00  0.00     0.188 C 
ENDROOT
BRANCH   1   2
ATOM      2  O   UNL     1       4.259   0.228  -5.064  1.00  0.00    -0.376 OA
BRANCH   2   3
ATOM      3  C   UNL     1       2.878   0.098  -5.414  1.00  0.00     0.202 C 
BRANCH   3   4
ATOM      4  C   UNL     1       1.532   0.403  -4.411  1.00  0.00     0.261 C 
BRANCH   4   5
ATOM      5  O   UNL     1       1.176   1.574  -3.347  1.00  0.00    -0.460 OA
BRANCH   5   6
ATOM      6  C   UNL     1       1.573   2.049  -2.089  1.00  0.00     0.338 C 
ATOM      7  O   UNL     1       2.263   1.581  -1.184  1.00  0.00    -0.246 OA
BRANCH   6   8
ATOM      8  C   UNL     1       1.144   3.368  -1.693  1.00  0.00     0.062 A 
ATOM      9  C   UNL     1      -0.670   4.406  -0.690  1.00  0.00     0.065 A 
ATOM     10  C   UNL     1      -0.206   3.491  -1.604  1.00  0.00     0.044 A 
ATOM     11  C   UNL     1       0.163   5.391  -0.055  1.00  0.00     0.061 A 
ATOM     12  C   UNL     1       1.538   5.269  -0.217  1.00  0.00     0.029 A 
ATOM     13  C   UNL     1       2.023   4.203  -0.957  1.00  0.00     0.018 A 
BRANCH   9  14
ATOM     14  N   UNL     1      -1.989   4.204  -0.283  1.00  0.00    -0.320 N 
ATOM     15  C   UNL     1      -2.544   3.032   0.215  1.00  0.00     0.255 C 
ATOM     16  O   UNL     1      -3.762   3.020   0.411  1.00  0.00    -0.269 OA
ATOM     17  H   UNL     1      -2.593   4.978  -0.358  1.00  0.00     0.170 HD
BRANCH  15  18
ATOM     18  C   UNL     1      -1.749   1.811   0.645  1.00  0.00     0.040 A 
ATOM     19  C   UNL     1       1.548   0.568   2.214  1.00  0.00     0.044 C 
ATOM     20  C   UNL     1       0.138   0.611   1.686  1.00  0.00    -0.050 A 
ATOM     21  C   UNL     1      -0.595  -0.578   1.641  1.00  0.00     0.003 A 
ATOM     22  C   UNL     1      -0.450   1.803   1.196  1.00  0.00     0.017 A 
ATOM     23  C   UNL     1      -1.887  -0.580   1.126  1.00  0.00     0.001 A 
ATOM     24  C   UNL     1      -2.450   0.595   0.622  1.00  0.00     0.014 A 
ENDBRANCH  15  18
ENDBRANCH   9  14
BRANCH  11  25
ATOM     25  N   UNL     1      -0.354   6.285   0.864  1.00  0.00    -0.359 N 
ATOM     26  C   UNL     1       0.256   7.565   1.272  1.00  0.00     0.178 C 
ATOM     27  C   UNL     1      -1.020   5.657   1.988  1.00  0.00     0.178 C 
ATOM     28  C   UNL     1      -0.816   8.458   2.004  1.00  0.00     0.284 C 
ATOM     29  C   UNL     1      -2.240   6.513   2.303  1.00  0.00     0.284 C 
ATOM     30  N   UNL     1      -1.858   7.813   2.853  1.00  0.00    -0.324 N 
ATOM     31  H   UNL     1      -2.649   8.454   2.801  1.00  0.00     0.348 HD
BRANCH  30  32
ATOM     32  C   UNL     1      -1.615   7.766   4.308  1.00  0.00     0.363 C 
BRANCH  32  33
ATOM     33  C   UNL     1      -0.450   6.899   4.776  1.00  0.00     0.275 C 
ATOM     34  O   UNL     1       0.707   7.332   4.681  1.00  0.00    -0.268 OA
ATOM     35  N   UNL     1      -0.573   5.651   5.309  1.00  0.00    -0.347 N 
ATOM     36  H   UNL     1       0.283   5.375   5.710  1.00  0.00     0.164 HD
BRANCH  35  37
ATOM     37  C   UNL     1      -1.585   4.566   5.484  1.00  0.00     0.032 C 
ATOM     38  C   UNL     1      -1.519   3.548   4.328  1.00  0.00     0.034 C 
ATOM     39  C   UNL     1      -1.175   3.789   6.754  1.00  0.00     0.034 C 
ATOM     40  C   UNL     1      -3.030   5.029   5.683  1.00  0.00     0.034 C 
ENDBRANCH  35  37
ENDBRANCH  32  33
ENDBRANCH  30  32
ENDBRANCH  11  25
ENDBRANCH   6   8
ENDBRANCH   5   6
ENDBRANCH   4   5
ENDBRANCH   3   4
ENDBRANCH   2   3
ENDBRANCH   1   2
BRANCH   1  41
ATOM     41  C   UNL     1       4.934   2.192  -6.719  1.00  0.00     0.188 C 
BRANCH  41  42
ATOM     42  O   UNL     1       3.586   2.621  -6.724  1.00  0.00    -0.376 OA
BRANCH  42  43
ATOM     43  C   UNL     1       3.241   3.600  -7.696  1.00  0.00     0.202 C 
BRANCH  43  44
ATOM     44  C   UNL     1       3.788   5.024  -7.433  1.00  0.00     0.261 C 
BRANCH  44  45
ATOM     45  O   UNL     1       3.360   5.549  -6.152  1.00  0.00    -0.460 OA
BRANCH  45  46
ATOM     46  C   UNL     1       4.324   5.729  -5.192  1.00  0.00     0.338 C 
ATOM     47  O   UNL     1       5.312   6.438  -5.321  1.00  0.00    -0.246 OA
BRANCH  46  48
ATOM     48  C   UNL     1       4.120   4.756  -4.072  1.00  0.00     0.060 A 
ATOM     49  C   UNL     1       5.057   4.374  -3.105  1.00  0.00     0.016 A 
ATOM     50  C   UNL     1       3.088   3.907  -4.237  1.00  0.00     0.016 A 
ATOM     51  C   UNL     1       5.005   3.061  -2.459  1.00  0.00     0.010 A 
ATOM     52  C   UNL     1       3.330   2.590  -3.855  1.00  0.00     0.010 A 
ATOM     53  C   UNL     1       4.150   2.029  -2.867  1.00  0.00    -0.014 A 
BRANCH  53  54
ATOM     54  C   UNL     1       4.166   0.409  -2.419  1.00  0.00     0.031 A 
ATOM     55  C   UNL     1       2.965  -0.768  -2.114  1.00  0.00     0.074 A 
ATOM     56  C   UNL     1       5.416  -0.107  -2.337  1.00  0.00     0.049 A 
ATOM     57  N   UNL     1       3.135  -2.082  -2.239  1.00  0.00    -0.248 NA
ATOM     58  C   UNL     1       1.507  -0.627  -1.744  1.00  0.00     0.031 C 
ATOM     59  C   UNL     1       5.846  -1.473  -2.044  1.00  0.00     0.029 A 
ATOM     60  N   UNL     1       6.616   0.616  -2.314  1.00  0.00    -0.354 N 
ATOM     61  C   UNL     1       1.925  -2.725  -1.939  1.00  0.00     0.074 A 
ATOM     62  C   UNL     1       0.939  -1.749  -2.173  1.00  0.00     0.031 C 
ATOM     63  C   UNL     1       7.077  -1.433  -1.514  1.00  0.00     0.029 A 
ATOM     64  C   UNL     1       7.444  -0.037  -1.391  1.00  0.00     0.049 A 
ATOM     65  H   UNL     1       6.833   1.419  -2.840  1.00  0.00     0.167 HD
ATOM     66  C   UNL     1       1.687  -3.647  -0.951  1.00  0.00     0.037 A 
ATOM     67  C   UNL     1       7.774   0.590  -0.232  1.00  0.00     0.037 A 
ATOM     68  C   UNL     1       2.845  -3.803  -0.115  1.00  0.00     0.049 A 
ATOM     69  C   UNL     1       7.175  -0.115   0.958  1.00  0.00     0.074 A 
ATOM     70  C   UNL     1       4.013  -4.516  -0.273  1.00  0.00     0.029 A 
ATOM     71  N   UNL     1       3.051  -2.889   0.913  1.00  0.00    -0.354 N 
ATOM     72  N   UNL     1       6.063  -0.805   0.949  1.00  0.00    -0.248 NA
ATOM     73  C   UNL     1       7.855  -0.135   2.245  1.00  0.00     0.031 C 
ATOM     74  C   UNL     1       4.956  -3.982   0.636  1.00  0.00     0.029 A 
ATOM     75  C   UNL     1       4.346  -2.983   1.383  1.00  0.00     0.049 A 
ATOM     76  H   UNL     1       2.371  -2.265   1.257  1.00  0.00     0.167 HD
ATOM     77  C   UNL     1       5.884  -1.364   2.191  1.00  0.00     0.074 A 
ATOM     78  C   UNL     1       7.036  -0.923   2.956  1.00  0.00     0.031 C 
ATOM     79  C   UNL     1       4.845  -2.197   2.507  1.00  0.00     0.037 A 
BRANCH  66  80
ATOM     80  C   UNL     1       0.339  -4.345  -0.704  1.00  0.00     0.057 A 
ATOM     81  C   UNL     1       0.324  -5.722  -0.426  1.00  0.00     0.134 A 
ATOM     82  C   UNL     1      -0.956  -3.781  -0.781  1.00  0.00     0.134 A 
ATOM     83  F   UNL     1       1.469  -6.394  -0.244  1.00  0.00    -0.206 F 
ATOM     84  C   UNL     1      -0.864  -6.478  -0.341  1.00  0.00     0.040 A 
ATOM     85  C   UNL     1      -2.147  -4.529  -0.771  1.00  0.00     0.040 A 
ATOM     86  F   UNL     1      -1.158  -2.461  -0.802  1.00  0.00    -0.206 F 
ATOM     87  C   UNL     1      -2.104  -5.892  -0.560  1.00  0.00     0.006 A 
ENDBRANCH  66  80
BRANCH  67  88
ATOM     88  C   UNL     1       8.024   2.058  -0.359  1.00  0.00     0.057 A 
ATOM     89  C   UNL     1       8.872   2.502  -1.399  1.00  0.00     0.134 A 
ATOM     90  C   UNL     1       7.284   3.043   0.302  1.00  0.00     0.134 A 
ATOM     91  F   UNL     1       9.637   1.624  -2.069  1.00  0.00    -0.206 F 
ATOM     92  C   UNL     1       8.884   3.824  -1.849  1.00  0.00     0.040 A 
ATOM     93  C   UNL     1       7.306   4.383  -0.126  1.00  0.00     0.040 A 
ATOM     94  F   UNL     1       6.428   2.718   1.280  1.00  0.00    -0.206 F 
ATOM     95  C   UNL     1       8.083   4.768  -1.221  1.00  0.00     0.006 A 
ENDBRANCH  67  88
BRANCH  79  96
ATOM     96  C   UNL     1       4.421  -2.540   3.925  1.00  0.00     0.057 A 
ATOM     97  C   UNL     1       4.804  -1.811   5.065  1.00  0.00     0.134 A 
ATOM     98  C   UNL     1       3.516  -3.592   4.192  1.00  0.00     0.134 A 
ATOM     99  F   UNL     1       5.475  -0.655   4.973  1.00  0.00    -0.206 F 
ATOM    100  C   UNL     1       4.466  -2.197   6.369  1.00  0.00     0.040 A 
ATOM    101  C   UNL     1       3.119  -3.950   5.487  1.00  0.00     0.040 A 
ATOM    102  F   UNL     1       2.936  -4.297   3.211  1.00  0.00    -0.206 F 
ATOM    103  C   UNL     1       3.628  -3.277   6.586  1.00  0.00     0.006 A 
ENDBRANCH  79  96
ENDBRANCH  53  54
ENDBRANCH  46  48
ENDBRANCH  45  46
ENDBRANCH  44  45
ENDBRANCH  43  44
ENDBRANCH  42  43
ENDBRANCH  41  42
ENDBRANCH   1  41
TORSDOF 23
