REMARK SMILES O=C(OCCOCCOCCOC(=O)[C@H]1[NH2+]CC[C@H]1c1cccc(Oc2ccccc2)c1)c1ccc(-c2c3nc(c(-c4c(F)cccc4F)c4ccc([nH]4)c(-c4c(F)cccc4F)c4nc(c(-c5c(F)cccc5F)c5ccc2[nH]5)C=C4)C=C3)cc1
REMARK SMILES IDX 8 1 7 2 6 3 5 4 4 5 3 6 2 7 1 8 33 9 34 10 86 11 35 12 85 13
REMARK SMILES IDX 36 14 37 15 38 16 79 17 39 18 84 19 78 20 80 21 40 22 83 23
REMARK SMILES IDX 77 24 76 25 41 27 67 28 50 29 66 30 51 31 54 32 65 33 81 34
REMARK SMILES IDX 52 35 53 36 64 38 82 39 55 40 42 41 43 42 48 43 44 44 45 45
REMARK SMILES IDX 47 46 49 47 46 48 68 49 69 50 74 51 70 52 71 53 73 54 75 55
REMARK SMILES IDX 72 56 56 57 57 58 62 59 58 60 59 61 61 62 63 63 60 64 9 65
REMARK SMILES IDX 10 66 11 67 12 68 13 69 14 70 15 71 16 72 19 73 17 74 18 77
REMARK SMILES IDX 20 78 21 79 32 80 22 81 24 82 23 83 25 84 26 85 27 86 31 87
REMARK SMILES IDX 28 88 30 89 29 90
REMARK H PARENT 80 26 54 37 16 75 16 76
REMARK Flexibility Score: inf
ROOT
ATOM      1  C   UNL     1       1.075  -3.981  -2.056  1.00  0.00     0.188 C 
ENDROOT
BRANCH   1   2
ATOM      2  C   UNL     1       1.199  -3.146  -0.785  1.00  0.00     0.188 C 
BRANCH   2   3
ATOM      3  O   UNL     1       2.498  -2.594  -0.711  1.00  0.00    -0.376 OA
BRANCH   3   4
ATOM      4  C   UNL     1       3.127  -2.747   0.554  1.00  0.00     0.202 C 
BRANCH   4   5
ATOM      5  C   UNL     1       2.606  -1.813   1.637  1.00  0.00     0.261 C 
BRANCH   5   6
ATOM      6  O   UNL     1       3.037  -0.457   1.415  1.00  0.00    -0.460 OA
BRANCH   6   7
ATOM      7  C   UNL     1       2.609   0.279   0.181  1.00  0.00     0.338 C 
ATOM      8  O   UNL     1       1.473  -0.252   0.005  1.00  0.00    -0.246 OA
BRANCH   7   9
ATOM      9  C   UNL     1       3.678   1.863  -0.789  1.00  0.00     0.060 A 
ATOM     10  C   UNL     1       5.121   1.906  -1.284  1.00  0.00     0.016 A 
ATOM     11  C   UNL     1       3.179   3.185  -1.330  1.00  0.00     0.016 A 
ATOM     12  C   UNL     1       5.684   2.601  -2.334  1.00  0.00     0.010 A 
ATOM     13  C   UNL     1       3.703   3.925  -2.385  1.00  0.00     0.010 A 
ATOM     14  C   UNL     1       4.923   3.564  -2.910  1.00  0.00    -0.014 A 
BRANCH  14  15
ATOM     15  C   UNL     1       5.583   4.481  -3.794  1.00  0.00     0.031 A 
ATOM     16  C   UNL     1       6.097   5.682  -3.098  1.00  0.00     0.074 A 
ATOM     17  C   UNL     1       5.521   4.196  -5.097  1.00  0.00     0.049 A 
ATOM     18  N   UNL     1       6.440   6.822  -3.597  1.00  0.00    -0.248 NA
ATOM     19  C   UNL     1       6.158   5.620  -1.617  1.00  0.00     0.031 C 
ATOM     20  C   UNL     1       5.018   2.943  -5.672  1.00  0.00     0.029 A 
ATOM     21  N   UNL     1       5.790   4.975  -6.169  1.00  0.00    -0.354 N 
ATOM     22  C   UNL     1       6.737   7.614  -2.500  1.00  0.00     0.074 A 
ATOM     23  C   UNL     1       6.448   6.867  -1.306  1.00  0.00     0.031 C 
ATOM     24  C   UNL     1       4.896   3.088  -6.999  1.00  0.00     0.029 A 
ATOM     25  C   UNL     1       5.310   4.440  -7.338  1.00  0.00     0.049 A 
ATOM     26  H   UNL     1       6.275   5.830  -6.117  1.00  0.00     0.167 HD
ATOM     27  C   UNL     1       7.231   8.864  -2.539  1.00  0.00     0.037 A 
ATOM     28  C   UNL     1       5.195   5.046  -8.528  1.00  0.00     0.037 A 
ATOM     29  C   UNL     1       7.421   9.505  -3.810  1.00  0.00     0.049 A 
ATOM     30  C   UNL     1       5.740   6.444  -8.568  1.00  0.00     0.074 A 
ATOM     31  C   UNL     1       7.936  10.744  -4.107  1.00  0.00     0.029 A 
ATOM     32  N   UNL     1       7.069   8.904  -5.026  1.00  0.00    -0.354 N 
ATOM     33  N   UNL     1       6.091   7.210  -7.552  1.00  0.00    -0.248 NA
ATOM     34  C   UNL     1       5.955   7.040  -9.881  1.00  0.00     0.031 C 
ATOM     35  C   UNL     1       7.858  10.902  -5.498  1.00  0.00     0.029 A 
ATOM     36  C   UNL     1       7.352   9.740  -6.079  1.00  0.00     0.049 A 
ATOM     37  H   UNL     1       6.673   8.007  -5.113  1.00  0.00     0.167 HD
ATOM     38  C   UNL     1       6.634   8.358  -8.096  1.00  0.00     0.074 A 
ATOM     39  C   UNL     1       6.532   8.187  -9.543  1.00  0.00     0.031 C 
ATOM     40  C   UNL     1       7.189   9.441  -7.489  1.00  0.00     0.037 A 
BRANCH  27  41
ATOM     41  C   UNL     1       7.503   9.518  -1.216  1.00  0.00     0.057 A 
ATOM     42  C   UNL     1       8.411   8.974  -0.287  1.00  0.00     0.134 A 
ATOM     43  C   UNL     1       6.743  10.611  -0.789  1.00  0.00     0.134 A 
ATOM     44  F   UNL     1       9.146   7.896  -0.604  1.00  0.00    -0.206 F 
ATOM     45  C   UNL     1       8.502   9.448   1.025  1.00  0.00     0.040 A 
ATOM     46  C   UNL     1       6.855  11.120   0.509  1.00  0.00     0.040 A 
ATOM     47  F   UNL     1       5.839  11.173  -1.605  1.00  0.00    -0.206 F 
ATOM     48  C   UNL     1       7.721  10.527   1.426  1.00  0.00     0.006 A 
ENDBRANCH  27  41
BRANCH  28  49
ATOM     49  C   UNL     1       4.670   4.282  -9.683  1.00  0.00     0.057 A 
ATOM     50  C   UNL     1       5.543   3.710 -10.614  1.00  0.00     0.134 A 
ATOM     51  C   UNL     1       3.313   3.940  -9.786  1.00  0.00     0.134 A 
ATOM     52  F   UNL     1       6.857   3.969 -10.550  1.00  0.00    -0.206 F 
ATOM     53  C   UNL     1       5.092   2.835 -11.607  1.00  0.00     0.040 A 
ATOM     54  C   UNL     1       2.849   3.058 -10.767  1.00  0.00     0.040 A 
ATOM     55  F   UNL     1       2.427   4.410  -8.895  1.00  0.00    -0.206 F 
ATOM     56  C   UNL     1       3.741   2.501 -11.681  1.00  0.00     0.006 A 
ENDBRANCH  28  49
BRANCH  40  57
ATOM     57  C   UNL     1       7.746  10.472  -8.408  1.00  0.00     0.057 A 
ATOM     58  C   UNL     1       6.915  11.367  -9.085  1.00  0.00     0.134 A 
ATOM     59  C   UNL     1       9.133  10.634  -8.510  1.00  0.00     0.134 A 
ATOM     60  F   UNL     1       5.580  11.239  -9.020  1.00  0.00    -0.206 F 
ATOM     61  C   UNL     1       7.449  12.399  -9.846  1.00  0.00     0.040 A 
ATOM     62  C   UNL     1       9.677  11.683  -9.241  1.00  0.00     0.040 A 
ATOM     63  F   UNL     1       9.967   9.806  -7.862  1.00  0.00    -0.206 F 
ATOM     64  C   UNL     1       8.833  12.567  -9.912  1.00  0.00     0.006 A 
ENDBRANCH  40  57
ENDBRANCH  14  15
ENDBRANCH   7   9
ENDBRANCH   6   7
ENDBRANCH   5   6
ENDBRANCH   4   5
ENDBRANCH   3   4
ENDBRANCH   2   3
ENDBRANCH   1   2
BRANCH   1  65
ATOM     65  O   UNL     1       2.014  -5.041  -2.240  1.00  0.00    -0.376 OA
BRANCH  65  66
ATOM     66  C   UNL     1       3.413  -4.765  -2.176  1.00  0.00     0.202 C 
BRANCH  66  67
ATOM     67  C   UNL     1       4.069  -3.841  -3.217  1.00  0.00     0.261 C 
BRANCH  67  68
ATOM     68  O   UNL     1       3.577  -2.491  -3.265  1.00  0.00    -0.459 OA
BRANCH  68  69
ATOM     69  C   UNL     1       2.710  -2.243  -4.274  1.00  0.00     0.365 C 
ATOM     70  O   UNL     1       2.355  -3.092  -5.090  1.00  0.00    -0.245 OA
BRANCH  69  71
ATOM     71  C   UNL     1       2.243  -0.798  -4.373  1.00  0.00     0.301 C 
ATOM     72  N   UNL     1       0.760  -0.676  -4.425  1.00  0.00    -0.334 N 
ATOM     73  C   UNL     1       2.671   0.373  -3.488  1.00  0.00     0.095 C 
ATOM     74  C   UNL     1       0.519   0.762  -4.586  1.00  0.00     0.262 C 
ATOM     75  H   UNL     1       0.339  -1.018  -3.562  1.00  0.00     0.347 HD
ATOM     76  H   UNL     1       0.351  -1.226  -5.181  1.00  0.00     0.347 HD
ATOM     77  C   UNL     1       1.800   1.467  -4.149  1.00  0.00     0.076 C 
BRANCH  73  78
ATOM     78  C   UNL     1       2.617   0.380  -1.938  1.00  0.00    -0.034 A 
ATOM     79  C   UNL     1       1.537   1.560  -1.051  1.00  0.00     0.004 A 
ATOM     80  C   UNL     1       4.115  -0.245  -1.110  1.00  0.00     0.051 A 
ATOM     81  C   UNL     1       2.036   2.180   0.612  1.00  0.00     0.004 A 
ATOM     82  C   UNL     1       4.668   0.443   0.502  1.00  0.00     0.127 A 
ATOM     83  C   UNL     1       3.634   1.701   1.333  1.00  0.00     0.047 A 
BRANCH  82  84
ATOM     84  O   UNL     1       5.873   0.109   1.109  1.00  0.00    -0.457 OA
BRANCH  84  85
ATOM     85  C   UNL     1       6.478  -1.042   0.662  1.00  0.00     0.127 A 
ATOM     86  C   UNL     1       6.388  -2.181   1.462  1.00  0.00     0.047 A 
ATOM     87  C   UNL     1       7.179  -1.098  -0.546  1.00  0.00     0.047 A 
ATOM     88  C   UNL     1       6.849  -3.407   0.977  1.00  0.00     0.004 A 
ATOM     89  C   UNL     1       7.632  -2.324  -1.034  1.00  0.00     0.004 A 
ATOM     90  C   UNL     1       7.442  -3.483  -0.284  1.00  0.00     0.000 A 
ENDBRANCH  84  85
ENDBRANCH  82  84
ENDBRANCH  73  78
ENDBRANCH  69  71
ENDBRANCH  68  69
ENDBRANCH  67  68
ENDBRANCH  66  67
ENDBRANCH  65  66
ENDBRANCH   1  65
TORSDOF 20
