REMARK SMILES NS(=O)(=O)c1ccc(C#Cc2cc(Cl)cc3c2O[C@H](C(F)(F)F)C(C(=O)OCCOCCOCCOC(=O)c2ccc(-c4c5nc(c(-c6c(F)cccc6F)c6ccc([nH]6)c(-c6c(F)cccc6F)c6nc(c(-c7c(F)cccc7F)c7ccc4[nH]7)C=C6)C=C5)cc2)=C3)cc1
REMARK SMILES IDX 31 1 30 2 29 3 28 4 27 5 25 6 26 7 24 8 11 9 12 10 17 11
REMARK SMILES IDX 13 12 16 13 18 14 14 15 15 16 93 17 19 18 10 19 9 20 8 21
REMARK SMILES IDX 5 22 6 23 95 24 7 25 94 26 2 27 3 28 4 29 1 30 20 33 21 34
REMARK SMILES IDX 22 35 23 36 32 37 33 38 34 39 35 40 36 41 37 42 38 43 39 44
REMARK SMILES IDX 40 45 92 46 41 47 91 48 42 49 43 50 44 51 85 52 45 53 90 54
REMARK SMILES IDX 84 55 86 56 46 57 89 58 83 59 82 60 47 62 73 63 56 64 72 65
REMARK SMILES IDX 57 66 60 67 71 68 87 69 58 70 59 71 70 73 88 74 61 75 48 76
REMARK SMILES IDX 49 77 54 78 50 79 51 80 53 81 55 82 52 83 74 84 75 85 80 86
REMARK SMILES IDX 76 87 77 88 79 89 81 90 78 91 62 92 63 93 68 94 64 95 65 96
REMARK SMILES IDX 67 97 69 98 66 99
REMARK H PARENT 1 31 1 32 86 61 60 72
REMARK Flexibility Score: inf
ROOT
ATOM      1  C   UNL     1       8.077  -9.751   9.566  1.00  0.00     0.188 C 
ENDROOT
BRANCH   1   2
ATOM      2  O   UNL     1       9.333  -9.684  10.200  1.00  0.00    -0.376 OA
BRANCH   2   3
ATOM      3  C   UNL     1      10.334  -8.792   9.741  1.00  0.00     0.202 C 
BRANCH   3   4
ATOM      4  C   UNL     1      10.338  -8.079   8.374  1.00  0.00     0.261 C 
BRANCH   4   5
ATOM      5  O   UNL     1       9.074  -7.838   7.745  1.00  0.00    -0.460 OA
BRANCH   5   6
ATOM      6  C   UNL     1       8.798  -8.611   6.667  1.00  0.00     0.338 C 
ATOM      7  O   UNL     1       9.514  -9.475   6.189  1.00  0.00    -0.246 OA
BRANCH   6   8
ATOM      8  C   UNL     1       7.401  -8.385   6.236  1.00  0.00     0.087 C 
ATOM      9  C   UNL     1       3.577  -7.839   4.620  1.00  0.00     0.069 A 
ATOM     10  C   UNL     1       2.832  -8.964   4.246  1.00  0.00     0.041 A 
ATOM     11  C   UNL     1       4.823  -8.001   5.252  1.00  0.00     0.143 A 
ATOM     12  C   UNL     1       3.313 -10.240   4.521  1.00  0.00     0.043 A 
ATOM     13  C   UNL     1       5.316  -9.292   5.487  1.00  0.00     0.020 A 
ATOM     14  O   UNL     1       5.512  -6.874   5.611  1.00  0.00    -0.474 OA
ATOM     15  Cl  UNL     1       2.399 -11.618   4.049  1.00  0.00    -0.084 Cl
ATOM     16  C   UNL     1       4.546 -10.410   5.144  1.00  0.00     0.032 A 
ATOM     17  C   UNL     1       6.660  -9.477   6.007  1.00  0.00     0.027 C 
ATOM     18  C   UNL     1       6.887  -6.981   6.075  1.00  0.00     0.316 C 
BRANCH   9  19
ATOM     19  C   UNL     1       3.055  -6.549   4.276  1.00  0.00    -0.058 C 
ATOM     20  C   UNL     1       2.597  -5.493   3.918  1.00  0.00    -0.062 C 
BRANCH  20  21
ATOM     21  C   UNL     1       2.080  -4.245   3.449  1.00  0.00     0.025 A 
ATOM     22  C   UNL     1       1.146  -1.806   2.464  1.00  0.00     0.082 A 
ATOM     23  C   UNL     1       2.280  -1.837   3.280  1.00  0.00     0.023 A 
ATOM     24  C   UNL     1       0.454  -2.983   2.162  1.00  0.00     0.023 A 
ATOM     25  C   UNL     1       2.748  -3.059   3.767  1.00  0.00     0.018 A 
ATOM     26  C   UNL     1       0.929  -4.205   2.653  1.00  0.00     0.018 A 
BRANCH  22  27
ATOM     27  S   UNL     1       0.569  -0.255   1.839  1.00  0.00     0.238 S 
ATOM     28  O   UNL     1       1.219   0.820   2.551  1.00  0.00    -0.207 OA
ATOM     29  O   UNL     1      -0.864  -0.316   1.665  1.00  0.00    -0.207 OA
BRANCH  27  30
ATOM     30  N   UNL     1       1.227  -0.239   0.294  1.00  0.00    -0.225 NA
ATOM     31  H   UNL     1       0.961   0.624  -0.180  1.00  0.00     0.137 HD
ATOM     32  H   UNL     1       0.877  -1.039  -0.233  1.00  0.00     0.137 HD
ENDBRANCH  27  30
ENDBRANCH  22  27
ENDBRANCH  20  21
ENDBRANCH   9  19
BRANCH  18  33
ATOM     33  C   UNL     1       7.780  -6.156   5.139  1.00  0.00     0.430 C 
ATOM     34  F   UNL     1       7.276  -4.916   4.938  1.00  0.00    -0.167 F 
ATOM     35  F   UNL     1       9.024  -5.994   5.648  1.00  0.00    -0.167 F 
ATOM     36  F   UNL     1       7.912  -6.745   3.928  1.00  0.00    -0.167 F 
ENDBRANCH  18  33
ENDBRANCH   6   8
ENDBRANCH   5   6
ENDBRANCH   4   5
ENDBRANCH   3   4
ENDBRANCH   2   3
ENDBRANCH   1   2
BRANCH   1  37
ATOM     37  C   UNL     1       7.104  -8.566   9.729  1.00  0.00     0.188 C 
BRANCH  37  38
ATOM     38  O   UNL     1       7.588  -7.357  10.265  1.00  0.00    -0.376 OA
BRANCH  38  39
ATOM     39  C   UNL     1       7.941  -7.285  11.637  1.00  0.00     0.202 C 
BRANCH  39  40
ATOM     40  C   UNL     1       7.486  -8.272  12.736  1.00  0.00     0.261 C 
BRANCH  40  41
ATOM     41  O   UNL     1       7.120  -9.601  12.350  1.00  0.00    -0.460 OA
BRANCH  41  42
ATOM     42  C   UNL     1       5.789  -9.876  12.326  1.00  0.00     0.338 C 
ATOM     43  O   UNL     1       4.872  -9.111  12.560  1.00  0.00    -0.246 OA
BRANCH  42  44
ATOM     44  C   UNL     1       5.614 -11.228  11.752  1.00  0.00     0.060 A 
ATOM     45  C   UNL     1       6.088 -12.342  12.441  1.00  0.00     0.016 A 
ATOM     46  C   UNL     1       5.010 -11.374  10.494  1.00  0.00     0.016 A 
ATOM     47  C   UNL     1       5.955 -13.609  11.867  1.00  0.00     0.010 A 
ATOM     48  C   UNL     1       4.899 -12.640   9.912  1.00  0.00     0.010 A 
ATOM     49  C   UNL     1       5.357 -13.771  10.603  1.00  0.00    -0.014 A 
BRANCH  49  50
ATOM     50  C   UNL     1       5.102 -15.137  10.079  1.00  0.00     0.031 A 
ATOM     51  C   UNL     1       5.931 -15.736   8.982  1.00  0.00     0.074 A 
ATOM     52  C   UNL     1       4.099 -15.850  10.626  1.00  0.00     0.049 A 
ATOM     53  N   UNL     1       5.872 -16.941   8.471  1.00  0.00    -0.248 NA
ATOM     54  C   UNL     1       6.955 -14.873   8.378  1.00  0.00     0.031 C 
ATOM     55  C   UNL     1       3.212 -15.370  11.687  1.00  0.00     0.029 A 
ATOM     56  N   UNL     1       3.665 -17.127  10.379  1.00  0.00    -0.354 N 
ATOM     57  C   UNL     1       6.865 -16.995   7.502  1.00  0.00     0.074 A 
ATOM     58  C   UNL     1       7.473 -15.679   7.460  1.00  0.00     0.031 C 
ATOM     59  C   UNL     1       2.361 -16.351  12.022  1.00  0.00     0.029 A 
ATOM     60  C   UNL     1       2.614 -17.512  11.174  1.00  0.00     0.049 A 
ATOM     61  H   UNL     1       4.069 -17.711   9.697  1.00  0.00     0.167 HD
ATOM     62  C   UNL     1       7.244 -18.047   6.733  1.00  0.00     0.037 A 
ATOM     63  C   UNL     1       1.925 -18.668  11.212  1.00  0.00     0.037 A 
ATOM     64  C   UNL     1       6.612 -19.345   6.755  1.00  0.00     0.049 A 
ATOM     65  C   UNL     1       2.311 -19.787  10.283  1.00  0.00     0.074 A 
ATOM     66  C   UNL     1       6.937 -20.476   6.024  1.00  0.00     0.029 A 
ATOM     67  N   UNL     1       5.511 -19.681   7.530  1.00  0.00    -0.354 N 
ATOM     68  N   UNL     1       3.293 -19.845   9.417  1.00  0.00    -0.248 NA
ATOM     69  C   UNL     1       1.491 -21.005  10.343  1.00  0.00     0.031 C 
ATOM     70  C   UNL     1       5.993 -21.470   6.303  1.00  0.00     0.029 A 
ATOM     71  C   UNL     1       5.125 -20.988   7.269  1.00  0.00     0.049 A 
ATOM     72  H   UNL     1       5.069 -19.079   8.172  1.00  0.00     0.167 HD
ATOM     73  C   UNL     1       3.233 -21.117   8.859  1.00  0.00     0.074 A 
ATOM     74  C   UNL     1       2.127 -21.800   9.496  1.00  0.00     0.031 C 
ATOM     75  C   UNL     1       4.026 -21.668   7.908  1.00  0.00     0.037 A 
BRANCH  62  76
ATOM     76  C   UNL     1       8.389 -17.832   5.782  1.00  0.00     0.057 A 
ATOM     77  C   UNL     1       8.190 -17.870   4.395  1.00  0.00     0.134 A 
ATOM     78  C   UNL     1       9.699 -17.623   6.236  1.00  0.00     0.134 A 
ATOM     79  F   UNL     1       6.967 -18.086   3.887  1.00  0.00    -0.206 F 
ATOM     80  C   UNL     1       9.246 -17.698   3.498  1.00  0.00     0.040 A 
ATOM     81  C   UNL     1      10.758 -17.416   5.349  1.00  0.00     0.040 A 
ATOM     82  F   UNL     1       9.964 -17.579   7.551  1.00  0.00    -0.206 F 
ATOM     83  C   UNL     1      10.533 -17.457   3.975  1.00  0.00     0.006 A 
ENDBRANCH  62  76
BRANCH  63  84
ATOM     84  C   UNL     1       0.793 -18.834  12.160  1.00  0.00     0.057 A 
ATOM     85  C   UNL     1      -0.388 -18.096  12.020  1.00  0.00     0.134 A 
ATOM     86  C   UNL     1       0.847 -19.773  13.197  1.00  0.00     0.134 A 
ATOM     87  F   UNL     1      -0.501 -17.173  11.053  1.00  0.00    -0.206 F 
ATOM     88  C   UNL     1      -1.476 -18.287  12.871  1.00  0.00     0.040 A 
ATOM     89  C   UNL     1      -0.247 -20.000  14.034  1.00  0.00     0.040 A 
ATOM     90  F   UNL     1       1.945 -20.523  13.374  1.00  0.00    -0.206 F 
ATOM     91  C   UNL     1      -1.412 -19.254  13.873  1.00  0.00     0.006 A 
ENDBRANCH  63  84
BRANCH  75  92
ATOM     92  C   UNL     1       3.763 -23.102   7.537  1.00  0.00     0.057 A 
ATOM     93  C   UNL     1       4.695 -24.100   7.859  1.00  0.00     0.134 A 
ATOM     94  C   UNL     1       2.608 -23.502   6.852  1.00  0.00     0.134 A 
ATOM     95  F   UNL     1       5.829 -23.791   8.506  1.00  0.00    -0.206 F 
ATOM     96  C   UNL     1       4.487 -25.436   7.514  1.00  0.00     0.040 A 
ATOM     97  C   UNL     1       2.372 -24.841   6.534  1.00  0.00     0.040 A 
ATOM     98  F   UNL     1       1.667 -22.604   6.524  1.00  0.00    -0.206 F 
ATOM     99  C   UNL     1       3.318 -25.812   6.859  1.00  0.00     0.006 A 
ENDBRANCH  75  92
ENDBRANCH  49  50
ENDBRANCH  42  44
ENDBRANCH  41  42
ENDBRANCH  40  41
ENDBRANCH  39  40
ENDBRANCH  38  39
ENDBRANCH  37  38
ENDBRANCH   1  37
TORSDOF 22
