REMARK SMILES Cc1ccc(S(=O)(=O)Nc2ccc(N3CCNC3=O)cc2)cc1C(=O)OCCOCCOCCOC(=O)c1ccc(-c2c3nc(c(-c4c(F)cccc4F)c4ccc([nH]4)c(-c4c(F)cccc4F)c4nc(c(-c5c(F)cccc5F)c5ccc2[nH]5)C=C4)C=C3)cc1
REMARK SMILES IDX 30 1 29 2 28 3 27 4 26 5 24 6 25 7 23 8 1 9 2 10 3 11 4 12
REMARK SMILES IDX 22 13 5 14 6 15 7 16 8 17 9 18 10 20 11 21 21 22 12 23 20 24
REMARK SMILES IDX 13 25 14 26 15 27 18 28 16 29 17 30 19 31 31 33 32 34 33 35
REMARK SMILES IDX 34 36 35 37 36 38 37 39 38 40 39 41 91 42 40 43 90 44 41 45
REMARK SMILES IDX 42 46 43 47 84 48 44 49 89 50 83 51 85 52 45 53 88 54 82 55
REMARK SMILES IDX 81 56 46 58 72 59 55 60 71 61 56 62 59 63 70 64 86 65 57 66
REMARK SMILES IDX 58 67 69 69 87 70 60 71 47 72 48 73 53 74 49 75 50 76 52 77
REMARK SMILES IDX 54 78 51 79 73 80 74 81 79 82 75 83 76 84 78 85 80 86 77 87
REMARK SMILES IDX 61 88 62 89 67 90 63 91 64 92 66 93 68 94 65 95
REMARK H PARENT 9 19 17 32 85 57 59 68
REMARK Flexibility Score: inf
ROOT
ATOM      1  C   UNL     1       2.910   5.222  -1.944  1.00  0.00     0.188 C 
ENDROOT
BRANCH   1   2
ATOM      2  O   UNL     1       4.177   4.624  -1.714  1.00  0.00    -0.376 OA
BRANCH   2   3
ATOM      3  C   UNL     1       4.350   4.076  -0.426  1.00  0.00     0.202 C 
BRANCH   3   4
ATOM      4  C   UNL     1       4.078   2.526   0.116  1.00  0.00     0.261 C 
BRANCH   4   5
ATOM      5  O   UNL     1       2.747   1.247   0.075  1.00  0.00    -0.460 OA
BRANCH   5   6
ATOM      6  C   UNL     1       1.417   0.747   0.741  1.00  0.00     0.338 C 
ATOM      7  O   UNL     1       0.831   1.221   1.725  1.00  0.00    -0.246 OA
BRANCH   6   8
ATOM      8  C   UNL     1       0.409  -0.196   0.228  1.00  0.00     0.064 A 
ATOM      9  C   UNL     1       2.205  -1.615  -0.760  1.00  0.00     0.045 C 
ATOM     10  C   UNL     1       0.779  -1.354  -0.404  1.00  0.00    -0.036 A 
ATOM     11  C   UNL     1      -0.251  -2.271  -0.638  1.00  0.00     0.006 A 
ATOM     12  C   UNL     1      -1.624  -1.940  -0.446  1.00  0.00     0.022 A 
ATOM     13  C   UNL     1      -1.004   0.106   0.519  1.00  0.00     0.038 A 
ATOM     14  C   UNL     1      -2.019  -0.689   0.047  1.00  0.00     0.088 A 
BRANCH  14  15
ATOM     15  S   UNL     1      -3.740  -0.162  -0.130  1.00  0.00     0.261 S 
ATOM     16  O   UNL     1      -4.019  -0.225  -1.550  1.00  0.00    -0.201 OA
ATOM     17  O   UNL     1      -4.473  -1.014   0.791  1.00  0.00    -0.201 OA
BRANCH  15  18
ATOM     18  N   UNL     1      -4.107   1.413   0.415  1.00  0.00    -0.280 N 
ATOM     19  H   UNL     1      -4.478   1.449   1.326  1.00  0.00     0.180 HD
BRANCH  18  20
ATOM     20  C   UNL     1      -3.970   2.708  -0.223  1.00  0.00     0.049 A 
ATOM     21  C   UNL     1      -4.258   3.878   0.495  1.00  0.00     0.029 A 
ATOM     22  C   UNL     1      -3.658   2.953  -1.527  1.00  0.00     0.029 A 
ATOM     23  C   UNL     1      -3.856   5.228   0.076  1.00  0.00     0.028 A 
ATOM     24  C   UNL     1      -3.295   4.291  -1.940  1.00  0.00     0.028 A 
ATOM     25  C   UNL     1      -2.915   5.549  -1.042  1.00  0.00     0.046 A 
BRANCH  25  26
ATOM     26  N   UNL     1      -1.255   6.742  -1.081  1.00  0.00    -0.293 N 
ATOM     27  C   UNL     1       0.326   6.554  -0.973  1.00  0.00     0.149 C 
ATOM     28  C   UNL     1      -0.811   8.129  -2.042  1.00  0.00     0.321 C 
ATOM     29  C   UNL     1       1.053   7.835  -0.652  1.00  0.00     0.139 C 
ATOM     30  N   UNL     1       0.392   8.662  -1.552  1.00  0.00    -0.336 N 
ATOM     31  O   UNL     1      -1.239   8.616  -3.082  1.00  0.00    -0.248 OA
ATOM     32  H   UNL     1       0.736   9.544  -1.822  1.00  0.00     0.165 HD
ENDBRANCH  25  26
ENDBRANCH  18  20
ENDBRANCH  15  18
ENDBRANCH  14  15
ENDBRANCH   6   8
ENDBRANCH   5   6
ENDBRANCH   4   5
ENDBRANCH   3   4
ENDBRANCH   2   3
ENDBRANCH   1   2
BRANCH   1  33
ATOM     33  C   UNL     1       2.345   4.723  -3.245  1.00  0.00     0.188 C 
BRANCH  33  34
ATOM     34  O   UNL     1       3.220   3.679  -3.606  1.00  0.00    -0.376 OA
BRANCH  34  35
ATOM     35  C   UNL     1       3.902   3.838  -4.805  1.00  0.00     0.202 C 
BRANCH  35  36
ATOM     36  C   UNL     1       2.825   3.633  -5.865  1.00  0.00     0.261 C 
BRANCH  36  37
ATOM     37  O   UNL     1       2.079   2.386  -5.511  1.00  0.00    -0.460 OA
BRANCH  37  38
ATOM     38  C   UNL     1       0.812   2.432  -4.939  1.00  0.00     0.338 C 
ATOM     39  O   UNL     1      -0.108   3.093  -5.399  1.00  0.00    -0.246 OA
BRANCH  38  40
ATOM     40  C   UNL     1       0.730   1.771  -3.530  1.00  0.00     0.060 A 
ATOM     41  C   UNL     1      -0.280   1.931  -2.579  1.00  0.00     0.016 A 
ATOM     42  C   UNL     1       1.906   1.606  -2.908  1.00  0.00     0.016 A 
ATOM     43  C   UNL     1      -0.011   2.383  -1.124  1.00  0.00     0.010 A 
ATOM     44  C   UNL     1       2.100   2.340  -1.673  1.00  0.00     0.010 A 
ATOM     45  C   UNL     1       1.240   2.828  -0.591  1.00  0.00    -0.014 A 
BRANCH  45  46
ATOM     46  C   UNL     1       1.875   3.325   1.111  1.00  0.00     0.031 A 
ATOM     47  C   UNL     1       2.717   2.194   2.296  1.00  0.00     0.074 A 
ATOM     48  C   UNL     1       1.730   4.569   1.723  1.00  0.00     0.049 A 
ATOM     49  N   UNL     1       2.347   1.965   3.532  1.00  0.00    -0.248 NA
ATOM     50  C   UNL     1       3.741   0.930   2.013  1.00  0.00     0.031 C 
ATOM     51  C   UNL     1       2.233   5.381   2.821  1.00  0.00     0.029 A 
ATOM     52  N   UNL     1       0.751   5.422   1.381  1.00  0.00    -0.354 N 
ATOM     53  C   UNL     1       3.248   0.981   3.995  1.00  0.00     0.074 A 
ATOM     54  C   UNL     1       3.445   0.067   2.965  1.00  0.00     0.031 C 
ATOM     55  C   UNL     1       1.385   6.416   3.146  1.00  0.00     0.029 A 
ATOM     56  C   UNL     1       0.248   6.381   2.229  1.00  0.00     0.049 A 
ATOM     57  H   UNL     1       0.373   5.357   0.474  1.00  0.00     0.167 HD
ATOM     58  C   UNL     1       4.262   1.347   4.840  1.00  0.00     0.037 A 
ATOM     59  C   UNL     1      -1.126   6.520   2.335  1.00  0.00     0.037 A 
ATOM     60  C   UNL     1       3.864   2.625   5.394  1.00  0.00     0.049 A 
ATOM     61  C   UNL     1      -1.294   5.694   3.663  1.00  0.00     0.074 A 
ATOM     62  C   UNL     1       4.206   3.945   5.207  1.00  0.00     0.029 A 
ATOM     63  N   UNL     1       2.564   2.642   5.865  1.00  0.00    -0.354 N 
ATOM     64  N   UNL     1      -0.493   4.685   3.971  1.00  0.00    -0.248 NA
ATOM     65  C   UNL     1      -2.040   6.171   4.841  1.00  0.00     0.031 C 
ATOM     66  C   UNL     1       3.031   4.725   5.561  1.00  0.00     0.029 A 
ATOM     67  C   UNL     1       1.953   3.869   5.784  1.00  0.00     0.049 A 
ATOM     68  H   UNL     1       2.116   1.844   6.227  1.00  0.00     0.167 HD
ATOM     69  C   UNL     1      -0.412   4.573   5.339  1.00  0.00     0.074 A 
ATOM     70  C   UNL     1      -1.447   5.478   5.831  1.00  0.00     0.031 C 
ATOM     71  C   UNL     1       0.515   3.898   6.098  1.00  0.00     0.037 A 
BRANCH  58  72
ATOM     72  C   UNL     1       5.618   0.641   4.994  1.00  0.00     0.057 A 
ATOM     73  C   UNL     1       6.407   1.011   6.091  1.00  0.00     0.134 A 
ATOM     74  C   UNL     1       6.234  -0.355   4.175  1.00  0.00     0.134 A 
ATOM     75  F   UNL     1       5.992   1.960   6.939  1.00  0.00    -0.206 F 
ATOM     76  C   UNL     1       7.653   0.427   6.381  1.00  0.00     0.040 A 
ATOM     77  C   UNL     1       7.464  -0.969   4.474  1.00  0.00     0.040 A 
ATOM     78  F   UNL     1       5.737  -0.782   3.008  1.00  0.00    -0.206 F 
ATOM     79  C   UNL     1       8.179  -0.581   5.587  1.00  0.00     0.006 A 
ENDBRANCH  58  72
BRANCH  59  80
ATOM     80  C   UNL     1      -1.887   6.346   0.879  1.00  0.00     0.057 A 
ATOM     81  C   UNL     1      -2.797   7.565  -0.135  1.00  0.00     0.134 A 
ATOM     82  C   UNL     1      -1.260   4.936  -0.042  1.00  0.00     0.134 A 
ATOM     83  F   UNL     1      -3.148   8.745   0.398  1.00  0.00    -0.206 F 
ATOM     84  C   UNL     1      -2.978   7.393  -1.962  1.00  0.00     0.040 A 
ATOM     85  C   UNL     1      -1.107   4.878  -1.858  1.00  0.00     0.040 A 
ATOM     86  F   UNL     1      -1.041   3.855   0.733  1.00  0.00    -0.206 F 
ATOM     87  C   UNL     1      -1.987   6.120  -2.852  1.00  0.00     0.006 A 
ENDBRANCH  59  80
BRANCH  71  88
ATOM     88  C   UNL     1      -0.001   3.094   7.291  1.00  0.00     0.057 A 
ATOM     89  C   UNL     1      -1.369   2.892   7.528  1.00  0.00     0.134 A 
ATOM     90  C   UNL     1       0.844   2.401   8.193  1.00  0.00     0.134 A 
ATOM     91  F   UNL     1      -2.310   3.221   6.631  1.00  0.00    -0.206 F 
ATOM     92  C   UNL     1      -1.844   2.313   8.702  1.00  0.00     0.040 A 
ATOM     93  C   UNL     1       0.374   1.696   9.293  1.00  0.00     0.040 A 
ATOM     94  F   UNL     1       2.175   2.332   8.069  1.00  0.00    -0.206 F 
ATOM     95  C   UNL     1      -0.969   1.728   9.600  1.00  0.00     0.006 A 
ENDBRANCH  71  88
ENDBRANCH  45  46
ENDBRANCH  38  40
ENDBRANCH  37  38
ENDBRANCH  36  37
ENDBRANCH  35  36
ENDBRANCH  34  35
ENDBRANCH  33  34
ENDBRANCH   1  33
TORSDOF 21
