REMARK SMILES Cn1ncc(C(=O)OCCOCCOCCOC(=O)c2ccc(-c3c4nc(c(-c5c(F)cccc5F)c5ccc([nH]5)c(-c5c(F)cccc5F)c5nc(c(-c6c(F)cccc6F)c6ccc3[nH]6)C=C5)C=C4)cc2)c1NS(=O)(=O)[C@@H]1CCS(=O)(=O)C1
REMARK SMILES IDX 12 1 11 2 10 3 9 4 8 5 6 6 7 7 5 8 1 9 2 10 3 11 74 12 4 13
REMARK SMILES IDX 75 14 76 16 77 17 78 18 79 19 80 20 85 21 81 22 82 23 83 24
REMARK SMILES IDX 84 25 13 26 14 27 15 28 16 29 17 30 18 31 19 32 20 33 21 34
REMARK SMILES IDX 73 35 22 36 72 37 23 38 24 39 25 40 66 41 26 42 71 43 65 44
REMARK SMILES IDX 67 45 27 46 70 47 64 48 63 49 28 51 54 52 37 53 53 54 38 55
REMARK SMILES IDX 41 56 52 57 68 58 39 59 40 60 51 62 69 63 42 64 29 65 30 66
REMARK SMILES IDX 35 67 31 68 32 69 34 70 36 71 33 72 55 73 56 74 61 75 57 76
REMARK SMILES IDX 58 77 60 78 62 79 59 80 43 81 44 82 49 83 45 84 46 85 48 86
REMARK SMILES IDX 50 87 47 88
REMARK H PARENT 75 15 67 50 41 61
REMARK Flexibility Score: inf
ROOT
ATOM      1  C   UNL     1       4.116  -0.864  -1.565  1.00  0.00     0.188 C 
ENDROOT
BRANCH   1   2
ATOM      2  O   UNL     1       5.383  -1.352  -1.136  1.00  0.00    -0.376 OA
BRANCH   2   3
ATOM      3  C   UNL     1       5.367  -2.561  -0.376  1.00  0.00     0.202 C 
BRANCH   3   4
ATOM      4  C   UNL     1       4.766  -2.358   1.025  1.00  0.00     0.261 C 
BRANCH   4   5
ATOM      5  O   UNL     1       3.333  -2.201   0.897  1.00  0.00    -0.460 OA
BRANCH   5   6
ATOM      6  C   UNL     1       2.705  -1.313   1.710  1.00  0.00     0.343 C 
ATOM      7  O   UNL     1       3.210  -0.811   2.692  1.00  0.00    -0.246 OA
BRANCH   6   8
ATOM      8  C   UNL     1       1.471  -0.820   1.118  1.00  0.00     0.123 A 
ATOM      9  C   UNL     1      -1.884  -0.106  -0.052  1.00  0.00     0.176 C 
ATOM     10  N   UNL     1      -0.488  -0.218   0.315  1.00  0.00    -0.251 N 
ATOM     11  N   UNL     1       0.242   0.897   0.221  1.00  0.00    -0.179 NA
ATOM     12  C   UNL     1       0.223  -1.337   0.759  1.00  0.00     0.152 A 
ATOM     13  C   UNL     1       1.404   0.556   0.756  1.00  0.00     0.153 A 
BRANCH  12  14
ATOM     14  N   UNL     1      -0.402  -2.587   0.786  1.00  0.00    -0.267 N 
ATOM     15  H   UNL     1      -1.365  -2.514   0.592  1.00  0.00     0.181 HD
BRANCH  14  16
ATOM     16  S   UNL     1       0.035  -4.126   1.052  1.00  0.00     0.237 S 
ATOM     17  O   UNL     1       0.094  -4.355   2.479  1.00  0.00    -0.206 OA
ATOM     18  O   UNL     1      -0.863  -4.929   0.246  1.00  0.00    -0.206 OA
BRANCH  16  19
ATOM     19  C   UNL     1       1.634  -4.462   0.425  1.00  0.00     0.145 C 
ATOM     20  C   UNL     1       1.831  -4.011  -1.020  1.00  0.00     0.039 C 
ATOM     21  C   UNL     1       2.049  -5.919   0.567  1.00  0.00     0.158 C 
ATOM     22  C   UNL     1       1.526  -5.179  -1.939  1.00  0.00     0.138 C 
ATOM     23  S   UNL     1       2.139  -6.599  -1.069  1.00  0.00     0.151 S 
ATOM     24  O   UNL     1       1.183  -7.675  -1.182  1.00  0.00    -0.229 OA
ATOM     25  O   UNL     1       3.541  -6.751  -1.397  1.00  0.00    -0.229 OA
ENDBRANCH  16  19
ENDBRANCH  14  16
ENDBRANCH  12  14
ENDBRANCH   6   8
ENDBRANCH   5   6
ENDBRANCH   4   5
ENDBRANCH   3   4
ENDBRANCH   2   3
ENDBRANCH   1   2
BRANCH   1  26
ATOM     26  C   UNL     1       3.832  -1.174  -3.017  1.00  0.00     0.188 C 
BRANCH  26  27
ATOM     27  O   UNL     1       3.550  -2.547  -3.286  1.00  0.00    -0.376 OA
BRANCH  27  28
ATOM     28  C   UNL     1       4.550  -3.178  -4.101  1.00  0.00     0.202 C 
BRANCH  28  29
ATOM     29  C   UNL     1       4.549  -2.769  -5.591  1.00  0.00     0.261 C 
BRANCH  29  30
ATOM     30  O   UNL     1       4.904  -1.383  -5.764  1.00  0.00    -0.460 OA
BRANCH  30  31
ATOM     31  C   UNL     1       3.877  -0.531  -6.023  1.00  0.00     0.338 C 
ATOM     32  O   UNL     1       2.747  -0.832  -6.367  1.00  0.00    -0.246 OA
BRANCH  31  33
ATOM     33  C   UNL     1       4.239   0.819  -5.509  1.00  0.00     0.060 A 
ATOM     34  C   UNL     1       3.234   1.556  -4.859  1.00  0.00     0.016 A 
ATOM     35  C   UNL     1       5.552   1.301  -5.534  1.00  0.00     0.016 A 
ATOM     36  C   UNL     1       3.529   2.777  -4.254  1.00  0.00     0.010 A 
ATOM     37  C   UNL     1       5.842   2.540  -4.956  1.00  0.00     0.010 A 
ATOM     38  C   UNL     1       4.825   3.296  -4.347  1.00  0.00    -0.014 A 
BRANCH  38  39
ATOM     39  C   UNL     1       5.046   4.742  -4.117  1.00  0.00     0.031 A 
ATOM     40  C   UNL     1       4.873   5.646  -5.307  1.00  0.00     0.074 A 
ATOM     41  C   UNL     1       5.402   5.238  -2.920  1.00  0.00     0.049 A 
ATOM     42  N   UNL     1       5.099   6.926  -5.423  1.00  0.00    -0.248 NA
ATOM     43  C   UNL     1       4.385   5.005  -6.542  1.00  0.00     0.031 C 
ATOM     44  C   UNL     1       5.563   4.467  -1.689  1.00  0.00     0.029 A 
ATOM     45  N   UNL     1       5.714   6.524  -2.555  1.00  0.00    -0.354 N 
ATOM     46  C   UNL     1       4.791   7.239  -6.742  1.00  0.00     0.074 A 
ATOM     47  C   UNL     1       4.387   6.015  -7.394  1.00  0.00     0.031 C 
ATOM     48  C   UNL     1       5.969   5.293  -0.707  1.00  0.00     0.029 A 
ATOM     49  C   UNL     1       6.125   6.643  -1.249  1.00  0.00     0.049 A 
ATOM     50  H   UNL     1       5.650   7.290  -3.170  1.00  0.00     0.167 HD
ATOM     51  C   UNL     1       4.840   8.440  -7.359  1.00  0.00     0.037 A 
ATOM     52  C   UNL     1       6.601   7.717  -0.588  1.00  0.00     0.037 A 
ATOM     53  C   UNL     1       5.265   9.649  -6.714  1.00  0.00     0.049 A 
ATOM     54  C   UNL     1       6.718   9.034  -1.316  1.00  0.00     0.074 A 
ATOM     55  C   UNL     1       5.354  10.924  -7.241  1.00  0.00     0.029 A 
ATOM     56  N   UNL     1       5.685   9.725  -5.395  1.00  0.00    -0.354 N 
ATOM     57  N   UNL     1       6.401   9.326  -2.555  1.00  0.00    -0.248 NA
ATOM     58  C   UNL     1       7.264  10.168  -0.555  1.00  0.00     0.031 C 
ATOM     59  C   UNL     1       5.869  11.765  -6.249  1.00  0.00     0.029 A 
ATOM     60  C   UNL     1       6.055  11.022  -5.093  1.00  0.00     0.049 A 
ATOM     61  H   UNL     1       5.715   8.967  -4.766  1.00  0.00     0.167 HD
ATOM     62  C   UNL     1       6.682  10.679  -2.714  1.00  0.00     0.074 A 
ATOM     63  C   UNL     1       7.184  11.152  -1.440  1.00  0.00     0.031 C 
ATOM     64  C   UNL     1       6.540  11.463  -3.811  1.00  0.00     0.037 A 
BRANCH  51  65
ATOM     65  C   UNL     1       4.456   8.480  -8.807  1.00  0.00     0.057 A 
ATOM     66  C   UNL     1       3.127   8.320  -9.223  1.00  0.00     0.134 A 
ATOM     67  C   UNL     1       5.428   8.664  -9.797  1.00  0.00     0.134 A 
ATOM     68  F   UNL     1       2.154   8.108  -8.324  1.00  0.00    -0.206 F 
ATOM     69  C   UNL     1       2.783   8.320 -10.576  1.00  0.00     0.040 A 
ATOM     70  C   UNL     1       5.092   8.691 -11.151  1.00  0.00     0.040 A 
ATOM     71  F   UNL     1       6.719   8.811  -9.466  1.00  0.00    -0.206 F 
ATOM     72  C   UNL     1       3.766   8.512 -11.544  1.00  0.00     0.006 A 
ENDBRANCH  51  65
BRANCH  52  73
ATOM     73  C   UNL     1       7.025   7.602   0.833  1.00  0.00     0.057 A 
ATOM     74  C   UNL     1       6.315   8.241   1.856  1.00  0.00     0.134 A 
ATOM     75  C   UNL     1       8.172   6.887   1.198  1.00  0.00     0.134 A 
ATOM     76  F   UNL     1       5.222   8.963   1.569  1.00  0.00    -0.206 F 
ATOM     77  C   UNL     1       6.737   8.188   3.187  1.00  0.00     0.040 A 
ATOM     78  C   UNL     1       8.594   6.805   2.527  1.00  0.00     0.040 A 
ATOM     79  F   UNL     1       8.900   6.253   0.266  1.00  0.00    -0.206 F 
ATOM     80  C   UNL     1       7.879   7.464   3.525  1.00  0.00     0.006 A 
ENDBRANCH  52  73
BRANCH  64  81
ATOM     81  C   UNL     1       6.895  12.914  -3.673  1.00  0.00     0.057 A 
ATOM     82  C   UNL     1       8.225  13.345  -3.602  1.00  0.00     0.134 A 
ATOM     83  C   UNL     1       5.893  13.893  -3.674  1.00  0.00     0.134 A 
ATOM     84  F   UNL     1       9.229  12.456  -3.587  1.00  0.00    -0.206 F 
ATOM     85  C   UNL     1       8.545  14.701  -3.519  1.00  0.00     0.040 A 
ATOM     86  C   UNL     1       6.202  15.252  -3.618  1.00  0.00     0.040 A 
ATOM     87  F   UNL     1       4.600  13.543  -3.753  1.00  0.00    -0.206 F 
ATOM     88  C   UNL     1       7.532  15.659  -3.535  1.00  0.00     0.006 A 
ENDBRANCH  64  81
ENDBRANCH  38  39
ENDBRANCH  31  33
ENDBRANCH  30  31
ENDBRANCH  29  30
ENDBRANCH  28  29
ENDBRANCH  27  28
ENDBRANCH  26  27
ENDBRANCH   1  26
TORSDOF 20
