REMARK SMILES N#Cc1cccnc1N1CC[NH+]([C@@H](C(=O)OCCOCCOCCOC(=O)c2ccc(-c3c4nc(c(-c5c(F)cccc5F)c5ccc([nH]5)c(-c5c(F)cccc5F)c5nc(c(-c6c(F)cccc6F)c6ccc3[nH]6)C=C5)C=C4)cc2)c2c[nH]c3cc(CO)ccc23)CC1
REMARK SMILES IDX 20 1 19 2 18 3 17 4 16 5 14 6 15 7 13 8 12 9 9 10 10 11
REMARK SMILES IDX 94 12 11 13 93 14 8 16 3 17 4 18 5 19 7 20 6 21 2 22 1 23
REMARK SMILES IDX 82 24 83 25 92 26 84 27 85 28 91 29 86 31 90 32 87 33 88 34
REMARK SMILES IDX 89 35 21 37 22 38 23 39 24 40 25 41 26 42 27 43 28 44 29 45
REMARK SMILES IDX 81 46 30 47 80 48 31 49 32 50 33 51 74 52 34 53 79 54 73 55
REMARK SMILES IDX 75 56 35 57 78 58 72 59 71 60 36 62 62 63 45 64 61 65 46 66
REMARK SMILES IDX 49 67 60 68 76 69 47 70 48 71 59 73 77 74 50 75 37 76 38 77
REMARK SMILES IDX 43 78 39 79 40 80 42 81 44 82 41 83 63 84 64 85 69 86 65 87
REMARK SMILES IDX 66 88 68 89 70 90 67 91 51 92 52 93 57 94 53 95 54 96 56 97
REMARK SMILES IDX 58 98 55 99
REMARK H PARENT 12 15 84 30 89 36 75 61 49 72
REMARK Flexibility Score: inf
ROOT
ATOM      1  C   UNL     1      -2.944  -5.135   1.336  1.00  0.00     0.188 C 
ENDROOT
BRANCH   1   2
ATOM      2  O   UNL     1      -3.381  -4.874   2.653  1.00  0.00    -0.376 OA
BRANCH   2   3
ATOM      3  C   UNL     1      -2.490  -4.107   3.461  1.00  0.00     0.202 C 
BRANCH   3   4
ATOM      4  C   UNL     1      -1.004  -4.532   3.510  1.00  0.00     0.261 C 
BRANCH   4   5
ATOM      5  O   UNL     1      -0.291  -4.447   2.245  1.00  0.00    -0.459 OA
BRANCH   5   6
ATOM      6  C   UNL     1       0.151  -5.596   1.659  1.00  0.00     0.370 C 
ATOM      7  O   UNL     1       0.032  -6.699   2.193  1.00  0.00    -0.245 OA
BRANCH   6   8
ATOM      8  C   UNL     1       0.787  -5.402   0.246  1.00  0.00     0.328 C 
BRANCH   8   9
ATOM      9  N   UNL     1       1.946  -4.411   0.111  1.00  0.00    -0.316 N 
ATOM     10  N   UNL     1       1.751  -1.433   0.050  1.00  0.00    -0.344 N 
ATOM     11  C   UNL     1       1.313  -2.294  -1.042  1.00  0.00     0.179 C 
ATOM     12  C   UNL     1       1.764  -2.119   1.365  1.00  0.00     0.179 C 
ATOM     13  C   UNL     1       2.220  -3.526  -1.023  1.00  0.00     0.285 C 
ATOM     14  C   UNL     1       2.321  -3.599   1.296  1.00  0.00     0.285 C 
ATOM     15  H   UNL     1       2.480  -5.259  -0.077  1.00  0.00     0.349 HD
BRANCH  10  16
ATOM     16  C   UNL     1       1.224  -0.142  -0.011  1.00  0.00     0.146 A 
ATOM     17  C   UNL     1       2.010   0.983   0.238  1.00  0.00     0.095 A 
ATOM     18  C   UNL     1       1.423   2.260   0.222  1.00  0.00     0.025 A 
ATOM     19  C   UNL     1       0.085   2.404  -0.101  1.00  0.00     0.022 A 
ATOM     20  N   UNL     1      -0.067   0.018  -0.383  1.00  0.00    -0.238 NA
ATOM     21  C   UNL     1      -0.595   1.263  -0.440  1.00  0.00     0.113 A 
BRANCH  17  22
ATOM     22  C   UNL     1       3.425   0.874   0.397  1.00  0.00     0.103 C 
ATOM     23  N   UNL     1       4.582   0.844   0.496  1.00  0.00    -0.192 NA
ENDBRANCH  17  22
ENDBRANCH  10  16
ENDBRANCH   8   9
BRANCH   8  24
ATOM     24  C   UNL     1      -0.131  -6.011  -1.016  1.00  0.00     0.046 A 
ATOM     25  C   UNL     1       0.589  -6.705  -1.989  1.00  0.00     0.094 A 
ATOM     26  C   UNL     1      -0.993  -5.387  -2.013  1.00  0.00     0.009 A 
ATOM     27  N   UNL     1       1.179  -5.614  -2.673  1.00  0.00    -0.361 N 
ATOM     28  C   UNL     1       0.212  -4.493  -2.748  1.00  0.00     0.046 A 
ATOM     29  C   UNL     1      -2.561  -5.554  -2.933  1.00  0.00     0.011 A 
ATOM     30  H   UNL     1       2.092  -5.602  -3.042  1.00  0.00     0.166 HD
ATOM     31  C   UNL     1      -0.016  -3.388  -4.118  1.00  0.00     0.032 A 
ATOM     32  C   UNL     1      -2.836  -4.404  -4.581  1.00  0.00     0.007 A 
ATOM     33  C   UNL     1      -1.502  -3.321  -5.064  1.00  0.00    -0.021 A 
BRANCH  33  34
ATOM     34  C   UNL     1      -1.717  -2.244  -6.072  1.00  0.00     0.191 C 
BRANCH  34  35
ATOM     35  O   UNL     1      -2.336  -1.136  -5.436  1.00  0.00    -0.392 OA
ATOM     36  H   UNL     1      -3.186  -1.412  -5.060  1.00  0.00     0.211 HD
ENDBRANCH  34  35
ENDBRANCH  33  34
ENDBRANCH   8  24
ENDBRANCH   6   8
ENDBRANCH   5   6
ENDBRANCH   4   5
ENDBRANCH   3   4
ENDBRANCH   2   3
ENDBRANCH   1   2
BRANCH   1  37
ATOM     37  C   UNL     1      -2.530  -3.925   0.510  1.00  0.00     0.188 C 
BRANCH  37  38
ATOM     38  O   UNL     1      -1.931  -2.808   1.143  1.00  0.00    -0.376 OA
BRANCH  38  39
ATOM     39  C   UNL     1      -2.473  -1.518   0.885  1.00  0.00     0.202 C 
BRANCH  39  40
ATOM     40  C   UNL     1      -3.025  -1.236  -0.515  1.00  0.00     0.261 C 
BRANCH  40  41
ATOM     41  O   UNL     1      -2.655  -2.273  -1.426  1.00  0.00    -0.460 OA
BRANCH  41  42
ATOM     42  C   UNL     1      -1.777  -2.311  -2.436  1.00  0.00     0.338 C 
ATOM     43  O   UNL     1      -1.139  -1.372  -2.862  1.00  0.00    -0.246 OA
BRANCH  42  44
ATOM     44  C   UNL     1      -2.048  -3.749  -3.022  1.00  0.00     0.060 A 
ATOM     45  C   UNL     1      -1.211  -5.199  -4.171  1.00  0.00     0.016 A 
ATOM     46  C   UNL     1      -3.874  -3.900  -2.827  1.00  0.00     0.016 A 
ATOM     47  C   UNL     1      -2.184  -6.470  -4.871  1.00  0.00     0.010 A 
ATOM     48  C   UNL     1      -4.716  -5.216  -3.627  1.00  0.00     0.010 A 
ATOM     49  C   UNL     1      -3.874  -6.397  -4.618  1.00  0.00    -0.014 A 
BRANCH  49  50
ATOM     50  C   UNL     1      -4.555  -7.318  -5.506  1.00  0.00     0.031 A 
ATOM     51  C   UNL     1      -4.527  -7.059  -6.984  1.00  0.00     0.074 A 
ATOM     52  C   UNL     1      -4.908  -8.468  -4.926  1.00  0.00     0.049 A 
ATOM     53  N   UNL     1      -5.051  -7.760  -7.948  1.00  0.00    -0.248 NA
ATOM     54  C   UNL     1      -3.775  -5.885  -7.470  1.00  0.00     0.031 C 
ATOM     55  C   UNL     1      -4.699  -8.800  -3.511  1.00  0.00     0.029 A 
ATOM     56  N   UNL     1      -5.501  -9.570  -5.448  1.00  0.00    -0.354 N 
ATOM     57  C   UNL     1      -4.705  -7.104  -9.128  1.00  0.00     0.074 A 
ATOM     58  C   UNL     1      -3.912  -5.960  -8.783  1.00  0.00     0.031 C 
ATOM     59  C   UNL     1      -5.241  -9.998  -3.260  1.00  0.00     0.029 A 
ATOM     60  C   UNL     1      -5.868 -10.470  -4.482  1.00  0.00     0.049 A 
ATOM     61  H   UNL     1      -5.650  -9.708  -6.411  1.00  0.00     0.167 HD
ATOM     62  C   UNL     1      -5.050  -7.449 -10.385  1.00  0.00     0.037 A 
ATOM     63  C   UNL     1      -6.707 -11.507  -4.597  1.00  0.00     0.037 A 
ATOM     64  C   UNL     1      -5.863  -8.605 -10.631  1.00  0.00     0.049 A 
ATOM     65  C   UNL     1      -7.227 -11.772  -5.979  1.00  0.00     0.074 A 
ATOM     66  C   UNL     1      -6.376  -9.075 -11.819  1.00  0.00     0.029 A 
ATOM     67  N   UNL     1      -6.288  -9.468  -9.624  1.00  0.00    -0.354 N 
ATOM     68  N   UNL     1      -6.977 -11.114  -7.091  1.00  0.00    -0.248 NA
ATOM     69  C   UNL     1      -8.126 -12.913  -6.137  1.00  0.00     0.031 C 
ATOM     70  C   UNL     1      -7.178 -10.179 -11.518  1.00  0.00     0.029 A 
ATOM     71  C   UNL     1      -7.089 -10.451 -10.156  1.00  0.00     0.049 A 
ATOM     72  H   UNL     1      -6.051  -9.386  -8.672  1.00  0.00     0.167 HD
ATOM     73  C   UNL     1      -7.642 -11.791  -8.095  1.00  0.00     0.074 A 
ATOM     74  C   UNL     1      -8.315 -12.907  -7.449  1.00  0.00     0.031 C 
ATOM     75  C   UNL     1      -7.693 -11.540  -9.427  1.00  0.00     0.037 A 
BRANCH  62  76
ATOM     76  C   UNL     1      -4.664  -6.538 -11.514  1.00  0.00     0.057 A 
ATOM     77  C   UNL     1      -3.345  -6.397 -11.968  1.00  0.00     0.134 A 
ATOM     78  C   UNL     1      -5.646  -5.780 -12.167  1.00  0.00     0.134 A 
ATOM     79  F   UNL     1      -2.344  -7.059 -11.368  1.00  0.00    -0.206 F 
ATOM     80  C   UNL     1      -3.021  -5.540 -13.026  1.00  0.00     0.040 A 
ATOM     81  C   UNL     1      -5.339  -4.938 -13.238  1.00  0.00     0.040 A 
ATOM     82  F   UNL     1      -6.927  -5.844 -11.771  1.00  0.00    -0.206 F 
ATOM     83  C   UNL     1      -4.022  -4.816 -13.671  1.00  0.00     0.006 A 
ENDBRANCH  62  76
BRANCH  63  84
ATOM     84  C   UNL     1      -7.132 -12.261  -3.396  1.00  0.00     0.057 A 
ATOM     85  C   UNL     1      -6.824 -13.612  -3.233  1.00  0.00     0.134 A 
ATOM     86  C   UNL     1      -7.855 -11.637  -2.366  1.00  0.00     0.134 A 
ATOM     87  F   UNL     1      -6.122 -14.262  -4.172  1.00  0.00    -0.206 F 
ATOM     88  C   UNL     1      -7.255 -14.329  -2.115  1.00  0.00     0.040 A 
ATOM     89  C   UNL     1      -8.264 -12.332  -1.229  1.00  0.00     0.040 A 
ATOM     90  F   UNL     1      -8.159 -10.332  -2.442  1.00  0.00    -0.206 F 
ATOM     91  C   UNL     1      -7.978 -13.689  -1.109  1.00  0.00     0.006 A 
ENDBRANCH  63  84
BRANCH  75  92
ATOM     92  C   UNL     1      -8.425 -12.540 -10.255  1.00  0.00     0.057 A 
ATOM     93  C   UNL     1      -9.820 -12.615 -10.258  1.00  0.00     0.134 A 
ATOM     94  C   UNL     1      -7.710 -13.367 -11.130  1.00  0.00     0.134 A 
ATOM     95  F   UNL     1     -10.546 -11.850  -9.429  1.00  0.00    -0.206 F 
ATOM     96  C   UNL     1     -10.486 -13.500 -11.100  1.00  0.00     0.040 A 
ATOM     97  C   UNL     1      -8.366 -14.225 -12.004  1.00  0.00     0.040 A 
ATOM     98  F   UNL     1      -6.370 -13.317 -11.174  1.00  0.00    -0.206 F 
ATOM     99  C   UNL     1      -9.758 -14.296 -11.985  1.00  0.00     0.006 A 
ENDBRANCH  75  92
ENDBRANCH  49  50
ENDBRANCH  42  44
ENDBRANCH  41  42
ENDBRANCH  40  41
ENDBRANCH  39  40
ENDBRANCH  38  39
ENDBRANCH  37  38
ENDBRANCH   1  37
TORSDOF 23
