REMARK SMILES O=C(CCCCCC(F)(F)c1ccccc1)OCCOCCOCCOC(=O)c1ccc(-c2c3nc(c(-c4c(F)cccc4F)c4ccc([nH]4)c(-c4c(F)cccc4F)c4nc(c(-c5c(F)cccc5F)c5ccc2[nH]5)C=C4)C=C3)cc1
REMARK SMILES IDX 19 1 18 2 17 3 2 4 1 5 3 6 4 7 5 8 6 9 7 10 8 11 9 12 10 13
REMARK SMILES IDX 11 14 12 15 16 16 13 17 15 18 14 19 20 20 21 21 22 22 23 23
REMARK SMILES IDX 24 24 25 25 26 26 27 27 28 28 29 29 30 30 82 31 31 32 81 33
REMARK SMILES IDX 32 34 33 35 34 36 75 37 35 38 80 39 74 40 76 41 36 42 79 43
REMARK SMILES IDX 73 44 72 45 37 47 63 48 46 49 62 50 47 51 50 52 61 53 77 54
REMARK SMILES IDX 48 55 49 56 60 58 78 59 51 60 38 61 39 62 44 63 40 64 41 65
REMARK SMILES IDX 43 66 45 67 42 68 64 69 65 70 70 71 66 72 67 73 69 74 71 75
REMARK SMILES IDX 68 76 52 77 53 78 58 79 54 80 55 81 57 82 59 83 56 84
REMARK H PARENT 76 46 50 57
REMARK Flexibility Score: inf
ROOT
ATOM      1  C   UNL     1       3.475   1.517  -2.023  1.00  0.00     0.202 C 
ENDROOT
BRANCH   1   2
ATOM      2  C   UNL     1       2.937   0.093  -2.167  1.00  0.00     0.261 C 
BRANCH   2   3
ATOM      3  O   UNL     1       1.775  -0.105  -1.350  1.00  0.00    -0.463 OA
BRANCH   3   4
ATOM      4  C   UNL     1       1.824  -1.179  -0.522  1.00  0.00     0.305 C 
ATOM      5  O   UNL     1       1.184  -2.198  -0.749  1.00  0.00    -0.252 OA
BRANCH   4   6
ATOM      6  C   UNL     1       2.600  -0.965   0.764  1.00  0.00     0.123 C 
BRANCH   6   7
ATOM      7  C   UNL     1       3.892  -1.777   0.858  1.00  0.00     0.012 C 
BRANCH   7   8
ATOM      8  C   UNL     1       5.122  -1.062   0.277  1.00  0.00     0.001 C 
BRANCH   8   9
ATOM      9  C   UNL     1       6.244  -0.762   1.267  1.00  0.00     0.007 C 
BRANCH   9  10
ATOM     10  C   UNL     1       6.935  -1.949   1.946  1.00  0.00     0.082 C 
BRANCH  10  11
ATOM     11  C   UNL     1       7.750  -2.886   1.031  1.00  0.00     0.273 C 
ATOM     12  F   UNL     1       7.974  -2.265  -0.163  1.00  0.00    -0.201 F 
ATOM     13  F   UNL     1       8.996  -2.982   1.601  1.00  0.00    -0.201 F 
BRANCH  11  14
ATOM     14  C   UNL     1       7.128  -4.260   0.856  1.00  0.00     0.021 A 
ATOM     15  C   UNL     1       6.000  -4.460   0.049  1.00  0.00     0.010 A 
ATOM     16  C   UNL     1       7.686  -5.381   1.490  1.00  0.00     0.010 A 
ATOM     17  C   UNL     1       5.394  -5.712  -0.059  1.00  0.00     0.001 A 
ATOM     18  C   UNL     1       7.107  -6.646   1.348  1.00  0.00     0.001 A 
ATOM     19  C   UNL     1       5.949  -6.806   0.591  1.00  0.00     0.000 A 
ENDBRANCH  11  14
ENDBRANCH  10  11
ENDBRANCH   9  10
ENDBRANCH   8   9
ENDBRANCH   7   8
ENDBRANCH   6   7
ENDBRANCH   4   6
ENDBRANCH   3   4
ENDBRANCH   2   3
ENDBRANCH   1   2
BRANCH   1  20
ATOM     20  O   UNL     1       3.721   1.855  -0.665  1.00  0.00    -0.376 OA
BRANCH  20  21
ATOM     21  C   UNL     1       2.655   2.514   0.015  1.00  0.00     0.188 C 
BRANCH  21  22
ATOM     22  C   UNL     1       2.331   3.916  -0.499  1.00  0.00     0.188 C 
BRANCH  22  23
ATOM     23  O   UNL     1       3.420   4.730  -0.915  1.00  0.00    -0.376 OA
BRANCH  23  24
ATOM     24  C   UNL     1       4.632   4.705  -0.165  1.00  0.00     0.202 C 
BRANCH  24  25
ATOM     25  C   UNL     1       4.585   5.378   1.207  1.00  0.00     0.261 C 
BRANCH  25  26
ATOM     26  O   UNL     1       4.118   4.487   2.239  1.00  0.00    -0.460 OA
BRANCH  26  27
ATOM     27  C   UNL     1       2.896   4.760   2.737  1.00  0.00     0.338 C 
ATOM     28  O   UNL     1       2.119   5.631   2.363  1.00  0.00    -0.246 OA
BRANCH  27  29
ATOM     29  C   UNL     1       2.540   3.807   3.801  1.00  0.00     0.060 A 
ATOM     30  C   UNL     1       1.279   3.200   3.750  1.00  0.00     0.016 A 
ATOM     31  C   UNL     1       3.359   3.657   4.924  1.00  0.00     0.016 A 
ATOM     32  C   UNL     1       0.794   2.514   4.863  1.00  0.00     0.010 A 
ATOM     33  C   UNL     1       2.868   2.974   6.040  1.00  0.00     0.010 A 
ATOM     34  C   UNL     1       1.562   2.454   6.034  1.00  0.00    -0.014 A 
BRANCH  34  35
ATOM     35  C   UNL     1       0.923   2.046   7.308  1.00  0.00     0.031 A 
ATOM     36  C   UNL     1       0.425   3.118   8.241  1.00  0.00     0.074 A 
ATOM     37  C   UNL     1       0.765   0.750   7.625  1.00  0.00     0.049 A 
ATOM     38  N   UNL     1      -0.135   3.004   9.419  1.00  0.00    -0.248 NA
ATOM     39  C   UNL     1       0.583   4.509   7.784  1.00  0.00     0.031 C 
ATOM     40  C   UNL     1       1.169  -0.380   6.791  1.00  0.00     0.029 A 
ATOM     41  N   UNL     1       0.223   0.170   8.744  1.00  0.00    -0.354 N 
ATOM     42  C   UNL     1      -0.388   4.303   9.845  1.00  0.00     0.074 A 
ATOM     43  C   UNL     1       0.106   5.190   8.815  1.00  0.00     0.031 C 
ATOM     44  C   UNL     1       0.867  -1.522   7.433  1.00  0.00     0.029 A 
ATOM     45  C   UNL     1       0.274  -1.201   8.730  1.00  0.00     0.049 A 
ATOM     46  H   UNL     1      -0.165   0.689   9.485  1.00  0.00     0.167 HD
ATOM     47  C   UNL     1      -0.986   4.720  10.986  1.00  0.00     0.037 A 
ATOM     48  C   UNL     1      -0.102  -2.092   9.668  1.00  0.00     0.037 A 
ATOM     49  C   UNL     1      -1.482   3.839  12.009  1.00  0.00     0.049 A 
ATOM     50  C   UNL     1      -0.708  -1.602  10.956  1.00  0.00     0.074 A 
ATOM     51  C   UNL     1      -2.124   4.162  13.192  1.00  0.00     0.029 A 
ATOM     52  N   UNL     1      -1.386   2.456  11.971  1.00  0.00    -0.354 N 
ATOM     53  N   UNL     1      -0.965  -0.375  11.338  1.00  0.00    -0.248 NA
ATOM     54  C   UNL     1      -1.078  -2.627  11.944  1.00  0.00     0.031 C 
ATOM     55  C   UNL     1      -2.378   2.976  13.889  1.00  0.00     0.029 A 
ATOM     56  C   UNL     1      -1.935   1.912  13.120  1.00  0.00     0.049 A 
ATOM     57  H   UNL     1      -0.986   1.938  11.236  1.00  0.00     0.167 HD
ATOM     58  C   UNL     1      -1.555  -0.480  12.592  1.00  0.00     0.074 A 
ATOM     59  C   UNL     1      -1.623  -1.893  12.904  1.00  0.00     0.031 C 
ATOM     60  C   UNL     1      -2.003   0.503  13.410  1.00  0.00     0.037 A 
BRANCH  47  61
ATOM     61  C   UNL     1      -1.115   6.200  11.194  1.00  0.00     0.057 A 
ATOM     62  C   UNL     1      -2.022   6.975  10.459  1.00  0.00     0.134 A 
ATOM     63  C   UNL     1      -0.333   6.856  12.153  1.00  0.00     0.134 A 
ATOM     64  F   UNL     1      -2.789   6.410   9.514  1.00  0.00    -0.206 F 
ATOM     65  C   UNL     1      -2.130   8.353  10.654  1.00  0.00     0.040 A 
ATOM     66  C   UNL     1      -0.449   8.230  12.373  1.00  0.00     0.040 A 
ATOM     67  F   UNL     1       0.553   6.173  12.892  1.00  0.00    -0.206 F 
ATOM     68  C   UNL     1      -1.345   8.983  11.618  1.00  0.00     0.006 A 
ENDBRANCH  47  61
BRANCH  48  69
ATOM     69  C   UNL     1       0.079  -3.544   9.425  1.00  0.00     0.057 A 
ATOM     70  C   UNL     1      -1.020  -4.384   9.215  1.00  0.00     0.134 A 
ATOM     71  C   UNL     1       1.351  -4.129   9.416  1.00  0.00     0.134 A 
ATOM     72  F   UNL     1      -2.265  -3.885   9.236  1.00  0.00    -0.206 F 
ATOM     73  C   UNL     1      -0.864  -5.757   9.019  1.00  0.00     0.040 A 
ATOM     74  C   UNL     1       1.524  -5.497   9.200  1.00  0.00     0.040 A 
ATOM     75  F   UNL     1       2.443  -3.377   9.613  1.00  0.00    -0.206 F 
ATOM     76  C   UNL     1       0.413  -6.316   9.006  1.00  0.00     0.006 A 
ENDBRANCH  48  69
BRANCH  60  77
ATOM     77  C   UNL     1      -2.644   0.084  14.700  1.00  0.00     0.057 A 
ATOM     78  C   UNL     1      -1.893  -0.409  15.774  1.00  0.00     0.134 A 
ATOM     79  C   UNL     1      -4.028   0.206  14.880  1.00  0.00     0.134 A 
ATOM     80  F   UNL     1      -0.565  -0.562  15.661  1.00  0.00    -0.206 F 
ATOM     81  C   UNL     1      -2.498  -0.787  16.974  1.00  0.00     0.040 A 
ATOM     82  C   UNL     1      -4.641  -0.146  16.083  1.00  0.00     0.040 A 
ATOM     83  F   UNL     1      -4.804   0.680  13.894  1.00  0.00    -0.206 F 
ATOM     84  C   UNL     1      -3.876  -0.650  17.132  1.00  0.00     0.006 A 
ENDBRANCH  60  77
ENDBRANCH  34  35
ENDBRANCH  27  29
ENDBRANCH  26  27
ENDBRANCH  25  26
ENDBRANCH  24  25
ENDBRANCH  23  24
ENDBRANCH  22  23
ENDBRANCH  21  22
ENDBRANCH  20  21
ENDBRANCH   1  20
TORSDOF 23
