REMARK SMILES CC(C)(C)Nc1ncnc(N2CCC(C(=O)OCCOCCOCCOC(=O)c3ccc(-c4c5nc(c(-c6c(F)cccc6F)c6ccc([nH]6)c(-c6c(F)cccc6F)c6nc(c(-c7c(F)cccc7F)c7ccc4[nH]7)C=C6)C=C5)cc3)CC2)c1N
REMARK SMILES IDX 21 1 20 2 19 3 18 4 17 5 15 6 16 7 14 8 11 9 12 10 84 11
REMARK SMILES IDX 13 12 83 13 10 14 6 15 7 16 85 17 8 18 9 19 5 20 2 22 1 23
REMARK SMILES IDX 3 24 4 25 86 26 22 29 23 30 24 31 25 32 26 33 27 34 28 35
REMARK SMILES IDX 29 36 30 37 82 38 31 39 81 40 32 41 33 42 34 43 75 44 35 45
REMARK SMILES IDX 80 46 74 47 76 48 36 49 79 50 73 51 72 52 37 54 63 55 46 56
REMARK SMILES IDX 62 57 47 58 50 59 61 60 77 61 48 62 49 63 60 65 78 66 51 67
REMARK SMILES IDX 38 68 39 69 44 70 40 71 41 72 43 73 45 74 42 75 64 76 65 77
REMARK SMILES IDX 70 78 66 79 67 80 69 81 71 82 68 83 52 84 53 85 58 86 54 87
REMARK SMILES IDX 55 88 57 89 59 90 56 91
REMARK H PARENT 5 21 86 27 86 28 76 53 50 64
REMARK Flexibility Score: inf
ROOT
ATOM      1  C   UNL     1      10.041  -1.235   5.164  1.00  0.00     0.188 C 
ENDROOT
BRANCH   1   2
ATOM      2  O   UNL     1      11.206  -0.495   5.494  1.00  0.00    -0.376 OA
BRANCH   2   3
ATOM      3  C   UNL     1      11.039   0.864   5.892  1.00  0.00     0.202 C 
BRANCH   3   4
ATOM      4  C   UNL     1      10.316   1.816   4.927  1.00  0.00     0.261 C 
BRANCH   4   5
ATOM      5  O   UNL     1       9.022   1.371   4.473  1.00  0.00    -0.463 OA
BRANCH   5   6
ATOM      6  C   UNL     1       8.977   0.959   3.183  1.00  0.00     0.309 C 
ATOM      7  O   UNL     1       9.945   0.926   2.427  1.00  0.00    -0.252 OA
BRANCH   6   8
ATOM      8  C   UNL     1       7.610   0.504   2.715  1.00  0.00     0.103 C 
ATOM      9  N   UNL     1       4.901   1.027   2.053  1.00  0.00    -0.355 N 
ATOM     10  C   UNL     1       5.119   0.119   3.159  1.00  0.00     0.119 C 
ATOM     11  C   UNL     1       5.899   1.127   1.008  1.00  0.00     0.119 C 
ATOM     12  C   UNL     1       6.505   0.337   3.769  1.00  0.00     0.037 C 
ATOM     13  C   UNL     1       7.216   1.509   1.637  1.00  0.00     0.037 C 
BRANCH   9  14
ATOM     14  C   UNL     1       3.690   1.686   1.940  1.00  0.00     0.157 A 
ATOM     15  C   UNL     1       1.777   2.404   0.721  1.00  0.00     0.155 A 
ATOM     16  N   UNL     1       1.385   3.162   1.757  1.00  0.00    -0.217 NA
ATOM     17  C   UNL     1       2.968   1.673   0.736  1.00  0.00     0.118 A 
ATOM     18  C   UNL     1       2.152   3.099   2.854  1.00  0.00     0.226 A 
ATOM     19  N   UNL     1       3.260   2.366   3.018  1.00  0.00    -0.217 NA
BRANCH  15  20
ATOM     20  N   UNL     1       0.897   2.399  -0.353  1.00  0.00    -0.364 N 
ATOM     21  H   UNL     1       0.722   3.257  -0.804  1.00  0.00     0.162 HD
BRANCH  20  22
ATOM     22  C   UNL     1       0.205   1.200  -0.871  1.00  0.00     0.030 C 
ATOM     23  C   UNL     1       0.464  -0.101  -0.092  1.00  0.00     0.034 C 
ATOM     24  C   UNL     1       0.561   1.026  -2.357  1.00  0.00     0.034 C 
ATOM     25  C   UNL     1      -1.311   1.477  -0.789  1.00  0.00     0.034 C 
ENDBRANCH  20  22
ENDBRANCH  15  20
BRANCH  17  26
ATOM     26  N   UNL     1       3.433   0.998  -0.399  1.00  0.00    -0.393 N 
ATOM     27  H   UNL     1       2.904   1.007  -1.229  1.00  0.00     0.156 HD
ATOM     28  H   UNL     1       4.290   0.514  -0.366  1.00  0.00     0.156 HD
ENDBRANCH  17  26
ENDBRANCH   9  14
ENDBRANCH   6   8
ENDBRANCH   5   6
ENDBRANCH   4   5
ENDBRANCH   3   4
ENDBRANCH   2   3
ENDBRANCH   1   2
BRANCH   1  29
ATOM     29  C   UNL     1       8.905  -1.264   6.187  1.00  0.00     0.188 C 
BRANCH  29  30
ATOM     30  O   UNL     1       8.776  -0.132   7.021  1.00  0.00    -0.376 OA
BRANCH  30  31
ATOM     31  C   UNL     1       8.112  -0.320   8.270  1.00  0.00     0.202 C 
BRANCH  31  32
ATOM     32  C   UNL     1       8.689  -1.384   9.239  1.00  0.00     0.261 C 
BRANCH  32  33
ATOM     33  O   UNL     1       8.826  -2.739   8.747  1.00  0.00    -0.460 OA
BRANCH  33  34
ATOM     34  C   UNL     1       7.730  -3.339   8.223  1.00  0.00     0.338 C 
ATOM     35  O   UNL     1       6.578  -2.947   8.329  1.00  0.00    -0.246 OA
BRANCH  34  36
ATOM     36  C   UNL     1       8.163  -4.385   7.244  1.00  0.00     0.060 A 
ATOM     37  C   UNL     1       7.517  -4.430   5.997  1.00  0.00     0.016 A 
ATOM     38  C   UNL     1       9.220  -5.264   7.497  1.00  0.00     0.016 A 
ATOM     39  C   UNL     1       7.875  -5.384   5.035  1.00  0.00     0.010 A 
ATOM     40  C   UNL     1       9.563  -6.238   6.543  1.00  0.00     0.010 A 
ATOM     41  C   UNL     1       8.865  -6.333   5.323  1.00  0.00    -0.014 A 
BRANCH  41  42
ATOM     42  C   UNL     1       8.995  -7.560   4.486  1.00  0.00     0.031 A 
ATOM     43  C   UNL     1       8.270  -8.802   4.945  1.00  0.00     0.074 A 
ATOM     44  C   UNL     1       9.699  -7.596   3.338  1.00  0.00     0.049 A 
ATOM     45  N   UNL     1       8.300 -10.017   4.459  1.00  0.00    -0.248 NA
ATOM     46  C   UNL     1       7.388  -8.645   6.114  1.00  0.00     0.031 C 
ATOM     47  C   UNL     1      10.383  -6.464   2.721  1.00  0.00     0.029 A 
ATOM     48  N   UNL     1       9.956  -8.647   2.485  1.00  0.00    -0.354 N 
ATOM     49  C   UNL     1       7.445 -10.764   5.261  1.00  0.00     0.074 A 
ATOM     50  C   UNL     1       6.937  -9.878   6.284  1.00  0.00     0.031 C 
ATOM     51  C   UNL     1      10.990  -6.881   1.595  1.00  0.00     0.029 A 
ATOM     52  C   UNL     1      10.774  -8.319   1.430  1.00  0.00     0.049 A 
ATOM     53  H   UNL     1       9.587  -9.550   2.619  1.00  0.00     0.167 HD
ATOM     54  C   UNL     1       7.102 -12.069   5.153  1.00  0.00     0.037 A 
ATOM     55  C   UNL     1      11.305  -9.094   0.460  1.00  0.00     0.037 A 
ATOM     56  C   UNL     1       7.605 -12.963   4.144  1.00  0.00     0.049 A 
ATOM     57  C   UNL     1      11.006 -10.575   0.433  1.00  0.00     0.074 A 
ATOM     58  C   UNL     1       7.333 -14.309   3.976  1.00  0.00     0.029 A 
ATOM     59  N   UNL     1       8.480 -12.602   3.133  1.00  0.00    -0.354 N 
ATOM     60  N   UNL     1      10.217 -11.277   1.210  1.00  0.00    -0.248 NA
ATOM     61  C   UNL     1      11.678 -11.372  -0.607  1.00  0.00     0.031 C 
ATOM     62  C   UNL     1       8.079 -14.774   2.890  1.00  0.00     0.029 A 
ATOM     63  C   UNL     1       8.769 -13.704   2.346  1.00  0.00     0.049 A 
ATOM     64  H   UNL     1       8.842 -11.697   2.994  1.00  0.00     0.167 HD
ATOM     65  C   UNL     1      10.268 -12.582   0.730  1.00  0.00     0.074 A 
ATOM     66  C   UNL     1      11.155 -12.575  -0.412  1.00  0.00     0.031 C 
ATOM     67  C   UNL     1       9.635 -13.687   1.195  1.00  0.00     0.037 A 
BRANCH  54  68
ATOM     68  C   UNL     1       6.136 -12.623   6.159  1.00  0.00     0.057 A 
ATOM     69  C   UNL     1       4.775 -12.296   6.127  1.00  0.00     0.134 A 
ATOM     70  C   UNL     1       6.557 -13.553   7.119  1.00  0.00     0.134 A 
ATOM     71  F   UNL     1       4.312 -11.399   5.244  1.00  0.00    -0.206 F 
ATOM     72  C   UNL     1       3.866 -12.872   7.016  1.00  0.00     0.040 A 
ATOM     73  C   UNL     1       5.654 -14.156   7.995  1.00  0.00     0.040 A 
ATOM     74  F   UNL     1       7.847 -13.911   7.201  1.00  0.00    -0.206 F 
ATOM     75  C   UNL     1       4.303 -13.815   7.945  1.00  0.00     0.006 A 
ENDBRANCH  54  68
BRANCH  55  76
ATOM     76  C   UNL     1      12.193  -8.502  -0.579  1.00  0.00     0.057 A 
ATOM     77  C   UNL     1      11.810  -8.469  -1.926  1.00  0.00     0.134 A 
ATOM     78  C   UNL     1      13.463  -8.002  -0.263  1.00  0.00     0.134 A 
ATOM     79  F   UNL     1      10.621  -8.965  -2.301  1.00  0.00    -0.206 F 
ATOM     80  C   UNL     1      12.659  -7.976  -2.920  1.00  0.00     0.040 A 
ATOM     81  C   UNL     1      14.310  -7.479  -1.242  1.00  0.00     0.040 A 
ATOM     82  F   UNL     1      13.899  -8.015   1.005  1.00  0.00    -0.206 F 
ATOM     83  C   UNL     1      13.911  -7.472  -2.577  1.00  0.00     0.006 A 
ENDBRANCH  55  76
BRANCH  67  84
ATOM     84  C   UNL     1       9.828 -14.978   0.449  1.00  0.00     0.057 A 
ATOM     85  C   UNL     1      11.041 -15.678   0.473  1.00  0.00     0.134 A 
ATOM     86  C   UNL     1       8.762 -15.562  -0.251  1.00  0.00     0.134 A 
ATOM     87  F   UNL     1      12.104 -15.174   1.119  1.00  0.00    -0.206 F 
ATOM     88  C   UNL     1      11.194 -16.898  -0.190  1.00  0.00     0.040 A 
ATOM     89  C   UNL     1       8.894 -16.795  -0.891  1.00  0.00     0.040 A 
ATOM     90  F   UNL     1       7.567 -14.955  -0.303  1.00  0.00    -0.206 F 
ATOM     91  C   UNL     1      10.116 -17.464  -0.867  1.00  0.00     0.006 A 
ENDBRANCH  67  84
ENDBRANCH  41  42
ENDBRANCH  34  36
ENDBRANCH  33  34
ENDBRANCH  32  33
ENDBRANCH  31  32
ENDBRANCH  30  31
ENDBRANCH  29  30
ENDBRANCH   1  29
TORSDOF 21
