REMARK SMILES CC(=O)Nc1c(C)nn([C@H](C)C(=O)OCCOCCOCCOC(=O)c2ccc(-c3c4nc(c(-c5c(F)cccc5F)c5ccc([nH]5)c(-c5c(F)cccc5F)c5nc(c(-c6c(F)cccc6F)c6ccc3[nH]6)C=C5)C=C4)cc2)c1C
REMARK SMILES IDX 18 1 17 2 16 3 15 4 14 5 12 6 13 7 10 8 11 9 9 10 5 11 6 12
REMARK SMILES IDX 80 13 7 14 8 15 81 16 4 17 1 18 2 19 3 20 19 22 20 23 21 24
REMARK SMILES IDX 22 25 23 26 24 27 25 28 26 29 27 30 79 31 28 32 78 33 29 34
REMARK SMILES IDX 30 35 31 36 72 37 32 38 77 39 71 40 73 41 33 42 76 43 70 44
REMARK SMILES IDX 69 45 34 47 60 48 43 49 59 50 44 51 47 52 58 53 74 54 45 55
REMARK SMILES IDX 46 56 57 58 75 59 48 60 35 61 36 62 41 63 37 64 38 65 40 66
REMARK SMILES IDX 42 67 39 68 61 69 62 70 67 71 63 72 64 73 66 74 68 75 65 76
REMARK SMILES IDX 49 77 50 78 55 79 51 80 52 81 54 82 56 83 53 84
REMARK H PARENT 4 21 73 46 47 57
REMARK Flexibility Score: inf
ROOT
ATOM      1  C   UNL     1       3.258  -2.545  -3.742  1.00  0.00     0.188 C 
ENDROOT
BRANCH   1   2
ATOM      2  O   UNL     1       3.618  -3.308  -4.879  1.00  0.00    -0.376 OA
BRANCH   2   3
ATOM      3  C   UNL     1       4.025  -4.658  -4.697  1.00  0.00     0.202 C 
BRANCH   3   4
ATOM      4  C   UNL     1       5.081  -5.038  -3.632  1.00  0.00     0.261 C 
BRANCH   4   5
ATOM      5  O   UNL     1       4.895  -4.540  -2.285  1.00  0.00    -0.462 OA
BRANCH   5   6
ATOM      6  C   UNL     1       5.742  -3.555  -1.879  1.00  0.00     0.330 C 
ATOM      7  O   UNL     1       6.577  -3.042  -2.619  1.00  0.00    -0.250 OA
BRANCH   6   8
ATOM      8  C   UNL     1       5.600  -3.164  -0.411  1.00  0.00     0.214 C 
ATOM      9  C   UNL     1       4.233  -2.844   0.173  1.00  0.00     0.046 C 
BRANCH   8  10
ATOM     10  N   UNL     1       6.350  -4.110   0.397  1.00  0.00    -0.253 N 
ATOM     11  C   UNL     1       7.204  -5.924   1.256  1.00  0.00     0.085 A 
ATOM     12  C   UNL     1       8.124  -4.843   1.274  1.00  0.00     0.083 A 
ATOM     13  C   UNL     1       6.008  -5.366   0.840  1.00  0.00     0.060 A 
ATOM     14  C   UNL     1       9.548  -4.795   1.672  1.00  0.00     0.071 C 
ATOM     15  N   UNL     1       7.579  -3.733   0.779  1.00  0.00    -0.175 NA
ATOM     16  C   UNL     1       4.608  -5.868   0.907  1.00  0.00     0.069 C 
BRANCH  11  17
ATOM     17  N   UNL     1       7.428  -7.213   1.689  1.00  0.00    -0.323 N 
ATOM     18  C   UNL     1       6.252  -8.405  -0.151  1.00  0.00     0.114 C 
ATOM     19  C   UNL     1       6.875  -8.374   1.226  1.00  0.00     0.221 C 
ATOM     20  O   UNL     1       6.971  -9.404   1.896  1.00  0.00    -0.275 OA
ATOM     21  H   UNL     1       8.071  -7.311   2.429  1.00  0.00     0.170 HD
ENDBRANCH  11  17
ENDBRANCH   8  10
ENDBRANCH   6   8
ENDBRANCH   5   6
ENDBRANCH   4   5
ENDBRANCH   3   4
ENDBRANCH   2   3
ENDBRANCH   1   2
BRANCH   1  22
ATOM     22  C   UNL     1       2.353  -3.167  -2.666  1.00  0.00     0.188 C 
BRANCH  22  23
ATOM     23  O   UNL     1       2.294  -4.574  -2.641  1.00  0.00    -0.376 OA
BRANCH  23  24
ATOM     24  C   UNL     1       1.105  -5.309  -2.884  1.00  0.00     0.202 C 
BRANCH  24  25
ATOM     25  C   UNL     1       0.095  -4.915  -3.961  1.00  0.00     0.261 C 
BRANCH  25  26
ATOM     26  O   UNL     1       0.066  -3.540  -4.270  1.00  0.00    -0.460 OA
BRANCH  26  27
ATOM     27  C   UNL     1      -0.564  -2.771  -3.372  1.00  0.00     0.338 C 
ATOM     28  O   UNL     1      -1.050  -3.126  -2.293  1.00  0.00    -0.246 OA
BRANCH  27  29
ATOM     29  C   UNL     1      -0.533  -1.397  -3.861  1.00  0.00     0.060 A 
ATOM     30  C   UNL     1      -0.942  -0.399  -2.978  1.00  0.00     0.016 A 
ATOM     31  C   UNL     1      -0.400  -1.182  -5.242  1.00  0.00     0.016 A 
ATOM     32  C   UNL     1      -1.547   0.704  -3.518  1.00  0.00     0.010 A 
ATOM     33  C   UNL     1      -1.027  -0.095  -5.781  1.00  0.00     0.010 A 
ATOM     34  C   UNL     1      -1.698   0.751  -4.908  1.00  0.00    -0.014 A 
BRANCH  34  35
ATOM     35  C   UNL     1      -2.656   1.683  -5.437  1.00  0.00     0.031 A 
ATOM     36  C   UNL     1      -2.142   3.054  -5.529  1.00  0.00     0.074 A 
ATOM     37  C   UNL     1      -3.877   1.283  -5.832  1.00  0.00     0.049 A 
ATOM     38  N   UNL     1      -2.467   4.054  -4.784  1.00  0.00    -0.248 NA
ATOM     39  C   UNL     1      -1.003   3.297  -6.424  1.00  0.00     0.031 C 
ATOM     40  C   UNL     1      -4.385  -0.077  -6.027  1.00  0.00     0.029 A 
ATOM     41  N   UNL     1      -4.914   2.057  -6.235  1.00  0.00    -0.354 N 
ATOM     42  C   UNL     1      -1.714   5.118  -5.256  1.00  0.00     0.074 A 
ATOM     43  C   UNL     1      -0.703   4.558  -6.115  1.00  0.00     0.031 C 
ATOM     44  C   UNL     1      -5.542  -0.019  -6.728  1.00  0.00     0.029 A 
ATOM     45  C   UNL     1      -5.911   1.374  -6.912  1.00  0.00     0.049 A 
ATOM     46  H   UNL     1      -4.955   3.025  -6.061  1.00  0.00     0.167 HD
ATOM     47  C   UNL     1      -2.148   6.396  -5.106  1.00  0.00     0.037 A 
ATOM     48  C   UNL     1      -6.899   1.954  -7.638  1.00  0.00     0.037 A 
ATOM     49  C   UNL     1      -3.185   6.487  -4.109  1.00  0.00     0.049 A 
ATOM     50  C   UNL     1      -7.004   3.372  -7.191  1.00  0.00     0.074 A 
ATOM     51  C   UNL     1      -3.258   6.185  -2.761  1.00  0.00     0.029 A 
ATOM     52  N   UNL     1      -4.485   6.585  -4.543  1.00  0.00    -0.354 N 
ATOM     53  N   UNL     1      -7.460   3.730  -6.022  1.00  0.00    -0.248 NA
ATOM     54  C   UNL     1      -6.160   4.359  -7.854  1.00  0.00     0.031 C 
ATOM     55  C   UNL     1      -4.567   5.656  -2.569  1.00  0.00     0.029 A 
ATOM     56  C   UNL     1      -5.235   5.715  -3.793  1.00  0.00     0.049 A 
ATOM     57  H   UNL     1      -4.817   7.171  -5.260  1.00  0.00     0.167 HD
ATOM     58  C   UNL     1      -6.632   4.769  -5.619  1.00  0.00     0.074 A 
ATOM     59  C   UNL     1      -5.908   5.170  -6.822  1.00  0.00     0.031 C 
ATOM     60  C   UNL     1      -6.391   5.009  -4.296  1.00  0.00     0.037 A 
BRANCH  47  61
ATOM     61  C   UNL     1      -1.901   7.476  -6.119  1.00  0.00     0.057 A 
ATOM     62  C   UNL     1      -2.218   8.803  -5.789  1.00  0.00     0.134 A 
ATOM     63  C   UNL     1      -1.638   7.239  -7.484  1.00  0.00     0.134 A 
ATOM     64  F   UNL     1      -2.508   9.147  -4.525  1.00  0.00    -0.206 F 
ATOM     65  C   UNL     1      -2.331   9.805  -6.758  1.00  0.00     0.040 A 
ATOM     66  C   UNL     1      -1.691   8.244  -8.450  1.00  0.00     0.040 A 
ATOM     67  F   UNL     1      -1.421   6.013  -7.975  1.00  0.00    -0.206 F 
ATOM     68  C   UNL     1      -2.071   9.526  -8.094  1.00  0.00     0.006 A 
ENDBRANCH  47  61
BRANCH  48  69
ATOM     69  C   UNL     1      -7.526   1.469  -8.887  1.00  0.00     0.057 A 
ATOM     70  C   UNL     1      -8.700   2.057  -9.380  1.00  0.00     0.134 A 
ATOM     71  C   UNL     1      -6.854   0.605  -9.771  1.00  0.00     0.134 A 
ATOM     72  F   UNL     1      -9.393   2.925  -8.630  1.00  0.00    -0.206 F 
ATOM     73  C   UNL     1      -9.162   1.823 -10.683  1.00  0.00     0.040 A 
ATOM     74  C   UNL     1      -7.309   0.355 -11.070  1.00  0.00     0.040 A 
ATOM     75  F   UNL     1      -5.683   0.042  -9.439  1.00  0.00    -0.206 F 
ATOM     76  C   UNL     1      -8.459   0.978 -11.536  1.00  0.00     0.006 A 
ENDBRANCH  48  69
BRANCH  60  77
ATOM     77  C   UNL     1      -7.231   4.281  -3.283  1.00  0.00     0.057 A 
ATOM     78  C   UNL     1      -7.244   2.886  -3.132  1.00  0.00     0.134 A 
ATOM     79  C   UNL     1      -7.928   5.026  -2.326  1.00  0.00     0.134 A 
ATOM     80  F   UNL     1      -6.520   2.094  -3.933  1.00  0.00    -0.206 F 
ATOM     81  C   UNL     1      -7.957   2.262  -2.103  1.00  0.00     0.040 A 
ATOM     82  C   UNL     1      -8.614   4.417  -1.273  1.00  0.00     0.040 A 
ATOM     83  F   UNL     1      -7.910   6.368  -2.370  1.00  0.00    -0.206 F 
ATOM     84  C   UNL     1      -8.640   3.029  -1.166  1.00  0.00     0.006 A 
ENDBRANCH  60  77
ENDBRANCH  34  35
ENDBRANCH  27  29
ENDBRANCH  26  27
ENDBRANCH  25  26
ENDBRANCH  24  25
ENDBRANCH  23  24
ENDBRANCH  22  23
ENDBRANCH   1  22
TORSDOF 19
