REMARK SMILES CC(C)[C@H]([NH2+]Cc1ccc(N(C)C)cc1)C(=O)OCCOCCOCCOC(=O)c1ccc(-c2c3nc(c(-c4c(F)cccc4F)c4ccc([nH]4)c(-c4c(F)cccc4F)c4nc(c(-c5c(F)cccc5F)c5ccc2[nH]5)C=C4)C=C3)cc1
REMARK SMILES IDX 22 1 21 2 20 3 19 4 18 5 16 6 17 7 4 8 2 9 1 10 3 11 5 12
REMARK SMILES IDX 6 15 7 16 8 17 15 18 9 19 14 20 10 21 11 22 12 23 13 24
REMARK SMILES IDX 23 25 24 26 25 27 26 28 27 29 28 30 29 31 30 32 31 33 83 34
REMARK SMILES IDX 32 35 82 36 33 37 34 38 35 39 76 40 36 41 81 42 75 43 77 44
REMARK SMILES IDX 37 45 80 46 74 47 73 48 38 50 64 51 47 52 63 53 48 54 51 55
REMARK SMILES IDX 62 56 78 57 49 58 50 59 61 61 79 62 52 63 39 64 40 65 45 66
REMARK SMILES IDX 41 67 42 68 44 69 46 70 43 71 65 72 66 73 71 74 67 75 68 76
REMARK SMILES IDX 70 77 72 78 69 79 53 80 54 81 59 82 55 83 56 84 58 85 60 86
REMARK SMILES IDX 57 87
REMARK H PARENT 5 13 5 14 77 49 51 60
REMARK Flexibility Score: inf
ROOT
ATOM      1  C   UNL     1      -1.277   4.587  -1.037  1.00  0.00     0.188 C 
ENDROOT
BRANCH   1   2
ATOM      2  O   UNL     1      -1.902   5.726  -0.470  1.00  0.00    -0.376 OA
BRANCH   2   3
ATOM      3  C   UNL     1      -2.036   5.828   0.941  1.00  0.00     0.202 C 
BRANCH   3   4
ATOM      4  C   UNL     1      -2.472   4.627   1.798  1.00  0.00     0.261 C 
BRANCH   4   5
ATOM      5  O   UNL     1      -1.677   3.432   1.679  1.00  0.00    -0.459 OA
BRANCH   5   6
ATOM      6  C   UNL     1      -2.282   2.373   1.073  1.00  0.00     0.365 C 
ATOM      7  O   UNL     1      -3.424   2.401   0.618  1.00  0.00    -0.245 OA
BRANCH   6   8
ATOM      8  C   UNL     1      -1.432   1.081   1.041  1.00  0.00     0.296 C 
BRANCH   8   9
ATOM      9  C   UNL     1      -2.024   0.018   2.004  1.00  0.00     0.053 C 
ATOM     10  C   UNL     1      -2.837   0.592   3.167  1.00  0.00     0.014 C 
ATOM     11  C   UNL     1      -2.854  -0.988   1.203  1.00  0.00     0.014 C 
ENDBRANCH   8   9
BRANCH   8  12
ATOM     12  N   UNL     1       0.027   1.309   1.226  1.00  0.00    -0.331 N 
ATOM     13  H   UNL     1       0.194   1.590   2.192  1.00  0.00     0.347 HD
ATOM     14  H   UNL     1       0.314   2.034   0.569  1.00  0.00     0.347 HD
BRANCH  12  15
ATOM     15  C   UNL     1       0.824   0.109   0.941  1.00  0.00     0.298 C 
BRANCH  15  16
ATOM     16  C   UNL     1       2.317   0.323   0.817  1.00  0.00     0.006 A 
ATOM     17  C   UNL     1       3.051  -0.449  -0.091  1.00  0.00     0.012 A 
ATOM     18  C   UNL     1       3.036   1.145   1.681  1.00  0.00     0.012 A 
ATOM     19  C   UNL     1       4.458  -0.411  -0.119  1.00  0.00     0.026 A 
ATOM     20  C   UNL     1       4.443   1.170   1.647  1.00  0.00     0.026 A 
ATOM     21  C   UNL     1       5.205   0.383   0.762  1.00  0.00     0.036 A 
BRANCH  21  22
ATOM     22  N   UNL     1       6.595   0.376   0.796  1.00  0.00    -0.378 N 
ATOM     23  C   UNL     1       7.428  -0.380  -0.133  1.00  0.00     0.143 C 
ATOM     24  C   UNL     1       7.315   1.284   1.684  1.00  0.00     0.143 C 
ENDBRANCH  21  22
ENDBRANCH  15  16
ENDBRANCH  12  15
ENDBRANCH   8  12
ENDBRANCH   6   8
ENDBRANCH   5   6
ENDBRANCH   4   5
ENDBRANCH   3   4
ENDBRANCH   2   3
ENDBRANCH   1   2
BRANCH   1  25
ATOM     25  C   UNL     1       0.114   4.153  -0.539  1.00  0.00     0.188 C 
BRANCH  25  26
ATOM     26  O   UNL     1       0.600   4.827   0.594  1.00  0.00    -0.376 OA
BRANCH  26  27
ATOM     27  C   UNL     1       1.401   5.984   0.433  1.00  0.00     0.202 C 
BRANCH  27  28
ATOM     28  C   UNL     1       1.601   6.768  -0.883  1.00  0.00     0.261 C 
BRANCH  28  29
ATOM     29  O   UNL     1       0.980   6.282  -2.076  1.00  0.00    -0.460 OA
BRANCH  29  30
ATOM     30  C   UNL     1       1.766   5.563  -2.919  1.00  0.00     0.338 C 
ATOM     31  O   UNL     1       2.939   5.284  -2.782  1.00  0.00    -0.246 OA
BRANCH  30  32
ATOM     32  C   UNL     1       0.898   5.002  -3.976  1.00  0.00     0.060 A 
ATOM     33  C   UNL     1       0.650   3.621  -4.006  1.00  0.00     0.016 A 
ATOM     34  C   UNL     1       0.328   5.844  -4.929  1.00  0.00     0.016 A 
ATOM     35  C   UNL     1      -0.171   3.077  -4.997  1.00  0.00     0.010 A 
ATOM     36  C   UNL     1      -0.466   5.295  -5.938  1.00  0.00     0.010 A 
ATOM     37  C   UNL     1      -0.702   3.908  -5.990  1.00  0.00    -0.014 A 
BRANCH  37  38
ATOM     38  C   UNL     1      -1.342   3.335  -7.199  1.00  0.00     0.031 A 
ATOM     39  C   UNL     1      -0.509   3.207  -8.444  1.00  0.00     0.074 A 
ATOM     40  C   UNL     1      -2.638   2.980  -7.214  1.00  0.00     0.049 A 
ATOM     41  N   UNL     1      -0.873   2.904  -9.663  1.00  0.00    -0.248 NA
ATOM     42  C   UNL     1       0.931   3.469  -8.290  1.00  0.00     0.031 C 
ATOM     43  C   UNL     1      -3.539   3.005  -6.065  1.00  0.00     0.029 A 
ATOM     44  N   UNL     1      -3.428   2.554  -8.255  1.00  0.00    -0.354 N 
ATOM     45  C   UNL     1       0.287   2.961 -10.424  1.00  0.00     0.074 A 
ATOM     46  C   UNL     1       1.361   3.346  -9.536  1.00  0.00     0.031 C 
ATOM     47  C   UNL     1      -4.769   2.640  -6.469  1.00  0.00     0.029 A 
ATOM     48  C   UNL     1      -4.749   2.401  -7.912  1.00  0.00     0.049 A 
ATOM     49  H   UNL     1      -3.080   2.376  -9.158  1.00  0.00     0.167 HD
ATOM     50  C   UNL     1       0.442   2.714 -11.746  1.00  0.00     0.037 A 
ATOM     51  C   UNL     1      -5.823   2.138  -8.684  1.00  0.00     0.037 A 
ATOM     52  C   UNL     1      -0.631   2.337 -12.627  1.00  0.00     0.049 A 
ATOM     53  C   UNL     1      -5.642   1.955 -10.171  1.00  0.00     0.074 A 
ATOM     54  C   UNL     1      -0.574   2.050 -13.980  1.00  0.00     0.029 A 
ATOM     55  N   UNL     1      -1.958   2.207 -12.246  1.00  0.00    -0.354 N 
ATOM     56  N   UNL     1      -4.542   1.993 -10.884  1.00  0.00    -0.248 NA
ATOM     57  C   UNL     1      -6.855   1.696 -10.962  1.00  0.00     0.031 C 
ATOM     58  C   UNL     1      -1.874   1.804 -14.429  1.00  0.00     0.029 A 
ATOM     59  C   UNL     1      -2.733   1.872 -13.343  1.00  0.00     0.049 A 
ATOM     60  H   UNL     1      -2.298   2.335 -11.331  1.00  0.00     0.167 HD
ATOM     61  C   UNL     1      -4.924   1.727 -12.195  1.00  0.00     0.074 A 
ATOM     62  C   UNL     1      -6.357   1.523 -12.178  1.00  0.00     0.031 C 
ATOM     63  C   UNL     1      -4.157   1.654 -13.310  1.00  0.00     0.037 A 
BRANCH  50  64
ATOM     64  C   UNL     1       1.817   2.881 -12.324  1.00  0.00     0.057 A 
ATOM     65  C   UNL     1       2.862   1.998 -12.024  1.00  0.00     0.134 A 
ATOM     66  C   UNL     1       2.090   3.926 -13.216  1.00  0.00     0.134 A 
ATOM     67  F   UNL     1       2.672   0.985 -11.165  1.00  0.00    -0.206 F 
ATOM     68  C   UNL     1       4.136   2.164 -12.569  1.00  0.00     0.040 A 
ATOM     69  C   UNL     1       3.352   4.084 -13.791  1.00  0.00     0.040 A 
ATOM     70  F   UNL     1       1.134   4.805 -13.550  1.00  0.00    -0.206 F 
ATOM     71  C   UNL     1       4.381   3.205 -13.462  1.00  0.00     0.006 A 
ENDBRANCH  50  64
BRANCH  51  72
ATOM     72  C   UNL     1      -7.178   2.057  -8.079  1.00  0.00     0.057 A 
ATOM     73  C   UNL     1      -7.884   0.849  -8.042  1.00  0.00     0.134 A 
ATOM     74  C   UNL     1      -7.816   3.190  -7.557  1.00  0.00     0.134 A 
ATOM     75  F   UNL     1      -7.341  -0.266  -8.553  1.00  0.00    -0.206 F 
ATOM     76  C   UNL     1      -9.180   0.772  -7.527  1.00  0.00     0.040 A 
ATOM     77  C   UNL     1      -9.099   3.122  -7.011  1.00  0.00     0.040 A 
ATOM     78  F   UNL     1      -7.198   4.380  -7.566  1.00  0.00    -0.206 F 
ATOM     79  C   UNL     1      -9.788   1.911  -7.004  1.00  0.00     0.006 A 
ENDBRANCH  51  72
BRANCH  63  80
ATOM     80  C   UNL     1      -4.833   1.284 -14.601  1.00  0.00     0.057 A 
ATOM     81  C   UNL     1      -5.683   2.168 -15.278  1.00  0.00     0.134 A 
ATOM     82  C   UNL     1      -4.574   0.047 -15.207  1.00  0.00     0.134 A 
ATOM     83  F   UNL     1      -5.981   3.364 -14.749  1.00  0.00    -0.206 F 
ATOM     84  C   UNL     1      -6.265   1.827 -16.501  1.00  0.00     0.040 A 
ATOM     85  C   UNL     1      -5.125  -0.293 -16.443  1.00  0.00     0.040 A 
ATOM     86  F   UNL     1      -3.759  -0.842 -14.619  1.00  0.00    -0.206 F 
ATOM     87  C   UNL     1      -5.978   0.597 -17.091  1.00  0.00     0.006 A 
ENDBRANCH  63  80
ENDBRANCH  37  38
ENDBRANCH  30  32
ENDBRANCH  29  30
ENDBRANCH  28  29
ENDBRANCH  27  28
ENDBRANCH  26  27
ENDBRANCH  25  26
ENDBRANCH   1  25
TORSDOF 22
