REMARK SMILES CO[C@@]1(C(=O)OCCOCCOCCOC(=O)c2ccc(-c3c4nc(c(-c5c(F)cccc5F)c5ccc([nH]5)c(-c5c(F)cccc5F)c5nc(c(-c6c(F)cccc6F)c6ccc3[nH]6)C=C5)C=C4)cc2)CC(c2ccccc2)=CC=C1C
REMARK SMILES IDX 11 1 10 2 9 3 8 4 7 5 6 6 4 7 5 8 3 9 72 10 82 11 73 12
REMARK SMILES IDX 81 13 83 14 80 15 2 16 1 17 74 18 75 19 79 20 76 21 78 22
REMARK SMILES IDX 77 23 12 24 13 25 14 26 15 27 16 28 17 29 18 30 19 31 71 32
REMARK SMILES IDX 20 33 70 34 21 35 22 36 23 37 64 38 24 39 69 40 63 41 65 42
REMARK SMILES IDX 25 43 68 44 62 45 61 46 26 48 52 49 35 50 51 51 36 52 39 53
REMARK SMILES IDX 50 54 66 55 37 56 38 57 49 59 67 60 40 61 27 62 28 63 33 64
REMARK SMILES IDX 29 65 30 66 32 67 34 68 31 69 53 70 54 71 59 72 55 73 56 74
REMARK SMILES IDX 58 75 60 76 57 77 41 78 42 79 47 80 43 81 44 82 46 83 48 84
REMARK SMILES IDX 45 85
REMARK H PARENT 65 47 39 58
REMARK Flexibility Score: inf
ROOT
ATOM      1  C   UNL     1      -0.740   0.416   1.118  1.00  0.00     0.188 C 
ENDROOT
BRANCH   1   2
ATOM      2  C   UNL     1      -1.646   0.139  -0.102  1.00  0.00     0.188 C 
BRANCH   2   3
ATOM      3  O   UNL     1      -1.845  -1.170  -0.593  1.00  0.00    -0.376 OA
BRANCH   3   4
ATOM      4  C   UNL     1      -0.775  -2.090  -0.585  1.00  0.00     0.202 C 
BRANCH   4   5
ATOM      5  C   UNL     1       0.508  -1.757  -1.352  1.00  0.00     0.261 C 
BRANCH   5   6
ATOM      6  O   UNL     1       1.111  -0.482  -1.062  1.00  0.00    -0.461 OA
BRANCH   6   7
ATOM      7  C   UNL     1       0.917   0.501  -1.992  1.00  0.00     0.343 C 
ATOM      8  O   UNL     1       0.121   0.379  -2.918  1.00  0.00    -0.248 OA
BRANCH   7   9
ATOM      9  C   UNL     1       1.781   1.802  -1.707  1.00  0.00     0.190 C 
ATOM     10  C   UNL     1       0.985   2.737  -0.723  1.00  0.00     0.088 C 
ATOM     11  C   UNL     1       1.938   2.513  -3.073  1.00  0.00    -0.030 C 
ATOM     12  C   UNL     1       1.190   4.224  -0.902  1.00  0.00    -0.037 C 
ATOM     13  C   UNL     1       1.770   3.842  -3.217  1.00  0.00     0.003 C 
ATOM     14  C   UNL     1       2.304   1.683  -4.275  1.00  0.00     0.043 C 
ATOM     15  C   UNL     1       1.543   4.718  -2.097  1.00  0.00     0.004 C 
BRANCH   9  16
ATOM     16  O   UNL     1       3.134   1.595  -1.273  1.00  0.00    -0.362 OA
ATOM     17  C   UNL     1       3.362   0.968  -0.019  1.00  0.00     0.197 C 
ENDBRANCH   9  16
BRANCH  12  18
ATOM     18  C   UNL     1       1.071   5.114   0.267  1.00  0.00    -0.022 A 
ATOM     19  C   UNL     1       0.090   6.113   0.321  1.00  0.00     0.008 A 
ATOM     20  C   UNL     1       1.977   4.998   1.329  1.00  0.00     0.008 A 
ATOM     21  C   UNL     1       0.013   6.973   1.422  1.00  0.00     0.001 A 
ATOM     22  C   UNL     1       1.904   5.862   2.426  1.00  0.00     0.001 A 
ATOM     23  C   UNL     1       0.921   6.848   2.472  1.00  0.00     0.000 A 
ENDBRANCH  12  18
ENDBRANCH   7   9
ENDBRANCH   6   7
ENDBRANCH   5   6
ENDBRANCH   4   5
ENDBRANCH   3   4
ENDBRANCH   2   3
ENDBRANCH   1   2
BRANCH   1  24
ATOM     24  O   UNL     1      -0.440  -0.586   2.060  1.00  0.00    -0.376 OA
BRANCH  24  25
ATOM     25  C   UNL     1      -1.462  -1.211   2.807  1.00  0.00     0.202 C 
BRANCH  25  26
ATOM     26  C   UNL     1      -2.740  -0.481   3.247  1.00  0.00     0.261 C 
BRANCH  26  27
ATOM     27  O   UNL     1      -3.361   0.377   2.278  1.00  0.00    -0.460 OA
BRANCH  27  28
ATOM     28  C   UNL     1      -3.353   1.701   2.567  1.00  0.00     0.338 C 
ATOM     29  O   UNL     1      -2.869   2.234   3.562  1.00  0.00    -0.246 OA
BRANCH  28  30
ATOM     30  C   UNL     1      -3.878   2.482   1.430  1.00  0.00     0.060 A 
ATOM     31  C   UNL     1      -3.032   3.390   0.777  1.00  0.00     0.016 A 
ATOM     32  C   UNL     1      -5.214   2.366   1.044  1.00  0.00     0.016 A 
ATOM     33  C   UNL     1      -3.528   4.207  -0.244  1.00  0.00     0.010 A 
ATOM     34  C   UNL     1      -5.714   3.202   0.038  1.00  0.00     0.010 A 
ATOM     35  C   UNL     1      -4.885   4.150  -0.591  1.00  0.00    -0.014 A 
BRANCH  35  36
ATOM     36  C   UNL     1      -5.488   5.189  -1.469  1.00  0.00     0.031 A 
ATOM     37  C   UNL     1      -6.245   6.323  -0.830  1.00  0.00     0.074 A 
ATOM     38  C   UNL     1      -5.388   5.134  -2.810  1.00  0.00     0.049 A 
ATOM     39  N   UNL     1      -6.949   7.277  -1.385  1.00  0.00    -0.248 NA
ATOM     40  C   UNL     1      -6.202   6.384   0.640  1.00  0.00     0.031 C 
ATOM     41  C   UNL     1      -4.646   4.128  -3.564  1.00  0.00     0.029 A 
ATOM     42  N   UNL     1      -5.938   5.944  -3.775  1.00  0.00    -0.354 N 
ATOM     43  C   UNL     1      -7.446   8.040  -0.335  1.00  0.00     0.074 A 
ATOM     44  C   UNL     1      -6.984   7.423   0.890  1.00  0.00     0.031 C 
ATOM     45  C   UNL     1      -4.802   4.369  -4.878  1.00  0.00     0.029 A 
ATOM     46  C   UNL     1      -5.687   5.519  -5.058  1.00  0.00     0.049 A 
ATOM     47  H   UNL     1      -6.462   6.751  -3.568  1.00  0.00     0.167 HD
ATOM     48  C   UNL     1      -8.214   9.155  -0.383  1.00  0.00     0.037 A 
ATOM     49  C   UNL     1      -6.144   5.986  -6.238  1.00  0.00     0.037 A 
ATOM     50  C   UNL     1      -8.684   9.769  -1.599  1.00  0.00     0.049 A 
ATOM     51  C   UNL     1      -7.075   7.173  -6.266  1.00  0.00     0.074 A 
ATOM     52  C   UNL     1      -9.456  10.909  -1.747  1.00  0.00     0.029 A 
ATOM     53  N   UNL     1      -8.436   9.287  -2.875  1.00  0.00    -0.354 N 
ATOM     54  N   UNL     1      -7.527   7.897  -5.271  1.00  0.00    -0.248 NA
ATOM     55  C   UNL     1      -7.561   7.605  -7.586  1.00  0.00     0.031 C 
ATOM     56  C   UNL     1      -9.724  11.083  -3.108  1.00  0.00     0.029 A 
ATOM     57  C   UNL     1      -9.066  10.089  -3.814  1.00  0.00     0.049 A 
ATOM     58  H   UNL     1      -7.893   8.493  -3.084  1.00  0.00     0.167 HD
ATOM     59  C   UNL     1      -8.320   8.886  -5.845  1.00  0.00     0.074 A 
ATOM     60  C   UNL     1      -8.279   8.675  -7.276  1.00  0.00     0.031 C 
ATOM     61  C   UNL     1      -9.017   9.880  -5.239  1.00  0.00     0.037 A 
BRANCH  48  62
ATOM     62  C   UNL     1      -8.628   9.762   0.927  1.00  0.00     0.057 A 
ATOM     63  C   UNL     1      -7.713  10.405   1.772  1.00  0.00     0.134 A 
ATOM     64  C   UNL     1      -9.966   9.717   1.341  1.00  0.00     0.134 A 
ATOM     65  F   UNL     1      -6.415  10.473   1.442  1.00  0.00    -0.206 F 
ATOM     66  C   UNL     1      -8.108  10.951   2.995  1.00  0.00     0.040 A 
ATOM     67  C   UNL     1     -10.378  10.287   2.547  1.00  0.00     0.040 A 
ATOM     68  F   UNL     1     -10.897   9.124   0.579  1.00  0.00    -0.206 F 
ATOM     69  C   UNL     1      -9.445  10.897   3.383  1.00  0.00     0.006 A 
ENDBRANCH  48  62
BRANCH  49  70
ATOM     70  C   UNL     1      -5.747   5.320  -7.507  1.00  0.00     0.057 A 
ATOM     71  C   UNL     1      -4.931   5.968  -8.442  1.00  0.00     0.134 A 
ATOM     72  C   UNL     1      -6.200   4.035  -7.830  1.00  0.00     0.134 A 
ATOM     73  F   UNL     1      -4.492   7.213  -8.206  1.00  0.00    -0.206 F 
ATOM     74  C   UNL     1      -4.592   5.370  -9.657  1.00  0.00     0.040 A 
ATOM     75  C   UNL     1      -5.845   3.413  -9.029  1.00  0.00     0.040 A 
ATOM     76  F   UNL     1      -6.992   3.362  -6.982  1.00  0.00    -0.206 F 
ATOM     77  C   UNL     1      -5.044   4.085  -9.950  1.00  0.00     0.006 A 
ENDBRANCH  49  70
BRANCH  61  78
ATOM     78  C   UNL     1      -9.758  10.848  -6.119  1.00  0.00     0.057 A 
ATOM     79  C   UNL     1     -10.911  10.482  -6.826  1.00  0.00     0.134 A 
ATOM     80  C   UNL     1      -9.337  12.181  -6.225  1.00  0.00     0.134 A 
ATOM     81  F   UNL     1     -11.365   9.220  -6.779  1.00  0.00    -0.206 F 
ATOM     82  C   UNL     1     -11.601  11.397  -7.624  1.00  0.00     0.040 A 
ATOM     83  C   UNL     1     -10.035  13.112  -6.995  1.00  0.00     0.040 A 
ATOM     84  F   UNL     1      -8.247  12.605  -5.566  1.00  0.00    -0.206 F 
ATOM     85  C   UNL     1     -11.168  12.719  -7.704  1.00  0.00     0.006 A 
ENDBRANCH  61  78
ENDBRANCH  35  36
ENDBRANCH  28  30
ENDBRANCH  27  28
ENDBRANCH  26  27
ENDBRANCH  25  26
ENDBRANCH  24  25
ENDBRANCH   1  24
TORSDOF 19
