REMARK SMILES COc1ccc(-c2nc3ccc(C)cc3[nH]2)c(C(=O)OCCOCCOCCOC(=O)c2ccc(-c3c4nc(c(-c5c(F)cccc5F)c5ccc([nH]5)c(-c5c(F)cccc5F)c5nc(c(-c6c(F)cccc6F)c6ccc3[nH]6)C=C5)C=C4)cc2)c1OC
REMARK SMILES IDX 25 1 24 2 23 3 22 4 21 5 20 6 18 7 19 8 17 9 3 10 4 11 86 12
REMARK SMILES IDX 5 13 6 14 2 15 1 16 87 17 88 18 7 19 8 20 16 21 9 22 15 23
REMARK SMILES IDX 10 25 14 26 11 27 12 28 13 29 26 30 27 31 28 32 29 33 30 34
REMARK SMILES IDX 31 35 32 36 33 37 85 38 34 39 84 40 35 41 36 42 37 43 78 44
REMARK SMILES IDX 38 45 83 46 77 47 79 48 39 49 82 50 76 51 75 52 40 54 66 55
REMARK SMILES IDX 49 56 65 57 50 58 53 59 64 60 80 61 51 62 52 63 63 65 81 66
REMARK SMILES IDX 54 67 41 68 42 69 47 70 43 71 44 72 46 73 48 74 45 75 67 76
REMARK SMILES IDX 68 77 73 78 69 79 70 80 72 81 74 82 71 83 55 84 56 85 61 86
REMARK SMILES IDX 57 87 58 88 60 89 62 90 59 91
REMARK H PARENT 16 24 79 53 53 64
REMARK Flexibility Score: inf
ROOT
ATOM      1  C   UNL     1       4.819  -3.442  -2.988  1.00  0.00     0.188 C 
ENDROOT
BRANCH   1   2
ATOM      2  C   UNL     1       5.581  -3.003  -4.247  1.00  0.00     0.188 C 
BRANCH   2   3
ATOM      3  O   UNL     1       6.739  -2.208  -3.993  1.00  0.00    -0.376 OA
BRANCH   3   4
ATOM      4  C   UNL     1       6.700  -0.935  -4.644  1.00  0.00     0.202 C 
BRANCH   4   5
ATOM      5  C   UNL     1       6.023   0.097  -3.745  1.00  0.00     0.261 C 
BRANCH   5   6
ATOM      6  O   UNL     1       4.675  -0.284  -3.426  1.00  0.00    -0.460 OA
BRANCH   6   7
ATOM      7  C   UNL     1       3.686   0.135  -4.245  1.00  0.00     0.342 C 
ATOM      8  O   UNL     1       3.807   0.839  -5.236  1.00  0.00    -0.246 OA
BRANCH   7   9
ATOM      9  C   UNL     1       2.405  -0.477  -3.803  1.00  0.00     0.116 A 
ATOM     10  C   UNL     1       0.815  -1.018  -2.056  1.00  0.00     0.161 A 
ATOM     11  C   UNL     1       0.023  -1.692  -2.988  1.00  0.00     0.051 A 
ATOM     12  C   UNL     1       2.009  -0.397  -2.453  1.00  0.00     0.176 A 
ATOM     13  C   UNL     1       0.414  -1.769  -4.327  1.00  0.00     0.017 A 
ATOM     14  C   UNL     1       1.620  -1.190  -4.742  1.00  0.00     0.036 A 
BRANCH  10  15
ATOM     15  O   UNL     1       0.430  -1.120  -0.747  1.00  0.00    -0.493 OA
ATOM     16  C   UNL     1      -0.091   0.098  -0.224  1.00  0.00     0.278 C 
ENDBRANCH  10  15
BRANCH  12  17
ATOM     17  O   UNL     1       2.768   0.352  -1.589  1.00  0.00    -0.492 OA
ATOM     18  C   UNL     1       3.229  -0.356  -0.436  1.00  0.00     0.278 C 
ENDBRANCH  12  17
BRANCH  14  19
ATOM     19  C   UNL     1       2.167  -1.552  -6.047  1.00  0.00     0.139 A 
ATOM     20  N   UNL     1       3.164  -2.398  -6.189  1.00  0.00    -0.228 NA
ATOM     21  N   UNL     1       1.800  -1.040  -7.270  1.00  0.00    -0.338 N 
ATOM     22  C   UNL     1       3.596  -2.261  -7.473  1.00  0.00     0.089 A 
ATOM     23  C   UNL     1       2.734  -1.451  -8.198  1.00  0.00     0.066 A 
ATOM     24  H   UNL     1       1.011  -0.479  -7.451  1.00  0.00     0.168 HD
ATOM     25  C   UNL     1       4.734  -2.806  -8.080  1.00  0.00     0.031 A 
ATOM     26  C   UNL     1       2.920  -1.187  -9.560  1.00  0.00     0.031 A 
ATOM     27  C   UNL     1       4.955  -2.541  -9.432  1.00  0.00     0.006 A 
ATOM     28  C   UNL     1       4.051  -1.765 -10.174  1.00  0.00    -0.049 A 
ATOM     29  C   UNL     1       4.303  -1.593 -11.645  1.00  0.00     0.044 C 
ENDBRANCH  14  19
ENDBRANCH   7   9
ENDBRANCH   6   7
ENDBRANCH   5   6
ENDBRANCH   4   5
ENDBRANCH   3   4
ENDBRANCH   2   3
ENDBRANCH   1   2
BRANCH   1  30
ATOM     30  O   UNL     1       5.517  -3.994  -1.875  1.00  0.00    -0.376 OA
BRANCH  30  31
ATOM     31  C   UNL     1       6.812  -4.528  -2.083  1.00  0.00     0.202 C 
BRANCH  31  32
ATOM     32  C   UNL     1       6.867  -5.924  -2.710  1.00  0.00     0.261 C 
BRANCH  32  33
ATOM     33  O   UNL     1       6.191  -6.034  -3.975  1.00  0.00    -0.460 OA
BRANCH  33  34
ATOM     34  C   UNL     1       4.968  -6.616  -3.929  1.00  0.00     0.338 C 
ATOM     35  O   UNL     1       4.402  -7.067  -2.947  1.00  0.00    -0.246 OA
BRANCH  34  36
ATOM     36  C   UNL     1       4.327  -6.588  -5.261  1.00  0.00     0.060 A 
ATOM     37  C   UNL     1       3.014  -6.113  -5.358  1.00  0.00     0.016 A 
ATOM     38  C   UNL     1       4.953  -7.148  -6.378  1.00  0.00     0.016 A 
ATOM     39  C   UNL     1       2.303  -6.242  -6.554  1.00  0.00     0.010 A 
ATOM     40  C   UNL     1       4.235  -7.287  -7.574  1.00  0.00     0.010 A 
ATOM     41  C   UNL     1       2.893  -6.871  -7.658  1.00  0.00    -0.014 A 
BRANCH  41  42
ATOM     42  C   UNL     1       2.072  -7.245  -8.842  1.00  0.00     0.031 A 
ATOM     43  C   UNL     1       1.580  -8.658  -8.977  1.00  0.00     0.074 A 
ATOM     44  C   UNL     1       1.755  -6.356  -9.799  1.00  0.00     0.049 A 
ATOM     45  N   UNL     1       0.947  -9.223  -9.974  1.00  0.00    -0.248 NA
ATOM     46  C   UNL     1       1.832  -9.548  -7.835  1.00  0.00     0.031 C 
ATOM     47  C   UNL     1       2.102  -4.944  -9.771  1.00  0.00     0.029 A 
ATOM     48  N   UNL     1       1.086  -6.514 -10.989  1.00  0.00    -0.354 N 
ATOM     49  C   UNL     1       0.724 -10.534  -9.582  1.00  0.00     0.074 A 
ATOM     50  C   UNL     1       1.318 -10.690  -8.270  1.00  0.00     0.031 C 
ATOM     51  C   UNL     1       1.684  -4.367 -10.910  1.00  0.00     0.029 A 
ATOM     52  C   UNL     1       1.066  -5.377 -11.758  1.00  0.00     0.049 A 
ATOM     53  H   UNL     1       0.663  -7.360 -11.263  1.00  0.00     0.167 HD
ATOM     54  C   UNL     1       0.077 -11.519 -10.250  1.00  0.00     0.037 A 
ATOM     55  C   UNL     1       0.634  -5.169 -13.016  1.00  0.00     0.037 A 
ATOM     56  C   UNL     1      -0.506 -11.376 -11.558  1.00  0.00     0.049 A 
ATOM     57  C   UNL     1       0.013  -6.297 -13.784  1.00  0.00     0.074 A 
ATOM     58  C   UNL     1      -1.189 -12.321 -12.305  1.00  0.00     0.029 A 
ATOM     59  N   UNL     1      -0.467 -10.219 -12.321  1.00  0.00    -0.354 N 
ATOM     60  N   UNL     1      -0.187  -7.535 -13.408  1.00  0.00    -0.248 NA
ATOM     61  C   UNL     1      -0.448  -5.999 -15.148  1.00  0.00     0.031 C 
ATOM     62  C   UNL     1      -1.524 -11.749 -13.538  1.00  0.00     0.029 A 
ATOM     63  C   UNL     1      -1.092 -10.433 -13.540  1.00  0.00     0.049 A 
ATOM     64  H   UNL     1      -0.056  -9.370 -12.038  1.00  0.00     0.167 HD
ATOM     65  C   UNL     1      -0.814  -8.159 -14.476  1.00  0.00     0.074 A 
ATOM     66  C   UNL     1      -0.966  -7.162 -15.516  1.00  0.00     0.031 C 
ATOM     67  C   UNL     1      -1.232  -9.443 -14.577  1.00  0.00     0.037 A 
BRANCH  54  68
ATOM     68  C   UNL     1      -0.003 -12.854  -9.575  1.00  0.00     0.057 A 
ATOM     69  C   UNL     1      -0.836 -13.075  -8.471  1.00  0.00     0.134 A 
ATOM     70  C   UNL     1       0.760 -13.933 -10.039  1.00  0.00     0.134 A 
ATOM     71  F   UNL     1      -1.580 -12.078  -7.970  1.00  0.00    -0.206 F 
ATOM     72  C   UNL     1      -0.886 -14.316  -7.834  1.00  0.00     0.040 A 
ATOM     73  C   UNL     1       0.700 -15.184  -9.425  1.00  0.00     0.040 A 
ATOM     74  F   UNL     1       1.576 -13.787 -11.094  1.00  0.00    -0.206 F 
ATOM     75  C   UNL     1      -0.119 -15.376  -8.314  1.00  0.00     0.006 A 
ENDBRANCH  54  68
BRANCH  55  76
ATOM     76  C   UNL     1       0.812  -3.842 -13.652  1.00  0.00     0.057 A 
ATOM     77  C   UNL     1      -0.262  -2.962 -13.817  1.00  0.00     0.134 A 
ATOM     78  C   UNL     1       2.064  -3.435 -14.129  1.00  0.00     0.134 A 
ATOM     79  F   UNL     1      -1.489  -3.309 -13.405  1.00  0.00    -0.206 F 
ATOM     80  C   UNL     1      -0.099  -1.723 -14.440  1.00  0.00     0.040 A 
ATOM     81  C   UNL     1       2.244  -2.195 -14.741  1.00  0.00     0.040 A 
ATOM     82  F   UNL     1       3.131  -4.237 -14.000  1.00  0.00    -0.206 F 
ATOM     83  C   UNL     1       1.159  -1.335 -14.900  1.00  0.00     0.006 A 
ENDBRANCH  55  76
BRANCH  67  84
ATOM     84  C   UNL     1      -1.921  -9.842 -15.847  1.00  0.00     0.057 A 
ATOM     85  C   UNL     1      -1.216 -10.040 -17.040  1.00  0.00     0.134 A 
ATOM     86  C   UNL     1      -3.304 -10.062 -15.866  1.00  0.00     0.134 A 
ATOM     87  F   UNL     1       0.107  -9.827 -17.091  1.00  0.00    -0.206 F 
ATOM     88  C   UNL     1      -1.865 -10.432 -18.212  1.00  0.00     0.040 A 
ATOM     89  C   UNL     1      -3.961 -10.475 -17.026  1.00  0.00     0.040 A 
ATOM     90  F   UNL     1      -4.037  -9.889 -14.756  1.00  0.00    -0.206 F 
ATOM     91  C   UNL     1      -3.241 -10.658 -18.205  1.00  0.00     0.006 A 
ENDBRANCH  67  84
ENDBRANCH  41  42
ENDBRANCH  34  36
ENDBRANCH  33  34
ENDBRANCH  32  33
ENDBRANCH  31  32
ENDBRANCH  30  31
ENDBRANCH   1  30
TORSDOF 20
