REMARK SMILES CCCN1C(=O)C[C@H](C(=O)OCCOCCOCCOC(=O)c2ccc(-c3c4nc(c(-c5c(F)cccc5F)c5ccc([nH]5)c(-c5c(F)cccc5F)c5nc(c(-c6c(F)cccc6F)c6ccc3[nH]6)C=C5)C=C4)cc2)[C@@H]1c1cncn1C1CC1
REMARK SMILES IDX 15 1 14 2 13 3 12 4 11 5 9 6 10 7 8 8 4 9 5 10 77 11 6 12
REMARK SMILES IDX 7 13 3 14 2 15 1 16 78 17 79 18 82 19 80 20 81 21 83 22
REMARK SMILES IDX 84 23 85 24 16 25 17 26 18 27 19 28 20 29 21 30 22 31 23 32
REMARK SMILES IDX 24 33 76 34 25 35 75 36 26 37 27 38 28 39 69 40 29 41 74 42
REMARK SMILES IDX 68 43 70 44 30 45 73 46 67 47 66 48 31 50 57 51 40 52 56 53
REMARK SMILES IDX 41 54 44 55 55 56 71 57 42 58 43 59 54 61 72 62 45 63 32 64
REMARK SMILES IDX 33 65 38 66 34 67 35 68 37 69 39 70 36 71 58 72 59 73 64 74
REMARK SMILES IDX 60 75 61 76 63 77 65 78 62 79 46 80 47 81 52 82 48 83 49 84
REMARK SMILES IDX 51 85 53 86 50 87
REMARK H PARENT 70 49 44 60
REMARK Flexibility Score: inf
ROOT
ATOM      1  C   UNL     1      -0.331  -7.880   0.869  1.00  0.00     0.188 C 
ENDROOT
BRANCH   1   2
ATOM      2  O   UNL     1       0.721  -8.827   0.722  1.00  0.00    -0.376 OA
BRANCH   2   3
ATOM      3  C   UNL     1       2.073  -8.406   0.840  1.00  0.00     0.202 C 
BRANCH   3   4
ATOM      4  C   UNL     1       2.591  -7.310  -0.104  1.00  0.00     0.261 C 
BRANCH   4   5
ATOM      5  O   UNL     1       1.822  -6.089  -0.156  1.00  0.00    -0.463 OA
BRANCH   5   6
ATOM      6  C   UNL     1       1.142  -5.854  -1.307  1.00  0.00     0.312 C 
ATOM      7  O   UNL     1       1.082  -6.633  -2.253  1.00  0.00    -0.252 OA
BRANCH   6   8
ATOM      8  C   UNL     1       0.476  -4.498  -1.375  1.00  0.00     0.137 C 
ATOM      9  N   UNL     1       0.620  -2.156  -1.508  1.00  0.00    -0.333 N 
ATOM     10  C   UNL     1      -0.370  -2.494  -0.579  1.00  0.00     0.224 C 
ATOM     11  C   UNL     1       1.328  -3.354  -1.943  1.00  0.00     0.148 C 
ATOM     12  O   UNL     1      -1.317  -1.828  -0.197  1.00  0.00    -0.275 OA
ATOM     13  C   UNL     1      -0.118  -3.895  -0.122  1.00  0.00     0.118 C 
BRANCH   9  14
ATOM     14  C   UNL     1       0.494  -0.999  -2.400  1.00  0.00     0.120 C 
BRANCH  14  15
ATOM     15  C   UNL     1      -0.281   0.238  -1.906  1.00  0.00     0.018 C 
ATOM     16  C   UNL     1       0.109   0.833  -0.559  1.00  0.00     0.006 C 
ENDBRANCH  14  15
ENDBRANCH   9  14
BRANCH  11  17
ATOM     17  C   UNL     1       2.810  -3.503  -1.713  1.00  0.00     0.061 A 
ATOM     18  C   UNL     1       3.553  -4.440  -2.446  1.00  0.00     0.136 A 
ATOM     19  N   UNL     1       3.770  -2.979  -0.859  1.00  0.00    -0.330 N 
ATOM     20  N   UNL     1       4.831  -4.573  -2.015  1.00  0.00    -0.245 NA
ATOM     21  C   UNL     1       4.933  -3.691  -1.059  1.00  0.00     0.199 A 
BRANCH  19  22
ATOM     22  C   UNL     1       3.838  -1.897   0.101  1.00  0.00     0.088 C 
ATOM     23  C   UNL     1       3.046  -0.628   0.020  1.00  0.00     0.027 C 
ATOM     24  C   UNL     1       2.788  -1.582   1.134  1.00  0.00     0.027 C 
ENDBRANCH  19  22
ENDBRANCH  11  17
ENDBRANCH   6   8
ENDBRANCH   5   6
ENDBRANCH   4   5
ENDBRANCH   3   4
ENDBRANCH   2   3
ENDBRANCH   1   2
BRANCH   1  25
ATOM     25  C   UNL     1      -0.160  -6.694   1.833  1.00  0.00     0.188 C 
BRANCH  25  26
ATOM     26  O   UNL     1       0.926  -6.811   2.718  1.00  0.00    -0.376 OA
BRANCH  26  27
ATOM     27  C   UNL     1       0.656  -6.993   4.090  1.00  0.00     0.202 C 
BRANCH  27  28
ATOM     28  C   UNL     1      -0.329  -8.088   4.530  1.00  0.00     0.261 C 
BRANCH  28  29
ATOM     29  O   UNL     1      -1.481  -8.318   3.699  1.00  0.00    -0.460 OA
BRANCH  29  30
ATOM     30  C   UNL     1      -2.531  -7.477   3.824  1.00  0.00     0.338 C 
ATOM     31  O   UNL     1      -2.614  -6.513   4.573  1.00  0.00    -0.246 OA
BRANCH  30  32
ATOM     32  C   UNL     1      -3.493  -7.782   2.736  1.00  0.00     0.060 A 
ATOM     33  C   UNL     1      -3.792  -6.798   1.781  1.00  0.00     0.016 A 
ATOM     34  C   UNL     1      -4.085  -9.043   2.648  1.00  0.00     0.016 A 
ATOM     35  C   UNL     1      -4.705  -7.064   0.754  1.00  0.00     0.010 A 
ATOM     36  C   UNL     1      -5.015  -9.300   1.634  1.00  0.00     0.010 A 
ATOM     37  C   UNL     1      -5.354  -8.304   0.699  1.00  0.00    -0.014 A 
BRANCH  37  38
ATOM     38  C   UNL     1      -6.526  -8.508  -0.193  1.00  0.00     0.031 A 
ATOM     39  C   UNL     1      -7.903  -8.385   0.402  1.00  0.00     0.074 A 
ATOM     40  C   UNL     1      -6.388  -8.813  -1.496  1.00  0.00     0.049 A 
ATOM     41  N   UNL     1      -9.071  -8.630  -0.135  1.00  0.00    -0.248 NA
ATOM     42  C   UNL     1      -7.966  -7.931   1.800  1.00  0.00     0.031 C 
ATOM     43  C   UNL     1      -5.120  -8.918  -2.213  1.00  0.00     0.029 A 
ATOM     44  N   UNL     1      -7.338  -9.112  -2.443  1.00  0.00    -0.354 N 
ATOM     45  C   UNL     1     -10.004  -8.375   0.862  1.00  0.00     0.074 A 
ATOM     46  C   UNL     1      -9.266  -7.986   2.044  1.00  0.00     0.031 C 
ATOM     47  C   UNL     1      -5.370  -9.277  -3.486  1.00  0.00     0.029 A 
ATOM     48  C   UNL     1      -6.810  -9.466  -3.661  1.00  0.00     0.049 A 
ATOM     49  H   UNL     1      -8.306  -9.076  -2.266  1.00  0.00     0.167 HD
ATOM     50  C   UNL     1     -11.355  -8.451   0.800  1.00  0.00     0.037 A 
ATOM     51  C   UNL     1      -7.416  -9.920  -4.777  1.00  0.00     0.037 A 
ATOM     52  C   UNL     1     -12.092  -8.844  -0.373  1.00  0.00     0.049 A 
ATOM     53  C   UNL     1      -8.916 -10.085  -4.797  1.00  0.00     0.074 A 
ATOM     54  C   UNL     1     -13.463  -8.937  -0.538  1.00  0.00     0.029 A 
ATOM     55  N   UNL     1     -11.517  -9.222  -1.577  1.00  0.00    -0.354 N 
ATOM     56  N   UNL     1      -9.793  -9.824  -3.858  1.00  0.00    -0.248 NA
ATOM     57  C   UNL     1      -9.510 -10.611  -6.036  1.00  0.00     0.031 C 
ATOM     58  C   UNL     1     -13.716  -9.430  -1.822  1.00  0.00     0.029 A 
ATOM     59  C   UNL     1     -12.505  -9.578  -2.480  1.00  0.00     0.049 A 
ATOM     60  H   UNL     1     -10.550  -9.234  -1.762  1.00  0.00     0.167 HD
ATOM     61  C   UNL     1     -11.039 -10.117  -4.403  1.00  0.00     0.074 A 
ATOM     62  C   UNL     1     -10.806 -10.569  -5.758  1.00  0.00     0.031 C 
ATOM     63  C   UNL     1     -12.265 -10.016  -3.833  1.00  0.00     0.037 A 
BRANCH  50  64
ATOM     64  C   UNL     1     -12.121  -8.138   2.054  1.00  0.00     0.057 A 
ATOM     65  C   UNL     1     -12.192  -6.840   2.578  1.00  0.00     0.134 A 
ATOM     66  C   UNL     1     -12.812  -9.147   2.736  1.00  0.00     0.134 A 
ATOM     67  F   UNL     1     -11.542  -5.829   1.982  1.00  0.00    -0.206 F 
ATOM     68  C   UNL     1     -12.894  -6.565   3.753  1.00  0.00     0.040 A 
ATOM     69  C   UNL     1     -13.544  -8.878   3.894  1.00  0.00     0.040 A 
ATOM     70  F   UNL     1     -12.792 -10.411   2.287  1.00  0.00    -0.206 F 
ATOM     71  C   UNL     1     -13.579  -7.585   4.411  1.00  0.00     0.006 A 
ENDBRANCH  50  64
BRANCH  51  72
ATOM     72  C   UNL     1      -6.609 -10.273  -5.974  1.00  0.00     0.057 A 
ATOM     73  C   UNL     1      -6.701  -9.529  -7.156  1.00  0.00     0.134 A 
ATOM     74  C   UNL     1      -5.750 -11.379  -5.977  1.00  0.00     0.134 A 
ATOM     75  F   UNL     1      -7.529  -8.476  -7.228  1.00  0.00    -0.206 F 
ATOM     76  C   UNL     1      -5.981  -9.879  -8.301  1.00  0.00     0.040 A 
ATOM     77  C   UNL     1      -5.003 -11.724  -7.105  1.00  0.00     0.040 A 
ATOM     78  F   UNL     1      -5.620 -12.139  -4.880  1.00  0.00    -0.206 F 
ATOM     79  C   UNL     1      -5.123 -10.976  -8.274  1.00  0.00     0.006 A 
ENDBRANCH  51  72
BRANCH  63  80
ATOM     80  C   UNL     1     -13.460 -10.350  -4.683  1.00  0.00     0.057 A 
ATOM     81  C   UNL     1     -13.759 -11.662  -5.069  1.00  0.00     0.134 A 
ATOM     82  C   UNL     1     -14.354  -9.344  -5.076  1.00  0.00     0.134 A 
ATOM     83  F   UNL     1     -12.942 -12.673  -4.736  1.00  0.00    -0.206 F 
ATOM     84  C   UNL     1     -14.890 -11.959  -5.835  1.00  0.00     0.040 A 
ATOM     85  C   UNL     1     -15.503  -9.632  -5.814  1.00  0.00     0.040 A 
ATOM     86  F   UNL     1     -14.137  -8.066  -4.731  1.00  0.00    -0.206 F 
ATOM     87  C   UNL     1     -15.770 -10.943  -6.202  1.00  0.00     0.006 A 
ENDBRANCH  63  80
ENDBRANCH  37  38
ENDBRANCH  30  32
ENDBRANCH  29  30
ENDBRANCH  28  29
ENDBRANCH  27  28
ENDBRANCH  26  27
ENDBRANCH  25  26
ENDBRANCH   1  25
TORSDOF 21
