REMARK SMILES CC(C)c1ccc2c(c1)c(SC(C)(C)C)c(CC(C)(C)C(=O)OCCOCCOCCOC(=O)c1ccc(-c3c4nc(c(-c5c(F)cccc5F)c5ccc([nH]5)c(-c5c(F)cccc5F)c5nc(c(-c6c(F)cccc6F)c6ccc3[nH]6)C=C5)C=C4)cc1)n2Cc1ccc(Cl)cc1
REMARK SMILES IDX 27 1 26 2 25 3 24 4 23 5 21 6 22 7 18 8 19 9 20 10 17 11
REMARK SMILES IDX 16 12 4 13 5 14 9 15 6 16 8 17 7 18 10 19 89 20 2 21 1 22
REMARK SMILES IDX 3 23 11 24 12 25 13 26 14 27 15 28 90 29 91 30 92 31 97 32
REMARK SMILES IDX 93 33 96 34 94 35 95 36 28 37 29 38 30 39 31 40 32 41 33 42
REMARK SMILES IDX 34 43 35 44 36 45 88 46 37 47 87 48 38 49 39 50 40 51 81 52
REMARK SMILES IDX 41 53 86 54 80 55 82 56 42 57 85 58 79 59 78 60 43 62 69 63
REMARK SMILES IDX 52 64 68 65 53 66 56 67 67 68 83 69 54 70 55 71 66 73 84 74
REMARK SMILES IDX 57 75 44 76 45 77 50 78 46 79 47 80 49 81 51 82 48 83 70 84
REMARK SMILES IDX 71 85 76 86 72 87 73 88 75 89 77 90 74 91 58 92 59 93 64 94
REMARK SMILES IDX 60 95 61 96 63 97 65 98 62 99
REMARK H PARENT 82 61 56 72
REMARK Flexibility Score: inf
ROOT
ATOM      1  C   UNL     1      -8.095   1.721   5.972  1.00  0.00     0.188 C 
ENDROOT
BRANCH   1   2
ATOM      2  O   UNL     1      -8.025   0.765   7.001  1.00  0.00    -0.376 OA
BRANCH   2   3
ATOM      3  C   UNL     1      -7.115   1.151   8.053  1.00  0.00     0.202 C 
BRANCH   3   4
ATOM      4  C   UNL     1      -5.916   2.131   7.864  1.00  0.00     0.261 C 
BRANCH   4   5
ATOM      5  O   UNL     1      -6.149   3.200   6.941  1.00  0.00    -0.463 OA
BRANCH   5   6
ATOM      6  C   UNL     1      -5.640   2.927   5.711  1.00  0.00     0.311 C 
ATOM      7  O   UNL     1      -4.774   2.079   5.537  1.00  0.00    -0.252 OA
BRANCH   6   8
ATOM      8  C   UNL     1      -6.240   3.803   4.599  1.00  0.00     0.068 C 
ATOM      9  C   UNL     1      -5.224   4.955   4.809  1.00  0.00     0.024 C 
ATOM     10  C   UNL     1      -7.625   4.508   4.766  1.00  0.00     0.024 C 
BRANCH   8  11
ATOM     11  C   UNL     1      -6.426   2.856   3.297  1.00  0.00     0.073 C 
BRANCH  11  12
ATOM     12  C   UNL     1      -5.266   2.042   2.876  1.00  0.00     0.034 A 
ATOM     13  C   UNL     1      -0.695   0.360   2.035  1.00  0.00    -0.045 A 
ATOM     14  C   UNL     1      -1.571  -0.801   2.439  1.00  0.00     0.006 A 
ATOM     15  C   UNL     1      -1.746   1.569   2.169  1.00  0.00     0.015 A 
ATOM     16  C   UNL     1      -2.942  -0.778   2.813  1.00  0.00     0.027 A 
ATOM     17  C   UNL     1      -3.125   1.629   2.441  1.00  0.00     0.014 A 
ATOM     18  C   UNL     1      -3.685   0.412   2.771  1.00  0.00     0.050 A 
ATOM     19  C   UNL     1      -4.118   2.680   2.460  1.00  0.00     0.037 A 
ATOM     20  N   UNL     1      -5.052   0.627   2.905  1.00  0.00    -0.339 N 
BRANCH  13  21
ATOM     21  C   UNL     1       1.356   0.487   1.436  1.00  0.00     0.013 C 
ATOM     22  C   UNL     1       2.158   0.207  -0.145  1.00  0.00     0.012 C 
ATOM     23  C   UNL     1       2.593   1.819   1.715  1.00  0.00     0.012 C 
ENDBRANCH  13  21
BRANCH  19  24
ATOM     24  S   UNL     1      -3.881   4.487   2.172  1.00  0.00    -0.118 SA
BRANCH  24  25
ATOM     25  C   UNL     1      -5.401   5.699   1.390  1.00  0.00     0.012 C 
ATOM     26  C   UNL     1      -6.140   5.479   0.039  1.00  0.00     0.023 C 
ATOM     27  C   UNL     1      -6.607   6.181   2.232  1.00  0.00     0.023 C 
ATOM     28  C   UNL     1      -4.538   6.965   1.158  1.00  0.00     0.023 C 
ENDBRANCH  24  25
ENDBRANCH  19  24
BRANCH  20  29
ATOM     29  C   UNL     1      -5.906  -0.542   2.534  1.00  0.00     0.158 C 
BRANCH  29  30
ATOM     30  C   UNL     1      -6.638  -1.354   3.587  1.00  0.00    -0.028 A 
ATOM     31  C   UNL     1      -7.888  -0.911   3.989  1.00  0.00     0.007 A 
ATOM     32  C   UNL     1      -6.248  -2.613   4.078  1.00  0.00     0.007 A 
ATOM     33  C   UNL     1      -8.670  -1.586   4.936  1.00  0.00     0.021 A 
ATOM     34  C   UNL     1      -7.020  -3.297   5.048  1.00  0.00     0.021 A 
ATOM     35  C   UNL     1      -8.207  -2.748   5.511  1.00  0.00     0.041 A 
ATOM     36  Cl  UNL     1      -9.110  -3.478   6.778  1.00  0.00    -0.084 Cl
ENDBRANCH  29  30
ENDBRANCH  20  29
ENDBRANCH  11  12
ENDBRANCH   8  11
ENDBRANCH   6   8
ENDBRANCH   5   6
ENDBRANCH   4   5
ENDBRANCH   3   4
ENDBRANCH   2   3
ENDBRANCH   1   2
BRANCH   1  37
ATOM     37  C   UNL     1      -9.253   1.761   5.022  1.00  0.00     0.188 C 
BRANCH  37  38
ATOM     38  O   UNL     1     -10.307   2.596   5.457  1.00  0.00    -0.376 OA
BRANCH  38  39
ATOM     39  C   UNL     1     -11.275   1.777   6.080  1.00  0.00     0.202 C 
BRANCH  39  40
ATOM     40  C   UNL     1     -12.044   0.880   5.062  1.00  0.00     0.261 C 
BRANCH  40  41
ATOM     41  O   UNL     1     -11.327   0.519   3.812  1.00  0.00    -0.460 OA
BRANCH  41  42
ATOM     42  C   UNL     1     -11.421   1.362   2.736  1.00  0.00     0.338 C 
ATOM     43  O   UNL     1     -12.265   2.241   2.640  1.00  0.00    -0.246 OA
BRANCH  42  44
ATOM     44  C   UNL     1     -10.262   1.262   1.735  1.00  0.00     0.060 A 
ATOM     45  C   UNL     1      -9.600   0.101   1.352  1.00  0.00     0.016 A 
ATOM     46  C   UNL     1      -9.791   2.443   1.127  1.00  0.00     0.016 A 
ATOM     47  C   UNL     1      -8.457   0.161   0.478  1.00  0.00     0.010 A 
ATOM     48  C   UNL     1      -8.634   2.492   0.267  1.00  0.00     0.010 A 
ATOM     49  C   UNL     1      -7.868   1.362  -0.033  1.00  0.00    -0.014 A 
BRANCH  49  50
ATOM     50  C   UNL     1      -6.640   1.315  -1.012  1.00  0.00     0.031 A 
ATOM     51  C   UNL     1      -6.620   0.072  -1.773  1.00  0.00     0.074 A 
ATOM     52  C   UNL     1      -5.492   2.049  -1.271  1.00  0.00     0.049 A 
ATOM     53  N   UNL     1      -5.796  -0.897  -1.539  1.00  0.00    -0.248 NA
ATOM     54  C   UNL     1      -7.684  -0.226  -2.727  1.00  0.00     0.031 C 
ATOM     55  C   UNL     1      -5.047   3.053  -0.380  1.00  0.00     0.029 A 
ATOM     56  N   UNL     1      -4.393   2.087  -2.215  1.00  0.00    -0.354 N 
ATOM     57  C   UNL     1      -5.966  -1.716  -2.632  1.00  0.00     0.074 A 
ATOM     58  C   UNL     1      -7.279  -1.424  -3.156  1.00  0.00     0.031 C 
ATOM     59  C   UNL     1      -4.038   3.797  -0.865  1.00  0.00     0.029 A 
ATOM     60  C   UNL     1      -3.681   3.352  -2.170  1.00  0.00     0.049 A 
ATOM     61  H   UNL     1      -4.157   1.344  -2.815  1.00  0.00     0.167 HD
ATOM     62  C   UNL     1      -4.845  -2.129  -3.271  1.00  0.00     0.037 A 
ATOM     63  C   UNL     1      -2.575   3.958  -2.729  1.00  0.00     0.037 A 
ATOM     64  C   UNL     1      -3.680  -2.134  -2.423  1.00  0.00     0.049 A 
ATOM     65  C   UNL     1      -1.587   2.904  -2.981  1.00  0.00     0.074 A 
ATOM     66  C   UNL     1      -3.220  -2.924  -1.404  1.00  0.00     0.029 A 
ATOM     67  N   UNL     1      -2.909  -0.999  -2.428  1.00  0.00    -0.354 N 
ATOM     68  N   UNL     1      -0.850   2.374  -2.048  1.00  0.00    -0.248 NA
ATOM     69  C   UNL     1      -1.741   2.130  -4.196  1.00  0.00     0.031 C 
ATOM     70  C   UNL     1      -2.151  -2.213  -0.802  1.00  0.00     0.029 A 
ATOM     71  C   UNL     1      -1.869  -1.050  -1.517  1.00  0.00     0.049 A 
ATOM     72  H   UNL     1      -3.079  -0.229  -3.018  1.00  0.00     0.167 HD
ATOM     73  C   UNL     1      -0.880   1.031  -2.341  1.00  0.00     0.074 A 
ATOM     74  C   UNL     1      -1.329   0.950  -3.732  1.00  0.00     0.031 C 
ATOM     75  C   UNL     1      -0.952   0.096  -1.353  1.00  0.00     0.037 A 
BRANCH  62  76
ATOM     76  C   UNL     1      -4.685  -2.042  -4.758  1.00  0.00     0.057 A 
ATOM     77  C   UNL     1      -5.276  -1.034  -5.546  1.00  0.00     0.134 A 
ATOM     78  C   UNL     1      -3.651  -2.768  -5.364  1.00  0.00     0.134 A 
ATOM     79  F   UNL     1      -6.196  -0.191  -5.065  1.00  0.00    -0.206 F 
ATOM     80  C   UNL     1      -4.865  -0.762  -6.849  1.00  0.00     0.040 A 
ATOM     81  C   UNL     1      -3.197  -2.469  -6.650  1.00  0.00     0.040 A 
ATOM     82  F   UNL     1      -3.002  -3.728  -4.688  1.00  0.00    -0.206 F 
ATOM     83  C   UNL     1      -3.801  -1.461  -7.395  1.00  0.00     0.006 A 
ENDBRANCH  62  76
BRANCH  63  84
ATOM     84  C   UNL     1      -2.207   5.431  -2.837  1.00  0.00     0.057 A 
ATOM     85  C   UNL     1      -3.212   6.417  -2.889  1.00  0.00     0.134 A 
ATOM     86  C   UNL     1      -0.917   5.915  -3.151  1.00  0.00     0.134 A 
ATOM     87  F   UNL     1      -4.490   6.093  -2.666  1.00  0.00    -0.206 F 
ATOM     88  C   UNL     1      -2.979   7.755  -3.261  1.00  0.00     0.040 A 
ATOM     89  C   UNL     1      -0.670   7.253  -3.546  1.00  0.00     0.040 A 
ATOM     90  F   UNL     1       0.146   5.098  -3.149  1.00  0.00    -0.206 F 
ATOM     91  C   UNL     1      -1.708   8.173  -3.624  1.00  0.00     0.006 A 
ENDBRANCH  63  84
BRANCH  75  92
ATOM     92  C   UNL     1      -0.212   0.329  -0.024  1.00  0.00     0.057 A 
ATOM     93  C   UNL     1       0.267  -1.187   0.858  1.00  0.00     0.134 A 
ATOM     94  C   UNL     1       0.082   1.908   0.836  1.00  0.00     0.134 A 
ATOM     95  F   UNL     1       0.391  -2.344   0.181  1.00  0.00    -0.206 F 
ATOM     96  C   UNL     1       0.785  -1.205   2.588  1.00  0.00     0.040 A 
ATOM     97  C   UNL     1       0.534   1.914   2.644  1.00  0.00     0.040 A 
ATOM     98  F   UNL     1      -0.223   3.098   0.291  1.00  0.00    -0.206 F 
ATOM     99  C   UNL     1       0.867   0.345   3.494  1.00  0.00     0.006 A 
ENDBRANCH  75  92
ENDBRANCH  49  50
ENDBRANCH  42  44
ENDBRANCH  41  42
ENDBRANCH  40  41
ENDBRANCH  39  40
ENDBRANCH  38  39
ENDBRANCH  37  38
ENDBRANCH   1  37
TORSDOF 24
