REMARK SMILES CCc1cccc2c3c([nH]c12)[C@](CC)(CC(=O)OCCOCCOCCOC(=O)c1ccc(-c2c4nc(c(-c5c(F)cccc5F)c5ccc([nH]5)c(-c5c(F)cccc5F)c5nc(c(-c6c(F)cccc6F)c6ccc2[nH]6)C=C5)C=C4)cc1)OCC3
REMARK SMILES IDX 22 1 21 2 20 3 19 4 18 5 16 6 17 7 15 8 12 9 3 10 4 11 11 12
REMARK SMILES IDX 5 13 7 14 10 15 6 16 8 17 9 18 86 20 85 21 84 22 2 23 1 24
REMARK SMILES IDX 13 25 14 26 23 27 24 28 25 29 26 30 27 31 28 32 29 33 30 34
REMARK SMILES IDX 31 35 83 36 32 37 82 38 33 39 34 40 35 41 76 42 36 43 81 44
REMARK SMILES IDX 75 45 77 46 37 47 80 48 74 49 73 50 38 52 64 53 47 54 63 55
REMARK SMILES IDX 48 56 51 57 62 58 78 59 49 60 50 61 61 63 79 64 52 65 39 66
REMARK SMILES IDX 40 67 45 68 41 69 42 70 44 71 46 72 43 73 65 74 66 75 71 76
REMARK SMILES IDX 67 77 68 78 70 79 72 80 69 81 53 82 54 83 59 84 55 85 56 86
REMARK SMILES IDX 58 87 60 88 57 89
REMARK H PARENT 10 19 77 51 51 62
REMARK Flexibility Score: inf
ROOT
ATOM      1  C   UNL     1      -2.327  -6.673   3.724  1.00  0.00     0.188 C 
ENDROOT
BRANCH   1   2
ATOM      2  O   UNL     1      -3.036  -7.890   3.939  1.00  0.00    -0.376 OA
BRANCH   2   3
ATOM      3  C   UNL     1      -2.362  -9.118   3.735  1.00  0.00     0.202 C 
BRANCH   3   4
ATOM      4  C   UNL     1      -2.533  -9.715   2.325  1.00  0.00     0.261 C 
BRANCH   4   5
ATOM      5  O   UNL     1      -1.616  -9.262   1.289  1.00  0.00    -0.463 OA
BRANCH   5   6
ATOM      6  C   UNL     1      -1.908  -8.075   0.705  1.00  0.00     0.309 C 
ATOM      7  O   UNL     1      -2.801  -7.349   1.123  1.00  0.00    -0.252 OA
BRANCH   6   8
ATOM      8  C   UNL     1      -1.252  -7.795  -0.628  1.00  0.00     0.164 C 
BRANCH   8   9
ATOM      9  C   UNL     1       0.204  -7.483  -1.006  1.00  0.00     0.118 C 
ATOM     10  C   UNL     1       1.815  -2.776   0.176  1.00  0.00    -0.024 A 
ATOM     11  C   UNL     1       2.639  -2.315   1.225  1.00  0.00     0.006 A 
ATOM     12  C   UNL     1       1.682  -4.191   0.088  1.00  0.00     0.049 A 
ATOM     13  C   UNL     1       3.294  -3.181   2.098  1.00  0.00     0.001 A 
ATOM     14  C   UNL     1       2.293  -5.075   0.982  1.00  0.00     0.003 A 
ATOM     15  N   UNL     1       0.927  -4.982  -0.768  1.00  0.00    -0.356 N 
ATOM     16  C   UNL     1       3.143  -4.561   1.977  1.00  0.00     0.010 A 
ATOM     17  C   UNL     1       1.864  -6.386   0.641  1.00  0.00    -0.014 A 
ATOM     18  C   UNL     1       0.903  -6.299  -0.345  1.00  0.00     0.052 A 
ATOM     19  H   UNL     1       0.469  -4.649  -1.573  1.00  0.00     0.166 HD
ATOM     20  C   UNL     1       2.340  -7.699   1.137  1.00  0.00     0.066 C 
ATOM     21  C   UNL     1       1.465  -8.830   0.582  1.00  0.00     0.166 C 
ATOM     22  O   UNL     1       1.049  -8.634  -0.783  1.00  0.00    -0.368 OA
BRANCH  10  23
ATOM     23  C   UNL     1       1.046  -1.815  -0.711  1.00  0.00     0.034 C 
ATOM     24  C   UNL     1       1.162  -0.323  -0.393  1.00  0.00     0.009 C 
ENDBRANCH  10  23
BRANCH   9  25
ATOM     25  C   UNL     1       0.198  -7.198  -2.555  1.00  0.00     0.039 C 
ATOM     26  C   UNL     1      -0.440  -8.262  -3.443  1.00  0.00     0.007 C 
ENDBRANCH   9  25
ENDBRANCH   8   9
ENDBRANCH   6   8
ENDBRANCH   5   6
ENDBRANCH   4   5
ENDBRANCH   3   4
ENDBRANCH   2   3
ENDBRANCH   1   2
BRANCH   1  27
ATOM     27  C   UNL     1      -0.847  -6.705   3.285  1.00  0.00     0.188 C 
BRANCH  27  28
ATOM     28  O   UNL     1       0.099  -7.039   4.292  1.00  0.00    -0.376 OA
BRANCH  28  29
ATOM     29  C   UNL     1       0.112  -6.168   5.422  1.00  0.00     0.202 C 
BRANCH  29  30
ATOM     30  C   UNL     1       0.199  -4.662   5.101  1.00  0.00     0.261 C 
BRANCH  30  31
ATOM     31  O   UNL     1      -1.075  -4.193   4.593  1.00  0.00    -0.460 OA
BRANCH  31  32
ATOM     32  C   UNL     1      -1.018  -3.127   3.744  1.00  0.00     0.338 C 
ATOM     33  O   UNL     1      -0.160  -2.284   3.712  1.00  0.00    -0.246 OA
BRANCH  32  34
ATOM     34  C   UNL     1      -1.964  -3.415   2.623  1.00  0.00     0.060 A 
ATOM     35  C   UNL     1      -3.351  -3.444   2.704  1.00  0.00     0.016 A 
ATOM     36  C   UNL     1      -1.361  -3.808   1.433  1.00  0.00     0.016 A 
ATOM     37  C   UNL     1      -4.101  -3.901   1.592  1.00  0.00     0.010 A 
ATOM     38  C   UNL     1      -2.095  -4.289   0.346  1.00  0.00     0.010 A 
ATOM     39  C   UNL     1      -3.479  -4.368   0.413  1.00  0.00    -0.014 A 
BRANCH  39  40
ATOM     40  C   UNL     1      -4.227  -4.550  -0.852  1.00  0.00     0.031 A 
ATOM     41  C   UNL     1      -4.687  -3.255  -1.383  1.00  0.00     0.074 A 
ATOM     42  C   UNL     1      -4.509  -5.598  -1.669  1.00  0.00     0.049 A 
ATOM     43  N   UNL     1      -5.897  -2.836  -1.263  1.00  0.00    -0.248 NA
ATOM     44  C   UNL     1      -3.765  -2.311  -2.014  1.00  0.00     0.031 C 
ATOM     45  C   UNL     1      -4.188  -7.008  -1.554  1.00  0.00     0.029 A 
ATOM     46  N   UNL     1      -5.178  -5.575  -2.876  1.00  0.00    -0.354 N 
ATOM     47  C   UNL     1      -5.964  -1.647  -1.954  1.00  0.00     0.074 A 
ATOM     48  C   UNL     1      -4.602  -1.305  -2.295  1.00  0.00     0.031 C 
ATOM     49  C   UNL     1      -4.400  -7.662  -2.717  1.00  0.00     0.029 A 
ATOM     50  C   UNL     1      -5.129  -6.767  -3.590  1.00  0.00     0.049 A 
ATOM     51  H   UNL     1      -5.653  -4.778  -3.206  1.00  0.00     0.167 HD
ATOM     52  C   UNL     1      -7.175  -1.161  -2.334  1.00  0.00     0.037 A 
ATOM     53  C   UNL     1      -5.802  -7.142  -4.705  1.00  0.00     0.037 A 
ATOM     54  C   UNL     1      -8.262  -1.847  -1.664  1.00  0.00     0.049 A 
ATOM     55  C   UNL     1      -7.091  -6.420  -4.674  1.00  0.00     0.074 A 
ATOM     56  C   UNL     1      -8.564  -2.126  -0.341  1.00  0.00     0.029 A 
ATOM     57  N   UNL     1      -9.050  -2.706  -2.394  1.00  0.00    -0.354 N 
ATOM     58  N   UNL     1      -8.052  -6.686  -3.831  1.00  0.00    -0.248 NA
ATOM     59  C   UNL     1      -7.172  -5.127  -5.328  1.00  0.00     0.031 C 
ATOM     60  C   UNL     1      -9.096  -3.452  -0.350  1.00  0.00     0.029 A 
ATOM     61  C   UNL     1      -9.133  -3.876  -1.678  1.00  0.00     0.049 A 
ATOM     62  H   UNL     1      -9.473  -2.519  -3.263  1.00  0.00     0.167 HD
ATOM     63  C   UNL     1      -8.571  -5.444  -3.503  1.00  0.00     0.074 A 
ATOM     64  C   UNL     1      -8.083  -4.546  -4.546  1.00  0.00     0.031 C 
ATOM     65  C   UNL     1      -9.119  -5.194  -2.276  1.00  0.00     0.037 A 
BRANCH  52  66
ATOM     66  C   UNL     1      -7.388  -0.287  -3.530  1.00  0.00     0.057 A 
ATOM     67  C   UNL     1      -6.544  -0.272  -4.656  1.00  0.00     0.134 A 
ATOM     68  C   UNL     1      -8.618   0.372  -3.682  1.00  0.00     0.134 A 
ATOM     69  F   UNL     1      -5.387  -0.947  -4.691  1.00  0.00    -0.206 F 
ATOM     70  C   UNL     1      -6.898   0.358  -5.851  1.00  0.00     0.040 A 
ATOM     71  C   UNL     1      -9.006   0.957  -4.890  1.00  0.00     0.040 A 
ATOM     72  F   UNL     1      -9.514   0.397  -2.683  1.00  0.00    -0.206 F 
ATOM     73  C   UNL     1      -8.145   0.951  -5.980  1.00  0.00     0.006 A 
ENDBRANCH  52  66
BRANCH  53  74
ATOM     74  C   UNL     1      -5.447  -8.155  -5.721  1.00  0.00     0.057 A 
ATOM     75  C   UNL     1      -4.100  -8.382  -6.059  1.00  0.00     0.134 A 
ATOM     76  C   UNL     1      -6.398  -8.752  -6.560  1.00  0.00     0.134 A 
ATOM     77  F   UNL     1      -3.112  -7.795  -5.366  1.00  0.00    -0.206 F 
ATOM     78  C   UNL     1      -3.719  -9.150  -7.165  1.00  0.00     0.040 A 
ATOM     79  C   UNL     1      -6.031  -9.522  -7.674  1.00  0.00     0.040 A 
ATOM     80  F   UNL     1      -7.708  -8.562  -6.354  1.00  0.00    -0.206 F 
ATOM     81  C   UNL     1      -4.688  -9.714  -7.985  1.00  0.00     0.006 A 
ENDBRANCH  53  74
BRANCH  65  82
ATOM     82  C   UNL     1      -9.477  -6.355  -1.385  1.00  0.00     0.057 A 
ATOM     83  C   UNL     1     -10.777  -6.418  -0.862  1.00  0.00     0.134 A 
ATOM     84  C   UNL     1      -8.570  -7.318  -0.918  1.00  0.00     0.134 A 
ATOM     85  F   UNL     1     -11.695  -5.505  -1.220  1.00  0.00    -0.206 F 
ATOM     86  C   UNL     1     -11.160  -7.388   0.069  1.00  0.00     0.040 A 
ATOM     87  C   UNL     1      -8.949  -8.315  -0.010  1.00  0.00     0.040 A 
ATOM     88  F   UNL     1      -7.281  -7.294  -1.280  1.00  0.00    -0.206 F 
ATOM     89  C   UNL     1     -10.246  -8.349   0.491  1.00  0.00     0.006 A 
ENDBRANCH  65  82
ENDBRANCH  39  40
ENDBRANCH  32  34
ENDBRANCH  31  32
ENDBRANCH  30  31
ENDBRANCH  29  30
ENDBRANCH  28  29
ENDBRANCH  27  28
ENDBRANCH   1  27
TORSDOF 20
