REMARK SMILES COc1ccc([C@H]2CC(c3ccc(S(C)(=O)=O)cc3)=NN2c2ccc(C(=O)OCCOCCOCCOC(=O)c3ccc(-c4c5nc(c(-c6c(F)cccc6F)c6ccc([nH]6)c(-c6c(F)cccc6F)c6nc(c(-c7c(F)cccc7F)c7ccc4[nH]7)C=C6)C=C5)cc3)cc2)cc1OC
REMARK SMILES IDX 32 1 31 2 30 3 29 4 28 5 26 6 27 7 25 8 22 9 23 10 95 11
REMARK SMILES IDX 24 12 94 13 21 14 7 15 8 16 9 17 20 18 6 19 3 20 4 21 97 22
REMARK SMILES IDX 5 23 96 24 2 25 1 26 98 27 99 28 10 29 11 30 19 31 12 32
REMARK SMILES IDX 18 33 13 34 14 35 15 36 16 37 17 38 33 39 34 40 35 41 36 42
REMARK SMILES IDX 37 43 38 44 39 45 40 46 41 47 93 48 42 49 92 50 43 51 44 52
REMARK SMILES IDX 45 53 86 54 46 55 91 56 85 57 87 58 47 59 90 60 84 61 83 62
REMARK SMILES IDX 48 64 74 65 57 66 73 67 58 68 61 69 72 70 88 71 59 72 60 73
REMARK SMILES IDX 71 75 89 76 62 77 49 78 50 79 55 80 51 81 52 82 54 83 56 84
REMARK SMILES IDX 53 85 75 86 76 87 81 88 77 89 78 90 80 91 82 92 79 93 63 94
REMARK SMILES IDX 64 95 69 96 65 97 66 98 68 99 70 100 67 101
REMARK H PARENT 87 63 61 74
REMARK Flexibility Score: inf
ROOT
ATOM      1  C   UNL     1       4.752   2.790  10.063  1.00  0.00     0.188 C 
ENDROOT
BRANCH   1   2
ATOM      2  O   UNL     1       4.406   4.090  10.497  1.00  0.00    -0.376 OA
BRANCH   2   3
ATOM      3  C   UNL     1       3.047   4.463  10.652  1.00  0.00     0.202 C 
BRANCH   3   4
ATOM      4  C   UNL     1       1.916   3.968   9.735  1.00  0.00     0.261 C 
BRANCH   4   5
ATOM      5  O   UNL     1       1.990   2.606   9.298  1.00  0.00    -0.460 OA
BRANCH   5   6
ATOM      6  C   UNL     1       2.275   2.439   7.981  1.00  0.00     0.338 C 
ATOM      7  O   UNL     1       2.454   3.321   7.157  1.00  0.00    -0.246 OA
BRANCH   6   8
ATOM      8  C   UNL     1       2.523   1.010   7.689  1.00  0.00     0.060 A 
ATOM      9  C   UNL     1       2.978  -1.655   6.913  1.00  0.00     0.060 A 
ATOM     10  C   UNL     1       3.888  -0.649   6.567  1.00  0.00     0.029 A 
ATOM     11  C   UNL     1       1.887  -1.315   7.729  1.00  0.00     0.029 A 
ATOM     12  C   UNL     1       3.647   0.681   6.922  1.00  0.00     0.018 A 
ATOM     13  C   UNL     1       1.665   0.005   8.137  1.00  0.00     0.018 A 
BRANCH   9  14
ATOM     14  N   UNL     1       3.093  -2.936   6.380  1.00  0.00    -0.257 N 
ATOM     15  C   UNL     1       2.077  -3.491   5.476  1.00  0.00     0.144 C 
ATOM     16  C   UNL     1       2.723  -4.801   5.015  1.00  0.00     0.091 C 
ATOM     17  C   UNL     1       4.075  -4.682   5.667  1.00  0.00     0.071 C 
ATOM     18  N   UNL     1       4.266  -3.629   6.401  1.00  0.00    -0.176 NA
BRANCH  15  19
ATOM     19  C   UNL     1       1.740  -2.554   4.319  1.00  0.00    -0.019 A 
ATOM     20  C   UNL     1       1.146  -0.698   2.270  1.00  0.00     0.160 A 
ATOM     21  C   UNL     1       0.154  -1.108   3.170  1.00  0.00     0.051 A 
ATOM     22  C   UNL     1       2.441  -1.215   2.380  1.00  0.00     0.161 A 
ATOM     23  C   UNL     1       0.446  -2.033   4.181  1.00  0.00     0.010 A 
ATOM     24  C   UNL     1       2.721  -2.132   3.405  1.00  0.00     0.056 A 
BRANCH  20  25
ATOM     25  O   UNL     1       0.858   0.330   1.413  1.00  0.00    -0.493 OA
ATOM     26  C   UNL     1       0.047  -0.077   0.313  1.00  0.00     0.278 C 
ENDBRANCH  20  25
BRANCH  22  27
ATOM     27  O   UNL     1       3.543  -0.909   1.626  1.00  0.00    -0.493 OA
ATOM     28  C   UNL     1       3.333  -0.340   0.344  1.00  0.00     0.278 C 
ENDBRANCH  22  27
ENDBRANCH  15  19
BRANCH  17  29
ATOM     29  C   UNL     1       5.061  -5.762   5.511  1.00  0.00    -0.002 A 
ATOM     30  C   UNL     1       5.522  -6.428   6.653  1.00  0.00     0.011 A 
ATOM     31  C   UNL     1       5.478  -6.160   4.238  1.00  0.00     0.011 A 
ATOM     32  C   UNL     1       6.389  -7.516   6.521  1.00  0.00     0.021 A 
ATOM     33  C   UNL     1       6.366  -7.232   4.105  1.00  0.00     0.021 A 
ATOM     34  C   UNL     1       6.815  -7.906   5.246  1.00  0.00     0.067 A 
BRANCH  34  35
ATOM     35  S   UNL     1       7.889  -9.316   5.079  1.00  0.00     0.175 S 
ATOM     36  C   UNL     1       9.374  -8.849   5.928  1.00  0.00     0.163 C 
ATOM     37  O   UNL     1       7.266 -10.403   5.809  1.00  0.00    -0.224 OA
ATOM     38  O   UNL     1       8.215  -9.454   3.672  1.00  0.00    -0.224 OA
ENDBRANCH  34  35
ENDBRANCH  17  29
ENDBRANCH   9  14
ENDBRANCH   6   8
ENDBRANCH   5   6
ENDBRANCH   4   5
ENDBRANCH   3   4
ENDBRANCH   2   3
ENDBRANCH   1   2
BRANCH   1  39
ATOM     39  C   UNL     1       4.272   1.554  10.849  1.00  0.00     0.188 C 
BRANCH  39  40
ATOM     40  O   UNL     1       3.368   1.753  11.909  1.00  0.00    -0.376 OA
BRANCH  40  41
ATOM     41  C   UNL     1       3.809   2.250  13.160  1.00  0.00     0.202 C 
BRANCH  41  42
ATOM     42  C   UNL     1       5.272   2.470  13.594  1.00  0.00     0.261 C 
BRANCH  42  43
ATOM     43  O   UNL     1       6.285   2.482  12.588  1.00  0.00    -0.460 OA
BRANCH  43  44
ATOM     44  C   UNL     1       7.071   1.383  12.535  1.00  0.00     0.338 C 
ATOM     45  O   UNL     1       6.992   0.373  13.222  1.00  0.00    -0.246 OA
BRANCH  44  46
ATOM     46  C   UNL     1       7.983   1.510  11.388  1.00  0.00     0.060 A 
ATOM     47  C   UNL     1       7.808   0.664  10.284  1.00  0.00     0.016 A 
ATOM     48  C   UNL     1       9.025   2.438  11.418  1.00  0.00     0.016 A 
ATOM     49  C   UNL     1       8.692   0.733   9.209  1.00  0.00     0.010 A 
ATOM     50  C   UNL     1       9.921   2.491  10.348  1.00  0.00     0.010 A 
ATOM     51  C   UNL     1       9.775   1.620   9.252  1.00  0.00    -0.014 A 
BRANCH  51  52
ATOM     52  C   UNL     1      10.852   1.525   8.239  1.00  0.00     0.031 A 
ATOM     53  C   UNL     1      12.107   0.777   8.591  1.00  0.00     0.074 A 
ATOM     54  C   UNL     1      10.720   2.087   7.026  1.00  0.00     0.049 A 
ATOM     55  N   UNL     1      13.202   0.611   7.894  1.00  0.00    -0.248 NA
ATOM     56  C   UNL     1      12.129   0.134   9.914  1.00  0.00     0.031 C 
ATOM     57  C   UNL     1       9.536   2.795   6.546  1.00  0.00     0.029 A 
ATOM     58  N   UNL     1      11.604   2.152   5.978  1.00  0.00    -0.354 N 
ATOM     59  C   UNL     1      14.044  -0.151   8.694  1.00  0.00     0.074 A 
ATOM     60  C   UNL     1      13.349  -0.379   9.943  1.00  0.00     0.031 C 
ATOM     61  C   UNL     1       9.768   3.229   5.295  1.00  0.00     0.029 A 
ATOM     62  C   UNL     1      11.128   2.862   4.904  1.00  0.00     0.049 A 
ATOM     63  H   UNL     1      12.493   1.730   5.996  1.00  0.00     0.167 HD
ATOM     64  C   UNL     1      15.281  -0.626   8.412  1.00  0.00     0.037 A 
ATOM     65  C   UNL     1      11.733   3.191   3.746  1.00  0.00     0.037 A 
ATOM     66  C   UNL     1      15.978  -0.380   7.176  1.00  0.00     0.049 A 
ATOM     67  C   UNL     1      13.149   2.743   3.494  1.00  0.00     0.074 A 
ATOM     68  C   UNL     1      17.231  -0.820   6.789  1.00  0.00     0.029 A 
ATOM     69  N   UNL     1      15.485   0.390   6.132  1.00  0.00    -0.354 N 
ATOM     70  N   UNL     1      13.932   2.006   4.244  1.00  0.00    -0.248 NA
ATOM     71  C   UNL     1      13.765   3.177   2.232  1.00  0.00     0.031 C 
ATOM     72  C   UNL     1      17.521  -0.268   5.536  1.00  0.00     0.029 A 
ATOM     73  C   UNL     1      16.422   0.463   5.113  1.00  0.00     0.049 A 
ATOM     74  H   UNL     1      14.600   0.821   6.117  1.00  0.00     0.167 HD
ATOM     75  C   UNL     1      15.117   1.857   3.531  1.00  0.00     0.074 A 
ATOM     76  C   UNL     1      14.945   2.576   2.286  1.00  0.00     0.031 C 
ATOM     77  C   UNL     1      16.241   1.180   3.875  1.00  0.00     0.037 A 
BRANCH  64  78
ATOM     78  C   UNL     1      15.966  -1.425   9.484  1.00  0.00     0.057 A 
ATOM     79  C   UNL     1      15.511  -2.694   9.871  1.00  0.00     0.134 A 
ATOM     80  C   UNL     1      17.087  -0.913  10.149  1.00  0.00     0.134 A 
ATOM     81  F   UNL     1      14.433  -3.238   9.285  1.00  0.00    -0.206 F 
ATOM     82  C   UNL     1      16.119  -3.404  10.908  1.00  0.00     0.040 A 
ATOM     83  C   UNL     1      17.724  -1.628  11.164  1.00  0.00     0.040 A 
ATOM     84  F   UNL     1      17.581   0.291   9.826  1.00  0.00    -0.206 F 
ATOM     85  C   UNL     1      17.233  -2.872  11.555  1.00  0.00     0.006 A 
ENDBRANCH  64  78
BRANCH  65  86
ATOM     86  C   UNL     1      10.999   3.985   2.728  1.00  0.00     0.057 A 
ATOM     87  C   UNL     1      10.613   3.413   1.511  1.00  0.00     0.134 A 
ATOM     88  C   UNL     1      10.674   5.330   2.941  1.00  0.00     0.134 A 
ATOM     89  F   UNL     1      10.921   2.136   1.237  1.00  0.00    -0.206 F 
ATOM     90  C   UNL     1       9.937   4.150   0.537  1.00  0.00     0.040 A 
ATOM     91  C   UNL     1       9.976   6.072   1.987  1.00  0.00     0.040 A 
ATOM     92  F   UNL     1      11.020   5.938   4.084  1.00  0.00    -0.206 F 
ATOM     93  C   UNL     1       9.610   5.483   0.778  1.00  0.00     0.006 A 
ENDBRANCH  65  86
BRANCH  77  94
ATOM     94  C   UNL     1      17.361   1.145   2.873  1.00  0.00     0.057 A 
ATOM     95  C   UNL     1      18.136   2.274   2.580  1.00  0.00     0.134 A 
ATOM     96  C   UNL     1      17.695  -0.051   2.222  1.00  0.00     0.134 A 
ATOM     97  F   UNL     1      17.865   3.454   3.158  1.00  0.00    -0.206 F 
ATOM     98  C   UNL     1      19.185   2.222   1.658  1.00  0.00     0.040 A 
ATOM     99  C   UNL     1      18.759  -0.123   1.322  1.00  0.00     0.040 A 
ATOM    100  F   UNL     1      17.002  -1.175   2.462  1.00  0.00    -0.206 F 
ATOM    101  C   UNL     1      19.503   1.018   1.032  1.00  0.00     0.006 A 
ENDBRANCH  77  94
ENDBRANCH  51  52
ENDBRANCH  44  46
ENDBRANCH  43  44
ENDBRANCH  42  43
ENDBRANCH  41  42
ENDBRANCH  40  41
ENDBRANCH  39  40
ENDBRANCH   1  39
TORSDOF 23
