REMARK SMILES CC1=C(CC(=O)OCCOCCOCCOC(=O)c2ccc(-c3c4nc(c(-c5c(F)cccc5F)c5ccc([nH]5)c(-c5c(F)cccc5F)c5nc(c(-c6c(F)cccc6F)c6ccc3[nH]6)C=C5)C=C4)cc2)c2cc(F)ccc2/C1=C\c1cccc(OCc2ccccc2)c1
REMARK SMILES IDX 10 1 9 2 8 3 7 4 5 5 6 6 4 7 3 8 1 9 2 10 80 11 73 12 79 13
REMARK SMILES IDX 81 14 74 15 78 16 75 17 77 18 76 19 82 20 83 21 95 22 84 23
REMARK SMILES IDX 86 24 85 25 87 26 88 27 89 28 90 29 94 30 91 31 93 32 92 33
REMARK SMILES IDX 11 34 12 35 13 36 14 37 15 38 16 39 17 40 18 41 19 42 20 43
REMARK SMILES IDX 72 44 21 45 71 46 22 47 23 48 24 49 65 50 25 51 70 52 64 53
REMARK SMILES IDX 66 54 26 55 69 56 63 57 62 58 27 60 53 61 36 62 52 63 37 64
REMARK SMILES IDX 40 65 51 66 67 67 38 68 39 69 50 71 68 72 41 73 28 74 29 75
REMARK SMILES IDX 34 76 30 77 31 78 33 79 35 80 32 81 54 82 55 83 60 84 56 85
REMARK SMILES IDX 57 86 59 87 61 88 58 89 42 90 43 91 48 92 44 93 45 94 47 95
REMARK SMILES IDX 49 96 46 97
REMARK H PARENT 66 59 40 70
REMARK Flexibility Score: inf
ROOT
ATOM      1  O   UNL     1       0.502  -0.649   6.454  1.00  0.00    -0.376 OA
ENDROOT
BRANCH   1   2
ATOM      2  C   UNL     1       1.615  -1.231   5.784  1.00  0.00     0.202 C 
BRANCH   2   3
ATOM      3  C   UNL     1       1.268  -1.911   4.459  1.00  0.00     0.261 C 
BRANCH   3   4
ATOM      4  O   UNL     1       0.763  -0.966   3.489  1.00  0.00    -0.463 OA
BRANCH   4   5
ATOM      5  C   UNL     1      -0.260  -1.404   2.714  1.00  0.00     0.310 C 
ATOM      6  O   UNL     1      -0.702  -2.549   2.741  1.00  0.00    -0.252 OA
BRANCH   5   7
ATOM      7  C   UNL     1      -0.922  -0.317   1.865  1.00  0.00     0.159 C 
BRANCH   7   8
ATOM      8  C   UNL     1      -0.176   0.927   1.484  1.00  0.00    -0.025 C 
ATOM      9  C   UNL     1       1.584  -0.009  -0.102  1.00  0.00     0.045 C 
ATOM     10  C   UNL     1       0.885   1.071   0.653  1.00  0.00    -0.039 C 
ATOM     11  C   UNL     1       1.213   2.500   0.497  1.00  0.00    -0.014 C 
ATOM     12  C   UNL     1      -0.632   2.289   1.836  1.00  0.00    -0.011 A 
ATOM     13  C   UNL     1       0.268   3.248   1.340  1.00  0.00    -0.010 A 
ATOM     14  C   UNL     1       2.121   3.006  -0.360  1.00  0.00     0.017 C 
ATOM     15  C   UNL     1      -1.781   2.708   2.488  1.00  0.00     0.048 A 
ATOM     16  C   UNL     1       0.120   4.600   1.633  1.00  0.00     0.012 A 
ATOM     17  C   UNL     1      -1.967   4.076   2.701  1.00  0.00     0.123 A 
ATOM     18  C   UNL     1      -1.010   5.015   2.329  1.00  0.00     0.040 A 
ATOM     19  F   UNL     1      -3.084   4.496   3.308  1.00  0.00    -0.207 F 
BRANCH  14  20
ATOM     20  C   UNL     1       2.333   4.436  -0.624  1.00  0.00    -0.021 A 
ATOM     21  C   UNL     1       3.325   5.138   0.065  1.00  0.00     0.008 A 
ATOM     22  C   UNL     1       1.483   5.122  -1.509  1.00  0.00     0.054 A 
ATOM     23  C   UNL     1       3.449   6.516  -0.109  1.00  0.00     0.004 A 
ATOM     24  C   UNL     1       1.622   6.497  -1.708  1.00  0.00     0.120 A 
ATOM     25  C   UNL     1       2.598   7.189  -0.988  1.00  0.00     0.046 A 
BRANCH  24  26
ATOM     26  O   UNL     1       0.878   7.278  -2.550  1.00  0.00    -0.489 OA
BRANCH  26  27
ATOM     27  C   UNL     1      -0.033   6.647  -3.458  1.00  0.00     0.265 C 
BRANCH  27  28
ATOM     28  C   UNL     1       0.669   5.894  -4.566  1.00  0.00    -0.011 A 
ATOM     29  C   UNL     1       1.647   6.524  -5.347  1.00  0.00     0.007 A 
ATOM     30  C   UNL     1       0.370   4.545  -4.809  1.00  0.00     0.007 A 
ATOM     31  C   UNL     1       2.340   5.808  -6.324  1.00  0.00     0.000 A 
ATOM     32  C   UNL     1       1.073   3.828  -5.777  1.00  0.00     0.000 A 
ATOM     33  C   UNL     1       2.061   4.458  -6.531  1.00  0.00     0.000 A 
ENDBRANCH  27  28
ENDBRANCH  26  27
ENDBRANCH  24  26
ENDBRANCH  14  20
ENDBRANCH   7   8
ENDBRANCH   5   7
ENDBRANCH   4   5
ENDBRANCH   3   4
ENDBRANCH   2   3
ENDBRANCH   1   2
BRANCH   1  34
ATOM     34  C   UNL     1      -0.079   0.520   5.879  1.00  0.00     0.188 C 
BRANCH  34  35
ATOM     35  C   UNL     1       0.852   1.535   5.198  1.00  0.00     0.188 C 
BRANCH  35  36
ATOM     36  O   UNL     1       2.020   1.775   5.978  1.00  0.00    -0.376 OA
BRANCH  36  37
ATOM     37  C   UNL     1       2.326   3.156   6.130  1.00  0.00     0.202 C 
BRANCH  37  38
ATOM     38  C   UNL     1       1.741   3.667   7.447  1.00  0.00     0.261 C 
BRANCH  38  39
ATOM     39  O   UNL     1       0.317   3.478   7.548  1.00  0.00    -0.460 OA
BRANCH  39  40
ATOM     40  C   UNL     1      -0.445   4.367   6.876  1.00  0.00     0.338 C 
ATOM     41  O   UNL     1      -0.064   5.290   6.181  1.00  0.00    -0.246 OA
BRANCH  40  42
ATOM     42  C   UNL     1      -1.856   3.973   7.035  1.00  0.00     0.060 A 
ATOM     43  C   UNL     1      -2.578   4.333   8.167  1.00  0.00     0.016 A 
ATOM     44  C   UNL     1      -2.484   3.296   5.991  1.00  0.00     0.016 A 
ATOM     45  C   UNL     1      -3.943   4.030   8.230  1.00  0.00     0.010 A 
ATOM     46  C   UNL     1      -3.854   3.039   6.028  1.00  0.00     0.010 A 
ATOM     47  C   UNL     1      -4.602   3.409   7.148  1.00  0.00    -0.014 A 
BRANCH  47  48
ATOM     48  C   UNL     1      -6.080   3.251   7.164  1.00  0.00     0.031 A 
ATOM     49  C   UNL     1      -6.738   1.902   7.219  1.00  0.00     0.074 A 
ATOM     50  C   UNL     1      -6.845   4.359   7.104  1.00  0.00     0.049 A 
ATOM     51  N   UNL     1      -8.000   1.612   7.423  1.00  0.00    -0.248 NA
ATOM     52  C   UNL     1      -5.884   0.728   6.990  1.00  0.00     0.031 C 
ATOM     53  C   UNL     1      -6.340   5.720   6.910  1.00  0.00     0.029 A 
ATOM     54  N   UNL     1      -8.203   4.520   7.220  1.00  0.00    -0.354 N 
ATOM     55  C   UNL     1      -8.088   0.228   7.366  1.00  0.00     0.074 A 
ATOM     56  C   UNL     1      -6.766  -0.263   7.040  1.00  0.00     0.031 C 
ATOM     57  C   UNL     1      -7.366   6.583   6.988  1.00  0.00     0.029 A 
ATOM     58  C   UNL     1      -8.596   5.837   7.231  1.00  0.00     0.049 A 
ATOM     59  H   UNL     1      -8.833   3.767   7.289  1.00  0.00     0.167 HD
ATOM     60  C   UNL     1      -9.165  -0.562   7.596  1.00  0.00     0.037 A 
ATOM     61  C   UNL     1      -9.805   6.385   7.454  1.00  0.00     0.037 A 
ATOM     62  C   UNL     1     -10.479  -0.070   7.923  1.00  0.00     0.049 A 
ATOM     63  C   UNL     1     -10.970   5.495   7.777  1.00  0.00     0.074 A 
ATOM     64  C   UNL     1     -11.615  -0.789   8.254  1.00  0.00     0.029 A 
ATOM     65  N   UNL     1     -10.835   1.270   7.949  1.00  0.00    -0.354 N 
ATOM     66  N   UNL     1     -11.012   4.188   7.857  1.00  0.00    -0.248 NA
ATOM     67  C   UNL     1     -12.249   6.159   8.062  1.00  0.00     0.031 C 
ATOM     68  C   UNL     1     -12.666   0.114   8.448  1.00  0.00     0.029 A 
ATOM     69  C   UNL     1     -12.176   1.398   8.275  1.00  0.00     0.049 A 
ATOM     70  H   UNL     1     -10.225   2.020   7.763  1.00  0.00     0.167 HD
ATOM     71  C   UNL     1     -12.316   3.872   8.214  1.00  0.00     0.074 A 
ATOM     72  C   UNL     1     -13.026   5.126   8.359  1.00  0.00     0.031 C 
ATOM     73  C   UNL     1     -12.874   2.651   8.403  1.00  0.00     0.037 A 
BRANCH  60  74
ATOM     74  C   UNL     1      -8.961  -2.049   7.540  1.00  0.00     0.057 A 
ATOM     75  C   UNL     1      -9.534  -2.822   6.523  1.00  0.00     0.134 A 
ATOM     76  C   UNL     1      -8.240  -2.724   8.535  1.00  0.00     0.134 A 
ATOM     77  F   UNL     1     -10.246  -2.243   5.545  1.00  0.00    -0.206 F 
ATOM     78  C   UNL     1      -9.398  -4.212   6.498  1.00  0.00     0.040 A 
ATOM     79  C   UNL     1      -8.077  -4.110   8.508  1.00  0.00     0.040 A 
ATOM     80  F   UNL     1      -7.663  -2.042   9.536  1.00  0.00    -0.206 F 
ATOM     81  C   UNL     1      -8.664  -4.859   7.490  1.00  0.00     0.006 A 
ENDBRANCH  60  74
BRANCH  61  82
ATOM     82  C   UNL     1      -9.948   7.861   7.468  1.00  0.00     0.057 A 
ATOM     83  C   UNL     1      -9.905   8.611   6.288  1.00  0.00     0.134 A 
ATOM     84  C   UNL     1     -10.106   8.555   8.673  1.00  0.00     0.134 A 
ATOM     85  F   UNL     1      -9.745   8.002   5.104  1.00  0.00    -0.206 F 
ATOM     86  C   UNL     1     -10.009  10.003   6.306  1.00  0.00     0.040 A 
ATOM     87  C   UNL     1     -10.231   9.944   8.704  1.00  0.00     0.040 A 
ATOM     88  F   UNL     1     -10.166   7.887   9.834  1.00  0.00    -0.206 F 
ATOM     89  C   UNL     1     -10.176  10.673   7.517  1.00  0.00     0.006 A 
ENDBRANCH  61  82
BRANCH  73  90
ATOM     90  C   UNL     1     -14.323   2.617   8.787  1.00  0.00     0.057 A 
ATOM     91  C   UNL     1     -14.712   2.265  10.085  1.00  0.00     0.134 A 
ATOM     92  C   UNL     1     -15.335   2.910   7.864  1.00  0.00     0.134 A 
ATOM     93  F   UNL     1     -13.793   1.967  11.015  1.00  0.00    -0.206 F 
ATOM     94  C   UNL     1     -16.058   2.207  10.452  1.00  0.00     0.040 A 
ATOM     95  C   UNL     1     -16.683   2.877   8.225  1.00  0.00     0.040 A 
ATOM     96  F   UNL     1     -15.027   3.267   6.607  1.00  0.00    -0.206 F 
ATOM     97  C   UNL     1     -17.047   2.520   9.521  1.00  0.00     0.006 A 
ENDBRANCH  73  90
ENDBRANCH  47  48
ENDBRANCH  40  42
ENDBRANCH  39  40
ENDBRANCH  38  39
ENDBRANCH  37  38
ENDBRANCH  36  37
ENDBRANCH  35  36
ENDBRANCH  34  35
ENDBRANCH   1  34
TORSDOF 22
