REMARK SMILES Cc1ccccc1OCc1nc2cc(C(=O)OCCOCCOCCOC(=O)c3ccc(-c4c5nc(c(-c6c(F)cccc6F)c6ccc([nH]6)c(-c6c(F)cccc6F)c6nc(c(-c7c(F)cccc7F)c7ccc4[nH]7)C=C6)C=C5)cc3)ccc2n1C[C@H](C)O
REMARK SMILES IDX 21 1 20 2 19 3 18 4 17 5 15 6 16 7 14 8 10 9 11 10 86 11
REMARK SMILES IDX 12 12 85 13 13 14 84 15 83 16 9 17 8 18 7 19 1 20 2 21 3 22
REMARK SMILES IDX 4 23 6 24 5 25 87 26 88 27 89 28 90 29 22 31 23 32 24 33
REMARK SMILES IDX 25 34 26 35 27 36 28 37 29 38 30 39 82 40 31 41 81 42 32 43
REMARK SMILES IDX 33 44 34 45 75 46 35 47 80 48 74 49 76 50 36 51 79 52 73 53
REMARK SMILES IDX 72 54 37 56 63 57 46 58 62 59 47 60 50 61 61 62 77 63 48 64
REMARK SMILES IDX 49 65 60 67 78 68 51 69 38 70 39 71 44 72 40 73 41 74 43 75
REMARK SMILES IDX 45 76 42 77 64 78 65 79 70 80 66 81 67 82 69 83 71 84 68 85
REMARK SMILES IDX 52 86 53 87 58 88 54 89 55 90 57 91 59 92 56 93
REMARK H PARENT 90 30 76 55 50 66
REMARK Flexibility Score: inf
ROOT
ATOM      1  C   UNL     1      -4.435   5.137  -0.785  1.00  0.00     0.188 C 
ENDROOT
BRANCH   1   2
ATOM      2  O   UNL     1      -3.552   6.147  -0.277  1.00  0.00    -0.376 OA
BRANCH   2   3
ATOM      3  C   UNL     1      -2.095   6.216  -0.219  1.00  0.00     0.202 C 
BRANCH   3   4
ATOM      4  C   UNL     1      -0.822   5.625   0.942  1.00  0.00     0.261 C 
BRANCH   4   5
ATOM      5  O   UNL     1      -1.016   4.346   2.229  1.00  0.00    -0.460 OA
BRANCH   5   6
ATOM      6  C   UNL     1      -1.314   2.842   2.608  1.00  0.00     0.338 C 
ATOM      7  O   UNL     1      -1.683   2.593   3.766  1.00  0.00    -0.246 OA
BRANCH   6   8
ATOM      8  C   UNL     1      -1.265   1.370   1.808  1.00  0.00     0.062 A 
ATOM      9  C   UNL     1      -0.172  -1.325  -1.528  1.00  0.00     0.148 A 
ATOM     10  N   UNL     1      -1.321  -0.662  -1.536  1.00  0.00    -0.229 NA
ATOM     11  N   UNL     1       0.486  -0.825  -0.436  1.00  0.00    -0.322 N 
ATOM     12  C   UNL     1      -1.352  -0.249  -0.200  1.00  0.00     0.090 A 
ATOM     13  C   UNL     1      -0.527  -1.060   0.548  1.00  0.00     0.068 A 
ATOM     14  C   UNL     1      -1.448   1.004   0.435  1.00  0.00     0.046 A 
ATOM     15  C   UNL     1      -0.746  -0.985   1.950  1.00  0.00     0.029 A 
ATOM     16  C   UNL     1      -1.140   0.225   2.568  1.00  0.00     0.018 A 
BRANCH   9  17
ATOM     17  C   UNL     1       0.495  -2.478  -2.145  1.00  0.00     0.304 C 
BRANCH  17  18
ATOM     18  O   UNL     1       0.692  -3.368  -1.003  1.00  0.00    -0.485 OA
BRANCH  18  19
ATOM     19  C   UNL     1       1.873  -3.598  -0.316  1.00  0.00     0.122 A 
ATOM     20  C   UNL     1       2.186  -1.704   1.630  1.00  0.00     0.048 C 
ATOM     21  C   UNL     1       2.483  -2.938   0.811  1.00  0.00    -0.009 A 
ATOM     22  C   UNL     1       3.525  -3.597   1.504  1.00  0.00     0.007 A 
ATOM     23  C   UNL     1       3.901  -4.887   1.220  1.00  0.00     0.001 A 
ATOM     24  C   UNL     1       2.310  -4.903  -0.594  1.00  0.00     0.047 A 
ATOM     25  C   UNL     1       3.280  -5.546   0.180  1.00  0.00     0.004 A 
ENDBRANCH  18  19
ENDBRANCH  17  18
ENDBRANCH   9  17
BRANCH  11  26
ATOM     26  C   UNL     1       1.516   0.209  -0.754  1.00  0.00     0.155 C 
BRANCH  26  27
ATOM     27  C   UNL     1       2.857  -0.384  -1.321  1.00  0.00     0.131 C 
ATOM     28  C   UNL     1       4.146  -0.088  -0.552  1.00  0.00     0.040 C 
BRANCH  27  29
ATOM     29  O   UNL     1       3.022  -0.045  -2.708  1.00  0.00    -0.392 OA
ATOM     30  H   UNL     1       3.143   0.913  -2.795  1.00  0.00     0.211 HD
ENDBRANCH  27  29
ENDBRANCH  26  27
ENDBRANCH  11  26
ENDBRANCH   6   8
ENDBRANCH   5   6
ENDBRANCH   4   5
ENDBRANCH   3   4
ENDBRANCH   2   3
ENDBRANCH   1   2
BRANCH   1  31
ATOM     31  C   UNL     1      -4.273   4.540  -2.196  1.00  0.00     0.188 C 
BRANCH  31  32
ATOM     32  O   UNL     1      -4.547   5.451  -3.223  1.00  0.00    -0.376 OA
BRANCH  32  33
ATOM     33  C   UNL     1      -5.705   6.172  -2.850  1.00  0.00     0.202 C 
BRANCH  33  34
ATOM     34  C   UNL     1      -7.006   5.359  -2.439  1.00  0.00     0.261 C 
BRANCH  34  35
ATOM     35  O   UNL     1      -7.163   3.965  -1.698  1.00  0.00    -0.460 OA
BRANCH  35  36
ATOM     36  C   UNL     1      -7.242   2.773  -1.053  1.00  0.00     0.338 C 
ATOM     37  O   UNL     1      -8.335   2.353  -0.682  1.00  0.00    -0.246 OA
BRANCH  36  38
ATOM     38  C   UNL     1      -6.064   1.942  -0.613  1.00  0.00     0.060 A 
ATOM     39  C   UNL     1      -5.862   1.602   0.728  1.00  0.00     0.016 A 
ATOM     40  C   UNL     1      -4.984   1.705  -1.407  1.00  0.00     0.016 A 
ATOM     41  C   UNL     1      -4.627   1.919   1.303  1.00  0.00     0.010 A 
ATOM     42  C   UNL     1      -3.771   2.060  -0.848  1.00  0.00     0.010 A 
ATOM     43  C   UNL     1      -3.704   2.534   0.471  1.00  0.00    -0.014 A 
BRANCH  43  44
ATOM     44  C   UNL     1      -2.763   3.737   0.803  1.00  0.00     0.031 A 
ATOM     45  C   UNL     1      -1.149   3.569  -0.004  1.00  0.00     0.074 A 
ATOM     46  C   UNL     1      -3.221   4.777   1.771  1.00  0.00     0.049 A 
ATOM     47  N   UNL     1      -0.067   3.235   0.691  1.00  0.00    -0.248 NA
ATOM     48  C   UNL     1      -0.675   3.665  -1.404  1.00  0.00     0.031 C 
ATOM     49  C   UNL     1      -2.636   6.128   2.417  1.00  0.00     0.029 A 
ATOM     50  N   UNL     1      -4.477   4.942   2.339  1.00  0.00    -0.354 N 
ATOM     51  C   UNL     1       1.112   3.478   0.107  1.00  0.00     0.074 A 
ATOM     52  C   UNL     1       0.683   3.537  -1.286  1.00  0.00     0.031 C 
ATOM     53  C   UNL     1      -3.398   6.742   3.304  1.00  0.00     0.029 A 
ATOM     54  C   UNL     1      -4.441   5.831   3.447  1.00  0.00     0.049 A 
ATOM     55  H   UNL     1      -5.293   4.498   2.014  1.00  0.00     0.167 HD
ATOM     56  C   UNL     1       2.205   3.714   0.924  1.00  0.00     0.037 A 
ATOM     57  C   UNL     1      -4.886   5.513   4.667  1.00  0.00     0.037 A 
ATOM     58  C   UNL     1       1.845   4.253   2.325  1.00  0.00     0.049 A 
ATOM     59  C   UNL     1      -3.635   4.925   5.411  1.00  0.00     0.074 A 
ATOM     60  C   UNL     1       1.802   5.580   2.756  1.00  0.00     0.029 A 
ATOM     61  N   UNL     1       1.271   3.545   3.418  1.00  0.00    -0.354 N 
ATOM     62  N   UNL     1      -2.373   4.973   4.967  1.00  0.00    -0.248 NA
ATOM     63  C   UNL     1      -3.662   4.435   6.782  1.00  0.00     0.031 C 
ATOM     64  C   UNL     1       1.015   5.688   3.951  1.00  0.00     0.029 A 
ATOM     65  C   UNL     1       0.628   4.423   4.370  1.00  0.00     0.049 A 
ATOM     66  H   UNL     1       1.308   2.566   3.515  1.00  0.00     0.167 HD
ATOM     67  C   UNL     1      -1.485   4.364   5.840  1.00  0.00     0.074 A 
ATOM     68  C   UNL     1      -2.353   4.204   7.017  1.00  0.00     0.031 C 
ATOM     69  C   UNL     1      -0.163   3.950   5.584  1.00  0.00     0.037 A 
BRANCH  56  70
ATOM     70  C   UNL     1       3.620   3.846   0.362  1.00  0.00     0.057 A 
ATOM     71  C   UNL     1       4.665   4.509   1.038  1.00  0.00     0.134 A 
ATOM     72  C   UNL     1       4.029   3.225  -0.833  1.00  0.00     0.134 A 
ATOM     73  F   UNL     1       4.469   5.106   2.220  1.00  0.00    -0.206 F 
ATOM     74  C   UNL     1       5.982   4.583   0.541  1.00  0.00     0.040 A 
ATOM     75  C   UNL     1       5.341   3.283  -1.339  1.00  0.00     0.040 A 
ATOM     76  F   UNL     1       3.184   2.466  -1.540  1.00  0.00    -0.206 F 
ATOM     77  C   UNL     1       6.326   3.969  -0.652  1.00  0.00     0.006 A 
ENDBRANCH  56  70
BRANCH  57  78
ATOM     78  C   UNL     1      -6.370   5.363   4.324  1.00  0.00     0.057 A 
ATOM     79  C   UNL     1      -6.917   6.614   3.829  1.00  0.00     0.134 A 
ATOM     80  C   UNL     1      -6.794   4.233   3.601  1.00  0.00     0.134 A 
ATOM     81  F   UNL     1      -6.574   7.768   4.431  1.00  0.00    -0.206 F 
ATOM     82  C   UNL     1      -7.473   6.747   2.535  1.00  0.00     0.040 A 
ATOM     83  C   UNL     1      -7.409   4.368   2.325  1.00  0.00     0.040 A 
ATOM     84  F   UNL     1      -6.316   3.023   3.924  1.00  0.00    -0.206 F 
ATOM     85  C   UNL     1      -7.672   5.619   1.756  1.00  0.00     0.006 A 
ENDBRANCH  57  78
BRANCH  69  86
ATOM     86  C   UNL     1       0.578   3.045   6.579  1.00  0.00     0.057 A 
ATOM     87  C   UNL     1      -0.048   2.225   7.535  1.00  0.00     0.134 A 
ATOM     88  C   UNL     1       1.986   2.934   6.574  1.00  0.00     0.134 A 
ATOM     89  F   UNL     1      -1.360   1.957   7.495  1.00  0.00    -0.206 F 
ATOM     90  C   UNL     1       0.651   1.571   8.556  1.00  0.00     0.040 A 
ATOM     91  C   UNL     1       2.699   2.183   7.518  1.00  0.00     0.040 A 
ATOM     92  F   UNL     1       2.747   3.527   5.643  1.00  0.00    -0.206 F 
ATOM     93  C   UNL     1       2.034   1.555   8.557  1.00  0.00     0.006 A 
ENDBRANCH  69  86
ENDBRANCH  43  44
ENDBRANCH  36  38
ENDBRANCH  35  36
ENDBRANCH  34  35
ENDBRANCH  33  34
ENDBRANCH  32  33
ENDBRANCH  31  32
ENDBRANCH   1  31
TORSDOF 23
