REMARK SMILES COc1ccc([C@@H](CC(=O)OCCOCCOCCOC(=O)c2ccc(-c3c4nc(c(-c5c(F)cccc5F)c5ccc([nH]5)c(-c5c(F)cccc5F)c5nc(c(-c6c(F)cccc6F)c6ccc3[nH]6)C=C5)C=C4)cc2)NC(=O)c2ccc(Cl)c([N+](=O)[O-])c2)cc1
REMARK SMILES IDX 15 1 14 2 13 3 12 4 11 5 9 6 10 7 8 8 7 9 6 10 3 11 4 12
REMARK SMILES IDX 91 13 5 14 90 15 2 16 1 17 77 18 78 19 79 21 80 22 81 23
REMARK SMILES IDX 89 24 82 25 85 26 83 27 84 28 86 29 87 30 88 31 16 32 17 33
REMARK SMILES IDX 18 34 19 35 20 36 21 37 22 38 23 39 24 40 76 41 25 42 75 43
REMARK SMILES IDX 26 44 27 45 28 46 69 47 29 48 74 49 68 50 70 51 30 52 73 53
REMARK SMILES IDX 67 54 66 55 31 57 57 58 40 59 56 60 41 61 44 62 55 63 71 64
REMARK SMILES IDX 42 65 43 66 54 68 72 69 45 70 32 71 33 72 38 73 34 74 35 75
REMARK SMILES IDX 37 76 39 77 36 78 58 79 59 80 64 81 60 82 61 83 63 84 65 85
REMARK SMILES IDX 62 86 46 87 47 88 52 89 48 90 49 91 51 92 53 93 50 94
REMARK H PARENT 77 20 70 56 44 67
REMARK Flexibility Score: inf
ROOT
ATOM      1  C   UNL     1      -1.903   6.296   5.996  1.00  0.00     0.188 C 
ENDROOT
BRANCH   1   2
ATOM      2  O   UNL     1      -2.921   6.145   5.027  1.00  0.00    -0.376 OA
BRANCH   2   3
ATOM      3  C   UNL     1      -2.524   6.061   3.655  1.00  0.00     0.202 C 
BRANCH   3   4
ATOM      4  C   UNL     1      -1.126   6.542   3.255  1.00  0.00     0.261 C 
BRANCH   4   5
ATOM      5  O   UNL     1      -0.112   5.672   3.810  1.00  0.00    -0.463 OA
BRANCH   5   6
ATOM      6  C   UNL     1       1.130   6.192   3.860  1.00  0.00     0.308 C 
ATOM      7  O   UNL     1       1.388   7.346   3.522  1.00  0.00    -0.252 OA
BRANCH   6   8
ATOM      8  C   UNL     1       2.188   5.320   4.497  1.00  0.00     0.152 C 
BRANCH   8   9
ATOM      9  C   UNL     1       2.212   3.781   4.503  1.00  0.00     0.123 C 
BRANCH   9  10
ATOM     10  C   UNL     1       1.812   3.014   3.254  1.00  0.00    -0.025 A 
ATOM     11  C   UNL     1       1.122   1.501   0.968  1.00  0.00     0.118 A 
ATOM     12  C   UNL     1       0.160   2.256   1.629  1.00  0.00     0.047 A 
ATOM     13  C   UNL     1       2.429   1.485   1.445  1.00  0.00     0.047 A 
ATOM     14  C   UNL     1       0.494   2.970   2.782  1.00  0.00     0.010 A 
ATOM     15  C   UNL     1       2.770   2.238   2.576  1.00  0.00     0.010 A 
BRANCH  11  16
ATOM     16  O   UNL     1       0.705   0.854  -0.161  1.00  0.00    -0.497 OA
ATOM     17  C   UNL     1       1.169  -0.489  -0.261  1.00  0.00     0.278 C 
ENDBRANCH  11  16
ENDBRANCH   9  10
BRANCH   9  18
ATOM     18  N   UNL     1       1.600   3.187   5.691  1.00  0.00    -0.345 N 
ATOM     19  C   UNL     1       2.164   2.369   6.642  1.00  0.00     0.252 C 
ATOM     20  H   UNL     1       0.650   3.404   5.829  1.00  0.00     0.164 HD
ATOM     21  O   UNL     1       1.450   1.588   7.266  1.00  0.00    -0.269 OA
BRANCH  19  22
ATOM     22  C   UNL     1       3.611   2.392   6.991  1.00  0.00     0.046 A 
ATOM     23  C   UNL     1       4.174   1.222   7.518  1.00  0.00     0.016 A 
ATOM     24  C   UNL     1       4.400   3.542   6.929  1.00  0.00     0.101 A 
ATOM     25  C   UNL     1       5.518   1.185   7.906  1.00  0.00     0.028 A 
ATOM     26  C   UNL     1       5.769   3.500   7.288  1.00  0.00     0.288 A 
ATOM     27  C   UNL     1       6.336   2.313   7.771  1.00  0.00     0.118 A 
ATOM     28  Cl  UNL     1       7.992   2.085   8.203  1.00  0.00    -0.077 Cl
BRANCH  26  29
ATOM     29  N   UNL     1       6.540   4.737   7.106  1.00  0.00     0.064 N 
ATOM     30  O   UNL     1       7.617   4.875   7.692  1.00  0.00    -0.258 OA
ATOM     31  O   UNL     1       6.039   5.600   6.367  1.00  0.00    -0.258 OA
ENDBRANCH  26  29
ENDBRANCH  19  22
ENDBRANCH   9  18
ENDBRANCH   8   9
ENDBRANCH   6   8
ENDBRANCH   5   6
ENDBRANCH   4   5
ENDBRANCH   3   4
ENDBRANCH   2   3
ENDBRANCH   1   2
BRANCH   1  32
ATOM     32  C   UNL     1      -1.323   5.008   6.575  1.00  0.00     0.188 C 
BRANCH  32  33
ATOM     33  O   UNL     1      -1.213   3.835   5.785  1.00  0.00    -0.376 OA
BRANCH  33  34
ATOM     34  C   UNL     1      -2.365   3.049   5.483  1.00  0.00     0.202 C 
BRANCH  34  35
ATOM     35  C   UNL     1      -3.430   2.704   6.540  1.00  0.00     0.261 C 
BRANCH  35  36
ATOM     36  O   UNL     1      -3.113   3.063   7.881  1.00  0.00    -0.460 OA
BRANCH  36  37
ATOM     37  C   UNL     1      -2.128   2.340   8.457  1.00  0.00     0.338 C 
ATOM     38  O   UNL     1      -1.674   1.280   8.073  1.00  0.00    -0.246 OA
BRANCH  37  39
ATOM     39  C   UNL     1      -1.562   3.198   9.522  1.00  0.00     0.060 A 
ATOM     40  C   UNL     1      -0.183   3.422   9.525  1.00  0.00     0.016 A 
ATOM     41  C   UNL     1      -2.385   3.863  10.437  1.00  0.00     0.016 A 
ATOM     42  C   UNL     1       0.395   4.256  10.475  1.00  0.00     0.010 A 
ATOM     43  C   UNL     1      -1.810   4.697  11.396  1.00  0.00     0.010 A 
ATOM     44  C   UNL     1      -0.413   4.856  11.446  1.00  0.00    -0.014 A 
BRANCH  44  45
ATOM     45  C   UNL     1       0.225   5.405  12.662  1.00  0.00     0.031 A 
ATOM     46  C   UNL     1       0.286   4.515  13.871  1.00  0.00     0.074 A 
ATOM     47  C   UNL     1       0.778   6.628  12.683  1.00  0.00     0.049 A 
ATOM     48  N   UNL     1       0.758   4.761  15.065  1.00  0.00    -0.248 NA
ATOM     49  C   UNL     1      -0.270   3.160  13.709  1.00  0.00     0.031 C 
ATOM     50  C   UNL     1       0.819   7.562  11.561  1.00  0.00     0.029 A 
ATOM     51  N   UNL     1       1.410   7.293  13.703  1.00  0.00    -0.354 N 
ATOM     52  C   UNL     1       0.540   3.601  15.796  1.00  0.00     0.074 A 
ATOM     53  C   UNL     1      -0.137   2.666  14.928  1.00  0.00     0.031 C 
ATOM     54  C   UNL     1       1.432   8.691  11.959  1.00  0.00     0.029 A 
ATOM     55  C   UNL     1       1.802   8.565  13.368  1.00  0.00     0.049 A 
ATOM     56  H   UNL     1       1.568   6.896  14.589  1.00  0.00     0.167 HD
ATOM     57  C   UNL     1       0.885   3.331  17.076  1.00  0.00     0.037 A 
ATOM     58  C   UNL     1       2.375   9.520  14.126  1.00  0.00     0.037 A 
ATOM     59  C   UNL     1       1.564   4.260  17.936  1.00  0.00     0.049 A 
ATOM     60  C   UNL     1       2.712   9.217  15.563  1.00  0.00     0.074 A 
ATOM     61  C   UNL     1       1.968   4.088  19.247  1.00  0.00     0.029 A 
ATOM     62  N   UNL     1       1.933   5.545  17.565  1.00  0.00    -0.354 N 
ATOM     63  N   UNL     1       2.515   8.114  16.245  1.00  0.00    -0.248 NA
ATOM     64  C   UNL     1       3.358  10.290  16.332  1.00  0.00     0.031 C 
ATOM     65  C   UNL     1       2.546   5.285  19.683  1.00  0.00     0.029 A 
ATOM     66  C   UNL     1       2.546   6.185  18.629  1.00  0.00     0.049 A 
ATOM     67  H   UNL     1       1.783   5.942  16.677  1.00  0.00     0.167 HD
ATOM     68  C   UNL     1       3.032   8.351  17.514  1.00  0.00     0.074 A 
ATOM     69  C   UNL     1       3.564   9.698  17.500  1.00  0.00     0.031 C 
ATOM     70  C   UNL     1       3.067   7.529  18.592  1.00  0.00     0.037 A 
BRANCH  57  71
ATOM     71  C   UNL     1       0.490   1.988  17.614  1.00  0.00     0.057 A 
ATOM     72  C   UNL     1       1.098   0.803  17.177  1.00  0.00     0.134 A 
ATOM     73  C   UNL     1      -0.539   1.876  18.557  1.00  0.00     0.134 A 
ATOM     74  F   UNL     1       2.072   0.839  16.255  1.00  0.00    -0.206 F 
ATOM     75  C   UNL     1       0.671  -0.447  17.629  1.00  0.00     0.040 A 
ATOM     76  C   UNL     1      -0.955   0.634  19.039  1.00  0.00     0.040 A 
ATOM     77  F   UNL     1      -1.165   2.970  19.014  1.00  0.00    -0.206 F 
ATOM     78  C   UNL     1      -0.357  -0.532  18.566  1.00  0.00     0.006 A 
ENDBRANCH  57  71
BRANCH  58  79
ATOM     79  C   UNL     1       2.652  10.856  13.542  1.00  0.00     0.057 A 
ATOM     80  C   UNL     1       3.959  11.287  13.291  1.00  0.00     0.134 A 
ATOM     81  C   UNL     1       1.611  11.736  13.224  1.00  0.00     0.134 A 
ATOM     82  F   UNL     1       5.000  10.499  13.597  1.00  0.00    -0.206 F 
ATOM     83  C   UNL     1       4.223  12.549  12.754  1.00  0.00     0.040 A 
ATOM     84  C   UNL     1       1.857  12.991  12.665  1.00  0.00     0.040 A 
ATOM     85  F   UNL     1       0.335  11.383  13.441  1.00  0.00    -0.206 F 
ATOM     86  C   UNL     1       3.168  13.402  12.433  1.00  0.00     0.006 A 
ENDBRANCH  58  79
BRANCH  70  87
ATOM     87  C   UNL     1       3.727   8.052  19.834  1.00  0.00     0.057 A 
ATOM     88  C   UNL     1       3.128   9.034  20.633  1.00  0.00     0.134 A 
ATOM     89  C   UNL     1       4.958   7.536  20.258  1.00  0.00     0.134 A 
ATOM     90  F   UNL     1       1.953   9.577  20.279  1.00  0.00    -0.206 F 
ATOM     91  C   UNL     1       3.743   9.502  21.796  1.00  0.00     0.040 A 
ATOM     92  C   UNL     1       5.570   7.976  21.432  1.00  0.00     0.040 A 
ATOM     93  F   UNL     1       5.579   6.584  19.545  1.00  0.00    -0.206 F 
ATOM     94  C   UNL     1       4.965   8.968  22.201  1.00  0.00     0.006 A 
ENDBRANCH  70  87
ENDBRANCH  44  45
ENDBRANCH  37  39
ENDBRANCH  36  37
ENDBRANCH  35  36
ENDBRANCH  34  35
ENDBRANCH  33  34
ENDBRANCH  32  33
ENDBRANCH   1  32
TORSDOF 23
