REMARK SMILES C/C(Nc1ccc(C(=O)OCCOCCOCCOC(=O)c2ccc(-c3c4nc(c(-c5c(F)cccc5F)c5ccc([nH]5)c(-c5c(F)cccc5F)c5nc(c(-c6c(F)cccc6F)c6ccc3[nH]6)C=C5)C=C4)cc2)c(O)c1)=C1/C(=O)O[C@H](C)C1=O
REMARK SMILES IDX 14 1 13 2 12 3 11 4 10 5 8 6 9 7 7 8 4 9 5 10 78 11 6 12
REMARK SMILES IDX 76 13 3 14 2 16 1 17 79 18 80 19 85 20 81 21 82 22 83 23
REMARK SMILES IDX 86 24 84 25 77 26 15 28 16 29 17 30 18 31 19 32 20 33 21 34
REMARK SMILES IDX 22 35 23 36 75 37 24 38 74 39 25 40 26 41 27 42 68 43 28 44
REMARK SMILES IDX 73 45 67 46 69 47 29 48 72 49 66 50 65 51 30 53 56 54 39 55
REMARK SMILES IDX 55 56 40 57 43 58 54 59 70 60 41 61 42 62 53 64 71 65 44 66
REMARK SMILES IDX 31 67 32 68 37 69 33 70 34 71 36 72 38 73 35 74 57 75 58 76
REMARK SMILES IDX 63 77 59 78 60 79 62 80 64 81 61 82 45 83 46 84 51 85 47 86
REMARK SMILES IDX 48 87 50 88 52 89 49 90
REMARK H PARENT 3 15 77 27 69 52 43 63
REMARK Flexibility Score: inf
ROOT
ATOM      1  C   UNL     1      -1.760   7.774   3.155  1.00  0.00     0.188 C 
ENDROOT
BRANCH   1   2
ATOM      2  O   UNL     1      -2.148   9.137   3.267  1.00  0.00    -0.376 OA
BRANCH   2   3
ATOM      3  C   UNL     1      -3.246   9.632   2.513  1.00  0.00     0.202 C 
BRANCH   3   4
ATOM      4  C   UNL     1      -3.392   9.321   1.011  1.00  0.00     0.261 C 
BRANCH   4   5
ATOM      5  O   UNL     1      -3.117   7.967   0.613  1.00  0.00    -0.460 OA
BRANCH   5   6
ATOM      6  C   UNL     1      -1.977   7.789  -0.109  1.00  0.00     0.341 C 
ATOM      7  O   UNL     1      -1.217   8.664  -0.490  1.00  0.00    -0.246 OA
BRANCH   6   8
ATOM      8  C   UNL     1      -1.659   6.343  -0.220  1.00  0.00     0.101 A 
ATOM      9  C   UNL     1      -0.887   3.626  -0.328  1.00  0.00     0.042 A 
ATOM     10  C   UNL     1       0.070   4.632  -0.146  1.00  0.00     0.027 A 
ATOM     11  C   UNL     1      -2.231   4.003  -0.473  1.00  0.00     0.073 A 
ATOM     12  C   UNL     1      -0.309   5.979  -0.110  1.00  0.00     0.022 A 
ATOM     13  C   UNL     1      -2.619   5.343  -0.384  1.00  0.00     0.132 A 
BRANCH   9  14
ATOM     14  N   UNL     1      -0.571   2.257  -0.280  1.00  0.00    -0.358 N 
ATOM     15  H   UNL     1      -1.080   1.694  -0.907  1.00  0.00     0.166 HD
BRANCH  14  16
ATOM     16  C   UNL     1       0.344   1.571   0.508  1.00  0.00     0.030 C 
ATOM     17  C   UNL     1       0.874   0.308  -0.155  1.00  0.00     0.065 C 
ATOM     18  C   UNL     1       0.741   1.860   1.769  1.00  0.00     0.125 C 
ATOM     19  C   UNL     1       0.286   2.942   2.659  1.00  0.00     0.344 C 
ATOM     20  C   UNL     1       1.782   1.138   2.529  1.00  0.00     0.212 C 
ATOM     21  O   UNL     1      -0.713   3.638   2.591  1.00  0.00    -0.246 OA
ATOM     22  O   UNL     1       1.172   3.025   3.694  1.00  0.00    -0.451 OA
ATOM     23  C   UNL     1       2.153   1.969   3.718  1.00  0.00     0.245 C 
ATOM     24  O   UNL     1       2.275   0.057   2.251  1.00  0.00    -0.290 OA
ATOM     25  C   UNL     1       3.556   2.542   3.610  1.00  0.00     0.062 C 
ENDBRANCH  14  16
ENDBRANCH   9  14
BRANCH  13  26
ATOM     26  O   UNL     1      -3.964   5.587  -0.415  1.00  0.00    -0.507 OA
ATOM     27  H   UNL     1      -4.282   6.467  -0.359  1.00  0.00     0.293 HD
ENDBRANCH  13  26
ENDBRANCH   6   8
ENDBRANCH   5   6
ENDBRANCH   4   5
ENDBRANCH   3   4
ENDBRANCH   2   3
ENDBRANCH   1   2
BRANCH   1  28
ATOM     28  C   UNL     1      -2.816   6.651   3.245  1.00  0.00     0.188 C 
BRANCH  28  29
ATOM     29  O   UNL     1      -4.144   7.126   3.248  1.00  0.00    -0.376 OA
BRANCH  29  30
ATOM     30  C   UNL     1      -4.837   7.193   4.484  1.00  0.00     0.202 C 
BRANCH  30  31
ATOM     31  C   UNL     1      -4.165   7.484   5.846  1.00  0.00     0.261 C 
BRANCH  31  32
ATOM     32  O   UNL     1      -2.741   7.368   5.941  1.00  0.00    -0.460 OA
BRANCH  32  33
ATOM     33  C   UNL     1      -2.256   6.240   6.510  1.00  0.00     0.338 C 
ATOM     34  O   UNL     1      -2.886   5.279   6.912  1.00  0.00    -0.246 OA
BRANCH  33  35
ATOM     35  C   UNL     1      -0.783   6.297   6.470  1.00  0.00     0.060 A 
ATOM     36  C   UNL     1      -0.108   5.605   5.463  1.00  0.00     0.016 A 
ATOM     37  C   UNL     1      -0.068   7.000   7.441  1.00  0.00     0.016 A 
ATOM     38  C   UNL     1       1.284   5.614   5.425  1.00  0.00     0.010 A 
ATOM     39  C   UNL     1       1.333   6.973   7.421  1.00  0.00     0.010 A 
ATOM     40  C   UNL     1       2.017   6.252   6.428  1.00  0.00    -0.014 A 
BRANCH  40  41
ATOM     41  C   UNL     1       3.479   6.008   6.516  1.00  0.00     0.031 A 
ATOM     42  C   UNL     1       3.998   5.077   7.576  1.00  0.00     0.074 A 
ATOM     43  C   UNL     1       4.334   6.548   5.629  1.00  0.00     0.049 A 
ATOM     44  N   UNL     1       5.231   4.779   7.893  1.00  0.00    -0.248 NA
ATOM     45  C   UNL     1       2.982   4.386   8.384  1.00  0.00     0.031 C 
ATOM     46  C   UNL     1       3.957   7.396   4.501  1.00  0.00     0.029 A 
ATOM     47  N   UNL     1       5.703   6.468   5.551  1.00  0.00    -0.354 N 
ATOM     48  C   UNL     1       5.142   3.893   8.960  1.00  0.00     0.074 A 
ATOM     49  C   UNL     1       3.734   3.717   9.244  1.00  0.00     0.031 C 
ATOM     50  C   UNL     1       5.071   7.783   3.858  1.00  0.00     0.029 A 
ATOM     51  C   UNL     1       6.239   7.251   4.559  1.00  0.00     0.049 A 
ATOM     52  H   UNL     1       6.246   5.904   6.148  1.00  0.00     0.167 HD
ATOM     53  C   UNL     1       6.141   3.282   9.641  1.00  0.00     0.037 A 
ATOM     54  C   UNL     1       7.523   7.544   4.277  1.00  0.00     0.037 A 
ATOM     55  C   UNL     1       7.542   3.464   9.357  1.00  0.00     0.049 A 
ATOM     56  C   UNL     1       8.623   6.932   5.102  1.00  0.00     0.074 A 
ATOM     57  C   UNL     1       8.632   2.885   9.983  1.00  0.00     0.029 A 
ATOM     58  N   UNL     1       8.047   4.301   8.372  1.00  0.00    -0.354 N 
ATOM     59  N   UNL     1       8.535   6.101   6.113  1.00  0.00    -0.248 NA
ATOM     60  C   UNL     1      10.002   7.298   4.747  1.00  0.00     0.031 C 
ATOM     61  C   UNL     1       9.796   3.421   9.421  1.00  0.00     0.029 A 
ATOM     62  C   UNL     1       9.432   4.280   8.395  1.00  0.00     0.049 A 
ATOM     63  H   UNL     1       7.501   4.833   7.749  1.00  0.00     0.167 HD
ATOM     64  C   UNL     1       9.842   5.827   6.500  1.00  0.00     0.074 A 
ATOM     65  C   UNL     1      10.704   6.570   5.605  1.00  0.00     0.031 C 
ATOM     66  C   UNL     1      10.285   5.028   7.503  1.00  0.00     0.037 A 
BRANCH  53  67
ATOM     67  C   UNL     1       5.745   2.408  10.798  1.00  0.00     0.057 A 
ATOM     68  C   UNL     1       5.059   1.198  10.624  1.00  0.00     0.134 A 
ATOM     69  C   UNL     1       6.040   2.796  12.112  1.00  0.00     0.134 A 
ATOM     70  F   UNL     1       4.731   0.772   9.394  1.00  0.00    -0.206 F 
ATOM     71  C   UNL     1       4.641   0.431  11.714  1.00  0.00     0.040 A 
ATOM     72  C   UNL     1       5.658   2.021  13.208  1.00  0.00     0.040 A 
ATOM     73  F   UNL     1       6.700   3.938  12.354  1.00  0.00    -0.206 F 
ATOM     74  C   UNL     1       4.944   0.841  13.011  1.00  0.00     0.006 A 
ENDBRANCH  53  67
BRANCH  54  75
ATOM     75  C   UNL     1       7.829   8.500   3.183  1.00  0.00     0.057 A 
ATOM     76  C   UNL     1       8.432   8.080   1.993  1.00  0.00     0.134 A 
ATOM     77  C   UNL     1       7.505   9.858   3.297  1.00  0.00     0.134 A 
ATOM     78  F   UNL     1       8.790   6.797   1.834  1.00  0.00    -0.206 F 
ATOM     79  C   UNL     1       8.703   8.975   0.956  1.00  0.00     0.040 A 
ATOM     80  C   UNL     1       7.744  10.759   2.259  1.00  0.00     0.040 A 
ATOM     81  F   UNL     1       6.927  10.324   4.415  1.00  0.00    -0.206 F 
ATOM     82  C   UNL     1       8.348  10.317   1.084  1.00  0.00     0.006 A 
ENDBRANCH  54  75
BRANCH  66  83
ATOM     83  C   UNL     1      11.773   4.885   7.669  1.00  0.00     0.057 A 
ATOM     84  C   UNL     1      12.575   5.930   8.146  1.00  0.00     0.134 A 
ATOM     85  C   UNL     1      12.406   3.666   7.386  1.00  0.00     0.134 A 
ATOM     86  F   UNL     1      12.037   7.127   8.426  1.00  0.00    -0.206 F 
ATOM     87  C   UNL     1      13.954   5.776   8.311  1.00  0.00     0.040 A 
ATOM     88  C   UNL     1      13.777   3.491   7.576  1.00  0.00     0.040 A 
ATOM     89  F   UNL     1      11.698   2.619   6.935  1.00  0.00    -0.206 F 
ATOM     90  C   UNL     1      14.557   4.551   8.033  1.00  0.00     0.006 A 
ENDBRANCH  66  83
ENDBRANCH  40  41
ENDBRANCH  33  35
ENDBRANCH  32  33
ENDBRANCH  31  32
ENDBRANCH  30  31
ENDBRANCH  29  30
ENDBRANCH  28  29
ENDBRANCH   1  28
TORSDOF 20
