REMARK SMILES Cn1ccc(NS(=O)(=O)c2ccc(C(=O)OCCOCCOCCOC(=O)c3ccc(-c4c5nc(c(-c6c(F)cccc6F)c6ccc([nH]6)c(-c6c(F)cccc6F)c6nc(c(-c7c(F)cccc7F)c7ccc4[nH]7)C=C6)C=C5)cc3)cc2F)n1
REMARK SMILES IDX 20 1 19 2 18 3 17 4 16 5 14 6 15 7 13 8 10 9 11 10 83 11
REMARK SMILES IDX 12 12 82 13 84 14 7 15 8 16 9 17 6 18 5 20 1 21 2 22 3 23
REMARK SMILES IDX 85 24 4 25 21 26 22 27 23 28 24 29 25 30 26 31 27 32 28 33
REMARK SMILES IDX 29 34 81 35 30 36 80 37 31 38 32 39 33 40 74 41 34 42 79 43
REMARK SMILES IDX 73 44 75 45 35 46 78 47 72 48 71 49 36 51 62 52 45 53 61 54
REMARK SMILES IDX 46 55 49 56 60 57 76 58 47 59 48 60 59 62 77 63 50 64 37 65
REMARK SMILES IDX 38 66 43 67 39 68 40 69 42 70 44 71 41 72 63 73 64 74 69 75
REMARK SMILES IDX 65 76 66 77 68 78 70 79 67 80 51 81 52 82 57 83 53 84 54 85
REMARK SMILES IDX 56 86 58 87 55 88
REMARK H PARENT 6 19 75 50 49 61
REMARK Flexibility Score: inf
ROOT
ATOM      1  C   UNL     1      -5.143   4.042  -1.155  1.00  0.00     0.188 C 
ENDROOT
BRANCH   1   2
ATOM      2  O   UNL     1      -6.395   4.550  -0.742  1.00  0.00    -0.376 OA
BRANCH   2   3
ATOM      3  C   UNL     1      -6.442   5.714   0.073  1.00  0.00     0.202 C 
BRANCH   3   4
ATOM      4  C   UNL     1      -5.484   5.882   1.256  1.00  0.00     0.261 C 
BRANCH   4   5
ATOM      5  O   UNL     1      -4.101   5.788   0.883  1.00  0.00    -0.460 OA
BRANCH   5   6
ATOM      6  C   UNL     1      -3.363   4.949   1.648  1.00  0.00     0.338 C 
ATOM      7  O   UNL     1      -3.720   4.340   2.644  1.00  0.00    -0.246 OA
BRANCH   6   8
ATOM      8  C   UNL     1      -2.074   4.688   0.993  1.00  0.00     0.063 A 
ATOM      9  C   UNL     1       0.431   3.921   0.069  1.00  0.00     0.123 A 
ATOM     10  C   UNL     1      -0.672   3.131  -0.221  1.00  0.00     0.026 A 
ATOM     11  C   UNL     1       0.238   5.179   0.646  1.00  0.00     0.144 A 
ATOM     12  C   UNL     1      -1.905   3.464   0.334  1.00  0.00     0.017 A 
ATOM     13  C   UNL     1      -1.021   5.591   1.080  1.00  0.00     0.056 A 
ATOM     14  F   UNL     1       1.265   6.025   0.805  1.00  0.00    -0.205 F 
BRANCH   9  15
ATOM     15  S   UNL     1       2.091   3.340  -0.050  1.00  0.00     0.266 S 
ATOM     16  O   UNL     1       2.745   3.608   1.215  1.00  0.00    -0.201 OA
ATOM     17  O   UNL     1       2.611   3.906  -1.281  1.00  0.00    -0.201 OA
BRANCH  15  18
ATOM     18  N   UNL     1       2.192   1.695  -0.302  1.00  0.00    -0.262 N 
ATOM     19  H   UNL     1       2.935   1.428  -0.890  1.00  0.00     0.182 HD
BRANCH  18  20
ATOM     20  C   UNL     1       1.436   0.633   0.155  1.00  0.00     0.161 A 
ATOM     21  C   UNL     1      -1.722  -0.622   0.760  1.00  0.00     0.173 C 
ATOM     22  N   UNL     1      -0.288  -0.485   0.645  1.00  0.00    -0.274 N 
ATOM     23  C   UNL     1       0.575  -1.415   0.148  1.00  0.00     0.110 A 
ATOM     24  N   UNL     1       0.279   0.726   0.806  1.00  0.00    -0.155 NA
ATOM     25  C   UNL     1       1.716  -0.715  -0.174  1.00  0.00     0.069 A 
ENDBRANCH  18  20
ENDBRANCH  15  18
ENDBRANCH   9  15
ENDBRANCH   6   8
ENDBRANCH   5   6
ENDBRANCH   4   5
ENDBRANCH   3   4
ENDBRANCH   2   3
ENDBRANCH   1   2
BRANCH   1  26
ATOM     26  C   UNL     1      -4.185   4.905  -2.006  1.00  0.00     0.188 C 
BRANCH  26  27
ATOM     27  O   UNL     1      -4.536   6.208  -2.412  1.00  0.00    -0.376 OA
BRANCH  27  28
ATOM     28  C   UNL     1      -5.699   6.433  -3.188  1.00  0.00     0.202 C 
BRANCH  28  29
ATOM     29  C   UNL     1      -6.113   5.512  -4.340  1.00  0.00     0.261 C 
BRANCH  29  30
ATOM     30  O   UNL     1      -5.995   4.107  -4.091  1.00  0.00    -0.460 OA
BRANCH  30  31
ATOM     31  C   UNL     1      -5.067   3.475  -4.850  1.00  0.00     0.338 C 
ATOM     32  O   UNL     1      -4.322   3.965  -5.680  1.00  0.00    -0.246 OA
BRANCH  31  33
ATOM     33  C   UNL     1      -4.958   2.070  -4.424  1.00  0.00     0.060 A 
ATOM     34  C   UNL     1      -3.727   1.616  -3.935  1.00  0.00     0.016 A 
ATOM     35  C   UNL     1      -6.032   1.194  -4.585  1.00  0.00     0.016 A 
ATOM     36  C   UNL     1      -3.557   0.267  -3.630  1.00  0.00     0.010 A 
ATOM     37  C   UNL     1      -5.854  -0.161  -4.298  1.00  0.00     0.010 A 
ATOM     38  C   UNL     1      -4.609  -0.634  -3.847  1.00  0.00    -0.014 A 
BRANCH  38  39
ATOM     39  C   UNL     1      -4.367  -2.091  -3.745  1.00  0.00     0.031 A 
ATOM     40  C   UNL     1      -4.036  -2.860  -4.993  1.00  0.00     0.074 A 
ATOM     41  C   UNL     1      -4.436  -2.719  -2.559  1.00  0.00     0.049 A 
ATOM     42  N   UNL     1      -3.850  -4.145  -5.147  1.00  0.00    -0.248 NA
ATOM     43  C   UNL     1      -3.899  -2.075  -6.231  1.00  0.00     0.031 C 
ATOM     44  C   UNL     1      -4.718  -2.076  -1.278  1.00  0.00     0.029 A 
ATOM     45  N   UNL     1      -4.284  -4.047  -2.247  1.00  0.00    -0.354 N 
ATOM     46  C   UNL     1      -3.579  -4.325  -6.498  1.00  0.00     0.074 A 
ATOM     47  C   UNL     1      -3.643  -3.022  -7.123  1.00  0.00     0.031 C 
ATOM     48  C   UNL     1      -4.727  -3.014  -0.315  1.00  0.00     0.029 A 
ATOM     49  C   UNL     1      -4.485  -4.325  -0.918  1.00  0.00     0.049 A 
ATOM     50  H   UNL     1      -4.052  -4.734  -2.912  1.00  0.00     0.167 HD
ATOM     51  C   UNL     1      -3.299  -5.474  -7.156  1.00  0.00     0.037 A 
ATOM     52  C   UNL     1      -4.498  -5.506  -0.269  1.00  0.00     0.037 A 
ATOM     53  C   UNL     1      -3.247  -6.771  -6.537  1.00  0.00     0.049 A 
ATOM     54  C   UNL     1      -4.260  -6.780  -1.037  1.00  0.00     0.074 A 
ATOM     55  C   UNL     1      -2.966  -7.993  -7.123  1.00  0.00     0.029 A 
ATOM     56  N   UNL     1      -3.489  -7.016  -5.194  1.00  0.00    -0.354 N 
ATOM     57  N   UNL     1      -3.991  -6.939  -2.310  1.00  0.00    -0.248 NA
ATOM     58  C   UNL     1      -4.335  -8.039  -0.280  1.00  0.00     0.031 C 
ATOM     59  C   UNL     1      -3.084  -8.983  -6.144  1.00  0.00     0.029 A 
ATOM     60  C   UNL     1      -3.386  -8.372  -4.937  1.00  0.00     0.049 A 
ATOM     61  H   UNL     1      -3.703  -6.327  -4.523  1.00  0.00     0.167 HD
ATOM     62  C   UNL     1      -3.847  -8.308  -2.503  1.00  0.00     0.074 A 
ATOM     63  C   UNL     1      -4.044  -8.935  -1.213  1.00  0.00     0.031 C 
ATOM     64  C   UNL     1      -3.576  -8.983  -3.647  1.00  0.00     0.037 A 
BRANCH  51  65
ATOM     65  C   UNL     1      -3.045  -5.386  -8.631  1.00  0.00     0.057 A 
ATOM     66  C   UNL     1      -3.976  -5.891  -9.547  1.00  0.00     0.134 A 
ATOM     67  C   UNL     1      -1.853  -4.857  -9.142  1.00  0.00     0.134 A 
ATOM     68  F   UNL     1      -5.135  -6.415  -9.121  1.00  0.00    -0.206 F 
ATOM     69  C   UNL     1      -3.725  -5.886 -10.919  1.00  0.00     0.040 A 
ATOM     70  C   UNL     1      -1.601  -4.824 -10.514  1.00  0.00     0.040 A 
ATOM     71  F   UNL     1      -0.928  -4.344  -8.316  1.00  0.00    -0.206 F 
ATOM     72  C   UNL     1      -2.534  -5.349 -11.406  1.00  0.00     0.006 A 
ENDBRANCH  51  65
BRANCH  52  73
ATOM     73  C   UNL     1      -4.750  -5.542   1.194  1.00  0.00     0.057 A 
ATOM     74  C   UNL     1      -6.008  -5.241   1.728  1.00  0.00     0.134 A 
ATOM     75  C   UNL     1      -3.729  -5.874   2.091  1.00  0.00     0.134 A 
ATOM     76  F   UNL     1      -7.026  -4.912   0.919  1.00  0.00    -0.206 F 
ATOM     77  C   UNL     1      -6.240  -5.253   3.104  1.00  0.00     0.040 A 
ATOM     78  C   UNL     1      -3.953  -5.914   3.469  1.00  0.00     0.040 A 
ATOM     79  F   UNL     1      -2.508  -6.188   1.637  1.00  0.00    -0.206 F 
ATOM     80  C   UNL     1      -5.210  -5.595   3.978  1.00  0.00     0.006 A 
ENDBRANCH  52  73
BRANCH  64  81
ATOM     81  C   UNL     1      -3.448 -10.477  -3.567  1.00  0.00     0.057 A 
ATOM     82  C   UNL     1      -2.200 -11.094  -3.731  1.00  0.00     0.134 A 
ATOM     83  C   UNL     1      -4.566 -11.306  -3.422  1.00  0.00     0.134 A 
ATOM     84  F   UNL     1      -1.091 -10.356  -3.886  1.00  0.00    -0.206 F 
ATOM     85  C   UNL     1      -2.073 -12.483  -3.773  1.00  0.00     0.040 A 
ATOM     86  C   UNL     1      -4.448 -12.697  -3.438  1.00  0.00     0.040 A 
ATOM     87  F   UNL     1      -5.787 -10.777  -3.253  1.00  0.00    -0.206 F 
ATOM     88  C   UNL     1      -3.199 -13.289  -3.625  1.00  0.00     0.006 A 
ENDBRANCH  64  81
ENDBRANCH  38  39
ENDBRANCH  31  33
ENDBRANCH  30  31
ENDBRANCH  29  30
ENDBRANCH  28  29
ENDBRANCH  27  28
ENDBRANCH  26  27
ENDBRANCH   1  26
TORSDOF 20
