REMARK SMILES CNc1nccc(-c2cc(C(=O)OCCOCCOCCOC(=O)c3ccc(-c4c5nc(c(-c6c(F)cccc6F)c6ccc([nH]6)c(-c6c(F)cccc6F)c6nc(c(-c7c(F)cccc7F)c7ccc4[nH]7)C=C6)C=C5)cc3)ccn2)n1
REMARK SMILES IDX 17 1 16 2 15 3 14 4 13 5 11 6 12 7 10 8 8 9 9 10 81 11 80 12
REMARK SMILES IDX 79 13 7 14 3 15 4 16 82 17 5 18 6 19 2 20 1 21 18 23 19 24
REMARK SMILES IDX 20 25 21 26 22 27 23 28 24 29 25 30 26 31 78 32 27 33 77 34
REMARK SMILES IDX 28 35 29 36 30 37 71 38 31 39 76 40 70 41 72 42 32 43 75 44
REMARK SMILES IDX 69 45 68 46 33 48 59 49 42 50 58 51 43 52 46 53 57 54 73 55
REMARK SMILES IDX 44 56 45 57 56 59 74 60 47 61 34 62 35 63 40 64 36 65 37 66
REMARK SMILES IDX 39 67 41 68 38 69 60 70 61 71 66 72 62 73 63 74 65 75 67 76
REMARK SMILES IDX 64 77 48 78 49 79 54 80 50 81 51 82 53 83 55 84 52 85
REMARK H PARENT 2 22 72 47 46 58
REMARK Flexibility Score: inf
ROOT
ATOM      1  C   UNL     1      -4.706  -0.919  -7.110  1.00  0.00     0.188 C 
ENDROOT
BRANCH   1   2
ATOM      2  O   UNL     1      -4.922  -0.528  -8.457  1.00  0.00    -0.376 OA
BRANCH   2   3
ATOM      3  C   UNL     1      -4.346   0.671  -8.957  1.00  0.00     0.202 C 
BRANCH   3   4
ATOM      4  C   UNL     1      -4.410   1.987  -8.162  1.00  0.00     0.261 C 
BRANCH   4   5
ATOM      5  O   UNL     1      -4.077   1.888  -6.769  1.00  0.00    -0.460 OA
BRANCH   5   6
ATOM      6  C   UNL     1      -5.104   2.076  -5.903  1.00  0.00     0.338 C 
ATOM      7  O   UNL     1      -6.251   2.375  -6.172  1.00  0.00    -0.246 OA
BRANCH   6   8
ATOM      8  C   UNL     1      -4.681   1.661  -4.547  1.00  0.00     0.063 A 
ATOM      9  C   UNL     1      -3.142   1.662  -2.711  1.00  0.00     0.090 A 
ATOM     10  C   UNL     1      -3.459   2.061  -4.010  1.00  0.00     0.046 A 
ATOM     11  N   UNL     1      -3.953   0.829  -2.005  1.00  0.00    -0.255 NA
ATOM     12  C   UNL     1      -5.115   0.431  -2.568  1.00  0.00     0.112 A 
ATOM     13  C   UNL     1      -5.535   0.840  -3.815  1.00  0.00     0.036 A 
BRANCH   9  14
ATOM     14  C   UNL     1      -2.018   2.277  -1.974  1.00  0.00     0.094 A 
ATOM     15  C   UNL     1      -0.226   2.064  -0.545  1.00  0.00     0.222 A 
ATOM     16  N   UNL     1      -0.042   3.391  -0.482  1.00  0.00    -0.222 NA
ATOM     17  N   UNL     1      -1.187   1.471  -1.269  1.00  0.00    -0.211 NA
ATOM     18  C   UNL     1      -0.861   4.159  -1.210  1.00  0.00     0.117 A 
ATOM     19  C   UNL     1      -1.870   3.653  -1.982  1.00  0.00     0.051 A 
BRANCH  15  20
ATOM     20  N   UNL     1       0.695   1.344   0.160  1.00  0.00    -0.357 N 
ATOM     21  C   UNL     1       0.913  -0.055  -0.044  1.00  0.00     0.143 C 
ATOM     22  H   UNL     1       1.234   1.809   0.841  1.00  0.00     0.163 HD
ENDBRANCH  15  20
ENDBRANCH   9  14
ENDBRANCH   6   8
ENDBRANCH   5   6
ENDBRANCH   4   5
ENDBRANCH   3   4
ENDBRANCH   2   3
ENDBRANCH   1   2
BRANCH   1  23
ATOM     23  C   UNL     1      -3.276  -0.955  -6.527  1.00  0.00     0.188 C 
BRANCH  23  24
ATOM     24  O   UNL     1      -2.284  -0.425  -7.369  1.00  0.00    -0.376 OA
BRANCH  24  25
ATOM     25  C   UNL     1      -1.550  -1.290  -8.219  1.00  0.00     0.202 C 
BRANCH  25  26
ATOM     26  C   UNL     1      -1.997  -2.698  -8.672  1.00  0.00     0.261 C 
BRANCH  26  27
ATOM     27  O   UNL     1      -3.181  -3.263  -8.102  1.00  0.00    -0.460 OA
BRANCH  27  28
ATOM     28  C   UNL     1      -2.997  -4.150  -7.094  1.00  0.00     0.338 C 
ATOM     29  O   UNL     1      -1.944  -4.485  -6.587  1.00  0.00    -0.246 OA
BRANCH  28  30
ATOM     30  C   UNL     1      -4.319  -4.543  -6.566  1.00  0.00     0.060 A 
ATOM     31  C   UNL     1      -4.683  -4.132  -5.276  1.00  0.00     0.016 A 
ATOM     32  C   UNL     1      -5.173  -5.347  -7.322  1.00  0.00     0.016 A 
ATOM     33  C   UNL     1      -5.895  -4.551  -4.726  1.00  0.00     0.010 A 
ATOM     34  C   UNL     1      -6.378  -5.783  -6.761  1.00  0.00     0.010 A 
ATOM     35  C   UNL     1      -6.728  -5.415  -5.448  1.00  0.00    -0.014 A 
BRANCH  35  36
ATOM     36  C   UNL     1      -7.862  -6.090  -4.767  1.00  0.00     0.031 A 
ATOM     37  C   UNL     1      -7.668  -7.503  -4.284  1.00  0.00     0.074 A 
ATOM     38  C   UNL     1      -9.035  -5.465  -4.566  1.00  0.00     0.049 A 
ATOM     39  N   UNL     1      -8.526  -8.317  -3.726  1.00  0.00    -0.248 NA
ATOM     40  C   UNL     1      -6.323  -8.073  -4.463  1.00  0.00     0.031 C 
ATOM     41  C   UNL     1      -9.337  -4.088  -4.947  1.00  0.00     0.029 A 
ATOM     42  N   UNL     1     -10.199  -5.923  -3.999  1.00  0.00    -0.354 N 
ATOM     43  C   UNL     1      -7.829  -9.497  -3.496  1.00  0.00     0.074 A 
ATOM     44  C   UNL     1      -6.489  -9.305  -4.006  1.00  0.00     0.031 C 
ATOM     45  C   UNL     1     -10.612  -3.815  -4.614  1.00  0.00     0.029 A 
ATOM     46  C   UNL     1     -11.224  -5.009  -4.032  1.00  0.00     0.049 A 
ATOM     47  H   UNL     1     -10.290  -6.821  -3.606  1.00  0.00     0.167 HD
ATOM     48  C   UNL     1      -8.263 -10.637  -2.906  1.00  0.00     0.037 A 
ATOM     49  C   UNL     1     -12.513  -5.133  -3.659  1.00  0.00     0.037 A 
ATOM     50  C   UNL     1      -9.598 -10.829  -2.404  1.00  0.00     0.049 A 
ATOM     51  C   UNL     1     -12.994  -6.438  -3.076  1.00  0.00     0.074 A 
ATOM     52  C   UNL     1     -10.131 -11.943  -1.779  1.00  0.00     0.029 A 
ATOM     53  N   UNL     1     -10.614  -9.888  -2.478  1.00  0.00    -0.354 N 
ATOM     54  N   UNL     1     -12.324  -7.541  -2.843  1.00  0.00    -0.248 NA
ATOM     55  C   UNL     1     -14.414  -6.512  -2.699  1.00  0.00     0.031 C 
ATOM     56  C   UNL     1     -11.485 -11.698  -1.528  1.00  0.00     0.029 A 
ATOM     57  C   UNL     1     -11.777 -10.405  -1.933  1.00  0.00     0.049 A 
ATOM     58  H   UNL     1     -10.521  -8.986  -2.861  1.00  0.00     0.167 HD
ATOM     59  C   UNL     1     -13.227  -8.422  -2.257  1.00  0.00     0.074 A 
ATOM     60  C   UNL     1     -14.491  -7.722  -2.163  1.00  0.00     0.031 C 
ATOM     61  C   UNL     1     -13.027  -9.694  -1.830  1.00  0.00     0.037 A 
BRANCH  48  62
ATOM     62  C   UNL     1      -7.290 -11.776  -2.803  1.00  0.00     0.057 A 
ATOM     63  C   UNL     1      -6.181 -11.732  -1.948  1.00  0.00     0.134 A 
ATOM     64  C   UNL     1      -7.479 -12.944  -3.553  1.00  0.00     0.134 A 
ATOM     65  F   UNL     1      -5.931 -10.637  -1.213  1.00  0.00    -0.206 F 
ATOM     66  C   UNL     1      -5.282 -12.797  -1.862  1.00  0.00     0.040 A 
ATOM     67  C   UNL     1      -6.605 -14.027  -3.452  1.00  0.00     0.040 A 
ATOM     68  F   UNL     1      -8.523 -13.056  -4.388  1.00  0.00    -0.206 F 
ATOM     69  C   UNL     1      -5.498 -13.952  -2.611  1.00  0.00     0.006 A 
ENDBRANCH  48  62
BRANCH  49  70
ATOM     70  C   UNL     1     -13.454  -3.996  -3.832  1.00  0.00     0.057 A 
ATOM     71  C   UNL     1     -14.010  -3.337  -2.729  1.00  0.00     0.134 A 
ATOM     72  C   UNL     1     -13.850  -3.564  -5.104  1.00  0.00     0.134 A 
ATOM     73  F   UNL     1     -13.692  -3.721  -1.484  1.00  0.00    -0.206 F 
ATOM     74  C   UNL     1     -14.940  -2.307  -2.883  1.00  0.00     0.040 A 
ATOM     75  C   UNL     1     -14.756  -2.516  -5.274  1.00  0.00     0.040 A 
ATOM     76  F   UNL     1     -13.356  -4.154  -6.204  1.00  0.00    -0.206 F 
ATOM     77  C   UNL     1     -15.311  -1.891  -4.159  1.00  0.00     0.006 A 
ENDBRANCH  49  70
BRANCH  61  78
ATOM     78  C   UNL     1     -14.178 -10.393  -1.163  1.00  0.00     0.057 A 
ATOM     79  C   UNL     1     -15.313 -10.809  -1.870  1.00  0.00     0.134 A 
ATOM     80  C   UNL     1     -14.129 -10.691   0.206  1.00  0.00     0.134 A 
ATOM     81  F   UNL     1     -15.432 -10.550  -3.181  1.00  0.00    -0.206 F 
ATOM     82  C   UNL     1     -16.369 -11.468  -1.235  1.00  0.00     0.040 A 
ATOM     83  C   UNL     1     -15.162 -11.377   0.845  1.00  0.00     0.040 A 
ATOM     84  F   UNL     1     -13.066 -10.334   0.943  1.00  0.00    -0.206 F 
ATOM     85  C   UNL     1     -16.291 -11.760   0.125  1.00  0.00     0.006 A 
ENDBRANCH  61  78
ENDBRANCH  35  36
ENDBRANCH  28  30
ENDBRANCH  27  28
ENDBRANCH  26  27
ENDBRANCH  25  26
ENDBRANCH  24  25
ENDBRANCH  23  24
ENDBRANCH   1  23
TORSDOF 19
