REMARK SMILES O=C(OCCOCCOCCOC(=O)[C@H]1C[C@@H](O)CN1C(=O)CCc1ccc(Cl)cc1Cl)c1ccc(-c2c3nc(c(-c4c(F)cccc4F)c4ccc([nH]4)c(-c4c(F)cccc4F)c4nc(c(-c5c(F)cccc5F)c5ccc2[nH]5)C=C4)C=C3)cc1
REMARK SMILES IDX 8 1 7 2 6 3 5 4 4 5 3 6 2 7 1 8 33 9 34 10 86 11 35 12 85 13
REMARK SMILES IDX 36 14 37 15 38 16 79 17 39 18 84 19 78 20 80 21 40 22 83 23
REMARK SMILES IDX 77 24 76 25 41 27 67 28 50 29 66 30 51 31 54 32 65 33 81 34
REMARK SMILES IDX 52 35 53 36 64 38 82 39 55 40 42 41 43 42 48 43 44 44 45 45
REMARK SMILES IDX 47 46 49 47 46 48 68 49 69 50 74 51 70 52 71 53 73 54 75 55
REMARK SMILES IDX 72 56 56 57 57 58 62 59 58 60 59 61 61 62 63 63 60 64 9 65
REMARK SMILES IDX 10 66 11 67 12 68 13 69 14 70 15 71 16 72 20 73 17 74 19 75
REMARK SMILES IDX 21 76 22 77 23 78 24 79 25 80 26 81 31 82 27 83 30 84 32 85
REMARK SMILES IDX 28 86 29 87 18 88
REMARK H PARENT 80 26 54 37 18 89
REMARK Flexibility Score: inf
ROOT
ATOM      1  C   UNL     1       2.167   2.964   1.150  1.00  0.00     0.188 C 
ENDROOT
BRANCH   1   2
ATOM      2  C   UNL     1       2.694   1.812   0.295  1.00  0.00     0.188 C 
BRANCH   2   3
ATOM      3  O   UNL     1       4.076   1.499   0.460  1.00  0.00    -0.376 OA
BRANCH   3   4
ATOM      4  C   UNL     1       4.778   1.325  -0.779  1.00  0.00     0.202 C 
BRANCH   4   5
ATOM      5  C   UNL     1       4.379   0.106  -1.642  1.00  0.00     0.261 C 
BRANCH   5   6
ATOM      6  O   UNL     1       2.993  -0.273  -1.531  1.00  0.00    -0.460 OA
BRANCH   6   7
ATOM      7  C   UNL     1       2.445  -1.276  -0.795  1.00  0.00     0.338 C 
ATOM      8  O   UNL     1       1.266  -1.568  -0.980  1.00  0.00    -0.246 OA
BRANCH   7   9
ATOM      9  C   UNL     1       3.200  -2.025   0.255  1.00  0.00     0.060 A 
ATOM     10  C   UNL     1       4.358  -1.554   0.864  1.00  0.00     0.016 A 
ATOM     11  C   UNL     1       2.668  -3.243   0.712  1.00  0.00     0.016 A 
ATOM     12  C   UNL     1       5.036  -2.294   1.813  1.00  0.00     0.010 A 
ATOM     13  C   UNL     1       3.308  -3.971   1.725  1.00  0.00     0.010 A 
ATOM     14  C   UNL     1       4.516  -3.506   2.255  1.00  0.00    -0.014 A 
BRANCH  14  15
ATOM     15  C   UNL     1       5.370  -4.288   3.168  1.00  0.00     0.031 A 
ATOM     16  C   UNL     1       6.107  -5.464   2.605  1.00  0.00     0.074 A 
ATOM     17  C   UNL     1       5.645  -3.804   4.394  1.00  0.00     0.049 A 
ATOM     18  N   UNL     1       6.990  -6.236   3.176  1.00  0.00    -0.248 NA
ATOM     19  C   UNL     1       5.832  -5.800   1.196  1.00  0.00     0.031 C 
ATOM     20  C   UNL     1       5.060  -2.590   4.970  1.00  0.00     0.029 A 
ATOM     21  N   UNL     1       6.526  -4.230   5.352  1.00  0.00    -0.354 N 
ATOM     22  C   UNL     1       7.371  -7.148   2.202  1.00  0.00     0.074 A 
ATOM     23  C   UNL     1       6.606  -6.856   1.012  1.00  0.00     0.031 C 
ATOM     24  C   UNL     1       5.624  -2.349   6.163  1.00  0.00     0.029 A 
ATOM     25  C   UNL     1       6.563  -3.422   6.463  1.00  0.00     0.049 A 
ATOM     26  H   UNL     1       7.080  -5.038   5.254  1.00  0.00     0.167 HD
ATOM     27  C   UNL     1       8.288  -8.136   2.296  1.00  0.00     0.037 A 
ATOM     28  C   UNL     1       7.264  -3.558   7.604  1.00  0.00     0.037 A 
ATOM     29  C   UNL     1       9.028  -8.414   3.495  1.00  0.00     0.049 A 
ATOM     30  C   UNL     1       8.194  -4.735   7.719  1.00  0.00     0.074 A 
ATOM     31  C   UNL     1       9.907  -9.447   3.752  1.00  0.00     0.029 A 
ATOM     32  N   UNL     1       8.969  -7.636   4.644  1.00  0.00    -0.354 N 
ATOM     33  N   UNL     1       8.494  -5.641   6.817  1.00  0.00    -0.248 NA
ATOM     34  C   UNL     1       8.874  -4.918   9.006  1.00  0.00     0.031 C 
ATOM     35  C   UNL     1      10.353  -9.315   5.072  1.00  0.00     0.029 A 
ATOM     36  C   UNL     1       9.789  -8.172   5.620  1.00  0.00     0.049 A 
ATOM     37  H   UNL     1       8.424  -6.822   4.748  1.00  0.00     0.167 HD
ATOM     38  C   UNL     1       9.403  -6.495   7.423  1.00  0.00     0.074 A 
ATOM     39  C   UNL     1       9.632  -5.976   8.758  1.00  0.00     0.031 C 
ATOM     40  C   UNL     1       9.989  -7.616   6.934  1.00  0.00     0.037 A 
BRANCH  27  41
ATOM     41  C   UNL     1       8.474  -9.002   1.087  1.00  0.00     0.057 A 
ATOM     42  C   UNL     1       9.127  -8.539  -0.064  1.00  0.00     0.134 A 
ATOM     43  C   UNL     1       7.949 -10.299   1.055  1.00  0.00     0.134 A 
ATOM     44  F   UNL     1       9.621  -7.292  -0.110  1.00  0.00    -0.206 F 
ATOM     45  C   UNL     1       9.229  -9.328  -1.212  1.00  0.00     0.040 A 
ATOM     46  C   UNL     1       8.064 -11.105  -0.079  1.00  0.00     0.040 A 
ATOM     47  F   UNL     1       7.301 -10.797   2.118  1.00  0.00    -0.206 F 
ATOM     48  C   UNL     1       8.698 -10.617  -1.219  1.00  0.00     0.006 A 
ENDBRANCH  27  41
BRANCH  28  49
ATOM     49  C   UNL     1       7.072  -2.611   8.736  1.00  0.00     0.057 A 
ATOM     50  C   UNL     1       8.116  -1.814   9.219  1.00  0.00     0.134 A 
ATOM     51  C   UNL     1       5.840  -2.518   9.399  1.00  0.00     0.134 A 
ATOM     52  F   UNL     1       9.326  -1.864   8.644  1.00  0.00    -0.206 F 
ATOM     53  C   UNL     1       7.954  -0.989  10.336  1.00  0.00     0.040 A 
ATOM     54  C   UNL     1       5.654  -1.675  10.496  1.00  0.00     0.040 A 
ATOM     55  F   UNL     1       4.792  -3.249   8.990  1.00  0.00    -0.206 F 
ATOM     56  C   UNL     1       6.718  -0.916  10.976  1.00  0.00     0.006 A 
ENDBRANCH  28  49
BRANCH  40  57
ATOM     57  C   UNL     1      10.943  -8.327   7.846  1.00  0.00     0.057 A 
ATOM     58  C   UNL     1      10.496  -9.052   8.957  1.00  0.00     0.134 A 
ATOM     59  C   UNL     1      12.319  -8.307   7.590  1.00  0.00     0.134 A 
ATOM     60  F   UNL     1       9.190  -9.094   9.261  1.00  0.00    -0.206 F 
ATOM     61  C   UNL     1      11.389  -9.711   9.800  1.00  0.00     0.040 A 
ATOM     62  C   UNL     1      13.219  -8.987   8.409  1.00  0.00     0.040 A 
ATOM     63  F   UNL     1      12.807  -7.638   6.535  1.00  0.00    -0.206 F 
ATOM     64  C   UNL     1      12.755  -9.685   9.522  1.00  0.00     0.006 A 
ENDBRANCH  40  57
ENDBRANCH  14  15
ENDBRANCH   7   9
ENDBRANCH   6   7
ENDBRANCH   5   6
ENDBRANCH   4   5
ENDBRANCH   3   4
ENDBRANCH   2   3
ENDBRANCH   1   2
BRANCH   1  65
ATOM     65  O   UNL     1       2.887   4.187   1.196  1.00  0.00    -0.376 OA
BRANCH  65  66
ATOM     66  C   UNL     1       4.288   4.157   1.426  1.00  0.00     0.202 C 
BRANCH  66  67
ATOM     67  C   UNL     1       4.835   3.658   2.775  1.00  0.00     0.261 C 
BRANCH  67  68
ATOM     68  O   UNL     1       4.327   2.407   3.269  1.00  0.00    -0.462 OA
BRANCH  68  69
ATOM     69  C   UNL     1       3.262   2.544   4.101  1.00  0.00     0.329 C 
ATOM     70  O   UNL     1       2.683   3.611   4.295  1.00  0.00    -0.250 OA
BRANCH  69  71
ATOM     71  C   UNL     1       2.813   1.219   4.743  1.00  0.00     0.197 C 
ATOM     72  C   UNL     1       2.553   1.498   6.230  1.00  0.00     0.070 C 
ATOM     73  N   UNL     1       1.493   0.787   4.262  1.00  0.00    -0.326 N 
ATOM     74  C   UNL     1       1.119   2.046   6.263  1.00  0.00     0.136 C 
ATOM     75  C   UNL     1       0.449   1.425   5.038  1.00  0.00     0.152 C 
BRANCH  73  76
ATOM     76  C   UNL     1       1.293  -0.386   3.557  1.00  0.00     0.223 C 
ATOM     77  O   UNL     1       2.190  -1.224   3.444  1.00  0.00    -0.275 OA
BRANCH  76  78
ATOM     78  C   UNL     1      -0.046  -0.589   2.844  1.00  0.00     0.105 C 
BRANCH  78  79
ATOM     79  C   UNL     1      -1.058  -1.562   3.481  1.00  0.00     0.047 C 
BRANCH  79  80
ATOM     80  C   UNL     1      -1.766  -1.038   4.715  1.00  0.00    -0.029 A 
ATOM     81  C   UNL     1      -1.452  -1.615   5.961  1.00  0.00     0.007 A 
ATOM     82  C   UNL     1      -2.617   0.087   4.694  1.00  0.00     0.045 A 
ATOM     83  C   UNL     1      -1.855  -1.002   7.150  1.00  0.00     0.021 A 
ATOM     84  C   UNL     1      -2.995   0.714   5.886  1.00  0.00     0.041 A 
ATOM     85  Cl  UNL     1      -3.149   0.809   3.218  1.00  0.00    -0.084 Cl
ATOM     86  C   UNL     1      -2.586   0.183   7.106  1.00  0.00     0.042 A 
ATOM     87  Cl  UNL     1      -2.932   1.025   8.564  1.00  0.00    -0.084 Cl
ENDBRANCH  79  80
ENDBRANCH  78  79
ENDBRANCH  76  78
ENDBRANCH  73  76
BRANCH  74  88
ATOM     88  O   UNL     1       1.065   3.464   6.237  1.00  0.00    -0.391 OA
ATOM     89  H   UNL     1       1.497   3.789   5.431  1.00  0.00     0.211 HD
ENDBRANCH  74  88
ENDBRANCH  69  71
ENDBRANCH  68  69
ENDBRANCH  67  68
ENDBRANCH  66  67
ENDBRANCH  65  66
ENDBRANCH   1  65
TORSDOF 22
