REMARK SMILES C[C@]1(C(=O)NCc2ccc(C(=O)OCCOCCOCCOC(=O)c3ccc(-c4c5nc(c(-c6c(F)cccc6F)c6ccc([nH]6)c(-c6c(F)cccc6F)c6nc(c(-c7c(F)cccc7F)c7ccc4[nH]7)C=C6)C=C5)cc3)o2)CCC[NH2+]C1
REMARK SMILES IDX 17 1 16 2 15 3 14 4 13 5 11 6 12 7 10 8 7 9 8 10 79 11 9 12
REMARK SMILES IDX 6 13 5 14 3 15 4 16 2 18 1 19 80 20 84 21 81 22 83 23 82 24
REMARK SMILES IDX 18 27 19 28 20 29 21 30 22 31 23 32 24 33 25 34 26 35 78 36
REMARK SMILES IDX 27 37 77 38 28 39 29 40 30 41 71 42 31 43 76 44 70 45 72 46
REMARK SMILES IDX 32 47 75 48 69 49 68 50 33 52 59 53 42 54 58 55 43 56 46 57
REMARK SMILES IDX 57 58 73 59 44 60 45 61 56 63 74 64 47 65 34 66 35 67 40 68
REMARK SMILES IDX 36 69 37 70 39 71 41 72 38 73 60 74 61 75 66 76 62 77 63 78
REMARK SMILES IDX 65 79 67 80 64 81 48 82 49 83 54 84 50 85 51 86 53 87 55 88
REMARK SMILES IDX 52 89
REMARK H PARENT 5 17 83 25 83 26 72 51 46 62
REMARK Flexibility Score: inf
ROOT
ATOM      1  C   UNL     1       8.856  -2.969   0.492  1.00  0.00     0.188 C 
ENDROOT
BRANCH   1   2
ATOM      2  O   UNL     1       9.676  -3.872   1.228  1.00  0.00    -0.376 OA
BRANCH   2   3
ATOM      3  C   UNL     1       9.307  -5.242   1.321  1.00  0.00     0.202 C 
BRANCH   3   4
ATOM      4  C   UNL     1       8.093  -5.550   2.198  1.00  0.00     0.261 C 
BRANCH   4   5
ATOM      5  O   UNL     1       6.879  -5.048   1.618  1.00  0.00    -0.457 OA
BRANCH   5   6
ATOM      6  C   UNL     1       6.225  -4.086   2.332  1.00  0.00     0.374 C 
ATOM      7  O   UNL     1       6.513  -3.739   3.470  1.00  0.00    -0.242 OA
BRANCH   6   8
ATOM      8  C   UNL     1       5.237  -3.455   1.488  1.00  0.00     0.211 A 
ATOM      9  C   UNL     1       4.117  -1.711   0.724  1.00  0.00     0.124 A 
ATOM     10  C   UNL     1       3.780  -2.780  -0.084  1.00  0.00     0.048 A 
ATOM     11  O   UNL     1       4.977  -2.126   1.696  1.00  0.00    -0.452 OA
ATOM     12  C   UNL     1       4.507  -3.896   0.398  1.00  0.00     0.058 A 
BRANCH   9  13
ATOM     13  C   UNL     1       3.776  -0.261   0.729  1.00  0.00     0.191 C 
BRANCH  13  14
ATOM     14  N   UNL     1       2.613  -0.041  -0.099  1.00  0.00    -0.348 N 
ATOM     15  C   UNL     1       1.280  -0.181   0.108  1.00  0.00     0.232 C 
ATOM     16  O   UNL     1       0.639  -0.286  -0.944  1.00  0.00    -0.274 OA
ATOM     17  H   UNL     1       2.834   0.277  -1.004  1.00  0.00     0.163 HD
BRANCH  15  18
ATOM     18  C   UNL     1       0.574  -0.074   1.488  1.00  0.00     0.095 C 
ATOM     19  C   UNL     1       1.384  -0.641   2.668  1.00  0.00     0.028 C 
ATOM     20  C   UNL     1       0.272   1.415   1.776  1.00  0.00     0.028 C 
ATOM     21  C   UNL     1      -0.753  -0.892   1.444  1.00  0.00     0.277 C 
ATOM     22  C   UNL     1      -0.902   1.953   0.956  1.00  0.00     0.063 C 
ATOM     23  N   UNL     1      -1.855  -0.295   0.690  1.00  0.00    -0.345 N 
ATOM     24  C   UNL     1      -2.137   1.071   1.105  1.00  0.00     0.260 C 
ATOM     25  H   UNL     1      -1.611  -0.293  -0.300  1.00  0.00     0.346 HD
ATOM     26  H   UNL     1      -2.691  -0.852   0.868  1.00  0.00     0.346 HD
ENDBRANCH  15  18
ENDBRANCH  13  14
ENDBRANCH   9  13
ENDBRANCH   6   8
ENDBRANCH   5   6
ENDBRANCH   4   5
ENDBRANCH   3   4
ENDBRANCH   2   3
ENDBRANCH   1   2
BRANCH   1  27
ATOM     27  C   UNL     1       8.200  -3.438  -0.819  1.00  0.00     0.188 C 
BRANCH  27  28
ATOM     28  O   UNL     1       8.940  -4.444  -1.499  1.00  0.00    -0.376 OA
BRANCH  28  29
ATOM     29  C   UNL     1       9.445  -4.083  -2.778  1.00  0.00     0.202 C 
BRANCH  29  30
ATOM     30  C   UNL     1      10.808  -3.396  -2.671  1.00  0.00     0.261 C 
BRANCH  30  31
ATOM     31  O   UNL     1      10.768  -2.121  -2.011  1.00  0.00    -0.460 OA
BRANCH  31  32
ATOM     32  C   UNL     1      10.070  -1.145  -2.630  1.00  0.00     0.338 C 
ATOM     33  O   UNL     1       9.469  -1.218  -3.687  1.00  0.00    -0.246 OA
BRANCH  32  34
ATOM     34  C   UNL     1      10.025   0.022  -1.731  1.00  0.00     0.060 A 
ATOM     35  C   UNL     1       8.784   0.598  -1.437  1.00  0.00     0.016 A 
ATOM     36  C   UNL     1      11.203   0.552  -1.198  1.00  0.00     0.016 A 
ATOM     37  C   UNL     1       8.723   1.729  -0.622  1.00  0.00     0.010 A 
ATOM     38  C   UNL     1      11.142   1.690  -0.395  1.00  0.00     0.010 A 
ATOM     39  C   UNL     1       9.905   2.297  -0.123  1.00  0.00    -0.014 A 
BRANCH  39  40
ATOM     40  C   UNL     1       9.872   3.608   0.564  1.00  0.00     0.031 A 
ATOM     41  C   UNL     1      10.097   4.854  -0.244  1.00  0.00     0.074 A 
ATOM     42  C   UNL     1       9.666   3.689   1.890  1.00  0.00     0.049 A 
ATOM     43  N   UNL     1      10.157   6.099   0.151  1.00  0.00    -0.248 NA
ATOM     44  C   UNL     1      10.282   4.669  -1.693  1.00  0.00     0.031 C 
ATOM     45  C   UNL     1       9.423   2.557   2.781  1.00  0.00     0.029 A 
ATOM     46  N   UNL     1       9.646   4.784   2.717  1.00  0.00    -0.354 N 
ATOM     47  C   UNL     1      10.382   6.846  -0.997  1.00  0.00     0.074 A 
ATOM     48  C   UNL     1      10.473   5.914  -2.100  1.00  0.00     0.031 C 
ATOM     49  C   UNL     1       9.293   3.016   4.039  1.00  0.00     0.029 A 
ATOM     50  C   UNL     1       9.467   4.468   4.041  1.00  0.00     0.049 A 
ATOM     51  H   UNL     1       9.751   5.707   2.393  1.00  0.00     0.167 HD
ATOM     52  C   UNL     1      10.495   8.189  -1.123  1.00  0.00     0.037 A 
ATOM     53  C   UNL     1       9.463   5.261   5.129  1.00  0.00     0.037 A 
ATOM     54  C   UNL     1      10.422   9.118  -0.029  1.00  0.00     0.049 A 
ATOM     55  C   UNL     1       9.657   6.745   4.971  1.00  0.00     0.074 A 
ATOM     56  C   UNL     1      10.510  10.499  -0.062  1.00  0.00     0.029 A 
ATOM     57  N   UNL     1      10.255   8.758   1.299  1.00  0.00    -0.354 N 
ATOM     58  N   UNL     1       9.828   7.446   3.877  1.00  0.00    -0.248 NA
ATOM     59  C   UNL     1       9.658   7.549   6.203  1.00  0.00     0.031 C 
ATOM     60  C   UNL     1      10.431  10.973   1.252  1.00  0.00     0.029 A 
ATOM     61  C   UNL     1      10.258   9.889   2.098  1.00  0.00     0.049 A 
ATOM     62  H   UNL     1      10.149   7.836   1.626  1.00  0.00     0.167 HD
ATOM     63  C   UNL     1       9.930   8.771   4.284  1.00  0.00     0.074 A 
ATOM     64  C   UNL     1       9.797   8.778   5.725  1.00  0.00     0.031 C 
ATOM     65  C   UNL     1      10.113   9.882   3.530  1.00  0.00     0.037 A 
BRANCH  52  66
ATOM     66  C   UNL     1      10.727   8.727  -2.501  1.00  0.00     0.057 A 
ATOM     67  C   UNL     1       9.697   8.786  -3.447  1.00  0.00     0.134 A 
ATOM     68  C   UNL     1      11.987   9.206  -2.878  1.00  0.00     0.134 A 
ATOM     69  F   UNL     1       8.473   8.325  -3.149  1.00  0.00    -0.206 F 
ATOM     70  C   UNL     1       9.916   9.289  -4.730  1.00  0.00     0.040 A 
ATOM     71  C   UNL     1      12.214   9.729  -4.152  1.00  0.00     0.040 A 
ATOM     72  F   UNL     1      13.014   9.175  -2.016  1.00  0.00    -0.206 F 
ATOM     73  C   UNL     1      11.177   9.767  -5.083  1.00  0.00     0.006 A 
ENDBRANCH  52  66
BRANCH  53  74
ATOM     74  C   UNL     1       9.275   4.670   6.476  1.00  0.00     0.057 A 
ATOM     75  C   UNL     1       8.086   4.859   7.189  1.00  0.00     0.134 A 
ATOM     76  C   UNL     1      10.290   3.929   7.092  1.00  0.00     0.134 A 
ATOM     77  F   UNL     1       7.090   5.583   6.658  1.00  0.00    -0.206 F 
ATOM     78  C   UNL     1       7.916   4.342   8.474  1.00  0.00     0.040 A 
ATOM     79  C   UNL     1      10.126   3.389   8.369  1.00  0.00     0.040 A 
ATOM     80  F   UNL     1      11.454   3.719   6.461  1.00  0.00    -0.206 F 
ATOM     81  C   UNL     1       8.937   3.601   9.065  1.00  0.00     0.006 A 
ENDBRANCH  53  74
BRANCH  65  82
ATOM     82  C   UNL     1      10.146  11.200   4.242  1.00  0.00     0.057 A 
ATOM     83  C   UNL     1      11.267  11.617   4.970  1.00  0.00     0.134 A 
ATOM     84  C   UNL     1       9.063  12.084   4.154  1.00  0.00     0.134 A 
ATOM     85  F   UNL     1      12.331  10.811   5.100  1.00  0.00    -0.206 F 
ATOM     86  C   UNL     1      11.303  12.863   5.599  1.00  0.00     0.040 A 
ATOM     87  C   UNL     1       9.095  13.339   4.762  1.00  0.00     0.040 A 
ATOM     88  F   UNL     1       7.963  11.746   3.465  1.00  0.00    -0.206 F 
ATOM     89  C   UNL     1      10.217  13.730   5.490  1.00  0.00     0.006 A 
ENDBRANCH  65  82
ENDBRANCH  39  40
ENDBRANCH  32  34
ENDBRANCH  31  32
ENDBRANCH  30  31
ENDBRANCH  29  30
ENDBRANCH  28  29
ENDBRANCH  27  28
ENDBRANCH   1  27
TORSDOF 20
