REMARK SMILES CC[C@H]1CCC[C@H]([N@H+]2[C@@H](C(=O)OCCOCCOCCOC(=O)c3ccc(-c4c5nc(c(-c6c(F)cccc6F)c6ccc([nH]6)c(-c6c(F)cccc6F)c6nc(c(-c7c(F)cccc7F)c7ccc4[nH]7)C=C6)C=C5)cc3)CC[C@@H]3CCCC[C@H]32)C1
REMARK SMILES IDX 16 1 15 2 14 3 13 4 12 5 10 6 11 7 9 8 8 9 85 10 78 12 80 13
REMARK SMILES IDX 84 14 79 15 81 16 83 17 82 18 7 19 3 20 4 21 86 22 5 23 6 24
REMARK SMILES IDX 2 25 1 26 17 27 18 28 19 29 20 30 21 31 22 32 23 33 24 34
REMARK SMILES IDX 25 35 77 36 26 37 76 38 27 39 28 40 29 41 70 42 30 43 75 44
REMARK SMILES IDX 69 45 71 46 31 47 74 48 68 49 67 50 32 52 58 53 41 54 57 55
REMARK SMILES IDX 42 56 45 57 56 58 72 59 43 60 44 61 55 63 73 64 46 65 33 66
REMARK SMILES IDX 34 67 39 68 35 69 36 70 38 71 40 72 37 73 59 74 60 75 65 76
REMARK SMILES IDX 61 77 62 78 64 79 66 80 63 81 47 82 48 83 53 84 49 85 50 86
REMARK SMILES IDX 52 87 54 88 51 89
REMARK H PARENT 8 11 71 51 45 62
REMARK Flexibility Score: inf
ROOT
ATOM      1  C   UNL     1       2.422   1.917   0.702  1.00  0.00     0.188 C 
ENDROOT
BRANCH   1   2
ATOM      2  O   UNL     1       3.068   2.852   1.563  1.00  0.00    -0.376 OA
BRANCH   2   3
ATOM      3  C   UNL     1       2.832   4.239   1.383  1.00  0.00     0.202 C 
BRANCH   3   4
ATOM      4  C   UNL     1       3.757   4.947   0.378  1.00  0.00     0.261 C 
BRANCH   4   5
ATOM      5  O   UNL     1       3.887   4.324  -0.913  1.00  0.00    -0.459 OA
BRANCH   5   6
ATOM      6  C   UNL     1       4.713   3.249  -0.932  1.00  0.00     0.365 C 
ATOM      7  O   UNL     1       5.297   2.813   0.062  1.00  0.00    -0.245 OA
BRANCH   6   8
ATOM      8  C   UNL     1       5.047   2.695  -2.307  1.00  0.00     0.295 C 
ATOM      9  N   UNL     1       4.679   3.432  -3.571  1.00  0.00    -0.318 N 
ATOM     10  C   UNL     1       6.022   3.716  -4.125  1.00  0.00     0.188 C 
ATOM     11  H   UNL     1       4.083   4.225  -3.330  1.00  0.00     0.349 HD
ATOM     12  C   UNL     1       5.420   1.242  -2.486  1.00  0.00     0.078 C 
ATOM     13  C   UNL     1       6.910   2.446  -4.345  1.00  0.00     0.048 C 
ATOM     14  C   UNL     1       6.296   4.739  -5.227  1.00  0.00     0.065 C 
ATOM     15  C   UNL     1       6.572   1.151  -3.517  1.00  0.00     0.016 C 
ATOM     16  C   UNL     1       8.358   2.890  -4.060  1.00  0.00     0.010 C 
ATOM     17  C   UNL     1       7.742   5.242  -4.998  1.00  0.00     0.006 C 
ATOM     18  C   UNL     1       8.784   4.116  -4.879  1.00  0.00     0.001 C 
BRANCH   9  19
ATOM     19  C   UNL     1       3.656   2.933  -4.558  1.00  0.00     0.185 C 
ATOM     20  C   UNL     1       1.167   1.962  -4.064  1.00  0.00    -0.006 C 
ATOM     21  C   UNL     1       1.798   0.648  -4.504  1.00  0.00     0.004 C 
ATOM     22  C   UNL     1       2.143   3.173  -4.195  1.00  0.00     0.068 C 
ATOM     23  C   UNL     1       2.639   0.852  -5.747  1.00  0.00     0.006 C 
ATOM     24  C   UNL     1       3.894   1.623  -5.354  1.00  0.00     0.065 C 
BRANCH  20  25
ATOM     25  C   UNL     1      -0.193   2.200  -4.780  1.00  0.00     0.000 C 
ATOM     26  C   UNL     1      -1.294   1.216  -4.369  1.00  0.00     0.004 C 
ENDBRANCH  20  25
ENDBRANCH   9  19
ENDBRANCH   6   8
ENDBRANCH   5   6
ENDBRANCH   4   5
ENDBRANCH   3   4
ENDBRANCH   2   3
ENDBRANCH   1   2
BRANCH   1  27
ATOM     27  C   UNL     1       1.614   2.416  -0.498  1.00  0.00     0.188 C 
BRANCH  27  28
ATOM     28  O   UNL     1       0.492   3.199  -0.117  1.00  0.00    -0.376 OA
BRANCH  28  29
ATOM     29  C   UNL     1      -0.764   2.632  -0.477  1.00  0.00     0.202 C 
BRANCH  29  30
ATOM     30  C   UNL     1      -1.087   1.388   0.352  1.00  0.00     0.261 C 
BRANCH  30  31
ATOM     31  O   UNL     1      -0.216   0.293  -0.017  1.00  0.00    -0.460 OA
BRANCH  31  32
ATOM     32  C   UNL     1      -0.766  -0.756  -0.664  1.00  0.00     0.338 C 
ATOM     33  O   UNL     1      -1.945  -0.920  -0.911  1.00  0.00    -0.246 OA
BRANCH  32  34
ATOM     34  C   UNL     1       0.293  -1.729  -1.040  1.00  0.00     0.060 A 
ATOM     35  C   UNL     1       1.534  -1.324  -1.539  1.00  0.00     0.016 A 
ATOM     36  C   UNL     1       0.000  -3.090  -0.979  1.00  0.00     0.016 A 
ATOM     37  C   UNL     1       2.449  -2.256  -2.035  1.00  0.00     0.010 A 
ATOM     38  C   UNL     1       0.949  -4.029  -1.403  1.00  0.00     0.010 A 
ATOM     39  C   UNL     1       2.177  -3.624  -1.961  1.00  0.00    -0.014 A 
BRANCH  39  40
ATOM     40  C   UNL     1       3.116  -4.649  -2.499  1.00  0.00     0.031 A 
ATOM     41  C   UNL     1       2.612  -5.645  -3.508  1.00  0.00     0.074 A 
ATOM     42  C   UNL     1       4.393  -4.739  -2.079  1.00  0.00     0.049 A 
ATOM     43  N   UNL     1       3.074  -6.830  -3.811  1.00  0.00    -0.248 NA
ATOM     44  C   UNL     1       1.409  -5.255  -4.262  1.00  0.00     0.031 C 
ATOM     45  C   UNL     1       5.074  -3.797  -1.190  1.00  0.00     0.029 A 
ATOM     46  N   UNL     1       5.343  -5.702  -2.330  1.00  0.00    -0.354 N 
ATOM     47  C   UNL     1       2.172  -7.364  -4.723  1.00  0.00     0.074 A 
ATOM     48  C   UNL     1       1.153  -6.361  -4.948  1.00  0.00     0.031 C 
ATOM     49  C   UNL     1       6.326  -4.227  -0.968  1.00  0.00     0.029 A 
ATOM     50  C   UNL     1       6.497  -5.529  -1.602  1.00  0.00     0.049 A 
ATOM     51  H   UNL     1       5.210  -6.441  -2.966  1.00  0.00     0.167 HD
ATOM     52  C   UNL     1       2.187  -8.591  -5.296  1.00  0.00     0.037 A 
ATOM     53  C   UNL     1       7.538  -6.358  -1.391  1.00  0.00     0.037 A 
ATOM     54  C   UNL     1       3.242  -9.553  -5.113  1.00  0.00     0.049 A 
ATOM     55  C   UNL     1       7.517  -7.736  -1.991  1.00  0.00     0.074 A 
ATOM     56  C   UNL     1       3.356 -10.825  -5.647  1.00  0.00     0.029 A 
ATOM     57  N   UNL     1       4.380  -9.336  -4.352  1.00  0.00    -0.354 N 
ATOM     58  N   UNL     1       6.605  -8.292  -2.751  1.00  0.00    -0.248 NA
ATOM     59  C   UNL     1       8.654  -8.613  -1.675  1.00  0.00     0.031 C 
ATOM     60  C   UNL     1       4.552 -11.387  -5.186  1.00  0.00     0.029 A 
ATOM     61  C   UNL     1       5.199 -10.451  -4.398  1.00  0.00     0.049 A 
ATOM     62  H   UNL     1       4.577  -8.510  -3.852  1.00  0.00     0.167 HD
ATOM     63  C   UNL     1       7.060  -9.579  -3.010  1.00  0.00     0.074 A 
ATOM     64  C   UNL     1       8.338  -9.714  -2.342  1.00  0.00     0.031 C 
ATOM     65  C   UNL     1       6.470 -10.563  -3.730  1.00  0.00     0.037 A 
BRANCH  52  66
ATOM     66  C   UNL     1       1.004  -8.987  -6.128  1.00  0.00     0.057 A 
ATOM     67  C   UNL     1       0.784  -8.478  -7.413  1.00  0.00     0.134 A 
ATOM     68  C   UNL     1       0.091  -9.934  -5.643  1.00  0.00     0.134 A 
ATOM     69  F   UNL     1       1.610  -7.555  -7.929  1.00  0.00    -0.206 F 
ATOM     70  C   UNL     1      -0.310  -8.886  -8.180  1.00  0.00     0.040 A 
ATOM     71  C   UNL     1      -0.992 -10.367  -6.409  1.00  0.00     0.040 A 
ATOM     72  F   UNL     1       0.245 -10.463  -4.419  1.00  0.00    -0.206 F 
ATOM     73  C   UNL     1      -1.196  -9.840  -7.681  1.00  0.00     0.006 A 
ENDBRANCH  52  66
BRANCH  53  74
ATOM     74  C   UNL     1       8.645  -5.941  -0.493  1.00  0.00     0.057 A 
ATOM     75  C   UNL     1       9.924  -5.678  -0.992  1.00  0.00     0.134 A 
ATOM     76  C   UNL     1       8.447  -5.791   0.886  1.00  0.00     0.134 A 
ATOM     77  F   UNL     1      10.184  -5.834  -2.298  1.00  0.00    -0.206 F 
ATOM     78  C   UNL     1      10.968  -5.282  -0.153  1.00  0.00     0.040 A 
ATOM     79  C   UNL     1       9.473  -5.368   1.732  1.00  0.00     0.040 A 
ATOM     80  F   UNL     1       7.244  -6.032   1.428  1.00  0.00    -0.206 F 
ATOM     81  C   UNL     1      10.740  -5.116   1.212  1.00  0.00     0.006 A 
ENDBRANCH  53  74
BRANCH  65  82
ATOM     82  C   UNL     1       7.220 -11.854  -3.861  1.00  0.00     0.057 A 
ATOM     83  C   UNL     1       7.299 -12.771  -2.807  1.00  0.00     0.134 A 
ATOM     84  C   UNL     1       7.851 -12.191  -5.065  1.00  0.00     0.134 A 
ATOM     85  F   UNL     1       6.727 -12.498  -1.624  1.00  0.00    -0.206 F 
ATOM     86  C   UNL     1       7.998 -13.972  -2.939  1.00  0.00     0.040 A 
ATOM     87  C   UNL     1       8.534 -13.397  -5.216  1.00  0.00     0.040 A 
ATOM     88  F   UNL     1       7.805 -11.356  -6.114  1.00  0.00    -0.206 F 
ATOM     89  C   UNL     1       8.614 -14.289  -4.149  1.00  0.00     0.006 A 
ENDBRANCH  65  82
ENDBRANCH  39  40
ENDBRANCH  32  34
ENDBRANCH  31  32
ENDBRANCH  30  31
ENDBRANCH  29  30
ENDBRANCH  28  29
ENDBRANCH  27  28
ENDBRANCH   1  27
TORSDOF 19
