REMARK SMILES O=C(OCCOCCOCCOC(=O)c1ccc(-c2c3nc(c(-c4c(F)cccc4F)c4ccc([nH]4)c(-c4c(F)cccc4F)c4nc(c(-c5c(F)cccc5F)c5ccc2[nH]5)C=C4)C=C3)cc1)C1=Cc2cc(Cl)cc(-c3ccc(CO)cc3)c2O[C@@H]1C(F)(F)F
REMARK SMILES IDX 7 1 6 2 5 3 4 4 3 5 2 6 1 7 69 8 70 9 87 10 71 11 86 12
REMARK SMILES IDX 72 13 85 14 73 15 76 16 74 17 75 18 88 19 89 20 90 21 91 22
REMARK SMILES IDX 77 23 78 24 84 25 79 26 83 27 80 28 81 29 82 30 8 32 9 33
REMARK SMILES IDX 10 34 11 35 12 36 13 37 14 38 15 39 16 40 68 41 17 42 67 43
REMARK SMILES IDX 18 44 19 45 20 46 61 47 21 48 66 49 60 50 62 51 22 52 65 53
REMARK SMILES IDX 59 54 58 55 23 57 49 58 32 59 48 60 33 61 36 62 47 63 63 64
REMARK SMILES IDX 34 65 35 66 46 68 64 69 37 70 24 71 25 72 30 73 26 74 27 75
REMARK SMILES IDX 29 76 31 77 28 78 50 79 51 80 56 81 52 82 53 83 55 84 57 85
REMARK SMILES IDX 54 86 38 87 39 88 44 89 40 90 41 91 43 92 45 93 42 94
REMARK H PARENT 82 31 62 56 36 67
REMARK Flexibility Score: inf
ROOT
ATOM      1  C   UNL     1       2.131   1.610   1.506  1.00  0.00     0.188 C 
ENDROOT
BRANCH   1   2
ATOM      2  O   UNL     1       3.572   1.185   1.730  1.00  0.00    -0.376 OA
BRANCH   2   3
ATOM      3  C   UNL     1       4.469  -0.062   0.850  1.00  0.00     0.202 C 
BRANCH   3   4
ATOM      4  C   UNL     1       3.767  -0.888  -1.034  1.00  0.00     0.261 C 
BRANCH   4   5
ATOM      5  O   UNL     1       2.808  -2.063  -1.204  1.00  0.00    -0.460 OA
BRANCH   5   6
ATOM      6  C   UNL     1       3.008  -3.010  -0.276  1.00  0.00     0.338 C 
ATOM      7  O   UNL     1       2.326  -3.975  -0.034  1.00  0.00    -0.246 OA
BRANCH   6   8
ATOM      8  C   UNL     1       3.898  -2.234   0.574  1.00  0.00     0.087 C 
ATOM      9  C   UNL     1       5.272  -2.126   0.135  1.00  0.00     0.027 C 
ATOM     10  C   UNL     1       2.680  -0.766   0.696  1.00  0.00     0.316 C 
ATOM     11  C   UNL     1       5.965  -0.691  -0.670  1.00  0.00     0.019 A 
ATOM     12  O   UNL     1       3.355   0.785  -0.318  1.00  0.00    -0.475 OA
ATOM     13  C   UNL     1       7.205  -0.845  -1.233  1.00  0.00     0.032 A 
ATOM     14  C   UNL     1       5.062   0.754  -0.987  1.00  0.00     0.135 A 
ATOM     15  C   UNL     1       7.653   0.233  -1.998  1.00  0.00     0.042 A 
ATOM     16  C   UNL     1       5.625   1.806  -1.701  1.00  0.00     0.026 A 
ATOM     17  Cl  UNL     1       9.181   0.064  -2.795  1.00  0.00    -0.084 Cl
ATOM     18  C   UNL     1       6.929   1.467  -2.192  1.00  0.00     0.033 A 
BRANCH  10  19
ATOM     19  C   UNL     1       2.493  -1.089   2.388  1.00  0.00     0.430 C 
ATOM     20  F   UNL     1       2.351  -0.123   3.300  1.00  0.00    -0.167 F 
ATOM     21  F   UNL     1       1.395  -1.887   2.525  1.00  0.00    -0.167 F 
ATOM     22  F   UNL     1       3.519  -1.848   2.890  1.00  0.00    -0.167 F 
ENDBRANCH  10  19
BRANCH  16  23
ATOM     23  C   UNL     1       5.185   3.171  -1.984  1.00  0.00    -0.015 A 
ATOM     24  C   UNL     1       4.366   3.473  -3.073  1.00  0.00     0.009 A 
ATOM     25  C   UNL     1       5.768   4.258  -1.296  1.00  0.00     0.009 A 
ATOM     26  C   UNL     1       4.010   4.800  -3.360  1.00  0.00     0.007 A 
ATOM     27  C   UNL     1       5.389   5.584  -1.558  1.00  0.00     0.007 A 
ATOM     28  C   UNL     1       4.448   5.856  -2.552  1.00  0.00    -0.023 A 
BRANCH  28  29
ATOM     29  C   UNL     1       3.891   7.245  -2.731  1.00  0.00     0.191 C 
BRANCH  29  30
ATOM     30  O   UNL     1       4.712   8.030  -3.579  1.00  0.00    -0.392 OA
ATOM     31  H   UNL     1       5.594   8.117  -3.184  1.00  0.00     0.211 HD
ENDBRANCH  29  30
ENDBRANCH  28  29
ENDBRANCH  16  23
ENDBRANCH   6   8
ENDBRANCH   5   6
ENDBRANCH   4   5
ENDBRANCH   3   4
ENDBRANCH   2   3
ENDBRANCH   1   2
BRANCH   1  32
ATOM     32  C   UNL     1       1.640   3.062   1.443  1.00  0.00     0.188 C 
BRANCH  32  33
ATOM     33  O   UNL     1       2.358   4.012   0.717  1.00  0.00    -0.376 OA
BRANCH  33  34
ATOM     34  C   UNL     1       3.739   4.053   0.990  1.00  0.00     0.202 C 
BRANCH  34  35
ATOM     35  C   UNL     1       4.260   4.413   2.378  1.00  0.00     0.261 C 
BRANCH  35  36
ATOM     36  O   UNL     1       3.873   3.498   3.404  1.00  0.00    -0.460 OA
BRANCH  36  37
ATOM     37  C   UNL     1       2.867   3.921   4.200  1.00  0.00     0.338 C 
ATOM     38  O   UNL     1       2.292   4.995   4.178  1.00  0.00    -0.246 OA
BRANCH  37  39
ATOM     39  C   UNL     1       2.414   2.779   5.003  1.00  0.00     0.060 A 
ATOM     40  C   UNL     1       1.094   2.330   4.860  1.00  0.00     0.016 A 
ATOM     41  C   UNL     1       3.275   2.212   5.942  1.00  0.00     0.016 A 
ATOM     42  C   UNL     1       0.617   1.319   5.678  1.00  0.00     0.010 A 
ATOM     43  C   UNL     1       2.780   1.239   6.804  1.00  0.00     0.010 A 
ATOM     44  C   UNL     1       1.438   0.835   6.700  1.00  0.00    -0.014 A 
BRANCH  44  45
ATOM     45  C   UNL     1       0.774   0.181   7.841  1.00  0.00     0.031 A 
ATOM     46  C   UNL     1       0.326   1.067   8.970  1.00  0.00     0.074 A 
ATOM     47  C   UNL     1       0.507  -1.132   7.829  1.00  0.00     0.049 A 
ATOM     48  N   UNL     1      -0.317   0.759  10.064  1.00  0.00    -0.248 NA
ATOM     49  C   UNL     1       0.644   2.501   8.842  1.00  0.00     0.031 C 
ATOM     50  C   UNL     1       0.841  -2.055   6.747  1.00  0.00     0.029 A 
ATOM     51  N   UNL     1      -0.121  -1.909   8.764  1.00  0.00    -0.354 N 
ATOM     52  C   UNL     1      -0.472   1.955  10.752  1.00  0.00     0.074 A 
ATOM     53  C   UNL     1       0.171   2.988   9.976  1.00  0.00     0.031 C 
ATOM     54  C   UNL     1       0.415  -3.285   7.084  1.00  0.00     0.029 A 
ATOM     55  C   UNL     1      -0.193  -3.233   8.412  1.00  0.00     0.049 A 
ATOM     56  H   UNL     1      -0.485  -1.554   9.606  1.00  0.00     0.167 HD
ATOM     57  C   UNL     1      -1.104   2.170  11.929  1.00  0.00     0.037 A 
ATOM     58  C   UNL     1      -0.687  -4.276   9.104  1.00  0.00     0.037 A 
ATOM     59  C   UNL     1      -1.722   1.125  12.697  1.00  0.00     0.049 A 
ATOM     60  C   UNL     1      -1.301  -4.022  10.458  1.00  0.00     0.074 A 
ATOM     61  C   UNL     1      -2.395   1.223  13.900  1.00  0.00     0.029 A 
ATOM     62  N   UNL     1      -1.720  -0.217  12.343  1.00  0.00    -0.354 N 
ATOM     63  N   UNL     1      -1.472  -2.888  11.096  1.00  0.00    -0.248 NA
ATOM     64  C   UNL     1      -1.802  -5.197  11.183  1.00  0.00     0.031 C 
ATOM     65  C   UNL     1      -2.728  -0.070  14.315  1.00  0.00     0.029 A 
ATOM     66  C   UNL     1      -2.347  -0.964  13.325  1.00  0.00     0.049 A 
ATOM     67  H   UNL     1      -1.331  -0.583  11.516  1.00  0.00     0.167 HD
ATOM     68  C   UNL     1      -2.140  -3.206  12.273  1.00  0.00     0.074 A 
ATOM     69  C   UNL     1      -2.352  -4.639  12.251  1.00  0.00     0.031 C 
ATOM     70  C   UNL     1      -2.550  -2.391  13.278  1.00  0.00     0.037 A 
BRANCH  57  71
ATOM     71  C   UNL     1      -1.094   3.570  12.472  1.00  0.00     0.057 A 
ATOM     72  C   UNL     1      -1.782   4.623  11.854  1.00  0.00     0.134 A 
ATOM     73  C   UNL     1      -0.376   3.868  13.638  1.00  0.00     0.134 A 
ATOM     74  F   UNL     1      -2.473   4.414  10.722  1.00  0.00    -0.206 F 
ATOM     75  C   UNL     1      -1.729   5.925  12.355  1.00  0.00     0.040 A 
ATOM     76  C   UNL     1      -0.346   5.158  14.169  1.00  0.00     0.040 A 
ATOM     77  F   UNL     1       0.309   2.910  14.280  1.00  0.00    -0.206 F 
ATOM     78  C   UNL     1      -1.016   6.193  13.522  1.00  0.00     0.006 A 
ENDBRANCH  57  71
BRANCH  58  79
ATOM     79  C   UNL     1      -0.628  -5.647   8.538  1.00  0.00     0.057 A 
ATOM     80  C   UNL     1      -1.794  -6.349   8.211  1.00  0.00     0.134 A 
ATOM     81  C   UNL     1       0.593  -6.303   8.341  1.00  0.00     0.134 A 
ATOM     82  F   UNL     1      -2.997  -5.783   8.394  1.00  0.00    -0.206 F 
ATOM     83  C   UNL     1      -1.751  -7.662   7.739  1.00  0.00     0.040 A 
ATOM     84  C   UNL     1       0.653  -7.604   7.840  1.00  0.00     0.040 A 
ATOM     85  F   UNL     1       1.749  -5.687   8.631  1.00  0.00    -0.206 F 
ATOM     86  C   UNL     1      -0.523  -8.292   7.548  1.00  0.00     0.006 A 
ENDBRANCH  58  79
BRANCH  70  87
ATOM     87  C   UNL     1      -3.325  -3.021  14.403  1.00  0.00     0.057 A 
ATOM     88  C   UNL     1      -2.744  -3.922  15.304  1.00  0.00     0.134 A 
ATOM     89  C   UNL     1      -4.675  -2.695  14.599  1.00  0.00     0.134 A 
ATOM     90  F   UNL     1      -1.458  -4.282  15.175  1.00  0.00    -0.206 F 
ATOM     91  C   UNL     1      -3.489  -4.513  16.327  1.00  0.00     0.040 A 
ATOM     92  C   UNL     1      -5.417  -3.246  15.643  1.00  0.00     0.040 A 
ATOM     93  F   UNL     1      -5.292  -1.824  13.786  1.00  0.00    -0.206 F 
ATOM     94  C   UNL     1      -4.828  -4.170  16.502  1.00  0.00     0.006 A 
ENDBRANCH  70  87
ENDBRANCH  44  45
ENDBRANCH  37  39
ENDBRANCH  36  37
ENDBRANCH  35  36
ENDBRANCH  34  35
ENDBRANCH  33  34
ENDBRANCH  32  33
ENDBRANCH   1  32
TORSDOF 21
