REMARK SMILES O=C(OCCOCCOCCOC(=O)[C@@H]1CC2(CC[NH2+]CC2)C[N@H+]1Cc1cccc2nonc12)c1ccc(-c2c3nc(c(-c4c(F)cccc4F)c4ccc([nH]4)c(-c4c(F)cccc4F)c4nc(c(-c5c(F)cccc5F)c5ccc2[nH]5)C=C4)C=C3)cc1
REMARK SMILES IDX 7 1 6 2 5 3 4 4 3 5 2 6 1 7 35 8 36 9 88 10 37 11 87 12
REMARK SMILES IDX 38 13 39 14 40 15 81 16 41 17 86 18 80 19 82 20 42 21 85 22
REMARK SMILES IDX 79 23 78 24 43 26 69 27 52 28 68 29 53 30 56 31 67 32 83 33
REMARK SMILES IDX 54 34 55 35 66 37 84 38 57 39 44 40 45 41 50 42 46 43 47 44
REMARK SMILES IDX 49 45 51 46 48 47 70 48 71 49 76 50 72 51 73 52 75 53 77 54
REMARK SMILES IDX 74 55 58 56 59 57 64 58 60 59 61 60 63 61 65 62 62 63 8 64
REMARK SMILES IDX 9 65 10 66 11 67 12 68 13 69 14 70 15 71 16 72 24 73 17 74
REMARK SMILES IDX 23 75 18 77 22 78 19 79 21 80 20 81 25 84 26 85 27 86 34 87
REMARK SMILES IDX 28 88 30 89 33 90 29 91 31 92 32 93
REMARK H PARENT 82 25 56 36 24 76 20 82 20 83
REMARK Flexibility Score: inf
ROOT
ATOM      1  C   UNL     1       2.377  -0.083  -0.824  1.00  0.00     0.188 C 
ENDROOT
BRANCH   1   2
ATOM      2  O   UNL     1       3.510   0.318  -0.042  1.00  0.00    -0.376 OA
BRANCH   2   3
ATOM      3  C   UNL     1       4.398  -0.741   0.308  1.00  0.00     0.202 C 
BRANCH   3   4
ATOM      4  C   UNL     1       3.832  -1.567   1.462  1.00  0.00     0.261 C 
BRANCH   4   5
ATOM      5  O   UNL     1       3.646  -0.685   2.585  1.00  0.00    -0.460 OA
BRANCH   5   6
ATOM      6  C   UNL     1       2.411  -0.116   2.648  1.00  0.00     0.338 C 
ATOM      7  O   UNL     1       1.353  -0.694   2.497  1.00  0.00    -0.246 OA
BRANCH   6   8
ATOM      8  C   UNL     1       2.540   1.360   2.808  1.00  0.00     0.060 A 
ATOM      9  C   UNL     1       1.418   2.136   3.117  1.00  0.00     0.016 A 
ATOM     10  C   UNL     1       3.746   1.998   2.526  1.00  0.00     0.016 A 
ATOM     11  C   UNL     1       1.520   3.538   3.173  1.00  0.00     0.010 A 
ATOM     12  C   UNL     1       3.825   3.385   2.525  1.00  0.00     0.010 A 
ATOM     13  C   UNL     1       2.730   4.187   2.873  1.00  0.00    -0.014 A 
BRANCH  13  14
ATOM     14  C   UNL     1       2.958   5.644   3.082  1.00  0.00     0.031 A 
ATOM     15  C   UNL     1       4.411   6.090   3.209  1.00  0.00     0.074 A 
ATOM     16  C   UNL     1       2.046   6.628   2.931  1.00  0.00     0.049 A 
ATOM     17  N   UNL     1       5.133   6.615   2.252  1.00  0.00    -0.248 NA
ATOM     18  C   UNL     1       5.202   5.699   4.381  1.00  0.00     0.031 C 
ATOM     19  C   UNL     1       0.814   6.640   2.134  1.00  0.00     0.029 A 
ATOM     20  N   UNL     1       2.126   7.912   3.393  1.00  0.00    -0.354 N 
ATOM     21  C   UNL     1       6.463   6.572   2.657  1.00  0.00     0.074 A 
ATOM     22  C   UNL     1       6.450   5.979   3.979  1.00  0.00     0.031 C 
ATOM     23  C   UNL     1       0.412   7.923   1.962  1.00  0.00     0.029 A 
ATOM     24  C   UNL     1       1.252   8.781   2.774  1.00  0.00     0.049 A 
ATOM     25  H   UNL     1       2.750   8.191   4.101  1.00  0.00     0.167 HD
ATOM     26  C   UNL     1       7.527   7.010   1.928  1.00  0.00     0.037 A 
ATOM     27  C   UNL     1       1.289  10.140   2.787  1.00  0.00     0.037 A 
ATOM     28  C   UNL     1       7.291   7.679   0.680  1.00  0.00     0.049 A 
ATOM     29  C   UNL     1       2.664  10.438   2.203  1.00  0.00     0.074 A 
ATOM     30  C   UNL     1       7.648   7.543  -0.645  1.00  0.00     0.029 A 
ATOM     31  N   UNL     1       6.933   9.003   0.734  1.00  0.00    -0.354 N 
ATOM     32  N   UNL     1       2.970  10.618   0.936  1.00  0.00    -0.248 NA
ATOM     33  C   UNL     1       3.812  10.165   3.060  1.00  0.00     0.031 C 
ATOM     34  C   UNL     1       7.045   8.650  -1.333  1.00  0.00     0.029 A 
ATOM     35  C   UNL     1       6.251   9.329  -0.407  1.00  0.00     0.049 A 
ATOM     36  H   UNL     1       7.134   9.619   1.475  1.00  0.00     0.167 HD
ATOM     37  C   UNL     1       4.329  10.274   0.801  1.00  0.00     0.074 A 
ATOM     38  C   UNL     1       4.721   9.889   2.143  1.00  0.00     0.031 C 
ATOM     39  C   UNL     1       5.058  10.184  -0.373  1.00  0.00     0.037 A 
BRANCH  26  40
ATOM     40  C   UNL     1       8.938   7.051   2.393  1.00  0.00     0.057 A 
ATOM     41  C   UNL     1       9.829   5.996   2.199  1.00  0.00     0.134 A 
ATOM     42  C   UNL     1       9.474   8.317   2.680  1.00  0.00     0.134 A 
ATOM     43  F   UNL     1       9.381   4.769   1.895  1.00  0.00    -0.206 F 
ATOM     44  C   UNL     1      11.212   6.212   2.229  1.00  0.00     0.040 A 
ATOM     45  C   UNL     1      10.845   8.552   2.678  1.00  0.00     0.040 A 
ATOM     46  F   UNL     1       8.657   9.369   2.862  1.00  0.00    -0.206 F 
ATOM     47  C   UNL     1      11.720   7.497   2.437  1.00  0.00     0.006 A 
ENDBRANCH  26  40
BRANCH  27  48
ATOM     48  C   UNL     1       0.829  10.637   4.140  1.00  0.00     0.057 A 
ATOM     49  C   UNL     1       1.606  11.276   5.117  1.00  0.00     0.134 A 
ATOM     50  C   UNL     1      -0.485  10.308   4.536  1.00  0.00     0.134 A 
ATOM     51  F   UNL     1       2.829  11.749   4.849  1.00  0.00    -0.206 F 
ATOM     52  C   UNL     1       1.165  11.430   6.440  1.00  0.00     0.040 A 
ATOM     53  C   UNL     1      -0.944  10.470   5.847  1.00  0.00     0.040 A 
ATOM     54  F   UNL     1      -1.343   9.774   3.652  1.00  0.00    -0.206 F 
ATOM     55  C   UNL     1      -0.104  11.002   6.815  1.00  0.00     0.006 A 
ENDBRANCH  27  48
BRANCH  39  56
ATOM     56  C   UNL     1       4.455  10.765  -1.651  1.00  0.00     0.057 A 
ATOM     57  C   UNL     1       4.531  10.125  -2.907  1.00  0.00     0.134 A 
ATOM     58  C   UNL     1       3.737  11.971  -1.660  1.00  0.00     0.134 A 
ATOM     59  F   UNL     1       5.137   8.944  -3.060  1.00  0.00    -0.206 F 
ATOM     60  C   UNL     1       3.888  10.594  -4.059  1.00  0.00     0.040 A 
ATOM     61  C   UNL     1       3.044  12.428  -2.794  1.00  0.00     0.040 A 
ATOM     62  F   UNL     1       3.696  12.756  -0.573  1.00  0.00    -0.206 F 
ATOM     63  C   UNL     1       3.105  11.731  -3.995  1.00  0.00     0.006 A 
ENDBRANCH  39  56
ENDBRANCH  13  14
ENDBRANCH   6   8
ENDBRANCH   5   6
ENDBRANCH   4   5
ENDBRANCH   3   4
ENDBRANCH   2   3
ENDBRANCH   1   2
BRANCH   1  64
ATOM     64  C   UNL     1       2.265   0.925  -1.957  1.00  0.00     0.188 C 
BRANCH  64  65
ATOM     65  O   UNL     1       2.102   0.378  -3.261  1.00  0.00    -0.376 OA
BRANCH  65  66
ATOM     66  C   UNL     1       2.970   0.919  -4.271  1.00  0.00     0.202 C 
BRANCH  66  67
ATOM     67  C   UNL     1       2.992   2.437  -4.538  1.00  0.00     0.261 C 
BRANCH  67  68
ATOM     68  O   UNL     1       3.309   3.199  -3.376  1.00  0.00    -0.459 OA
BRANCH  68  69
ATOM     69  C   UNL     1       2.244   3.706  -2.699  1.00  0.00     0.365 C 
ATOM     70  O   UNL     1       1.083   3.642  -3.094  1.00  0.00    -0.245 OA
BRANCH  69  71
ATOM     71  C   UNL     1       2.645   4.288  -1.338  1.00  0.00     0.296 C 
ATOM     72  C   UNL     1       1.838   5.565  -1.172  1.00  0.00     0.091 C 
ATOM     73  N   UNL     1       4.035   4.760  -1.317  1.00  0.00    -0.319 N 
ATOM     74  C   UNL     1       2.775   6.652  -1.695  1.00  0.00     0.036 C 
ATOM     75  C   UNL     1       4.080   6.190  -1.042  1.00  0.00     0.270 C 
ATOM     76  H   UNL     1       4.382   4.638  -2.268  1.00  0.00     0.349 HD
ATOM     77  C   UNL     1       2.294   8.019  -1.243  1.00  0.00     0.074 C 
ATOM     78  C   UNL     1       2.912   6.685  -3.238  1.00  0.00     0.074 C 
ATOM     79  C   UNL     1       1.029   8.464  -1.976  1.00  0.00     0.261 C 
ATOM     80  C   UNL     1       1.617   7.114  -3.916  1.00  0.00     0.261 C 
ATOM     81  N   UNL     1       1.158   8.418  -3.438  1.00  0.00    -0.346 N 
ATOM     82  H   UNL     1       1.828   9.130  -3.730  1.00  0.00     0.346 HD
ATOM     83  H   UNL     1       0.235   8.589  -3.837  1.00  0.00     0.346 HD
BRANCH  73  84
ATOM     84  C   UNL     1       5.081   3.903  -0.790  1.00  0.00     0.302 C 
BRANCH  84  85
ATOM     85  C   UNL     1       6.003   3.490  -1.910  1.00  0.00     0.038 A 
ATOM     86  C   UNL     1       6.678   4.460  -2.695  1.00  0.00     0.012 A 
ATOM     87  C   UNL     1       6.198   2.175  -2.388  1.00  0.00     0.144 A 
ATOM     88  C   UNL     1       7.409   4.176  -3.874  1.00  0.00     0.003 A 
ATOM     89  C   UNL     1       6.935   1.883  -3.613  1.00  0.00     0.135 A 
ATOM     90  N   UNL     1       5.775   1.007  -1.891  1.00  0.00    -0.049 NA
ATOM     91  C   UNL     1       7.545   2.880  -4.390  1.00  0.00     0.034 A 
ATOM     92  N   UNL     1       6.892   0.563  -3.834  1.00  0.00    -0.050 NA
ATOM     93  O   UNL     1       6.186   0.030  -2.773  1.00  0.00    -0.243 OA
ENDBRANCH  84  85
ENDBRANCH  73  84
ENDBRANCH  69  71
ENDBRANCH  68  69
ENDBRANCH  67  68
ENDBRANCH  66  67
ENDBRANCH  65  66
ENDBRANCH  64  65
ENDBRANCH   1  64
TORSDOF 19
