REMARK SMILES CCN(C=O)[C@](C)(C(=O)OCCOCCOCCOC(=O)c1ccc(-c2c3nc(c(-c4c(F)cccc4F)c4ccc([nH]4)c(-c4c(F)cccc4F)c4nc(c(-c5c(F)cccc5F)c5ccc2[nH]5)C=C4)C=C3)cc1)c1cc(F)c(C)cc1F
REMARK SMILES IDX 14 1 13 2 12 3 11 4 10 5 8 6 9 7 6 8 7 9 3 10 2 11 1 12 4 13
REMARK SMILES IDX 5 14 76 15 77 16 83 17 78 18 82 19 84 20 79 21 80 22 81 23
REMARK SMILES IDX 15 24 16 25 17 26 18 27 19 28 20 29 21 30 22 31 23 32 75 33
REMARK SMILES IDX 24 34 74 35 25 36 26 37 27 38 68 39 28 40 73 41 67 42 69 43
REMARK SMILES IDX 29 44 72 45 66 46 65 47 30 49 56 50 39 51 55 52 40 53 43 54
REMARK SMILES IDX 54 55 70 56 41 57 42 58 53 60 71 61 44 62 31 63 32 64 37 65
REMARK SMILES IDX 33 66 34 67 36 68 38 69 35 70 57 71 58 72 63 73 59 74 60 75
REMARK SMILES IDX 62 76 64 77 61 78 45 79 46 80 51 81 47 82 48 83 50 84 52 85
REMARK SMILES IDX 49 86
REMARK H PARENT 69 48 43 59
REMARK Flexibility Score: inf
ROOT
ATOM      1  C   UNL     1       2.492   3.191  -0.340  1.00  0.00     0.188 C 
ENDROOT
BRANCH   1   2
ATOM      2  O   UNL     1       2.962   2.848  -1.619  1.00  0.00    -0.376 OA
BRANCH   2   3
ATOM      3  C   UNL     1       3.853   1.753  -1.728  1.00  0.00     0.202 C 
BRANCH   3   4
ATOM      4  C   UNL     1       3.811   0.479  -0.847  1.00  0.00     0.261 C 
BRANCH   4   5
ATOM      5  O   UNL     1       3.046   0.455   0.371  1.00  0.00    -0.461 OA
BRANCH   5   6
ATOM      6  C   UNL     1       3.704   0.722   1.533  1.00  0.00     0.336 C 
ATOM      7  O   UNL     1       4.874   1.095   1.535  1.00  0.00    -0.249 OA
BRANCH   6   8
ATOM      8  C   UNL     1       2.874   0.393   2.844  1.00  0.00     0.166 C 
ATOM      9  C   UNL     1       1.345   0.206   2.603  1.00  0.00     0.053 C 
BRANCH   8  10
ATOM     10  N   UNL     1       3.507  -0.872   3.393  1.00  0.00    -0.326 N 
BRANCH  10  11
ATOM     11  C   UNL     1       4.851  -0.838   3.981  1.00  0.00     0.117 C 
ATOM     12  C   UNL     1       5.966  -1.081   2.967  1.00  0.00     0.027 C 
ENDBRANCH  10  11
BRANCH  10  13
ATOM     13  C   UNL     1       3.002  -2.133   3.093  1.00  0.00     0.341 C 
ATOM     14  O   UNL     1       2.015  -2.404   2.427  1.00  0.00    -0.279 OA
ENDBRANCH  10  13
ENDBRANCH   8  10
BRANCH   8  15
ATOM     15  C   UNL     1       2.919   1.526   3.915  1.00  0.00     0.027 A 
ATOM     16  C   UNL     1       2.345   1.299   5.187  1.00  0.00     0.049 A 
ATOM     17  C   UNL     1       3.389   2.824   3.673  1.00  0.00     0.129 A 
ATOM     18  C   UNL     1       2.231   2.326   6.129  1.00  0.00     0.126 A 
ATOM     19  C   UNL     1       3.305   3.839   4.630  1.00  0.00     0.046 A 
ATOM     20  F   UNL     1       3.901   3.176   2.493  1.00  0.00    -0.207 F 
ATOM     21  F   UNL     1       1.641   2.063   7.303  1.00  0.00    -0.207 F 
ATOM     22  C   UNL     1       2.693   3.611   5.861  1.00  0.00    -0.012 A 
ATOM     23  C   UNL     1       2.553   4.707   6.872  1.00  0.00     0.047 C 
ENDBRANCH   8  15
ENDBRANCH   6   8
ENDBRANCH   5   6
ENDBRANCH   4   5
ENDBRANCH   3   4
ENDBRANCH   2   3
ENDBRANCH   1   2
BRANCH   1  24
ATOM     24  C   UNL     1       1.166   2.504   0.001  1.00  0.00     0.188 C 
BRANCH  24  25
ATOM     25  O   UNL     1       0.497   1.703  -0.953  1.00  0.00    -0.376 OA
BRANCH  25  26
ATOM     26  C   UNL     1       0.305   2.219  -2.260  1.00  0.00     0.202 C 
BRANCH  26  27
ATOM     27  C   UNL     1      -0.195   3.662  -2.479  1.00  0.00     0.261 C 
BRANCH  27  28
ATOM     28  O   UNL     1       0.192   4.650  -1.507  1.00  0.00    -0.460 OA
BRANCH  28  29
ATOM     29  C   UNL     1      -0.743   4.965  -0.579  1.00  0.00     0.338 C 
ATOM     30  O   UNL     1      -1.888   4.530  -0.508  1.00  0.00    -0.246 OA
BRANCH  29  31
ATOM     31  C   UNL     1      -0.136   5.783   0.497  1.00  0.00     0.060 A 
ATOM     32  C   UNL     1      -0.156   5.290   1.812  1.00  0.00     0.016 A 
ATOM     33  C   UNL     1       0.390   7.048   0.234  1.00  0.00     0.016 A 
ATOM     34  C   UNL     1       0.314   6.072   2.868  1.00  0.00     0.010 A 
ATOM     35  C   UNL     1       0.826   7.848   1.299  1.00  0.00     0.010 A 
ATOM     36  C   UNL     1       0.752   7.379   2.624  1.00  0.00    -0.014 A 
BRANCH  36  37
ATOM     37  C   UNL     1       0.907   8.313   3.769  1.00  0.00     0.031 A 
ATOM     38  C   UNL     1      -0.268   9.170   4.155  1.00  0.00     0.074 A 
ATOM     39  C   UNL     1       2.043   8.377   4.485  1.00  0.00     0.049 A 
ATOM     40  N   UNL     1      -0.374  10.053   5.114  1.00  0.00    -0.248 NA
ATOM     41  C   UNL     1      -1.479   9.025   3.331  1.00  0.00     0.031 C 
ATOM     42  C   UNL     1       3.251   7.608   4.210  1.00  0.00     0.029 A 
ATOM     43  N   UNL     1       2.357   9.111   5.603  1.00  0.00    -0.354 N 
ATOM     44  C   UNL     1      -1.648  10.595   4.986  1.00  0.00     0.074 A 
ATOM     45  C   UNL     1      -2.273   9.945   3.855  1.00  0.00     0.031 C 
ATOM     46  C   UNL     1       4.160   7.868   5.167  1.00  0.00     0.029 A 
ATOM     47  C   UNL     1       3.616   8.860   6.094  1.00  0.00     0.049 A 
ATOM     48  H   UNL     1       1.738   9.757   6.013  1.00  0.00     0.167 HD
ATOM     49  C   UNL     1      -2.239  11.556   5.735  1.00  0.00     0.037 A 
ATOM     50  C   UNL     1       4.253   9.379   7.164  1.00  0.00     0.037 A 
ATOM     51  C   UNL     1      -1.617  12.206   6.859  1.00  0.00     0.049 A 
ATOM     52  C   UNL     1       3.572  10.449   7.982  1.00  0.00     0.074 A 
ATOM     53  C   UNL     1      -2.136  13.192   7.679  1.00  0.00     0.029 A 
ATOM     54  N   UNL     1      -0.335  11.940   7.316  1.00  0.00    -0.354 N 
ATOM     55  N   UNL     1       2.363  10.944   7.862  1.00  0.00    -0.248 NA
ATOM     56  C   UNL     1       4.356  11.052   9.072  1.00  0.00     0.031 C 
ATOM     57  C   UNL     1      -1.149  13.561   8.598  1.00  0.00     0.029 A 
ATOM     58  C   UNL     1      -0.037  12.760   8.392  1.00  0.00     0.049 A 
ATOM     59  H   UNL     1       0.274  11.267   6.932  1.00  0.00     0.167 HD
ATOM     60  C   UNL     1       2.243  11.909   8.856  1.00  0.00     0.074 A 
ATOM     61  C   UNL     1       3.485  11.900   9.599  1.00  0.00     0.031 C 
ATOM     62  C   UNL     1       1.205  12.741   9.122  1.00  0.00     0.037 A 
BRANCH  49  63
ATOM     63  C   UNL     1      -3.614  11.998   5.326  1.00  0.00     0.057 A 
ATOM     64  C   UNL     1      -4.739  11.178   5.480  1.00  0.00     0.134 A 
ATOM     65  C   UNL     1      -3.815  13.274   4.782  1.00  0.00     0.134 A 
ATOM     66  F   UNL     1      -4.614   9.938   5.978  1.00  0.00    -0.206 F 
ATOM     67  C   UNL     1      -6.009  11.600   5.082  1.00  0.00     0.040 A 
ATOM     68  C   UNL     1      -5.084  13.718   4.410  1.00  0.00     0.040 A 
ATOM     69  F   UNL     1      -2.782  14.112   4.609  1.00  0.00    -0.206 F 
ATOM     70  C   UNL     1      -6.185  12.876   4.552  1.00  0.00     0.006 A 
ENDBRANCH  49  63
BRANCH  50  71
ATOM     71  C   UNL     1       5.619   8.915   7.533  1.00  0.00     0.057 A 
ATOM     72  C   UNL     1       5.855   8.261   8.750  1.00  0.00     0.134 A 
ATOM     73  C   UNL     1       6.726   9.149   6.709  1.00  0.00     0.134 A 
ATOM     74  F   UNL     1       4.843   8.030   9.599  1.00  0.00    -0.206 F 
ATOM     75  C   UNL     1       7.140   7.878   9.142  1.00  0.00     0.040 A 
ATOM     76  C   UNL     1       8.011   8.739   7.072  1.00  0.00     0.040 A 
ATOM     77  F   UNL     1       6.575   9.774   5.532  1.00  0.00    -0.206 F 
ATOM     78  C   UNL     1       8.222   8.111   8.297  1.00  0.00     0.006 A 
ENDBRANCH  50  71
BRANCH  62  79
ATOM     79  C   UNL     1       1.361  13.700  10.270  1.00  0.00     0.057 A 
ATOM     80  C   UNL     1       2.239  14.791  10.211  1.00  0.00     0.134 A 
ATOM     81  C   UNL     1       0.595  13.554  11.434  1.00  0.00     0.134 A 
ATOM     82  F   UNL     1       3.010  14.986   9.130  1.00  0.00    -0.206 F 
ATOM     83  C   UNL     1       2.370  15.683  11.278  1.00  0.00     0.040 A 
ATOM     84  C   UNL     1       0.694  14.457  12.494  1.00  0.00     0.040 A 
ATOM     85  F   UNL     1      -0.276  12.540  11.554  1.00  0.00    -0.206 F 
ATOM     86  C   UNL     1       1.590  15.521  12.421  1.00  0.00     0.006 A 
ENDBRANCH  62  79
ENDBRANCH  36  37
ENDBRANCH  29  31
ENDBRANCH  28  29
ENDBRANCH  27  28
ENDBRANCH  26  27
ENDBRANCH  25  26
ENDBRANCH  24  25
ENDBRANCH   1  24
TORSDOF 21
