REMARK SMILES CCCCN(c1ccccc1C(=O)OCCOCCOCCOC(=O)c1ccc(-c2c3nc(c(-c4c(F)cccc4F)c4ccc([nH]4)c(-c4c(F)cccc4F)c4nc(c(-c5c(F)cccc5F)c5ccc2[nH]5)C=C4)C=C3)cc1)S(=O)(=O)c1ccc2c(c1)oc(=O)n2C
REMARK SMILES IDX 18 1 17 2 16 3 15 4 14 5 12 6 13 7 11 8 6 9 7 10 8 11 10 12
REMARK SMILES IDX 9 13 5 14 4 15 3 16 2 17 1 18 80 19 81 20 82 21 83 22 84 23
REMARK SMILES IDX 88 24 85 25 87 26 86 27 89 28 92 29 90 30 93 31 91 32 19 33
REMARK SMILES IDX 20 34 21 35 22 36 23 37 24 38 25 39 26 40 27 41 79 42 28 43
REMARK SMILES IDX 78 44 29 45 30 46 31 47 72 48 32 49 77 50 71 51 73 52 33 53
REMARK SMILES IDX 76 54 70 55 69 56 34 58 60 59 43 60 59 61 44 62 47 63 58 64
REMARK SMILES IDX 74 65 45 66 46 67 57 69 75 70 48 71 35 72 36 73 41 74 37 75
REMARK SMILES IDX 38 76 40 77 42 78 39 79 61 80 62 81 67 82 63 83 64 84 66 85
REMARK SMILES IDX 68 86 65 87 49 88 50 89 55 90 51 91 52 92 54 93 56 94 53 95
REMARK H PARENT 73 57 47 68
REMARK Flexibility Score: inf
ROOT
ATOM      1  C   UNL     1       0.136   2.088   6.232  1.00  0.00     0.188 C 
ENDROOT
BRANCH   1   2
ATOM      2  O   UNL     1       1.522   2.378   6.380  1.00  0.00    -0.376 OA
BRANCH   2   3
ATOM      3  C   UNL     1       2.440   1.881   5.410  1.00  0.00     0.202 C 
BRANCH   3   4
ATOM      4  C   UNL     1       2.391   0.384   5.082  1.00  0.00     0.261 C 
BRANCH   4   5
ATOM      5  O   UNL     1       1.084  -0.061   4.672  1.00  0.00    -0.460 OA
BRANCH   5   6
ATOM      6  C   UNL     1       0.582  -1.129   5.326  1.00  0.00     0.340 C 
ATOM      7  O   UNL     1       1.174  -1.800   6.159  1.00  0.00    -0.246 OA
BRANCH   6   8
ATOM      8  C   UNL     1      -0.868  -1.338   5.071  1.00  0.00     0.084 A 
ATOM      9  C   UNL     1      -1.482  -1.737   3.863  1.00  0.00     0.066 A 
ATOM     10  C   UNL     1      -2.733  -2.360   4.013  1.00  0.00     0.028 A 
ATOM     11  C   UNL     1      -3.470  -2.355   5.201  1.00  0.00     0.002 A 
ATOM     12  C   UNL     1      -1.609  -1.348   6.284  1.00  0.00     0.018 A 
ATOM     13  C   UNL     1      -2.923  -1.795   6.337  1.00  0.00     0.001 A 
BRANCH   9  14
ATOM     14  N   UNL     1      -1.047  -1.524   2.450  1.00  0.00    -0.265 N 
BRANCH  14  15
ATOM     15  C   UNL     1       0.434  -1.369   2.221  1.00  0.00     0.136 C 
BRANCH  15  16
ATOM     16  C   UNL     1       1.007  -2.152   1.039  1.00  0.00     0.022 C 
BRANCH  16  17
ATOM     17  C   UNL     1       0.960  -1.541  -0.361  1.00  0.00    -0.002 C 
ATOM     18  C   UNL     1       1.404  -0.087  -0.458  1.00  0.00     0.004 C 
ENDBRANCH  16  17
ENDBRANCH  15  16
ENDBRANCH  14  15
BRANCH  14  19
ATOM     19  S   UNL     1      -1.959  -0.243   1.603  1.00  0.00     0.264 S 
ATOM     20  O   UNL     1      -1.867   0.966   2.392  1.00  0.00    -0.201 OA
ATOM     21  O   UNL     1      -1.593  -0.233   0.205  1.00  0.00    -0.201 OA
BRANCH  19  22
ATOM     22  C   UNL     1      -3.679  -0.705   1.585  1.00  0.00     0.091 A 
ATOM     23  C   UNL     1      -4.649   0.226   2.028  1.00  0.00     0.025 A 
ATOM     24  C   UNL     1      -4.037  -1.994   1.185  1.00  0.00     0.071 A 
ATOM     25  C   UNL     1      -5.983  -0.165   2.190  1.00  0.00     0.032 A 
ATOM     26  C   UNL     1      -5.336  -2.372   1.448  1.00  0.00     0.157 A 
ATOM     27  C   UNL     1      -6.277  -1.488   1.943  1.00  0.00     0.090 A 
ATOM     28  O   UNL     1      -5.811  -3.673   1.367  1.00  0.00    -0.408 OA
ATOM     29  N   UNL     1      -7.411  -2.234   2.159  1.00  0.00    -0.277 N 
ATOM     30  C   UNL     1      -7.112  -3.550   1.871  1.00  0.00     0.419 A 
ATOM     31  C   UNL     1      -8.670  -1.773   2.664  1.00  0.00     0.157 C 
ATOM     32  O   UNL     1      -7.854  -4.511   2.041  1.00  0.00    -0.223 OA
ENDBRANCH  19  22
ENDBRANCH  14  19
ENDBRANCH   9  14
ENDBRANCH   6   8
ENDBRANCH   5   6
ENDBRANCH   4   5
ENDBRANCH   3   4
ENDBRANCH   2   3
ENDBRANCH   1   2
BRANCH   1  33
ATOM     33  C   UNL     1      -0.527   2.196   4.845  1.00  0.00     0.188 C 
BRANCH  33  34
ATOM     34  O   UNL     1       0.339   2.675   3.834  1.00  0.00    -0.376 OA
BRANCH  34  35
ATOM     35  C   UNL     1      -0.064   3.887   3.217  1.00  0.00     0.202 C 
BRANCH  35  36
ATOM     36  C   UNL     1       0.025   5.126   4.122  1.00  0.00     0.261 C 
BRANCH  36  37
ATOM     37  O   UNL     1      -0.613   5.012   5.410  1.00  0.00    -0.460 OA
BRANCH  37  38
ATOM     38  C   UNL     1      -1.965   5.036   5.446  1.00  0.00     0.338 C 
ATOM     39  O   UNL     1      -2.724   5.173   4.504  1.00  0.00    -0.246 OA
BRANCH  38  40
ATOM     40  C   UNL     1      -2.390   4.659   6.817  1.00  0.00     0.060 A 
ATOM     41  C   UNL     1      -3.200   3.527   6.999  1.00  0.00     0.016 A 
ATOM     42  C   UNL     1      -1.972   5.404   7.922  1.00  0.00     0.016 A 
ATOM     43  C   UNL     1      -3.614   3.156   8.284  1.00  0.00     0.010 A 
ATOM     44  C   UNL     1      -2.405   5.044   9.203  1.00  0.00     0.010 A 
ATOM     45  C   UNL     1      -3.252   3.936   9.391  1.00  0.00    -0.014 A 
BRANCH  45  46
ATOM     46  C   UNL     1      -3.900   3.719  10.712  1.00  0.00     0.031 A 
ATOM     47  C   UNL     1      -5.058   4.604  11.094  1.00  0.00     0.074 A 
ATOM     48  C   UNL     1      -3.479   2.768  11.565  1.00  0.00     0.049 A 
ATOM     49  N   UNL     1      -5.731   4.661  12.214  1.00  0.00    -0.248 NA
ATOM     50  C   UNL     1      -5.512   5.557  10.068  1.00  0.00     0.031 C 
ATOM     51  C   UNL     1      -2.398   1.818  11.311  1.00  0.00     0.029 A 
ATOM     52  N   UNL     1      -3.910   2.457  12.833  1.00  0.00    -0.354 N 
ATOM     53  C   UNL     1      -6.683   5.657  12.031  1.00  0.00     0.074 A 
ATOM     54  C   UNL     1      -6.479   6.199  10.706  1.00  0.00     0.031 C 
ATOM     55  C   UNL     1      -2.240   1.039  12.397  1.00  0.00     0.029 A 
ATOM     56  C   UNL     1      -3.183   1.457  13.434  1.00  0.00     0.049 A 
ATOM     57  H   UNL     1      -4.668   2.908  13.270  1.00  0.00     0.167 HD
ATOM     58  C   UNL     1      -7.648   6.077  12.884  1.00  0.00     0.037 A 
ATOM     59  C   UNL     1      -3.254   0.958  14.685  1.00  0.00     0.037 A 
ATOM     60  C   UNL     1      -7.846   5.550  14.209  1.00  0.00     0.049 A 
ATOM     61  C   UNL     1      -4.275   1.507  15.651  1.00  0.00     0.074 A 
ATOM     62  C   UNL     1      -8.802   5.908  15.144  1.00  0.00     0.029 A 
ATOM     63  N   UNL     1      -7.069   4.561  14.790  1.00  0.00    -0.354 N 
ATOM     64  N   UNL     1      -5.188   2.429  15.459  1.00  0.00    -0.248 NA
ATOM     65  C   UNL     1      -4.276   0.942  17.010  1.00  0.00     0.031 C 
ATOM     66  C   UNL     1      -8.568   5.174  16.311  1.00  0.00     0.029 A 
ATOM     67  C   UNL     1      -7.507   4.313  16.081  1.00  0.00     0.049 A 
ATOM     68  H   UNL     1      -6.317   4.102  14.351  1.00  0.00     0.167 HD
ATOM     69  C   UNL     1      -5.891   2.527  16.656  1.00  0.00     0.074 A 
ATOM     70  C   UNL     1      -5.307   1.563  17.564  1.00  0.00     0.031 C 
ATOM     71  C   UNL     1      -6.929   3.340  16.973  1.00  0.00     0.037 A 
BRANCH  58  72
ATOM     72  C   UNL     1      -8.548   7.183  12.415  1.00  0.00     0.057 A 
ATOM     73  C   UNL     1      -9.505   6.984  11.412  1.00  0.00     0.134 A 
ATOM     74  C   UNL     1      -8.477   8.457  12.994  1.00  0.00     0.134 A 
ATOM     75  F   UNL     1      -9.616   5.792  10.805  1.00  0.00    -0.206 F 
ATOM     76  C   UNL     1     -10.341   8.017  10.983  1.00  0.00     0.040 A 
ATOM     77  C   UNL     1      -9.326   9.489  12.595  1.00  0.00     0.040 A 
ATOM     78  F   UNL     1      -7.586   8.715  13.964  1.00  0.00    -0.206 F 
ATOM     79  C   UNL     1     -10.257   9.273  11.582  1.00  0.00     0.006 A 
ENDBRANCH  58  72
BRANCH  59  80
ATOM     80  C   UNL     1      -2.322  -0.117  15.120  1.00  0.00     0.057 A 
ATOM     81  C   UNL     1      -2.789  -1.402  15.425  1.00  0.00     0.134 A 
ATOM     82  C   UNL     1      -0.954   0.126  15.289  1.00  0.00     0.134 A 
ATOM     83  F   UNL     1      -4.094  -1.690  15.312  1.00  0.00    -0.206 F 
ATOM     84  C   UNL     1      -1.934  -2.398  15.902  1.00  0.00     0.040 A 
ATOM     85  C   UNL     1      -0.083  -0.869  15.738  1.00  0.00     0.040 A 
ATOM     86  F   UNL     1      -0.442   1.336  15.021  1.00  0.00    -0.206 F 
ATOM     87  C   UNL     1      -0.575  -2.134  16.055  1.00  0.00     0.006 A 
ENDBRANCH  59  80
BRANCH  71  88
ATOM     88  C   UNL     1      -7.540   3.190  18.338  1.00  0.00     0.057 A 
ATOM     89  C   UNL     1      -6.877   3.600  19.502  1.00  0.00     0.134 A 
ATOM     90  C   UNL     1      -8.833   2.668  18.484  1.00  0.00     0.134 A 
ATOM     91  F   UNL     1      -5.634   4.099  19.436  1.00  0.00    -0.206 F 
ATOM     92  C   UNL     1      -7.466   3.472  20.762  1.00  0.00     0.040 A 
ATOM     93  C   UNL     1      -9.444   2.564  19.734  1.00  0.00     0.040 A 
ATOM     94  F   UNL     1      -9.531   2.267  17.410  1.00  0.00    -0.206 F 
ATOM     95  C   UNL     1      -8.757   2.960  20.879  1.00  0.00     0.006 A 
ENDBRANCH  71  88
ENDBRANCH  45  46
ENDBRANCH  38  40
ENDBRANCH  37  38
ENDBRANCH  36  37
ENDBRANCH  35  36
ENDBRANCH  34  35
ENDBRANCH  33  34
ENDBRANCH   1  33
TORSDOF 23
