REMARK SMILES O=C(OCCOCCOCCOC(=O)c1cc(-c2cccc(Cl)c2)ccc1Cl)c1ccc(-c2c3nc(c(-c4c(F)cccc4F)c4ccc([nH]4)c(-c4c(F)cccc4F)c4nc(c(-c5c(F)cccc5F)c5ccc2[nH]5)C=C4)C=C3)cc1
REMARK SMILES IDX 7 1 6 2 5 3 4 4 3 5 2 6 1 7 29 8 30 9 82 10 31 11 81 12
REMARK SMILES IDX 32 13 33 14 34 15 75 16 35 17 80 18 74 19 76 20 36 21 79 22
REMARK SMILES IDX 73 23 72 24 37 26 63 27 46 28 62 29 47 30 50 31 61 32 77 33
REMARK SMILES IDX 48 34 49 35 60 37 78 38 51 39 38 40 39 41 44 42 40 43 41 44
REMARK SMILES IDX 43 45 45 46 42 47 64 48 65 49 70 50 66 51 67 52 69 53 71 54
REMARK SMILES IDX 68 55 52 56 53 57 58 58 54 59 55 60 57 61 59 62 56 63 8 64
REMARK SMILES IDX 9 65 10 66 11 67 12 68 13 69 14 70 15 71 16 72 27 73 17 74
REMARK SMILES IDX 26 75 28 76 25 77 18 78 19 79 24 80 20 81 22 82 21 83 23 84
REMARK H PARENT 76 25 50 36
REMARK Flexibility Score: inf
ROOT
ATOM      1  C   UNL     1       2.584  -2.118  -0.376  1.00  0.00     0.188 C 
ENDROOT
BRANCH   1   2
ATOM      2  O   UNL     1       3.831  -1.455  -0.632  1.00  0.00    -0.376 OA
BRANCH   2   3
ATOM      3  C   UNL     1       4.758  -1.522   0.455  1.00  0.00     0.202 C 
BRANCH   3   4
ATOM      4  C   UNL     1       4.650  -0.347   1.432  1.00  0.00     0.261 C 
BRANCH   4   5
ATOM      5  O   UNL     1       3.283   0.024   1.656  1.00  0.00    -0.460 OA
BRANCH   5   6
ATOM      6  C   UNL     1       2.595   1.005   1.023  1.00  0.00     0.338 C 
ATOM      7  O   UNL     1       1.405   1.166   1.282  1.00  0.00    -0.246 OA
BRANCH   6   8
ATOM      8  C   UNL     1       3.235   1.962   0.074  1.00  0.00     0.060 A 
ATOM      9  C   UNL     1       4.203   1.635  -0.880  1.00  0.00     0.016 A 
ATOM     10  C   UNL     1       2.754   3.277   0.102  1.00  0.00     0.016 A 
ATOM     11  C   UNL     1       4.764   2.610  -1.705  1.00  0.00     0.010 A 
ATOM     12  C   UNL     1       3.248   4.238  -0.783  1.00  0.00     0.010 A 
ATOM     13  C   UNL     1       4.292   3.921  -1.663  1.00  0.00    -0.014 A 
BRANCH  13  14
ATOM     14  C   UNL     1       4.973   5.000  -2.414  1.00  0.00     0.031 A 
ATOM     15  C   UNL     1       5.644   6.088  -1.631  1.00  0.00     0.074 A 
ATOM     16  C   UNL     1       5.018   5.011  -3.758  1.00  0.00     0.049 A 
ATOM     17  N   UNL     1       6.110   7.239  -2.033  1.00  0.00    -0.248 NA
ATOM     18  C   UNL     1       5.796   5.843  -0.186  1.00  0.00     0.031 C 
ATOM     19  C   UNL     1       4.505   3.957  -4.629  1.00  0.00     0.029 A 
ATOM     20  N   UNL     1       5.519   5.948  -4.627  1.00  0.00    -0.354 N 
ATOM     21  C   UNL     1       6.559   7.877  -0.884  1.00  0.00     0.074 A 
ATOM     22  C   UNL     1       6.290   6.997   0.230  1.00  0.00     0.031 C 
ATOM     23  C   UNL     1       4.713   4.309  -5.908  1.00  0.00     0.029 A 
ATOM     24  C   UNL     1       5.296   5.641  -5.946  1.00  0.00     0.049 A 
ATOM     25  H   UNL     1       5.991   6.760  -4.332  1.00  0.00     0.167 HD
ATOM     26  C   UNL     1       7.150   9.088  -0.773  1.00  0.00     0.037 A 
ATOM     27  C   UNL     1       5.495   6.370  -7.060  1.00  0.00     0.037 A 
ATOM     28  C   UNL     1       7.449   9.932  -1.896  1.00  0.00     0.049 A 
ATOM     29  C   UNL     1       6.100   7.737  -6.921  1.00  0.00     0.074 A 
ATOM     30  C   UNL     1       8.030  11.185  -1.911  1.00  0.00     0.029 A 
ATOM     31  N   UNL     1       7.196   9.586  -3.217  1.00  0.00    -0.354 N 
ATOM     32  N   UNL     1       6.465   8.364  -5.828  1.00  0.00    -0.248 NA
ATOM     33  C   UNL     1       6.326   8.496  -8.157  1.00  0.00     0.031 C 
ATOM     34  C   UNL     1       8.112  11.607  -3.244  1.00  0.00     0.029 A 
ATOM     35  C   UNL     1       7.611  10.602  -4.058  1.00  0.00     0.049 A 
ATOM     36  H   UNL     1       6.783   8.743  -3.512  1.00  0.00     0.167 HD
ATOM     37  C   UNL     1       6.995   9.576  -6.243  1.00  0.00     0.074 A 
ATOM     38  C   UNL     1       6.898   9.598  -7.690  1.00  0.00     0.031 C 
ATOM     39  C   UNL     1       7.522  10.577  -5.497  1.00  0.00     0.037 A 
BRANCH  26  40
ATOM     40  C   UNL     1       7.452   9.557   0.618  1.00  0.00     0.057 A 
ATOM     41  C   UNL     1       8.464   8.976   1.396  1.00  0.00     0.134 A 
ATOM     42  C   UNL     1       6.660  10.542   1.220  1.00  0.00     0.134 A 
ATOM     43  F   UNL     1       9.237   8.003   0.889  1.00  0.00    -0.206 F 
ATOM     44  C   UNL     1       8.644   9.324   2.736  1.00  0.00     0.040 A 
ATOM     45  C   UNL     1       6.847  10.917   2.551  1.00  0.00     0.040 A 
ATOM     46  F   UNL     1       5.671  11.134   0.533  1.00  0.00    -0.206 F 
ATOM     47  C   UNL     1       7.832  10.297   3.317  1.00  0.00     0.006 A 
ENDBRANCH  26  40
BRANCH  27  48
ATOM     48  C   UNL     1       5.091   5.825  -8.383  1.00  0.00     0.057 A 
ATOM     49  C   UNL     1       6.041   5.418  -9.325  1.00  0.00     0.134 A 
ATOM     50  C   UNL     1       3.740   5.666  -8.722  1.00  0.00     0.134 A 
ATOM     51  F   UNL     1       7.349   5.556  -9.066  1.00  0.00    -0.206 F 
ATOM     52  C   UNL     1       5.665   4.878 -10.557  1.00  0.00     0.040 A 
ATOM     53  C   UNL     1       3.350   5.111  -9.943  1.00  0.00     0.040 A 
ATOM     54  F   UNL     1       2.777   6.020  -7.858  1.00  0.00    -0.206 F 
ATOM     55  C   UNL     1       4.315   4.718 -10.866  1.00  0.00     0.006 A 
ENDBRANCH  27  48
BRANCH  39  56
ATOM     56  C   UNL     1       8.087  11.749  -6.234  1.00  0.00     0.057 A 
ATOM     57  C   UNL     1       7.268  12.750  -6.767  1.00  0.00     0.134 A 
ATOM     58  C   UNL     1       9.474  11.908  -6.346  1.00  0.00     0.134 A 
ATOM     59  F   UNL     1       5.933  12.643  -6.700  1.00  0.00    -0.206 F 
ATOM     60  C   UNL     1       7.812  13.872  -7.393  1.00  0.00     0.040 A 
ATOM     61  C   UNL     1      10.029  13.033  -6.954  1.00  0.00     0.040 A 
ATOM     62  F   UNL     1      10.308  10.981  -5.850  1.00  0.00    -0.206 F 
ATOM     63  C   UNL     1       9.196  14.019  -7.479  1.00  0.00     0.006 A 
ENDBRANCH  39  56
ENDBRANCH  13  14
ENDBRANCH   6   8
ENDBRANCH   5   6
ENDBRANCH   4   5
ENDBRANCH   3   4
ENDBRANCH   2   3
ENDBRANCH   1   2
BRANCH   1  64
ATOM     64  C   UNL     1       1.984  -2.645  -1.682  1.00  0.00     0.188 C 
BRANCH  64  65
ATOM     65  O   UNL     1       2.646  -3.786  -2.230  1.00  0.00    -0.376 OA
BRANCH  65  66
ATOM     66  C   UNL     1       4.011  -3.627  -2.602  1.00  0.00     0.202 C 
BRANCH  66  67
ATOM     67  C   UNL     1       4.287  -2.889  -3.916  1.00  0.00     0.261 C 
BRANCH  67  68
ATOM     68  O   UNL     1       3.765  -1.550  -4.005  1.00  0.00    -0.460 OA
BRANCH  68  69
ATOM     69  C   UNL     1       2.675  -1.435  -4.802  1.00  0.00     0.339 C 
ATOM     70  O   UNL     1       1.997  -2.340  -5.274  1.00  0.00    -0.246 OA
BRANCH  69  71
ATOM     71  C   UNL     1       2.410  -0.033  -5.135  1.00  0.00     0.079 A 
ATOM     72  C   UNL     1       1.489   0.709  -4.371  1.00  0.00     0.026 A 
ATOM     73  C   UNL     1       2.913   0.475  -6.336  1.00  0.00     0.055 A 
ATOM     74  C   UNL     1       1.045   1.966  -4.821  1.00  0.00    -0.017 A 
ATOM     75  C   UNL     1       2.477   1.716  -6.790  1.00  0.00     0.022 A 
ATOM     76  Cl  UNL     1       4.062  -0.378  -7.302  1.00  0.00    -0.083 Cl
ATOM     77  C   UNL     1       1.557   2.451  -6.039  1.00  0.00     0.010 A 
BRANCH  74  78
ATOM     78  C   UNL     1       0.034   2.763  -4.101  1.00  0.00    -0.017 A 
ATOM     79  C   UNL     1      -1.139   3.175  -4.762  1.00  0.00     0.009 A 
ATOM     80  C   UNL     1       0.227   3.195  -2.780  1.00  0.00     0.029 A 
ATOM     81  C   UNL     1      -2.071   4.012  -4.144  1.00  0.00     0.002 A 
ATOM     82  C   UNL     1      -0.705   4.040  -2.167  1.00  0.00     0.041 A 
ATOM     83  C   UNL     1      -1.848   4.454  -2.845  1.00  0.00     0.020 A 
ATOM     84  Cl  UNL     1      -0.449   4.611  -0.564  1.00  0.00    -0.084 Cl
ENDBRANCH  74  78
ENDBRANCH  69  71
ENDBRANCH  68  69
ENDBRANCH  67  68
ENDBRANCH  66  67
ENDBRANCH  65  66
ENDBRANCH  64  65
ENDBRANCH   1  64
TORSDOF 18
