REMARK SMILES CCn1c(CC2CC[NH+](Cc3cn[nH]c3C(=O)OCCOCCOCCOC(=O)c3ccc(-c4c5nc(c(-c6c(F)cccc6F)c6ccc([nH]6)c(-c6c(F)cccc6F)c6nc(c(-c7c(F)cccc7F)c7ccc4[nH]7)C=C6)C=C5)cc3)CC2)nn(C)c1=O
REMARK SMILES IDX 21 1 20 2 19 3 18 4 16 5 17 6 15 7 11 8 12 9 13 10 14 11
REMARK SMILES IDX 10 13 9 14 6 15 7 16 85 17 8 18 84 19 5 21 4 22 3 23 89 24
REMARK SMILES IDX 86 25 87 26 90 27 88 28 2 29 1 30 22 31 23 32 24 33 25 34
REMARK SMILES IDX 26 35 27 36 28 37 29 38 30 39 31 40 83 41 32 42 82 43 33 44
REMARK SMILES IDX 34 45 35 46 76 47 36 48 81 49 75 50 77 51 37 52 80 53 74 54
REMARK SMILES IDX 73 55 38 57 64 58 47 59 63 60 48 61 51 62 62 63 78 64 49 65
REMARK SMILES IDX 50 66 61 68 79 69 52 70 39 71 40 72 45 73 41 74 42 75 44 76
REMARK SMILES IDX 46 77 43 78 65 79 66 80 71 81 67 82 68 83 70 84 72 85 69 86
REMARK SMILES IDX 53 87 54 88 59 89 55 90 56 91 58 92 60 93 57 94
REMARK H PARENT 14 12 9 20 77 56 51 67
REMARK Flexibility Score: inf
ROOT
ATOM      1  O   UNL     1       5.584  -0.243   3.091  1.00  0.00    -0.376 OA
ENDROOT
BRANCH   1   2
ATOM      2  C   UNL     1       6.170   0.441   4.192  1.00  0.00     0.202 C 
BRANCH   2   3
ATOM      3  C   UNL     1       6.813   1.839   4.031  1.00  0.00     0.261 C 
BRANCH   3   4
ATOM      4  O   UNL     1       6.001   2.875   3.434  1.00  0.00    -0.459 OA
BRANCH   4   5
ATOM      5  C   UNL     1       6.276   3.107   2.120  1.00  0.00     0.356 C 
ATOM      6  O   UNL     1       7.193   2.603   1.520  1.00  0.00    -0.244 OA
BRANCH   5   7
ATOM      7  C   UNL     1       5.268   3.913   1.456  1.00  0.00     0.152 A 
ATOM      8  C   UNL     1       4.273   4.854   1.744  1.00  0.00     0.059 A 
ATOM      9  C   UNL     1       3.936   5.342   0.451  1.00  0.00     0.145 A 
ATOM     10  N   UNL     1       4.493   4.665  -0.547  1.00  0.00    -0.183 NA
ATOM     11  N   UNL     1       5.229   3.759   0.087  1.00  0.00    -0.271 N 
ATOM     12  H   UNL     1       5.707   3.037  -0.382  1.00  0.00     0.190 HD
BRANCH   8  13
ATOM     13  C   UNL     1       3.769   5.451   3.037  1.00  0.00     0.303 C 
BRANCH  13  14
ATOM     14  N   UNL     1       2.291   5.482   3.234  1.00  0.00    -0.331 N 
ATOM     15  C   UNL     1      -0.627   4.972   2.806  1.00  0.00     0.008 C 
ATOM     16  C   UNL     1       0.010   6.356   2.612  1.00  0.00     0.065 C 
ATOM     17  C   UNL     1       0.236   4.158   3.768  1.00  0.00     0.065 C 
ATOM     18  C   UNL     1       1.521   6.333   2.330  1.00  0.00     0.262 C 
ATOM     19  C   UNL     1       1.712   4.158   3.385  1.00  0.00     0.262 C 
ATOM     20  H   UNL     1       2.200   5.966   4.128  1.00  0.00     0.348 HD
BRANCH  15  21
ATOM     21  C   UNL     1      -1.073   4.206   1.535  1.00  0.00     0.081 C 
BRANCH  21  22
ATOM     22  C   UNL     1      -0.090   3.957   0.412  1.00  0.00     0.133 A 
ATOM     23  N   UNL     1       0.402   2.738   0.094  1.00  0.00    -0.279 N 
ATOM     24  C   UNL     1       1.297   2.956  -0.934  1.00  0.00     0.345 A 
ATOM     25  N   UNL     1       0.306   4.919  -0.373  1.00  0.00    -0.155 NA
ATOM     26  N   UNL     1       1.178   4.309  -1.237  1.00  0.00    -0.216 N 
ATOM     27  O   UNL     1       2.015   2.134  -1.482  1.00  0.00    -0.246 OA
ATOM     28  C   UNL     1       1.811   4.994  -2.331  1.00  0.00     0.179 C 
BRANCH  23  29
ATOM     29  C   UNL     1       0.062   1.423   0.620  1.00  0.00     0.125 C 
ATOM     30  C   UNL     1       0.072   0.303  -0.417  1.00  0.00     0.028 C 
ENDBRANCH  23  29
ENDBRANCH  21  22
ENDBRANCH  15  21
ENDBRANCH  13  14
ENDBRANCH   8  13
ENDBRANCH   5   7
ENDBRANCH   4   5
ENDBRANCH   3   4
ENDBRANCH   2   3
ENDBRANCH   1   2
BRANCH   1  31
ATOM     31  C   UNL     1       4.584   0.391   2.307  1.00  0.00     0.188 C 
BRANCH  31  32
ATOM     32  C   UNL     1       3.487   1.237   2.979  1.00  0.00     0.188 C 
BRANCH  32  33
ATOM     33  O   UNL     1       3.874   1.807   4.212  1.00  0.00    -0.376 OA
BRANCH  33  34
ATOM     34  C   UNL     1       3.167   1.601   5.422  1.00  0.00     0.202 C 
BRANCH  34  35
ATOM     35  C   UNL     1       2.920   0.193   5.937  1.00  0.00     0.261 C 
BRANCH  35  36
ATOM     36  O   UNL     1       2.768  -0.780   4.928  1.00  0.00    -0.460 OA
BRANCH  36  37
ATOM     37  C   UNL     1       1.555  -0.775   4.346  1.00  0.00     0.338 C 
ATOM     38  O   UNL     1       0.709   0.102   4.377  1.00  0.00    -0.246 OA
BRANCH  37  39
ATOM     39  C   UNL     1       1.379  -2.069   3.703  1.00  0.00     0.060 A 
ATOM     40  C   UNL     1       0.390  -2.162   2.727  1.00  0.00     0.016 A 
ATOM     41  C   UNL     1       1.970  -3.190   4.304  1.00  0.00     0.016 A 
ATOM     42  C   UNL     1      -0.176  -3.392   2.512  1.00  0.00     0.010 A 
ATOM     43  C   UNL     1       1.401  -4.415   4.092  1.00  0.00     0.010 A 
ATOM     44  C   UNL     1       0.273  -4.473   3.279  1.00  0.00    -0.014 A 
BRANCH  44  45
ATOM     45  C   UNL     1      -0.459  -5.713   3.170  1.00  0.00     0.031 A 
ATOM     46  C   UNL     1      -0.277  -6.344   1.851  1.00  0.00     0.074 A 
ATOM     47  C   UNL     1      -1.127  -6.224   4.223  1.00  0.00     0.049 A 
ATOM     48  N   UNL     1      -1.176  -6.569   0.955  1.00  0.00    -0.248 NA
ATOM     49  C   UNL     1       1.104  -6.589   1.393  1.00  0.00     0.031 C 
ATOM     50  C   UNL     1      -1.073  -5.740   5.610  1.00  0.00     0.029 A 
ATOM     51  N   UNL     1      -1.886  -7.351   4.322  1.00  0.00    -0.354 N 
ATOM     52  C   UNL     1      -0.506  -7.249  -0.056  1.00  0.00     0.074 A 
ATOM     53  C   UNL     1       0.898  -7.031   0.153  1.00  0.00     0.031 C 
ATOM     54  C   UNL     1      -1.546  -6.698   6.435  1.00  0.00     0.029 A 
ATOM     55  C   UNL     1      -2.067  -7.787   5.630  1.00  0.00     0.049 A 
ATOM     56  H   UNL     1      -2.271  -7.813   3.542  1.00  0.00     0.167 HD
ATOM     57  C   UNL     1      -1.145  -8.243  -0.725  1.00  0.00     0.037 A 
ATOM     58  C   UNL     1      -2.549  -8.991   6.019  1.00  0.00     0.037 A 
ATOM     59  C   UNL     1      -2.573  -8.131  -0.583  1.00  0.00     0.049 A 
ATOM     60  C   UNL     1      -3.291  -9.578   4.880  1.00  0.00     0.074 A 
ATOM     61  C   UNL     1      -3.583  -7.375  -1.132  1.00  0.00     0.029 A 
ATOM     62  N   UNL     1      -3.057  -8.683   0.572  1.00  0.00    -0.354 N 
ATOM     63  N   UNL     1      -4.411  -9.092   4.424  1.00  0.00    -0.248 NA
ATOM     64  C   UNL     1      -2.617 -10.530   4.001  1.00  0.00     0.031 C 
ATOM     65  C   UNL     1      -4.677  -7.433  -0.217  1.00  0.00     0.029 A 
ATOM     66  C   UNL     1      -4.319  -8.240   0.858  1.00  0.00     0.049 A 
ATOM     67  H   UNL     1      -2.557  -9.321   1.129  1.00  0.00     0.167 HD
ATOM     68  C   UNL     1      -4.359  -9.339   3.067  1.00  0.00     0.074 A 
ATOM     69  C   UNL     1      -3.346 -10.371   2.893  1.00  0.00     0.031 C 
ATOM     70  C   UNL     1      -4.874  -8.448   2.175  1.00  0.00     0.037 A 
BRANCH  57  71
ATOM     71  C   UNL     1      -0.505  -9.582  -1.016  1.00  0.00     0.057 A 
ATOM     72  C   UNL     1      -1.199 -10.500  -1.821  1.00  0.00     0.134 A 
ATOM     73  C   UNL     1       0.584 -10.123  -0.295  1.00  0.00     0.134 A 
ATOM     74  F   UNL     1      -2.270 -10.117  -2.532  1.00  0.00    -0.206 F 
ATOM     75  C   UNL     1      -0.868 -11.861  -1.863  1.00  0.00     0.040 A 
ATOM     76  C   UNL     1       0.954 -11.467  -0.370  1.00  0.00     0.040 A 
ATOM     77  F   UNL     1       1.281  -9.415   0.601  1.00  0.00    -0.206 F 
ATOM     78  C   UNL     1       0.209 -12.349  -1.133  1.00  0.00     0.006 A 
ENDBRANCH  57  71
BRANCH  58  79
ATOM     79  C   UNL     1      -2.203  -9.781   7.219  1.00  0.00     0.057 A 
ATOM     80  C   UNL     1      -3.040 -10.809   7.672  1.00  0.00     0.134 A 
ATOM     81  C   UNL     1      -0.917  -9.731   7.785  1.00  0.00     0.134 A 
ATOM     82  F   UNL     1      -4.273 -10.955   7.167  1.00  0.00    -0.206 F 
ATOM     83  C   UNL     1      -2.611 -11.757   8.610  1.00  0.00     0.040 A 
ATOM     84  C   UNL     1      -0.479 -10.666   8.728  1.00  0.00     0.040 A 
ATOM     85  F   UNL     1      -0.014  -8.827   7.377  1.00  0.00    -0.206 F 
ATOM     86  C   UNL     1      -1.322 -11.695   9.130  1.00  0.00     0.006 A 
ENDBRANCH  58  79
BRANCH  70  87
ATOM     87  C   UNL     1      -5.953  -7.534   2.655  1.00  0.00     0.057 A 
ATOM     88  C   UNL     1      -5.769  -6.509   3.591  1.00  0.00     0.134 A 
ATOM     89  C   UNL     1      -7.227  -7.666   2.092  1.00  0.00     0.134 A 
ATOM     90  F   UNL     1      -4.564  -6.268   4.127  1.00  0.00    -0.206 F 
ATOM     91  C   UNL     1      -6.823  -5.675   3.978  1.00  0.00     0.040 A 
ATOM     92  C   UNL     1      -8.279  -6.821   2.444  1.00  0.00     0.040 A 
ATOM     93  F   UNL     1      -7.461  -8.606   1.162  1.00  0.00    -0.206 F 
ATOM     94  C   UNL     1      -8.082  -5.828   3.399  1.00  0.00     0.006 A 
ENDBRANCH  70  87
ENDBRANCH  44  45
ENDBRANCH  37  39
ENDBRANCH  36  37
ENDBRANCH  35  36
ENDBRANCH  34  35
ENDBRANCH  33  34
ENDBRANCH  32  33
ENDBRANCH  31  32
ENDBRANCH   1  31
TORSDOF 22
