REMARK SMILES Cc1ccc(C[C@H](C(=O)OCCOCCOCCOC(=O)c2ccc(-c3c4nc(c(-c5c(F)cccc5F)c5ccc([nH]5)c(-c5c(F)cccc5F)c5nc(c(-c6c(F)cccc6F)c6ccc3[nH]6)C=C5)C=C4)cc2)[C@@H]2CCCC[C@@H]2O)cc1
REMARK SMILES IDX 14 1 13 2 12 3 11 4 10 5 8 6 9 7 7 8 6 9 5 10 1 11 2 12 3 13
REMARK SMILES IDX 84 14 4 15 83 16 76 17 77 18 81 19 78 20 80 21 79 22 82 23
REMARK SMILES IDX 15 25 16 26 17 27 18 28 19 29 20 30 21 31 22 32 23 33 75 34
REMARK SMILES IDX 24 35 74 36 25 37 26 38 27 39 68 40 28 41 73 42 67 43 69 44
REMARK SMILES IDX 29 45 72 46 66 47 65 48 30 50 56 51 39 52 55 53 40 54 43 55
REMARK SMILES IDX 54 56 70 57 41 58 42 59 53 61 71 62 44 63 31 64 32 65 37 66
REMARK SMILES IDX 33 67 34 68 36 69 38 70 35 71 57 72 58 73 63 74 59 75 60 76
REMARK SMILES IDX 62 77 64 78 61 79 45 80 46 81 51 82 47 83 48 84 50 85 52 86
REMARK SMILES IDX 49 87
REMARK H PARENT 82 24 69 49 43 60
REMARK Flexibility Score: inf
ROOT
ATOM      1  C   UNL     1      -0.185  -1.516   2.084  1.00  0.00     0.188 C 
ENDROOT
BRANCH   1   2
ATOM      2  O   UNL     1       0.113  -2.898   2.157  1.00  0.00    -0.376 OA
BRANCH   2   3
ATOM      3  C   UNL     1      -1.037  -3.724   2.259  1.00  0.00     0.202 C 
BRANCH   3   4
ATOM      4  C   UNL     1      -2.328  -3.566   1.429  1.00  0.00     0.261 C 
BRANCH   4   5
ATOM      5  O   UNL     1      -2.995  -2.372   0.894  1.00  0.00    -0.463 OA
BRANCH   5   6
ATOM      6  C   UNL     1      -3.067  -1.026   0.754  1.00  0.00     0.309 C 
ATOM      7  O   UNL     1      -2.442  -0.218   1.429  1.00  0.00    -0.252 OA
BRANCH   6   8
ATOM      8  C   UNL     1      -4.474  -0.522  -0.016  1.00  0.00     0.109 C 
BRANCH   8   9
ATOM      9  C   UNL     1      -4.867   0.943   1.131  1.00  0.00     0.051 C 
BRANCH   9  10
ATOM     10  C   UNL     1      -4.571   2.409   0.898  1.00  0.00    -0.047 A 
ATOM     11  C   UNL     1      -3.272   6.452   1.317  1.00  0.00     0.044 C 
ATOM     12  C   UNL     1      -3.795   5.093   0.969  1.00  0.00    -0.051 A 
ATOM     13  C   UNL     1      -2.876   4.100   0.625  1.00  0.00     0.004 A 
ATOM     14  C   UNL     1      -5.142   4.755   1.147  1.00  0.00     0.004 A 
ATOM     15  C   UNL     1      -3.263   2.772   0.591  1.00  0.00     0.004 A 
ATOM     16  C   UNL     1      -5.533   3.413   1.113  1.00  0.00     0.004 A 
ENDBRANCH   9  10
ENDBRANCH   8   9
BRANCH   8  17
ATOM     17  C   UNL     1      -5.471  -0.914  -1.957  1.00  0.00     0.032 C 
ATOM     18  C   UNL     1      -6.452   0.299  -2.959  1.00  0.00     0.007 C 
ATOM     19  C   UNL     1      -6.322  -2.246  -2.733  1.00  0.00     0.118 C 
ATOM     20  C   UNL     1      -7.979   0.232  -2.919  1.00  0.00     0.001 C 
ATOM     21  C   UNL     1      -7.862  -2.261  -2.644  1.00  0.00     0.032 C 
ATOM     22  C   UNL     1      -8.499  -1.100  -3.396  1.00  0.00     0.003 C 
BRANCH  19  23
ATOM     23  O   UNL     1      -5.763  -3.557  -2.691  1.00  0.00    -0.393 OA
ATOM     24  H   UNL     1      -5.920  -3.948  -1.817  1.00  0.00     0.210 HD
ENDBRANCH  19  23
ENDBRANCH   8  17
ENDBRANCH   6   8
ENDBRANCH   5   6
ENDBRANCH   4   5
ENDBRANCH   3   4
ENDBRANCH   2   3
ENDBRANCH   1   2
BRANCH   1  25
ATOM     25  C   UNL     1      -0.081  -1.103   0.612  1.00  0.00     0.188 C 
BRANCH  25  26
ATOM     26  O   UNL     1      -0.749  -2.072  -0.197  1.00  0.00    -0.376 OA
BRANCH  26  27
ATOM     27  C   UNL     1      -0.121  -2.391  -1.419  1.00  0.00     0.202 C 
BRANCH  27  28
ATOM     28  C   UNL     1      -0.112  -1.172  -2.353  1.00  0.00     0.261 C 
BRANCH  28  29
ATOM     29  O   UNL     1      -1.476  -0.780  -2.689  1.00  0.00    -0.460 OA
BRANCH  29  30
ATOM     30  C   UNL     1      -2.063   0.338  -2.159  1.00  0.00     0.338 C 
ATOM     31  O   UNL     1      -1.509   1.373  -1.852  1.00  0.00    -0.246 OA
BRANCH  30  32
ATOM     32  C   UNL     1      -3.461  -0.056  -1.788  1.00  0.00     0.060 A 
ATOM     33  C   UNL     1      -4.897   0.918  -1.296  1.00  0.00     0.016 A 
ATOM     34  C   UNL     1      -3.538  -1.798  -1.537  1.00  0.00     0.016 A 
ATOM     35  C   UNL     1      -6.349   0.073  -0.451  1.00  0.00     0.010 A 
ATOM     36  C   UNL     1      -4.841  -2.556  -0.691  1.00  0.00     0.010 A 
ATOM     37  C   UNL     1      -6.247  -1.696  -0.061  1.00  0.00    -0.014 A 
BRANCH  37  38
ATOM     38  C   UNL     1      -6.315  -2.457   1.395  1.00  0.00     0.031 A 
ATOM     39  C   UNL     1      -7.194  -3.621   1.272  1.00  0.00     0.074 A 
ATOM     40  C   UNL     1      -5.479  -2.452   2.524  1.00  0.00     0.049 A 
ATOM     41  N   UNL     1      -8.305  -3.750   1.925  1.00  0.00    -0.248 NA
ATOM     42  C   UNL     1      -6.975  -4.620   0.217  1.00  0.00     0.031 C 
ATOM     43  C   UNL     1      -5.167  -3.641   3.364  1.00  0.00     0.029 A 
ATOM     44  N   UNL     1      -4.586  -1.536   3.113  1.00  0.00    -0.354 N 
ATOM     45  C   UNL     1      -8.716  -5.012   1.566  1.00  0.00     0.074 A 
ATOM     46  C   UNL     1      -8.162  -5.211   0.241  1.00  0.00     0.031 C 
ATOM     47  C   UNL     1      -4.279  -3.351   4.342  1.00  0.00     0.029 A 
ATOM     48  C   UNL     1      -3.969  -1.936   4.304  1.00  0.00     0.049 A 
ATOM     49  H   UNL     1      -4.405  -0.657   2.707  1.00  0.00     0.167 HD
ATOM     50  C   UNL     1      -8.727  -6.036   2.478  1.00  0.00     0.037 A 
ATOM     51  C   UNL     1      -3.858  -1.107   5.389  1.00  0.00     0.037 A 
ATOM     52  C   UNL     1      -8.079  -5.686   3.764  1.00  0.00     0.049 A 
ATOM     53  C   UNL     1      -5.140  -1.275   6.171  1.00  0.00     0.074 A 
ATOM     54  C   UNL     1      -7.037  -6.213   4.516  1.00  0.00     0.029 A 
ATOM     55  N   UNL     1      -8.313  -4.444   4.354  1.00  0.00    -0.354 N 
ATOM     56  N   UNL     1      -5.850  -2.361   6.056  1.00  0.00    -0.248 NA
ATOM     57  C   UNL     1      -5.787  -0.296   7.038  1.00  0.00     0.031 C 
ATOM     58  C   UNL     1      -6.800  -5.368   5.645  1.00  0.00     0.029 A 
ATOM     59  C   UNL     1      -7.677  -4.303   5.574  1.00  0.00     0.049 A 
ATOM     60  H   UNL     1      -8.871  -3.743   3.947  1.00  0.00     0.167 HD
ATOM     61  C   UNL     1      -7.077  -2.195   6.602  1.00  0.00     0.074 A 
ATOM     62  C   UNL     1      -6.987  -0.881   7.231  1.00  0.00     0.031 C 
ATOM     63  C   UNL     1      -8.024  -3.169   6.436  1.00  0.00     0.037 A 
BRANCH  50  64
ATOM     64  C   UNL     1      -9.028  -7.450   1.988  1.00  0.00     0.057 A 
ATOM     65  C   UNL     1      -8.703  -8.588   2.737  1.00  0.00     0.134 A 
ATOM     66  C   UNL     1      -9.692  -7.741   0.768  1.00  0.00     0.134 A 
ATOM     67  F   UNL     1      -8.206  -8.499   3.975  1.00  0.00    -0.206 F 
ATOM     68  C   UNL     1      -8.910  -9.893   2.271  1.00  0.00     0.040 A 
ATOM     69  C   UNL     1      -9.842  -9.037   0.257  1.00  0.00     0.040 A 
ATOM     70  F   UNL     1     -10.262  -6.777   0.027  1.00  0.00    -0.206 F 
ATOM     71  C   UNL     1      -9.450 -10.124   1.014  1.00  0.00     0.006 A 
ENDBRANCH  50  64
BRANCH  51  72
ATOM     72  C   UNL     1      -3.121   0.162   5.123  1.00  0.00     0.057 A 
ATOM     73  C   UNL     1      -1.714   0.117   5.034  1.00  0.00     0.134 A 
ATOM     74  C   UNL     1      -3.733   1.301   4.608  1.00  0.00     0.134 A 
ATOM     75  F   UNL     1      -1.034  -0.895   5.596  1.00  0.00    -0.206 F 
ATOM     76  C   UNL     1      -0.981   1.044   4.282  1.00  0.00     0.040 A 
ATOM     77  C   UNL     1      -3.006   2.244   3.871  1.00  0.00     0.040 A 
ATOM     78  F   UNL     1      -5.063   1.450   4.673  1.00  0.00    -0.206 F 
ATOM     79  C   UNL     1      -1.645   2.068   3.628  1.00  0.00     0.006 A 
ENDBRANCH  51  72
BRANCH  63  80
ATOM     80  C   UNL     1      -9.392  -3.143   7.055  1.00  0.00     0.057 A 
ATOM     81  C   UNL     1      -9.682  -2.454   8.234  1.00  0.00     0.134 A 
ATOM     82  C   UNL     1     -10.466  -3.901   6.534  1.00  0.00     0.134 A 
ATOM     83  F   UNL     1      -8.716  -1.908   8.984  1.00  0.00    -0.206 F 
ATOM     84  C   UNL     1     -10.980  -2.362   8.742  1.00  0.00     0.040 A 
ATOM     85  C   UNL     1     -11.753  -3.857   7.055  1.00  0.00     0.040 A 
ATOM     86  F   UNL     1     -10.339  -4.751   5.510  1.00  0.00    -0.206 F 
ATOM     87  C   UNL     1     -12.025  -3.048   8.138  1.00  0.00     0.006 A 
ENDBRANCH  63  80
ENDBRANCH  37  38
ENDBRANCH  30  32
ENDBRANCH  29  30
ENDBRANCH  28  29
ENDBRANCH  27  28
ENDBRANCH  26  27
ENDBRANCH  25  26
ENDBRANCH   1  25
TORSDOF 21
