REMARK SMILES Cc1cc(CS(=O)(=O)[C@@H](C)CC(=O)OCCOCCOCCOC(=O)c2ccc(-c3c4nc(c(-c5c(F)cccc5F)c5ccc([nH]5)c(-c5c(F)cccc5F)c5nc(c(-c6c(F)cccc6F)c6ccc3[nH]6)C=C5)C=C4)cc2)c2ccccc2n1
REMARK SMILES IDX 18 1 17 2 16 3 15 4 14 5 12 6 13 7 11 8 9 9 10 10 6 11 7 12
REMARK SMILES IDX 8 13 5 14 4 15 1 16 2 17 3 18 86 19 85 20 80 21 84 22 81 23
REMARK SMILES IDX 83 24 82 25 19 26 20 27 21 28 22 29 23 30 24 31 25 32 26 33
REMARK SMILES IDX 27 34 79 35 28 36 78 37 29 38 30 39 31 40 72 41 32 42 77 43
REMARK SMILES IDX 71 44 73 45 33 46 76 47 70 48 69 49 34 51 60 52 43 53 59 54
REMARK SMILES IDX 44 55 47 56 58 57 74 58 45 59 46 60 57 62 75 63 48 64 35 65
REMARK SMILES IDX 36 66 41 67 37 68 38 69 40 70 42 71 39 72 61 73 62 74 67 75
REMARK SMILES IDX 63 76 64 77 66 78 68 79 65 80 49 81 50 82 55 83 51 84 52 85
REMARK SMILES IDX 54 86 56 87 53 88
REMARK H PARENT 73 50 47 61
REMARK Flexibility Score: inf
ROOT
ATOM      1  C   UNL     1       1.943   0.470   5.116  1.00  0.00     0.188 C 
ENDROOT
BRANCH   1   2
ATOM      2  O   UNL     1       2.949  -0.462   4.737  1.00  0.00    -0.376 OA
BRANCH   2   3
ATOM      3  C   UNL     1       3.524  -0.273   3.444  1.00  0.00     0.202 C 
BRANCH   3   4
ATOM      4  C   UNL     1       2.553  -0.221   2.254  1.00  0.00     0.261 C 
BRANCH   4   5
ATOM      5  O   UNL     1       1.571   0.844   2.291  1.00  0.00    -0.463 OA
BRANCH   5   6
ATOM      6  C   UNL     1       0.279   0.473   2.369  1.00  0.00     0.307 C 
ATOM      7  O   UNL     1      -0.107  -0.691   2.435  1.00  0.00    -0.252 OA
BRANCH   6   8
ATOM      8  C   UNL     1      -0.707   1.599   2.580  1.00  0.00     0.142 C 
BRANCH   8   9
ATOM      9  C   UNL     1      -0.423   3.084   2.396  1.00  0.00     0.117 C 
ATOM     10  C   UNL     1      -1.747   3.841   2.624  1.00  0.00     0.025 C 
BRANCH   9  11
ATOM     11  S   UNL     1       0.367   3.679   0.889  1.00  0.00     0.157 S 
ATOM     12  O   UNL     1       1.734   3.200   0.859  1.00  0.00    -0.228 OA
ATOM     13  O   UNL     1       0.178   5.125   0.890  1.00  0.00    -0.228 OA
BRANCH  11  14
ATOM     14  C   UNL     1      -0.499   3.116  -0.584  1.00  0.00     0.173 C 
BRANCH  14  15
ATOM     15  C   UNL     1      -0.691   1.626  -0.661  1.00  0.00    -0.022 A 
ATOM     16  C   UNL     1      -3.549  -0.804  -0.108  1.00  0.00     0.067 C 
ATOM     17  C   UNL     1      -2.199  -0.238  -0.424  1.00  0.00     0.038 A 
ATOM     18  C   UNL     1      -1.992   1.131  -0.479  1.00  0.00     0.029 A 
ATOM     19  N   UNL     1      -1.192  -1.122  -0.566  1.00  0.00    -0.253 NA
ATOM     20  C   UNL     1       0.053  -0.671  -0.785  1.00  0.00     0.071 A 
ATOM     21  C   UNL     1       0.363   0.703  -0.894  1.00  0.00     0.004 A 
ATOM     22  C   UNL     1       1.079  -1.604  -0.858  1.00  0.00     0.029 A 
ATOM     23  C   UNL     1       1.700   1.064  -1.191  1.00  0.00     0.010 A 
ATOM     24  C   UNL     1       2.402  -1.231  -1.093  1.00  0.00     0.002 A 
ATOM     25  C   UNL     1       2.710   0.107  -1.285  1.00  0.00     0.001 A 
ENDBRANCH  14  15
ENDBRANCH  11  14
ENDBRANCH   9  11
ENDBRANCH   8   9
ENDBRANCH   6   8
ENDBRANCH   5   6
ENDBRANCH   4   5
ENDBRANCH   3   4
ENDBRANCH   2   3
ENDBRANCH   1   2
BRANCH   1  26
ATOM     26  C   UNL     1       2.357   1.942   5.063  1.00  0.00     0.188 C 
BRANCH  26  27
ATOM     27  O   UNL     1       3.072   2.338   3.909  1.00  0.00    -0.376 OA
BRANCH  27  28
ATOM     28  C   UNL     1       3.830   3.546   3.941  1.00  0.00     0.202 C 
BRANCH  28  29
ATOM     29  C   UNL     1       4.814   3.747   5.116  1.00  0.00     0.261 C 
BRANCH  29  30
ATOM     30  O   UNL     1       4.254   3.687   6.446  1.00  0.00    -0.460 OA
BRANCH  30  31
ATOM     31  C   UNL     1       3.157   4.444   6.699  1.00  0.00     0.338 C 
ATOM     32  O   UNL     1       2.774   5.394   6.053  1.00  0.00    -0.246 OA
BRANCH  31  33
ATOM     33  C   UNL     1       2.321   3.732   7.717  1.00  0.00     0.060 A 
ATOM     34  C   UNL     1       0.929   3.752   7.536  1.00  0.00     0.016 A 
ATOM     35  C   UNL     1       2.870   2.949   8.739  1.00  0.00     0.016 A 
ATOM     36  C   UNL     1       0.087   3.040   8.395  1.00  0.00     0.010 A 
ATOM     37  C   UNL     1       2.026   2.252   9.615  1.00  0.00     0.010 A 
ATOM     38  C   UNL     1       0.628   2.329   9.473  1.00  0.00    -0.014 A 
BRANCH  38  39
ATOM     39  C   UNL     1      -0.265   1.925  10.592  1.00  0.00     0.031 A 
ATOM     40  C   UNL     1      -0.367   2.861  11.769  1.00  0.00     0.074 A 
ATOM     41  C   UNL     1      -0.999   0.799  10.574  1.00  0.00     0.049 A 
ATOM     42  N   UNL     1      -1.053   2.744  12.876  1.00  0.00    -0.248 NA
ATOM     43  C   UNL     1       0.423   4.100  11.677  1.00  0.00     0.031 C 
ATOM     44  C   UNL     1      -1.030  -0.180   9.492  1.00  0.00     0.029 A 
ATOM     45  N   UNL     1      -1.860   0.287  11.518  1.00  0.00    -0.354 N 
ATOM     46  C   UNL     1      -0.768   3.886  13.615  1.00  0.00     0.074 A 
ATOM     47  C   UNL     1       0.179   4.663  12.848  1.00  0.00     0.031 C 
ATOM     48  C   UNL     1      -1.851  -1.188   9.841  1.00  0.00     0.029 A 
ATOM     49  C   UNL     1      -2.382  -0.938  11.182  1.00  0.00     0.049 A 
ATOM     50  H   UNL     1      -2.081   0.756  12.355  1.00  0.00     0.167 HD
ATOM     51  C   UNL     1      -1.255   4.264  14.820  1.00  0.00     0.037 A 
ATOM     52  C   UNL     1      -3.175  -1.772  11.886  1.00  0.00     0.037 A 
ATOM     53  C   UNL     1      -2.189   3.491  15.593  1.00  0.00     0.049 A 
ATOM     54  C   UNL     1      -3.657  -1.368  13.258  1.00  0.00     0.074 A 
ATOM     55  C   UNL     1      -2.760   3.800  16.815  1.00  0.00     0.029 A 
ATOM     56  N   UNL     1      -2.674   2.244  15.228  1.00  0.00    -0.354 N 
ATOM     57  N   UNL     1      -3.415  -0.269  13.932  1.00  0.00    -0.248 NA
ATOM     58  C   UNL     1      -4.530  -2.319  13.964  1.00  0.00     0.031 C 
ATOM     59  C   UNL     1      -3.539   2.711  17.220  1.00  0.00     0.029 A 
ATOM     60  C   UNL     1      -3.511   1.754  16.218  1.00  0.00     0.049 A 
ATOM     61  H   UNL     1      -2.457   1.776  14.389  1.00  0.00     0.167 HD
ATOM     62  C   UNL     1      -4.122  -0.385  15.125  1.00  0.00     0.074 A 
ATOM     63  C   UNL     1      -4.814  -1.655  15.076  1.00  0.00     0.031 C 
ATOM     64  C   UNL     1      -4.195   0.486  16.163  1.00  0.00     0.037 A 
BRANCH  51  65
ATOM     65  C   UNL     1      -0.736   5.553  15.390  1.00  0.00     0.057 A 
ATOM     66  C   UNL     1      -1.043   6.799  14.824  1.00  0.00     0.134 A 
ATOM     67  C   UNL     1       0.099   5.545  16.514  1.00  0.00     0.134 A 
ATOM     68  F   UNL     1      -1.821   6.877  13.733  1.00  0.00    -0.206 F 
ATOM     69  C   UNL     1      -0.504   7.983  15.329  1.00  0.00     0.040 A 
ATOM     70  C   UNL     1       0.616   6.726  17.049  1.00  0.00     0.040 A 
ATOM     71  F   UNL     1       0.432   4.389  17.108  1.00  0.00    -0.206 F 
ATOM     72  C   UNL     1       0.325   7.949  16.448  1.00  0.00     0.006 A 
ENDBRANCH  51  65
BRANCH  52  73
ATOM     73  C   UNL     1      -3.544  -3.095  11.316  1.00  0.00     0.057 A 
ATOM     74  C   UNL     1      -4.857  -3.387  10.928  1.00  0.00     0.134 A 
ATOM     75  C   UNL     1      -2.587  -4.105  11.157  1.00  0.00     0.134 A 
ATOM     76  F   UNL     1      -5.827  -2.474  11.084  1.00  0.00    -0.206 F 
ATOM     77  C   UNL     1      -5.205  -4.636  10.408  1.00  0.00     0.040 A 
ATOM     78  C   UNL     1      -2.915  -5.348  10.613  1.00  0.00     0.040 A 
ATOM     79  F   UNL     1      -1.313  -3.892  11.517  1.00  0.00    -0.206 F 
ATOM     80  C   UNL     1      -4.230  -5.617  10.241  1.00  0.00     0.006 A 
ENDBRANCH  52  73
BRANCH  64  81
ATOM     81  C   UNL     1      -5.080   0.117  17.322  1.00  0.00     0.057 A 
ATOM     82  C   UNL     1      -4.756  -0.916  18.211  1.00  0.00     0.134 A 
ATOM     83  C   UNL     1      -6.253   0.841  17.579  1.00  0.00     0.134 A 
ATOM     84  F   UNL     1      -3.652  -1.655  18.021  1.00  0.00    -0.206 F 
ATOM     85  C   UNL     1      -5.578  -1.233  19.295  1.00  0.00     0.040 A 
ATOM     86  C   UNL     1      -7.066   0.554  18.677  1.00  0.00     0.040 A 
ATOM     87  F   UNL     1      -6.619   1.853  16.778  1.00  0.00    -0.206 F 
ATOM     88  C   UNL     1      -6.734  -0.491  19.534  1.00  0.00     0.006 A 
ENDBRANCH  64  81
ENDBRANCH  38  39
ENDBRANCH  31  33
ENDBRANCH  30  31
ENDBRANCH  29  30
ENDBRANCH  28  29
ENDBRANCH  27  28
ENDBRANCH  26  27
ENDBRANCH   1  26
TORSDOF 21
