REMARK SMILES CS(=O)(=O)c1ccc(/C=C(/C(=O)OCCOCCOCCOC(=O)c2ccc(-c3c4nc(c(-c5c(F)cccc5F)c5ccc([nH]5)c(-c5c(F)cccc5F)c5nc(c(-c6c(F)cccc6F)c6ccc3[nH]6)C=C5)C=C4)cc2)c2ccc(F)cc2)cc1
REMARK SMILES IDX 17 1 16 2 15 3 14 4 13 5 11 6 12 7 10 8 9 9 8 10 5 11 6 12
REMARK SMILES IDX 87 13 7 14 86 15 2 16 1 17 3 18 4 19 79 20 80 21 85 22 81 23
REMARK SMILES IDX 84 24 82 25 83 26 18 27 19 28 20 29 21 30 22 31 23 32 24 33
REMARK SMILES IDX 25 34 26 35 78 36 27 37 77 38 28 39 29 40 30 41 71 42 31 43
REMARK SMILES IDX 76 44 70 45 72 46 32 47 75 48 69 49 68 50 33 52 59 53 42 54
REMARK SMILES IDX 58 55 43 56 46 57 57 58 73 59 44 60 45 61 56 63 74 64 47 65
REMARK SMILES IDX 34 66 35 67 40 68 36 69 37 70 39 71 41 72 38 73 60 74 61 75
REMARK SMILES IDX 66 76 62 77 63 78 65 79 67 80 64 81 48 82 49 83 54 84 50 85
REMARK SMILES IDX 51 86 53 87 55 88 52 89
REMARK H PARENT 72 51 46 62
REMARK Flexibility Score: inf
ROOT
ATOM      1  C   UNL     1       1.139  -2.780  10.151  1.00  0.00     0.188 C 
ENDROOT
BRANCH   1   2
ATOM      2  O   UNL     1       1.799  -2.610  11.382  1.00  0.00    -0.376 OA
BRANCH   2   3
ATOM      3  C   UNL     1       3.159  -2.219  11.403  1.00  0.00     0.202 C 
BRANCH   3   4
ATOM      4  C   UNL     1       3.791  -1.248  10.385  1.00  0.00     0.261 C 
BRANCH   4   5
ATOM      5  O   UNL     1       3.108  -1.043   9.143  1.00  0.00    -0.460 OA
BRANCH   5   6
ATOM      6  C   UNL     1       3.541  -1.758   8.075  1.00  0.00     0.338 C 
ATOM      7  O   UNL     1       4.439  -2.585   8.094  1.00  0.00    -0.246 OA
BRANCH   6   8
ATOM      8  C   UNL     1       2.684  -1.495   6.870  1.00  0.00     0.067 C 
ATOM      9  C   UNL     1       2.239  -0.239   6.617  1.00  0.00     0.024 C 
BRANCH   9  10
ATOM     10  C   UNL     1       1.538   0.250   5.404  1.00  0.00    -0.025 A 
ATOM     11  C   UNL     1       0.603   1.122   2.904  1.00  0.00     0.067 A 
ATOM     12  C   UNL     1       0.136  -0.078   3.435  1.00  0.00     0.021 A 
ATOM     13  C   UNL     1       1.431   1.952   3.658  1.00  0.00     0.021 A 
ATOM     14  C   UNL     1       0.582  -0.491   4.694  1.00  0.00     0.009 A 
ATOM     15  C   UNL     1       1.895   1.513   4.904  1.00  0.00     0.009 A 
BRANCH  11  16
ATOM     16  S   UNL     1       0.173   1.559   1.238  1.00  0.00     0.175 S 
ATOM     17  C   UNL     1       0.938   0.285   0.261  1.00  0.00     0.163 C 
ATOM     18  O   UNL     1       0.833   2.806   0.922  1.00  0.00    -0.224 OA
ATOM     19  O   UNL     1      -1.270   1.421   1.121  1.00  0.00    -0.224 OA
ENDBRANCH  11  16
ENDBRANCH   9  10
BRANCH   8  20
ATOM     20  C   UNL     1       2.401  -2.634   5.976  1.00  0.00    -0.011 A 
ATOM     21  C   UNL     1       1.360  -3.524   6.301  1.00  0.00     0.012 A 
ATOM     22  C   UNL     1       3.075  -2.778   4.757  1.00  0.00     0.012 A 
ATOM     23  C   UNL     1       0.971  -4.513   5.399  1.00  0.00     0.040 A 
ATOM     24  C   UNL     1       2.681  -3.769   3.856  1.00  0.00     0.040 A 
ATOM     25  C   UNL     1       1.628  -4.618   4.180  1.00  0.00     0.123 A 
ATOM     26  F   UNL     1       1.226  -5.537   3.294  1.00  0.00    -0.207 F 
ENDBRANCH   8  20
ENDBRANCH   6   8
ENDBRANCH   5   6
ENDBRANCH   4   5
ENDBRANCH   3   4
ENDBRANCH   2   3
ENDBRANCH   1   2
BRANCH   1  27
ATOM     27  C   UNL     1       0.286  -1.563   9.731  1.00  0.00     0.188 C 
BRANCH  27  28
ATOM     28  O   UNL     1       0.208  -0.429  10.584  1.00  0.00    -0.376 OA
BRANCH  28  29
ATOM     29  C   UNL     1      -0.079  -0.620  11.965  1.00  0.00     0.202 C 
BRANCH  29  30
ATOM     30  C   UNL     1      -1.336  -1.403  12.369  1.00  0.00     0.261 C 
BRANCH  30  31
ATOM     31  O   UNL     1      -1.449  -2.708  11.775  1.00  0.00    -0.460 OA
BRANCH  31  32
ATOM     32  C   UNL     1      -2.501  -2.878  10.941  1.00  0.00     0.338 C 
ATOM     33  O   UNL     1      -3.365  -2.062  10.650  1.00  0.00    -0.246 OA
BRANCH  32  34
ATOM     34  C   UNL     1      -2.390  -4.180  10.263  1.00  0.00     0.060 A 
ATOM     35  C   UNL     1      -2.211  -4.200   8.872  1.00  0.00     0.016 A 
ATOM     36  C   UNL     1      -2.546  -5.367  10.977  1.00  0.00     0.016 A 
ATOM     37  C   UNL     1      -2.200  -5.413   8.185  1.00  0.00     0.010 A 
ATOM     38  C   UNL     1      -2.565  -6.580  10.284  1.00  0.00     0.010 A 
ATOM     39  C   UNL     1      -2.417  -6.605   8.885  1.00  0.00    -0.014 A 
BRANCH  39  40
ATOM     40  C   UNL     1      -2.689  -7.862   8.150  1.00  0.00     0.031 A 
ATOM     41  C   UNL     1      -4.120  -8.234   7.884  1.00  0.00     0.074 A 
ATOM     42  C   UNL     1      -1.692  -8.665   7.745  1.00  0.00     0.049 A 
ATOM     43  N   UNL     1      -4.615  -9.351   7.419  1.00  0.00    -0.248 NA
ATOM     44  C   UNL     1      -5.126  -7.203   8.185  1.00  0.00     0.031 C 
ATOM     45  C   UNL     1      -0.265  -8.377   7.872  1.00  0.00     0.029 A 
ATOM     46  N   UNL     1      -1.737  -9.906   7.160  1.00  0.00    -0.354 N 
ATOM     47  C   UNL     1      -5.992  -9.165   7.390  1.00  0.00     0.074 A 
ATOM     48  C   UNL     1      -6.253  -7.832   7.888  1.00  0.00     0.031 C 
ATOM     49  C   UNL     1       0.433  -9.428   7.406  1.00  0.00     0.029 A 
ATOM     50  C   UNL     1      -0.499 -10.478   6.995  1.00  0.00     0.049 A 
ATOM     51  H   UNL     1      -2.575 -10.344   6.885  1.00  0.00     0.167 HD
ATOM     52  C   UNL     1      -6.951 -10.033   6.992  1.00  0.00     0.037 A 
ATOM     53  C   UNL     1      -0.165 -11.723   6.603  1.00  0.00     0.037 A 
ATOM     54  C   UNL     1      -6.686 -11.362   6.513  1.00  0.00     0.049 A 
ATOM     55  C   UNL     1      -1.254 -12.709   6.262  1.00  0.00     0.074 A 
ATOM     56  C   UNL     1      -7.589 -12.329   6.107  1.00  0.00     0.029 A 
ATOM     57  N   UNL     1      -5.421 -11.913   6.382  1.00  0.00    -0.354 N 
ATOM     58  N   UNL     1      -2.554 -12.537   6.256  1.00  0.00    -0.248 NA
ATOM     59  C   UNL     1      -0.829 -14.065   5.882  1.00  0.00     0.031 C 
ATOM     60  C   UNL     1      -6.870 -13.481   5.772  1.00  0.00     0.029 A 
ATOM     61  C   UNL     1      -5.518 -13.213   5.918  1.00  0.00     0.049 A 
ATOM     62  H   UNL     1      -4.578 -11.448   6.589  1.00  0.00     0.167 HD
ATOM     63  C   UNL     1      -3.098 -13.746   5.836  1.00  0.00     0.074 A 
ATOM     64  C   UNL     1      -1.987 -14.644   5.598  1.00  0.00     0.031 C 
ATOM     65  C   UNL     1      -4.399 -14.082   5.659  1.00  0.00     0.037 A 
BRANCH  52  66
ATOM     66  C   UNL     1      -8.376  -9.582   7.110  1.00  0.00     0.057 A 
ATOM     67  C   UNL     1      -8.924  -8.622   6.249  1.00  0.00     0.134 A 
ATOM     68  C   UNL     1      -9.213 -10.124   8.093  1.00  0.00     0.134 A 
ATOM     69  F   UNL     1      -8.168  -8.050   5.299  1.00  0.00    -0.206 F 
ATOM     70  C   UNL     1     -10.248  -8.200   6.378  1.00  0.00     0.040 A 
ATOM     71  C   UNL     1     -10.546  -9.729   8.215  1.00  0.00     0.040 A 
ATOM     72  F   UNL     1      -8.750 -11.047   8.949  1.00  0.00    -0.206 F 
ATOM     73  C   UNL     1     -11.065  -8.759   7.360  1.00  0.00     0.006 A 
ENDBRANCH  52  66
BRANCH  53  74
ATOM     74  C   UNL     1       1.262 -12.133   6.549  1.00  0.00     0.057 A 
ATOM     75  C   UNL     1       1.890 -12.415   5.331  1.00  0.00     0.134 A 
ATOM     76  C   UNL     1       2.021 -12.289   7.716  1.00  0.00     0.134 A 
ATOM     77  F   UNL     1       1.208 -12.312   4.181  1.00  0.00    -0.206 F 
ATOM     78  C   UNL     1       3.214 -12.854   5.274  1.00  0.00     0.040 A 
ATOM     79  C   UNL     1       3.354 -12.703   7.672  1.00  0.00     0.040 A 
ATOM     80  F   UNL     1       1.478 -12.039   8.916  1.00  0.00    -0.206 F 
ATOM     81  C   UNL     1       3.951 -12.995   6.448  1.00  0.00     0.006 A 
ENDBRANCH  53  74
BRANCH  65  82
ATOM     82  C   UNL     1      -4.700 -15.450   5.120  1.00  0.00     0.057 A 
ATOM     83  C   UNL     1      -4.583 -16.602   5.905  1.00  0.00     0.134 A 
ATOM     84  C   UNL     1      -5.184 -15.602   3.814  1.00  0.00     0.134 A 
ATOM     85  F   UNL     1      -4.115 -16.526   7.160  1.00  0.00    -0.206 F 
ATOM     86  C   UNL     1      -4.927 -17.860   5.407  1.00  0.00     0.040 A 
ATOM     87  C   UNL     1      -5.554 -16.850   3.313  1.00  0.00     0.040 A 
ATOM     88  F   UNL     1      -5.329 -14.536   3.012  1.00  0.00    -0.206 F 
ATOM     89  C   UNL     1      -5.424 -17.985   4.110  1.00  0.00     0.006 A 
ENDBRANCH  65  82
ENDBRANCH  39  40
ENDBRANCH  32  34
ENDBRANCH  31  32
ENDBRANCH  30  31
ENDBRANCH  29  30
ENDBRANCH  28  29
ENDBRANCH  27  28
ENDBRANCH   1  27
TORSDOF 20
