REMARK SMILES CC[C@@H](C(=O)OCCOCCOCCOC(=O)c1ccc(-c2c3nc(c(-c4c(F)cccc4F)c4ccc([nH]4)c(-c4c(F)cccc4F)c4nc(c(-c5c(F)cccc5F)c5ccc2[nH]5)C=C4)C=C3)cc1)N1C(=O)/C(=C/C(C)=C/c2ccccc2)SC1=S
REMARK SMILES IDX 10 1 9 2 8 3 7 4 6 5 4 6 5 7 3 8 2 9 1 10 72 11 73 12 87 13
REMARK SMILES IDX 74 14 75 15 86 16 88 17 76 18 77 19 78 20 79 21 80 22 81 23
REMARK SMILES IDX 85 24 82 25 84 26 83 27 11 28 12 29 13 30 14 31 15 32 16 33
REMARK SMILES IDX 17 34 18 35 19 36 71 37 20 38 70 39 21 40 22 41 23 42 64 43
REMARK SMILES IDX 24 44 69 45 63 46 65 47 25 48 68 49 62 50 61 51 26 53 52 54
REMARK SMILES IDX 35 55 51 56 36 57 39 58 50 59 66 60 37 61 38 62 49 64 67 65
REMARK SMILES IDX 40 66 27 67 28 68 33 69 29 70 30 71 32 72 34 73 31 74 53 75
REMARK SMILES IDX 54 76 59 77 55 78 56 79 58 80 60 81 57 82 41 83 42 84 47 85
REMARK SMILES IDX 43 86 44 87 46 88 48 89 45 90
REMARK H PARENT 65 52 39 63
REMARK Flexibility Score: inf
ROOT
ATOM      1  C   UNL     1      -1.936   2.584   2.158  1.00  0.00     0.188 C 
ENDROOT
BRANCH   1   2
ATOM      2  O   UNL     1      -1.624   3.935   1.846  1.00  0.00    -0.376 OA
BRANCH   2   3
ATOM      3  C   UNL     1      -0.425   4.218   1.134  1.00  0.00     0.202 C 
BRANCH   3   4
ATOM      4  C   UNL     1       0.877   3.797   1.808  1.00  0.00     0.261 C 
BRANCH   4   5
ATOM      5  O   UNL     1       0.908   2.372   1.981  1.00  0.00    -0.462 OA
BRANCH   5   6
ATOM      6  C   UNL     1       2.117   1.835   2.275  1.00  0.00     0.329 C 
ATOM      7  O   UNL     1       3.171   2.458   2.286  1.00  0.00    -0.250 OA
BRANCH   6   8
ATOM      8  C   UNL     1       2.017   0.333   2.575  1.00  0.00     0.201 C 
BRANCH   8   9
ATOM      9  C   UNL     1       1.590  -0.453   1.290  1.00  0.00     0.034 C 
ATOM     10  C   UNL     1       1.879   0.179  -0.066  1.00  0.00     0.007 C 
ENDBRANCH   8   9
BRANCH   8  11
ATOM     11  N   UNL     1       1.183  -0.082   3.758  1.00  0.00    -0.278 N 
ATOM     12  C   UNL     1       1.111  -1.448   4.025  1.00  0.00     0.266 C 
ATOM     13  C   UNL     1       0.758   0.693   4.822  1.00  0.00     0.149 C 
ATOM     14  O   UNL     1       1.643  -2.341   3.377  1.00  0.00    -0.268 OA
ATOM     15  C   UNL     1       0.402  -1.718   5.305  1.00  0.00     0.080 C 
ATOM     16  S   UNL     1      -0.282  -0.268   5.878  1.00  0.00    -0.054 SA
ATOM     17  S   UNL     1       1.106   2.264   5.247  1.00  0.00    -0.052 S 
ATOM     18  C   UNL     1       0.465  -2.928   5.875  1.00  0.00     0.024 C 
BRANCH  18  19
ATOM     19  C   UNL     1      -0.041  -3.420   7.151  1.00  0.00    -0.049 C 
ATOM     20  C   UNL     1      -0.328  -4.907   7.176  1.00  0.00     0.044 C 
ATOM     21  C   UNL     1      -0.106  -2.672   8.273  1.00  0.00     0.011 C 
BRANCH  21  22
ATOM     22  C   UNL     1      -0.511  -3.213   9.573  1.00  0.00    -0.025 A 
ATOM     23  C   UNL     1      -1.842  -3.561   9.823  1.00  0.00     0.008 A 
ATOM     24  C   UNL     1       0.460  -3.435  10.556  1.00  0.00     0.008 A 
ATOM     25  C   UNL     1      -2.187  -4.173  11.026  1.00  0.00     0.001 A 
ATOM     26  C   UNL     1       0.109  -4.027  11.769  1.00  0.00     0.001 A 
ATOM     27  C   UNL     1      -1.212  -4.407  11.997  1.00  0.00     0.000 A 
ENDBRANCH  21  22
ENDBRANCH  18  19
ENDBRANCH   8  11
ENDBRANCH   6   8
ENDBRANCH   5   6
ENDBRANCH   4   5
ENDBRANCH   3   4
ENDBRANCH   2   3
ENDBRANCH   1   2
BRANCH   1  28
ATOM     28  C   UNL     1      -1.763   1.486   1.089  1.00  0.00     0.188 C 
BRANCH  28  29
ATOM     29  O   UNL     1      -1.883   1.780  -0.293  1.00  0.00    -0.376 OA
BRANCH  29  30
ATOM     30  C   UNL     1      -2.909   2.663  -0.720  1.00  0.00     0.202 C 
BRANCH  30  31
ATOM     31  C   UNL     1      -4.351   2.178  -0.584  1.00  0.00     0.261 C 
BRANCH  31  32
ATOM     32  O   UNL     1      -4.691   1.813   0.762  1.00  0.00    -0.460 OA
BRANCH  32  33
ATOM     33  C   UNL     1      -4.885   0.493   0.967  1.00  0.00     0.338 C 
ATOM     34  O   UNL     1      -4.861  -0.403   0.124  1.00  0.00    -0.246 OA
BRANCH  33  35
ATOM     35  C   UNL     1      -4.970   0.210   2.410  1.00  0.00     0.060 A 
ATOM     36  C   UNL     1      -4.216  -0.859   2.915  1.00  0.00     0.016 A 
ATOM     37  C   UNL     1      -5.829   0.930   3.244  1.00  0.00     0.016 A 
ATOM     38  C   UNL     1      -4.371  -1.259   4.240  1.00  0.00     0.010 A 
ATOM     39  C   UNL     1      -5.999   0.516   4.568  1.00  0.00     0.010 A 
ATOM     40  C   UNL     1      -5.310  -0.611   5.052  1.00  0.00    -0.014 A 
BRANCH  40  41
ATOM     41  C   UNL     1      -5.755  -1.268   6.303  1.00  0.00     0.031 A 
ATOM     42  C   UNL     1      -6.902  -2.238   6.213  1.00  0.00     0.074 A 
ATOM     43  C   UNL     1      -5.162  -1.014   7.482  1.00  0.00     0.049 A 
ATOM     44  N   UNL     1      -7.428  -2.990   7.143  1.00  0.00    -0.248 NA
ATOM     45  C   UNL     1      -7.536  -2.386   4.890  1.00  0.00     0.031 C 
ATOM     46  C   UNL     1      -4.022  -0.123   7.669  1.00  0.00     0.029 A 
ATOM     47  N   UNL     1      -5.441  -1.477   8.745  1.00  0.00    -0.354 N 
ATOM     48  C   UNL     1      -8.454  -3.690   6.523  1.00  0.00     0.074 A 
ATOM     49  C   UNL     1      -8.493  -3.265   5.143  1.00  0.00     0.031 C 
ATOM     50  C   UNL     1      -3.704  -0.095   8.975  1.00  0.00     0.029 A 
ATOM     51  C   UNL     1      -4.639  -0.936   9.724  1.00  0.00     0.049 A 
ATOM     52  H   UNL     1      -6.149  -2.136   8.932  1.00  0.00     0.167 HD
ATOM     53  C   UNL     1      -9.287  -4.611   7.060  1.00  0.00     0.037 A 
ATOM     54  C   UNL     1      -4.667  -1.106  11.066  1.00  0.00     0.037 A 
ATOM     55  C   UNL     1      -9.232  -5.036   8.431  1.00  0.00     0.049 A 
ATOM     56  C   UNL     1      -5.654  -2.108  11.628  1.00  0.00     0.074 A 
ATOM     57  C   UNL     1      -9.995  -5.997   9.068  1.00  0.00     0.029 A 
ATOM     58  N   UNL     1      -8.370  -4.508   9.379  1.00  0.00    -0.354 N 
ATOM     59  N   UNL     1      -6.459  -2.929  10.992  1.00  0.00    -0.248 NA
ATOM     60  C   UNL     1      -5.709  -2.244  13.089  1.00  0.00     0.031 C 
ATOM     61  C   UNL     1      -9.622  -6.020  10.416  1.00  0.00     0.029 A 
ATOM     62  C   UNL     1      -8.606  -5.096  10.608  1.00  0.00     0.049 A 
ATOM     63  H   UNL     1      -7.690  -3.818   9.204  1.00  0.00     0.167 HD
ATOM     64  C   UNL     1      -7.024  -3.747  11.967  1.00  0.00     0.074 A 
ATOM     65  C   UNL     1      -6.467  -3.322  13.233  1.00  0.00     0.031 C 
ATOM     66  C   UNL     1      -7.927  -4.752  11.832  1.00  0.00     0.037 A 
BRANCH  53  67
ATOM     67  C   UNL     1     -10.343  -5.189   6.168  1.00  0.00     0.057 A 
ATOM     68  C   UNL     1     -10.044  -6.133   5.178  1.00  0.00     0.134 A 
ATOM     69  C   UNL     1     -11.681  -4.804   6.314  1.00  0.00     0.134 A 
ATOM     70  F   UNL     1      -8.777  -6.526   4.975  1.00  0.00    -0.206 F 
ATOM     71  C   UNL     1     -11.038  -6.663   4.354  1.00  0.00     0.040 A 
ATOM     72  C   UNL     1     -12.687  -5.342   5.509  1.00  0.00     0.040 A 
ATOM     73  F   UNL     1     -12.032  -3.900   7.241  1.00  0.00    -0.206 F 
ATOM     74  C   UNL     1     -12.365  -6.272   4.523  1.00  0.00     0.006 A 
ENDBRANCH  53  67
BRANCH  54  75
ATOM     75  C   UNL     1      -3.687  -0.389  11.945  1.00  0.00     0.057 A 
ATOM     76  C   UNL     1      -2.830  -1.076  12.818  1.00  0.00     0.134 A 
ATOM     77  C   UNL     1      -3.558   1.007  11.936  1.00  0.00     0.134 A 
ATOM     78  F   UNL     1      -2.965  -2.395  13.000  1.00  0.00    -0.206 F 
ATOM     79  C   UNL     1      -1.861  -0.430  13.589  1.00  0.00     0.040 A 
ATOM     80  C   UNL     1      -2.582   1.670  12.688  1.00  0.00     0.040 A 
ATOM     81  F   UNL     1      -4.373   1.759  11.181  1.00  0.00    -0.206 F 
ATOM     82  C   UNL     1      -1.722   0.949  13.510  1.00  0.00     0.006 A 
ENDBRANCH  54  75
BRANCH  66  83
ATOM     83  C   UNL     1      -8.249  -5.572  13.051  1.00  0.00     0.057 A 
ATOM     84  C   UNL     1      -8.980  -5.060  14.130  1.00  0.00     0.134 A 
ATOM     85  C   UNL     1      -7.858  -6.917  13.118  1.00  0.00     0.134 A 
ATOM     86  F   UNL     1      -9.386  -3.782  14.130  1.00  0.00    -0.206 F 
ATOM     87  C   UNL     1      -9.274  -5.842  15.248  1.00  0.00     0.040 A 
ATOM     88  C   UNL     1      -8.177  -7.719  14.215  1.00  0.00     0.040 A 
ATOM     89  F   UNL     1      -7.176  -7.481  12.109  1.00  0.00    -0.206 F 
ATOM     90  C   UNL     1      -8.877  -7.177  15.290  1.00  0.00     0.006 A 
ENDBRANCH  66  83
ENDBRANCH  40  41
ENDBRANCH  33  35
ENDBRANCH  32  33
ENDBRANCH  31  32
ENDBRANCH  30  31
ENDBRANCH  29  30
ENDBRANCH  28  29
ENDBRANCH   1  28
TORSDOF 21
