REMARK SMILES Cc1ccccc1N[C@H](C(=O)OCCOCCOCCOC(=O)c1ccc(-c2c3nc(c(-c4c(F)cccc4F)c4ccc([nH]4)c(-c4c(F)cccc4F)c4nc(c(-c5c(F)cccc5F)c5ccc2[nH]5)C=C4)C=C3)cc1)c1ccccc1
REMARK SMILES IDX 16 1 15 2 14 3 13 4 12 5 10 6 11 7 9 8 8 9 7 11 1 12 2 13
REMARK SMILES IDX 3 14 4 15 6 16 5 17 78 18 79 19 83 20 80 21 82 22 81 23
REMARK SMILES IDX 17 24 18 25 19 26 20 27 21 28 22 29 23 30 24 31 25 32 77 33
REMARK SMILES IDX 26 34 76 35 27 36 28 37 29 38 70 39 30 40 75 41 69 42 71 43
REMARK SMILES IDX 31 44 74 45 68 46 67 47 32 49 58 50 41 51 57 52 42 53 45 54
REMARK SMILES IDX 56 55 72 56 43 57 44 58 55 60 73 61 46 62 33 63 34 64 39 65
REMARK SMILES IDX 35 66 36 67 38 68 40 69 37 70 59 71 60 72 65 73 61 74 62 75
REMARK SMILES IDX 64 76 66 77 63 78 47 79 48 80 53 81 49 82 50 83 52 84 54 85
REMARK SMILES IDX 51 86
REMARK H PARENT 8 10 71 48 45 59
REMARK Flexibility Score: inf
ROOT
ATOM      1  C   UNL     1       3.277  -0.920   1.475  1.00  0.00     0.188 C 
ENDROOT
BRANCH   1   2
ATOM      2  O   UNL     1       3.313   0.494   1.253  1.00  0.00    -0.376 OA
BRANCH   2   3
ATOM      3  C   UNL     1       4.098   1.235   2.186  1.00  0.00     0.202 C 
BRANCH   3   4
ATOM      4  C   UNL     1       3.725   2.757   2.401  1.00  0.00     0.261 C 
BRANCH   4   5
ATOM      5  O   UNL     1       2.359   3.219   2.034  1.00  0.00    -0.461 OA
BRANCH   5   6
ATOM      6  C   UNL     1       1.617   4.394   2.329  1.00  0.00     0.333 C 
ATOM      7  O   UNL     1       1.954   5.138   3.245  1.00  0.00    -0.249 OA
BRANCH   6   8
ATOM      8  C   UNL     1       0.258   4.694   1.171  1.00  0.00     0.221 C 
BRANCH   8   9
ATOM      9  N   UNL     1      -0.936   4.860   1.980  1.00  0.00    -0.368 N 
ATOM     10  H   UNL     1      -1.592   4.126   1.961  1.00  0.00     0.161 HD
BRANCH   9  11
ATOM     11  C   UNL     1      -1.238   5.945   2.769  1.00  0.00     0.038 A 
ATOM     12  C   UNL     1      -3.057   4.594   3.888  1.00  0.00     0.046 C 
ATOM     13  C   UNL     1      -2.392   5.905   3.559  1.00  0.00    -0.028 A 
ATOM     14  C   UNL     1      -2.870   7.093   4.126  1.00  0.00     0.005 A 
ATOM     15  C   UNL     1      -2.197   8.299   3.928  1.00  0.00     0.000 A 
ATOM     16  C   UNL     1      -0.457   7.111   2.791  1.00  0.00     0.026 A 
ATOM     17  C   UNL     1      -0.969   8.303   3.288  1.00  0.00     0.002 A 
ENDBRANCH   9  11
ENDBRANCH   8   9
BRANCH   8  18
ATOM     18  C   UNL     1       0.256   5.632  -0.134  1.00  0.00    -0.015 A 
ATOM     19  C   UNL     1      -0.330   6.900  -0.209  1.00  0.00     0.006 A 
ATOM     20  C   UNL     1       0.771   5.213  -1.383  1.00  0.00     0.006 A 
ATOM     21  C   UNL     1      -0.050   7.812  -1.241  1.00  0.00     0.000 A 
ATOM     22  C   UNL     1       1.100   6.111  -2.413  1.00  0.00     0.000 A 
ATOM     23  C   UNL     1       0.755   7.444  -2.303  1.00  0.00     0.000 A 
ENDBRANCH   8  18
ENDBRANCH   6   8
ENDBRANCH   5   6
ENDBRANCH   4   5
ENDBRANCH   3   4
ENDBRANCH   2   3
ENDBRANCH   1   2
BRANCH   1  24
ATOM     24  C   UNL     1       2.233  -1.302   2.525  1.00  0.00     0.188 C 
BRANCH  24  25
ATOM     25  O   UNL     1       2.131  -0.276   3.502  1.00  0.00    -0.376 OA
BRANCH  25  26
ATOM     26  C   UNL     1       1.891  -0.681   4.836  1.00  0.00     0.202 C 
BRANCH  26  27
ATOM     27  C   UNL     1       0.571  -1.437   5.034  1.00  0.00     0.261 C 
BRANCH  27  28
ATOM     28  O   UNL     1      -0.527  -0.691   4.466  1.00  0.00    -0.460 OA
BRANCH  28  29
ATOM     29  C   UNL     1      -1.069  -1.163   3.301  1.00  0.00     0.338 C 
ATOM     30  O   UNL     1      -1.276  -2.342   3.043  1.00  0.00    -0.246 OA
BRANCH  29  31
ATOM     31  C   UNL     1      -1.040  -0.070   2.276  1.00  0.00     0.060 A 
ATOM     32  C   UNL     1      -0.922  -0.305   0.909  1.00  0.00     0.016 A 
ATOM     33  C   UNL     1      -0.665   1.166   2.694  1.00  0.00     0.016 A 
ATOM     34  C   UNL     1      -0.155   0.585   0.066  1.00  0.00     0.010 A 
ATOM     35  C   UNL     1       0.243   1.874   1.886  1.00  0.00     0.010 A 
ATOM     36  C   UNL     1       0.664   1.641   0.539  1.00  0.00    -0.014 A 
BRANCH  36  37
ATOM     37  C   UNL     1       1.988   2.292  -0.377  1.00  0.00     0.031 A 
ATOM     38  C   UNL     1       3.026   3.710  -0.402  1.00  0.00     0.074 A 
ATOM     39  C   UNL     1       2.491   1.389  -1.263  1.00  0.00     0.049 A 
ATOM     40  N   UNL     1       4.050   3.913  -1.222  1.00  0.00    -0.248 NA
ATOM     41  C   UNL     1       3.053   4.952   0.428  1.00  0.00     0.031 C 
ATOM     42  C   UNL     1       3.775   1.374  -1.959  1.00  0.00     0.029 A 
ATOM     43  N   UNL     1       1.862   0.263  -1.793  1.00  0.00    -0.354 N 
ATOM     44  C   UNL     1       4.737   5.087  -0.858  1.00  0.00     0.074 A 
ATOM     45  C   UNL     1       4.290   5.415   0.430  1.00  0.00     0.031 C 
ATOM     46  C   UNL     1       3.692   0.571  -3.027  1.00  0.00     0.029 A 
ATOM     47  C   UNL     1       2.339   0.077  -3.095  1.00  0.00     0.049 A 
ATOM     48  H   UNL     1       1.200  -0.301  -1.333  1.00  0.00     0.167 HD
ATOM     49  C   UNL     1       5.483   5.905  -1.654  1.00  0.00     0.037 A 
ATOM     50  C   UNL     1       1.468   0.203  -4.133  1.00  0.00     0.037 A 
ATOM     51  C   UNL     1       5.627   5.311  -2.949  1.00  0.00     0.049 A 
ATOM     52  C   UNL     1       1.721   1.449  -4.960  1.00  0.00     0.074 A 
ATOM     53  C   UNL     1       6.291   4.172  -3.361  1.00  0.00     0.029 A 
ATOM     54  N   UNL     1       4.670   5.590  -3.896  1.00  0.00    -0.354 N 
ATOM     55  N   UNL     1       2.717   2.280  -4.786  1.00  0.00    -0.248 NA
ATOM     56  C   UNL     1       0.806   1.895  -6.011  1.00  0.00     0.031 C 
ATOM     57  C   UNL     1       5.550   3.641  -4.452  1.00  0.00     0.029 A 
ATOM     58  C   UNL     1       4.507   4.507  -4.742  1.00  0.00     0.049 A 
ATOM     59  H   UNL     1       4.173   6.437  -3.963  1.00  0.00     0.167 HD
ATOM     60  C   UNL     1       2.547   3.364  -5.605  1.00  0.00     0.074 A 
ATOM     61  C   UNL     1       1.336   3.078  -6.352  1.00  0.00     0.031 C 
ATOM     62  C   UNL     1       3.362   4.458  -5.629  1.00  0.00     0.037 A 
BRANCH  49  63
ATOM     63  C   UNL     1       6.082   7.242  -1.204  1.00  0.00     0.057 A 
ATOM     64  C   UNL     1       7.301   7.688  -1.736  1.00  0.00     0.134 A 
ATOM     65  C   UNL     1       5.538   8.119  -0.232  1.00  0.00     0.134 A 
ATOM     66  F   UNL     1       7.868   7.051  -2.770  1.00  0.00    -0.206 F 
ATOM     67  C   UNL     1       7.991   8.808  -1.232  1.00  0.00     0.040 A 
ATOM     68  C   UNL     1       6.255   9.180   0.348  1.00  0.00     0.040 A 
ATOM     69  F   UNL     1       4.261   8.020   0.169  1.00  0.00    -0.206 F 
ATOM     70  C   UNL     1       7.501   9.520  -0.144  1.00  0.00     0.006 A 
ENDBRANCH  49  63
BRANCH  50  71
ATOM     71  C   UNL     1       0.151  -0.448  -3.839  1.00  0.00     0.057 A 
ATOM     72  C   UNL     1       0.170  -1.801  -3.427  1.00  0.00     0.134 A 
ATOM     73  C   UNL     1      -1.039   0.251  -3.616  1.00  0.00     0.134 A 
ATOM     74  F   UNL     1       1.276  -2.544  -3.601  1.00  0.00    -0.206 F 
ATOM     75  C   UNL     1      -0.879  -2.384  -2.712  1.00  0.00     0.040 A 
ATOM     76  C   UNL     1      -2.115  -0.337  -2.930  1.00  0.00     0.040 A 
ATOM     77  F   UNL     1      -1.151   1.544  -3.946  1.00  0.00    -0.206 F 
ATOM     78  C   UNL     1      -2.022  -1.642  -2.444  1.00  0.00     0.006 A 
ENDBRANCH  50  71
BRANCH  62  79
ATOM     79  C   UNL     1       3.089   5.562  -6.592  1.00  0.00     0.057 A 
ATOM     80  C   UNL     1       3.060   5.304  -7.967  1.00  0.00     0.134 A 
ATOM     81  C   UNL     1       2.914   6.896  -6.194  1.00  0.00     0.134 A 
ATOM     82  F   UNL     1       3.255   4.061  -8.431  1.00  0.00    -0.206 F 
ATOM     83  C   UNL     1       2.814   6.311  -8.900  1.00  0.00     0.040 A 
ATOM     84  C   UNL     1       2.705   7.920  -7.119  1.00  0.00     0.040 A 
ATOM     85  F   UNL     1       2.938   7.245  -4.899  1.00  0.00    -0.206 F 
ATOM     86  C   UNL     1       2.640   7.625  -8.476  1.00  0.00     0.006 A 
ENDBRANCH  62  79
ENDBRANCH  36  37
ENDBRANCH  29  31
ENDBRANCH  28  29
ENDBRANCH  27  28
ENDBRANCH  26  27
ENDBRANCH  25  26
ENDBRANCH  24  25
ENDBRANCH   1  24
TORSDOF 20
