REMARK SMILES CC(C)N1C(=O)C[C@@H]([N@@H+]2CC[C@H](C(=O)OCCOCCOCCOC(=O)c3ccc(-c4c5nc(c(-c6c(F)cccc6F)c6ccc([nH]6)c(-c6c(F)cccc6F)c6nc(c(-c7c(F)cccc7F)c7ccc4[nH]7)C=C6)C=C5)cc3)[C@@H]2C)C1=O
REMARK SMILES IDX 19 1 18 2 17 3 16 4 15 5 13 6 14 7 12 8 9 9 10 10 81 11
REMARK SMILES IDX 11 13 82 14 8 15 4 16 5 17 83 18 6 19 7 20 84 21 2 22 1 23
REMARK SMILES IDX 3 24 20 25 21 26 22 27 23 28 24 29 25 30 26 31 27 32 28 33
REMARK SMILES IDX 80 34 29 35 79 36 30 37 31 38 32 39 73 40 33 41 78 42 72 43
REMARK SMILES IDX 74 44 34 45 77 46 71 47 70 48 35 50 61 51 44 52 60 53 45 54
REMARK SMILES IDX 48 55 59 56 75 57 46 58 47 59 58 61 76 62 49 63 36 64 37 65
REMARK SMILES IDX 42 66 38 67 39 68 41 69 43 70 40 71 62 72 63 73 68 74 64 75
REMARK SMILES IDX 65 76 67 77 69 78 66 79 50 80 51 81 56 82 52 83 53 84 55 85
REMARK SMILES IDX 57 86 54 87
REMARK H PARENT 9 12 74 49 48 60
REMARK Flexibility Score: inf
ROOT
ATOM      1  C   UNL     1      -5.949   2.869  -2.242  1.00  0.00     0.188 C 
ENDROOT
BRANCH   1   2
ATOM      2  O   UNL     1      -5.910   4.059  -3.006  1.00  0.00    -0.376 OA
BRANCH   2   3
ATOM      3  C   UNL     1      -6.722   4.149  -4.161  1.00  0.00     0.202 C 
BRANCH   3   4
ATOM      4  C   UNL     1      -6.395   3.226  -5.338  1.00  0.00     0.261 C 
BRANCH   4   5
ATOM      5  O   UNL     1      -6.407   1.813  -5.040  1.00  0.00    -0.463 OA
BRANCH   5   6
ATOM      6  C   UNL     1      -5.183   1.215  -4.984  1.00  0.00     0.315 C 
ATOM      7  O   UNL     1      -4.128   1.834  -5.032  1.00  0.00    -0.252 OA
BRANCH   6   8
ATOM      8  C   UNL     1      -5.286  -0.309  -4.978  1.00  0.00     0.162 C 
ATOM      9  N   UNL     1      -3.652  -1.230  -3.478  1.00  0.00    -0.321 N 
ATOM     10  C   UNL     1      -2.971  -0.939  -4.741  1.00  0.00     0.264 C 
ATOM     11  C   UNL     1      -5.096  -1.112  -3.684  1.00  0.00     0.196 C 
ATOM     12  H   UNL     1      -3.485  -2.204  -3.226  1.00  0.00     0.349 HD
ATOM     13  C   UNL     1      -4.092  -0.850  -5.780  1.00  0.00     0.083 C 
ATOM     14  C   UNL     1      -5.948  -0.848  -2.460  1.00  0.00     0.076 C 
BRANCH   9  15
ATOM     15  C   UNL     1      -3.044  -0.725  -2.241  1.00  0.00     0.284 C 
ATOM     16  N   UNL     1      -0.729  -0.476  -1.957  1.00  0.00    -0.275 N 
ATOM     17  C   UNL     1      -1.205   0.790  -2.138  1.00  0.00     0.236 C 
ATOM     18  C   UNL     1      -1.717  -1.419  -2.000  1.00  0.00     0.288 C 
ATOM     19  O   UNL     1      -0.548   1.816  -2.246  1.00  0.00    -0.274 OA
ATOM     20  C   UNL     1      -2.699   0.757  -2.161  1.00  0.00     0.176 C 
ATOM     21  O   UNL     1      -1.579  -2.630  -1.885  1.00  0.00    -0.267 OA
BRANCH  16  22
ATOM     22  C   UNL     1       0.686  -0.792  -1.827  1.00  0.00     0.087 C 
ATOM     23  C   UNL     1       0.957  -1.666  -0.603  1.00  0.00     0.031 C 
ATOM     24  C   UNL     1       1.219  -1.440  -3.101  1.00  0.00     0.031 C 
ENDBRANCH  16  22
ENDBRANCH   9  15
ENDBRANCH   6   8
ENDBRANCH   5   6
ENDBRANCH   4   5
ENDBRANCH   3   4
ENDBRANCH   2   3
ENDBRANCH   1   2
BRANCH   1  25
ATOM     25  C   UNL     1      -7.257   2.062  -2.112  1.00  0.00     0.188 C 
BRANCH  25  26
ATOM     26  O   UNL     1      -8.510   2.704  -2.022  1.00  0.00    -0.376 OA
BRANCH  26  27
ATOM     27  C   UNL     1      -8.651   3.781  -1.117  1.00  0.00     0.202 C 
BRANCH  27  28
ATOM     28  C   UNL     1      -8.330   3.533   0.363  1.00  0.00     0.261 C 
BRANCH  28  29
ATOM     29  O   UNL     1      -6.947   3.226   0.646  1.00  0.00    -0.460 OA
BRANCH  29  30
ATOM     30  C   UNL     1      -6.697   1.993   1.150  1.00  0.00     0.338 C 
ATOM     31  O   UNL     1      -7.520   1.098   1.317  1.00  0.00    -0.246 OA
BRANCH  30  32
ATOM     32  C   UNL     1      -5.248   1.776   1.396  1.00  0.00     0.060 A 
ATOM     33  C   UNL     1      -4.721   0.498   1.165  1.00  0.00     0.016 A 
ATOM     34  C   UNL     1      -4.427   2.769   1.940  1.00  0.00     0.016 A 
ATOM     35  C   UNL     1      -3.393   0.206   1.503  1.00  0.00     0.010 A 
ATOM     36  C   UNL     1      -3.102   2.467   2.304  1.00  0.00     0.010 A 
ATOM     37  C   UNL     1      -2.580   1.177   2.111  1.00  0.00    -0.014 A 
BRANCH  37  38
ATOM     38  C   UNL     1      -1.275   0.758   2.704  1.00  0.00     0.031 A 
ATOM     39  C   UNL     1      -1.298  -0.035   3.984  1.00  0.00     0.074 A 
ATOM     40  C   UNL     1      -0.092   1.032   2.119  1.00  0.00     0.049 A 
ATOM     41  N   UNL     1      -0.322  -0.647   4.603  1.00  0.00    -0.248 NA
ATOM     42  C   UNL     1      -2.598  -0.126   4.670  1.00  0.00     0.031 C 
ATOM     43  C   UNL     1       0.079   1.826   0.911  1.00  0.00     0.029 A 
ATOM     44  N   UNL     1       1.188   0.615   2.425  1.00  0.00    -0.354 N 
ATOM     45  C   UNL     1      -0.873  -1.141   5.779  1.00  0.00     0.074 A 
ATOM     46  C   UNL     1      -2.281  -0.809   5.759  1.00  0.00     0.031 C 
ATOM     47  C   UNL     1       1.360   1.741   0.508  1.00  0.00     0.029 A 
ATOM     48  C   UNL     1       2.109   0.894   1.433  1.00  0.00     0.049 A 
ATOM     49  H   UNL     1       1.422   0.163   3.268  1.00  0.00     0.167 HD
ATOM     50  C   UNL     1      -0.251  -1.760   6.809  1.00  0.00     0.037 A 
ATOM     51  C   UNL     1       3.374   0.446   1.262  1.00  0.00     0.037 A 
ATOM     52  C   UNL     1       1.153  -2.073   6.841  1.00  0.00     0.049 A 
ATOM     53  C   UNL     1       4.002  -0.394   2.353  1.00  0.00     0.074 A 
ATOM     54  C   UNL     1       1.885  -2.651   7.864  1.00  0.00     0.029 A 
ATOM     55  N   UNL     1       2.039  -1.830   5.804  1.00  0.00    -0.354 N 
ATOM     56  N   UNL     1       3.459  -0.895   3.437  1.00  0.00    -0.248 NA
ATOM     57  C   UNL     1       5.433  -0.710   2.204  1.00  0.00     0.031 C 
ATOM     58  C   UNL     1       3.224  -2.706   7.468  1.00  0.00     0.029 A 
ATOM     59  C   UNL     1       3.313  -2.229   6.171  1.00  0.00     0.049 A 
ATOM     60  H   UNL     1       1.798  -1.432   4.936  1.00  0.00     0.167 HD
ATOM     61  C   UNL     1       4.482  -1.570   4.096  1.00  0.00     0.074 A 
ATOM     62  C   UNL     1       5.651  -1.492   3.250  1.00  0.00     0.031 C 
ATOM     63  C   UNL     1       4.469  -2.159   5.318  1.00  0.00     0.037 A 
BRANCH  50  64
ATOM     64  C   UNL     1      -1.062  -2.040   8.038  1.00  0.00     0.057 A 
ATOM     65  C   UNL     1      -2.012  -3.064   8.100  1.00  0.00     0.134 A 
ATOM     66  C   UNL     1      -0.854  -1.277   9.196  1.00  0.00     0.134 A 
ATOM     67  F   UNL     1      -2.276  -3.813   7.019  1.00  0.00    -0.206 F 
ATOM     68  C   UNL     1      -2.735  -3.314   9.268  1.00  0.00     0.040 A 
ATOM     69  C   UNL     1      -1.550  -1.534  10.376  1.00  0.00     0.040 A 
ATOM     70  F   UNL     1       0.041  -0.277   9.201  1.00  0.00    -0.206 F 
ATOM     71  C   UNL     1      -2.497  -2.554  10.413  1.00  0.00     0.006 A 
ENDBRANCH  50  64
BRANCH  51  72
ATOM     72  C   UNL     1       4.135   0.670  -0.009  1.00  0.00     0.057 A 
ATOM     73  C   UNL     1       4.606  -0.424  -0.760  1.00  0.00     0.134 A 
ATOM     74  C   UNL     1       4.480   1.941  -0.479  1.00  0.00     0.134 A 
ATOM     75  F   UNL     1       4.351  -1.679  -0.361  1.00  0.00    -0.206 F 
ATOM     76  C   UNL     1       5.404  -0.267  -1.895  1.00  0.00     0.040 A 
ATOM     77  C   UNL     1       5.248   2.115  -1.637  1.00  0.00     0.040 A 
ATOM     78  F   UNL     1       4.092   3.039   0.184  1.00  0.00    -0.206 F 
ATOM     79  C   UNL     1       5.724   1.009  -2.340  1.00  0.00     0.006 A 
ENDBRANCH  51  72
BRANCH  63  80
ATOM     80  C   UNL     1       5.756  -2.750   5.824  1.00  0.00     0.057 A 
ATOM     81  C   UNL     1       6.859  -1.946   6.148  1.00  0.00     0.134 A 
ATOM     82  C   UNL     1       5.879  -4.127   6.044  1.00  0.00     0.134 A 
ATOM     83  F   UNL     1       6.812  -0.618   5.965  1.00  0.00    -0.206 F 
ATOM     84  C   UNL     1       8.047  -2.495   6.636  1.00  0.00     0.040 A 
ATOM     85  C   UNL     1       7.049  -4.684   6.564  1.00  0.00     0.040 A 
ATOM     86  F   UNL     1       4.858  -4.955   5.775  1.00  0.00    -0.206 F 
ATOM     87  C   UNL     1       8.141  -3.867   6.852  1.00  0.00     0.006 A 
ENDBRANCH  63  80
ENDBRANCH  37  38
ENDBRANCH  30  32
ENDBRANCH  29  30
ENDBRANCH  28  29
ENDBRANCH  27  28
ENDBRANCH  26  27
ENDBRANCH  25  26
ENDBRANCH   1  25
TORSDOF 19
