REMARK SMILES NS(=O)(=O)c1ccc(-n2nc(C(F)(F)F)cc2-c2ccc(C(=O)OCCOCCOCCOC(=O)c3ccc(-c4c5nc(c(-c6c(F)cccc6F)c6ccc([nH]6)c(-c6c(F)cccc6F)c6nc(c(-c7c(F)cccc7F)c7ccc4[nH]7)C=C6)C=C5)cc3)cc2)cc1
REMARK SMILES IDX 28 1 27 2 26 3 25 4 24 5 22 6 23 7 21 8 18 9 19 10 91 11
REMARK SMILES IDX 20 12 90 13 17 14 9 15 10 16 11 17 16 18 8 19 5 20 6 21
REMARK SMILES IDX 93 22 7 23 92 24 2 25 3 26 4 27 1 28 12 31 13 32 14 33 15 34
REMARK SMILES IDX 29 35 30 36 31 37 32 38 33 39 34 40 35 41 36 42 37 43 89 44
REMARK SMILES IDX 38 45 88 46 39 47 40 48 41 49 82 50 42 51 87 52 81 53 83 54
REMARK SMILES IDX 43 55 86 56 80 57 79 58 44 60 70 61 53 62 69 63 54 64 57 65
REMARK SMILES IDX 68 66 84 67 55 68 56 69 67 71 85 72 58 73 45 74 46 75 51 76
REMARK SMILES IDX 47 77 48 78 50 79 52 80 49 81 71 82 72 83 77 84 73 85 74 86
REMARK SMILES IDX 76 87 78 88 75 89 59 90 60 91 65 92 61 93 62 94 64 95 66 96
REMARK SMILES IDX 63 97
REMARK H PARENT 1 29 1 30 83 59 57 70
REMARK Flexibility Score: inf
ROOT
ATOM      1  C   UNL     1       6.695  -2.228   1.676  1.00  0.00     0.188 C 
ENDROOT
BRANCH   1   2
ATOM      2  O   UNL     1       7.616  -3.138   1.126  1.00  0.00    -0.376 OA
BRANCH   2   3
ATOM      3  C   UNL     1       8.761  -3.523   1.870  1.00  0.00     0.202 C 
BRANCH   3   4
ATOM      4  C   UNL     1       8.843  -3.548   3.414  1.00  0.00     0.261 C 
BRANCH   4   5
ATOM      5  O   UNL     1       7.751  -3.000   4.157  1.00  0.00    -0.460 OA
BRANCH   5   6
ATOM      6  C   UNL     1       7.928  -1.746   4.638  1.00  0.00     0.338 C 
ATOM      7  O   UNL     1       8.915  -1.046   4.494  1.00  0.00    -0.246 OA
BRANCH   6   8
ATOM      8  C   UNL     1       6.654  -1.244   5.205  1.00  0.00     0.060 A 
ATOM      9  C   UNL     1       4.324  -0.141   6.315  1.00  0.00     0.000 A 
ATOM     10  C   UNL     1       5.100   0.601   5.413  1.00  0.00     0.011 A 
ATOM     11  C   UNL     1       4.692  -1.462   6.606  1.00  0.00     0.011 A 
ATOM     12  C   UNL     1       6.265   0.057   4.870  1.00  0.00     0.016 A 
ATOM     13  C   UNL     1       5.848  -2.021   6.043  1.00  0.00     0.016 A 
BRANCH   9  14
ATOM     14  C   UNL     1       3.264   0.526   7.074  1.00  0.00     0.075 A 
ATOM     15  N   UNL     1       2.238   1.309   6.559  1.00  0.00    -0.233 N 
ATOM     16  N   UNL     1       1.708   2.131   7.502  1.00  0.00    -0.163 NA
ATOM     17  C   UNL     1       2.242   1.720   8.667  1.00  0.00     0.167 A 
ATOM     18  C   UNL     1       3.225   0.727   8.441  1.00  0.00     0.064 A 
BRANCH  15  19
ATOM     19  C   UNL     1       1.718   1.330   5.240  1.00  0.00     0.065 A 
ATOM     20  C   UNL     1       0.726   1.403   2.641  1.00  0.00     0.082 A 
ATOM     21  C   UNL     1       1.080   0.176   3.209  1.00  0.00     0.024 A 
ATOM     22  C   UNL     1       0.839   2.590   3.373  1.00  0.00     0.024 A 
ATOM     23  C   UNL     1       1.599   0.141   4.506  1.00  0.00     0.030 A 
ATOM     24  C   UNL     1       1.304   2.550   4.688  1.00  0.00     0.030 A 
BRANCH  20  25
ATOM     25  S   UNL     1       0.231   1.524   0.949  1.00  0.00     0.238 S 
ATOM     26  O   UNL     1       1.046   2.532   0.314  1.00  0.00    -0.207 OA
ATOM     27  O   UNL     1      -1.212   1.522   0.889  1.00  0.00    -0.207 OA
BRANCH  25  28
ATOM     28  N   UNL     1       0.733   0.076   0.262  1.00  0.00    -0.225 NA
ATOM     29  H   UNL     1       0.482   0.063  -0.727  1.00  0.00     0.137 HD
ATOM     30  H   UNL     1       0.276  -0.703   0.738  1.00  0.00     0.137 HD
ENDBRANCH  25  28
ENDBRANCH  20  25
ENDBRANCH  15  19
BRANCH  17  31
ATOM     31  C   UNL     1       1.857   2.299  10.001  1.00  0.00     0.435 C 
ATOM     32  F   UNL     1       1.780   3.655   9.993  1.00  0.00    -0.164 F 
ATOM     33  F   UNL     1       0.656   1.830  10.432  1.00  0.00    -0.164 F 
ATOM     34  F   UNL     1       2.762   1.972  10.967  1.00  0.00    -0.164 F 
ENDBRANCH  17  31
ENDBRANCH   9  14
ENDBRANCH   6   8
ENDBRANCH   5   6
ENDBRANCH   4   5
ENDBRANCH   3   4
ENDBRANCH   2   3
ENDBRANCH   1   2
BRANCH   1  35
ATOM     35  C   UNL     1       5.450  -2.881   2.314  1.00  0.00     0.188 C 
BRANCH  35  36
ATOM     36  O   UNL     1       5.439  -4.231   2.759  1.00  0.00    -0.376 OA
BRANCH  36  37
ATOM     37  C   UNL     1       5.913  -5.313   1.968  1.00  0.00     0.202 C 
BRANCH  37  38
ATOM     38  C   UNL     1       5.523  -5.508   0.504  1.00  0.00     0.261 C 
BRANCH  38  39
ATOM     39  O   UNL     1       5.572  -4.334  -0.281  1.00  0.00    -0.460 OA
BRANCH  39  40
ATOM     40  C   UNL     1       4.372  -3.741  -0.397  1.00  0.00     0.338 C 
ATOM     41  O   UNL     1       3.333  -4.034   0.174  1.00  0.00    -0.246 OA
BRANCH  40  42
ATOM     42  C   UNL     1       4.445  -2.688  -1.404  1.00  0.00     0.060 A 
ATOM     43  C   UNL     1       3.369  -1.799  -1.414  1.00  0.00     0.016 A 
ATOM     44  C   UNL     1       5.309  -2.852  -2.492  1.00  0.00     0.016 A 
ATOM     45  C   UNL     1       2.981  -1.281  -2.621  1.00  0.00     0.010 A 
ATOM     46  C   UNL     1       4.917  -2.336  -3.700  1.00  0.00     0.010 A 
ATOM     47  C   UNL     1       3.699  -1.660  -3.759  1.00  0.00    -0.014 A 
BRANCH  47  48
ATOM     48  C   UNL     1       3.124  -1.325  -5.039  1.00  0.00     0.031 A 
ATOM     49  C   UNL     1       3.195   0.117  -5.350  1.00  0.00     0.074 A 
ATOM     50  C   UNL     1       2.670  -2.282  -5.869  1.00  0.00     0.049 A 
ATOM     51  N   UNL     1       2.219   0.933  -5.561  1.00  0.00    -0.248 NA
ATOM     52  C   UNL     1       4.516   0.761  -5.247  1.00  0.00     0.031 C 
ATOM     53  C   UNL     1       2.799  -3.737  -5.738  1.00  0.00     0.029 A 
ATOM     54  N   UNL     1       2.099  -2.139  -7.092  1.00  0.00    -0.354 N 
ATOM     55  C   UNL     1       2.820   2.157  -5.829  1.00  0.00     0.074 A 
ATOM     56  C   UNL     1       4.202   2.039  -5.445  1.00  0.00     0.031 C 
ATOM     57  C   UNL     1       2.560  -4.311  -6.939  1.00  0.00     0.029 A 
ATOM     58  C   UNL     1       2.152  -3.281  -7.877  1.00  0.00     0.049 A 
ATOM     59  H   UNL     1       1.685  -1.299  -7.395  1.00  0.00     0.167 HD
ATOM     60  C   UNL     1       2.205   3.093  -6.596  1.00  0.00     0.037 A 
ATOM     61  C   UNL     1       1.994  -3.312  -9.224  1.00  0.00     0.037 A 
ATOM     62  C   UNL     1       0.782   2.893  -6.649  1.00  0.00     0.049 A 
ATOM     63  C   UNL     1       1.310  -2.048  -9.618  1.00  0.00     0.074 A 
ATOM     64  C   UNL     1      -0.211   2.826  -5.690  1.00  0.00     0.029 A 
ATOM     65  N   UNL     1       0.242   2.333  -7.782  1.00  0.00    -0.354 N 
ATOM     66  N   UNL     1       0.072  -1.767  -9.310  1.00  0.00    -0.248 NA
ATOM     67  C   UNL     1       2.151  -0.896  -9.922  1.00  0.00     0.031 C 
ATOM     68  C   UNL     1      -1.083   1.791  -6.135  1.00  0.00     0.029 A 
ATOM     69  C   UNL     1      -0.608   1.337  -7.365  1.00  0.00     0.049 A 
ATOM     70  H   UNL     1       0.428   2.594  -8.712  1.00  0.00     0.167 HD
ATOM     71  C   UNL     1       0.085  -0.420  -8.972  1.00  0.00     0.074 A 
ATOM     72  C   UNL     1       1.379   0.079  -9.433  1.00  0.00     0.031 C 
ATOM     73  C   UNL     1      -0.816   0.106  -8.090  1.00  0.00     0.037 A 
BRANCH  60  74
ATOM     74  C   UNL     1       2.957   3.949  -7.574  1.00  0.00     0.057 A 
ATOM     75  C   UNL     1       2.331   5.062  -8.152  1.00  0.00     0.134 A 
ATOM     76  C   UNL     1       4.180   3.565  -8.168  1.00  0.00     0.134 A 
ATOM     77  F   UNL     1       1.143   5.491  -7.701  1.00  0.00    -0.206 F 
ATOM     78  C   UNL     1       2.867   5.723  -9.262  1.00  0.00     0.040 A 
ATOM     79  C   UNL     1       4.752   4.253  -9.238  1.00  0.00     0.040 A 
ATOM     80  F   UNL     1       4.830   2.449  -7.813  1.00  0.00    -0.206 F 
ATOM     81  C   UNL     1       4.082   5.321  -9.807  1.00  0.00     0.006 A 
ENDBRANCH  60  74
BRANCH  61  82
ATOM     82  C   UNL     1       2.724  -4.167 -10.192  1.00  0.00     0.057 A 
ATOM     83  C   UNL     1       2.295  -4.289 -11.520  1.00  0.00     0.134 A 
ATOM     84  C   UNL     1       4.001  -4.690  -9.911  1.00  0.00     0.134 A 
ATOM     85  F   UNL     1       1.116  -3.778 -11.903  1.00  0.00    -0.206 F 
ATOM     86  C   UNL     1       3.088  -4.888 -12.510  1.00  0.00     0.040 A 
ATOM     87  C   UNL     1       4.798  -5.300 -10.885  1.00  0.00     0.040 A 
ATOM     88  F   UNL     1       4.561  -4.553  -8.701  1.00  0.00    -0.206 F 
ATOM     89  C   UNL     1       4.347  -5.391 -12.194  1.00  0.00     0.006 A 
ENDBRANCH  61  82
BRANCH  73  90
ATOM     90  C   UNL     1      -1.963  -0.756  -7.636  1.00  0.00     0.057 A 
ATOM     91  C   UNL     1      -1.808  -1.958  -6.928  1.00  0.00     0.134 A 
ATOM     92  C   UNL     1      -3.267  -0.264  -7.761  1.00  0.00     0.134 A 
ATOM     93  F   UNL     1      -0.593  -2.452  -6.659  1.00  0.00    -0.206 F 
ATOM     94  C   UNL     1      -2.901  -2.656  -6.406  1.00  0.00     0.040 A 
ATOM     95  C   UNL     1      -4.365  -0.933  -7.213  1.00  0.00     0.040 A 
ATOM     96  F   UNL     1      -3.491   0.910  -8.371  1.00  0.00    -0.206 F 
ATOM     97  C   UNL     1      -4.185  -2.139  -6.541  1.00  0.00     0.006 A 
ENDBRANCH  73  90
ENDBRANCH  47  48
ENDBRANCH  40  42
ENDBRANCH  39  40
ENDBRANCH  38  39
ENDBRANCH  37  38
ENDBRANCH  36  37
ENDBRANCH  35  36
ENDBRANCH   1  35
TORSDOF 22
