REMARK SMILES COC(=O)c1c(NC(=O)[C@@H]2[C@@H](C(=O)OCCOCCOCCOC(=O)c3ccc(-c4c5nc(c(-c6c(F)cccc6F)c6ccc([nH]6)c(-c6c(F)cccc6F)c6nc(c(-c7c(F)cccc7F)c7ccc4[nH]7)C=C6)C=C5)cc3)[C@H]3C=C[C@@H]2CC3)sc(C)c1C
REMARK SMILES IDX 18 1 17 2 16 3 15 4 14 5 12 6 13 7 11 8 10 9 83 10 80 11
REMARK SMILES IDX 82 12 84 13 81 14 85 15 8 16 7 17 9 19 6 20 5 21 89 22 86 23
REMARK SMILES IDX 87 24 90 25 88 26 3 27 4 28 2 29 1 30 19 31 20 32 21 33
REMARK SMILES IDX 22 34 23 35 24 36 25 37 26 38 27 39 79 40 28 41 78 42 29 43
REMARK SMILES IDX 30 44 31 45 72 46 32 47 77 48 71 49 73 50 33 51 76 52 70 53
REMARK SMILES IDX 69 54 34 56 60 57 43 58 59 59 44 60 47 61 58 62 74 63 45 64
REMARK SMILES IDX 46 65 57 67 75 68 48 69 35 70 36 71 41 72 37 73 38 74 40 75
REMARK SMILES IDX 42 76 39 77 61 78 62 79 67 80 63 81 64 82 66 83 68 84 65 85
REMARK SMILES IDX 49 86 50 87 55 88 51 89 52 90 54 91 56 92 53 93
REMARK H PARENT 7 18 73 55 47 66
REMARK Flexibility Score: inf
ROOT
ATOM      1  C   UNL     1       1.249  -2.991  -3.044  1.00  0.00     0.188 C 
ENDROOT
BRANCH   1   2
ATOM      2  O   UNL     1       2.024  -1.948  -3.623  1.00  0.00    -0.376 OA
BRANCH   2   3
ATOM      3  C   UNL     1       2.792  -1.116  -2.763  1.00  0.00     0.202 C 
BRANCH   3   4
ATOM      4  C   UNL     1       2.008  -0.272  -1.759  1.00  0.00     0.261 C 
BRANCH   4   5
ATOM      5  O   UNL     1       1.529  -0.981  -0.587  1.00  0.00    -0.463 OA
BRANCH   5   6
ATOM      6  C   UNL     1       0.192  -0.937  -0.348  1.00  0.00     0.310 C 
ATOM      7  O   UNL     1      -0.601  -0.340  -1.071  1.00  0.00    -0.252 OA
BRANCH   6   8
ATOM      8  C   UNL     1      -0.267  -1.591   0.957  1.00  0.00     0.119 C 
ATOM      9  C   UNL     1      -0.182  -0.528   2.094  1.00  0.00     0.100 C 
ATOM     10  C   UNL     1       0.254  -1.229   3.416  1.00  0.00     0.025 C 
ATOM     11  C   UNL     1       0.409  -2.905   1.444  1.00  0.00     0.026 C 
ATOM     12  C   UNL     1       1.653  -1.753   3.152  1.00  0.00    -0.027 C 
ATOM     13  C   UNL     1      -0.652  -2.449   3.695  1.00  0.00     0.009 C 
ATOM     14  C   UNL     1       1.737  -2.600   2.113  1.00  0.00    -0.027 C 
ATOM     15  C   UNL     1      -0.497  -3.486   2.564  1.00  0.00     0.009 C 
BRANCH   9  16
ATOM     16  C   UNL     1      -1.468   0.278   2.248  1.00  0.00     0.229 C 
ATOM     17  N   UNL     1      -1.513   1.404   3.027  1.00  0.00    -0.317 N 
ATOM     18  H   UNL     1      -2.369   1.890   3.038  1.00  0.00     0.170 HD
ATOM     19  O   UNL     1      -2.527  -0.105   1.743  1.00  0.00    -0.274 OA
BRANCH  17  20
ATOM     20  C   UNL     1      -0.506   1.938   3.795  1.00  0.00     0.110 A 
ATOM     21  C   UNL     1       0.858   2.117   3.667  1.00  0.00     0.098 A 
ATOM     22  C   UNL     1       1.459   2.149   4.989  1.00  0.00    -0.021 A 
ATOM     23  S   UNL     1      -1.074   2.471   5.304  1.00  0.00    -0.122 S 
ATOM     24  C   UNL     1       0.502   2.405   5.962  1.00  0.00     0.007 A 
ATOM     25  C   UNL     1       2.917   1.934   5.260  1.00  0.00     0.046 C 
ATOM     26  C   UNL     1       0.691   2.601   7.429  1.00  0.00     0.057 C 
BRANCH  21  27
ATOM     27  C   UNL     1       1.584   2.184   2.401  1.00  0.00     0.341 C 
ATOM     28  O   UNL     1       2.762   1.878   2.275  1.00  0.00    -0.246 OA
BRANCH  27  29
ATOM     29  O   UNL     1       0.797   2.650   1.385  1.00  0.00    -0.465 OA
ATOM     30  C   UNL     1       1.439   2.697   0.114  1.00  0.00     0.282 C 
ENDBRANCH  27  29
ENDBRANCH  21  27
ENDBRANCH  17  20
ENDBRANCH   9  16
ENDBRANCH   6   8
ENDBRANCH   5   6
ENDBRANCH   4   5
ENDBRANCH   3   4
ENDBRANCH   2   3
ENDBRANCH   1   2
BRANCH   1  31
ATOM     31  C   UNL     1       1.823  -3.695  -1.812  1.00  0.00     0.188 C 
BRANCH  31  32
ATOM     32  O   UNL     1       3.236  -3.789  -1.827  1.00  0.00    -0.376 OA
BRANCH  32  33
ATOM     33  C   UNL     1       3.773  -5.096  -1.722  1.00  0.00     0.202 C 
BRANCH  33  34
ATOM     34  C   UNL     1       3.639  -5.858  -3.041  1.00  0.00     0.261 C 
BRANCH  34  35
ATOM     35  O   UNL     1       2.279  -6.130  -3.425  1.00  0.00    -0.460 OA
BRANCH  35  36
ATOM     36  C   UNL     1       1.542  -6.894  -2.584  1.00  0.00     0.338 C 
ATOM     37  O   UNL     1       1.925  -7.468  -1.583  1.00  0.00    -0.246 OA
BRANCH  36  38
ATOM     38  C   UNL     1       0.119  -6.710  -2.954  1.00  0.00     0.060 A 
ATOM     39  C   UNL     1      -0.812  -6.423  -1.946  1.00  0.00     0.016 A 
ATOM     40  C   UNL     1      -0.283  -6.779  -4.290  1.00  0.00     0.016 A 
ATOM     41  C   UNL     1      -2.158  -6.238  -2.271  1.00  0.00     0.010 A 
ATOM     42  C   UNL     1      -1.630  -6.615  -4.611  1.00  0.00     0.010 A 
ATOM     43  C   UNL     1      -2.577  -6.377  -3.601  1.00  0.00    -0.014 A 
BRANCH  43  44
ATOM     44  C   UNL     1      -4.016  -6.520  -3.922  1.00  0.00     0.031 A 
ATOM     45  C   UNL     1      -4.587  -7.911  -3.956  1.00  0.00     0.074 A 
ATOM     46  C   UNL     1      -4.791  -5.462  -4.212  1.00  0.00     0.049 A 
ATOM     47  N   UNL     1      -5.777  -8.314  -4.316  1.00  0.00    -0.248 NA
ATOM     48  C   UNL     1      -3.684  -8.995  -3.532  1.00  0.00     0.031 C 
ATOM     49  C   UNL     1      -4.371  -4.064  -4.179  1.00  0.00     0.029 A 
ATOM     50  N   UNL     1      -6.104  -5.413  -4.614  1.00  0.00    -0.354 N 
ATOM     51  C   UNL     1      -5.764  -9.694  -4.165  1.00  0.00     0.074 A 
ATOM     52  C   UNL     1      -4.445 -10.064  -3.705  1.00  0.00     0.031 C 
ATOM     53  C   UNL     1      -5.403  -3.292  -4.566  1.00  0.00     0.029 A 
ATOM     54  C   UNL     1      -6.543  -4.145  -4.904  1.00  0.00     0.049 A 
ATOM     55  H   UNL     1      -6.675  -6.211  -4.686  1.00  0.00     0.167 HD
ATOM     56  C   UNL     1      -6.764 -10.578  -4.388  1.00  0.00     0.037 A 
ATOM     57  C   UNL     1      -7.721  -3.730  -5.410  1.00  0.00     0.037 A 
ATOM     58  C   UNL     1      -8.072 -10.219  -4.860  1.00  0.00     0.049 A 
ATOM     59  C   UNL     1      -8.793  -4.741  -5.727  1.00  0.00     0.074 A 
ATOM     60  C   UNL     1      -9.154 -11.043  -5.112  1.00  0.00     0.029 A 
ATOM     61  N   UNL     1      -8.470  -8.926  -5.161  1.00  0.00    -0.354 N 
ATOM     62  N   UNL     1      -8.781  -6.042  -5.563  1.00  0.00    -0.248 NA
ATOM     63  C   UNL     1     -10.043  -4.224  -6.306  1.00  0.00     0.031 C 
ATOM     64  C   UNL     1     -10.197 -10.252  -5.604  1.00  0.00     0.029 A 
ATOM     65  C   UNL     1      -9.776  -8.931  -5.618  1.00  0.00     0.049 A 
ATOM     66  H   UNL     1      -7.907  -8.124  -5.065  1.00  0.00     0.167 HD
ATOM     67  C   UNL     1     -10.024  -6.493  -5.990  1.00  0.00     0.074 A 
ATOM     68  C   UNL     1     -10.770  -5.328  -6.415  1.00  0.00     0.031 C 
ATOM     69  C   UNL     1     -10.507  -7.760  -6.024  1.00  0.00     0.037 A 
BRANCH  56  70
ATOM     70  C   UNL     1      -6.459 -12.024  -4.148  1.00  0.00     0.057 A 
ATOM     71  C   UNL     1      -6.338 -12.546  -2.854  1.00  0.00     0.134 A 
ATOM     72  C   UNL     1      -6.290 -12.905  -5.222  1.00  0.00     0.134 A 
ATOM     73  F   UNL     1      -6.465 -11.746  -1.784  1.00  0.00    -0.206 F 
ATOM     74  C   UNL     1      -6.039 -13.891  -2.637  1.00  0.00     0.040 A 
ATOM     75  C   UNL     1      -6.013 -14.257  -5.018  1.00  0.00     0.040 A 
ATOM     76  F   UNL     1      -6.389 -12.466  -6.486  1.00  0.00    -0.206 F 
ATOM     77  C   UNL     1      -5.882 -14.752  -3.721  1.00  0.00     0.006 A 
ENDBRANCH  56  70
BRANCH  57  78
ATOM     78  C   UNL     1      -7.953  -2.288  -5.678  1.00  0.00     0.057 A 
ATOM     79  C   UNL     1      -8.858  -1.546  -4.911  1.00  0.00     0.134 A 
ATOM     80  C   UNL     1      -7.306  -1.629  -6.730  1.00  0.00     0.134 A 
ATOM     81  F   UNL     1      -9.533  -2.130  -3.910  1.00  0.00    -0.206 F 
ATOM     82  C   UNL     1      -9.125  -0.204  -5.191  1.00  0.00     0.040 A 
ATOM     83  C   UNL     1      -7.546  -0.282  -7.007  1.00  0.00     0.040 A 
ATOM     84  F   UNL     1      -6.433  -2.288  -7.507  1.00  0.00    -0.206 F 
ATOM     85  C   UNL     1      -8.464   0.432  -6.239  1.00  0.00     0.006 A 
ENDBRANCH  57  78
BRANCH  69  86
ATOM     86  C   UNL     1     -11.916  -7.952  -6.500  1.00  0.00     0.057 A 
ATOM     87  C   UNL     1     -12.257  -7.865  -7.856  1.00  0.00     0.134 A 
ATOM     88  C   UNL     1     -12.932  -8.292  -5.597  1.00  0.00     0.134 A 
ATOM     89  F   UNL     1     -11.331  -7.534  -8.769  1.00  0.00    -0.206 F 
ATOM     90  C   UNL     1     -13.562  -8.094  -8.294  1.00  0.00     0.040 A 
ATOM     91  C   UNL     1     -14.235  -8.545  -6.026  1.00  0.00     0.040 A 
ATOM     92  F   UNL     1     -12.668  -8.402  -4.286  1.00  0.00    -0.206 F 
ATOM     93  C   UNL     1     -14.553  -8.444  -7.379  1.00  0.00     0.006 A 
ENDBRANCH  69  86
ENDBRANCH  43  44
ENDBRANCH  36  38
ENDBRANCH  35  36
ENDBRANCH  34  35
ENDBRANCH  33  34
ENDBRANCH  32  33
ENDBRANCH  31  32
ENDBRANCH   1  31
TORSDOF 21
