REMARK SMILES N#C[C@H]1CN(c2cc(C(=O)OCCOCCOCCOC(=O)c3ccc(-c4c5nc(c(-c6c(F)cccc6F)c6ccc([nH]6)c(-c6c(F)cccc6F)c6nc(c(-c7c(F)cccc7F)c7ccc4[nH]7)C=C6)C=C5)cc3)c(N)cc2F)CCO1
REMARK SMILES IDX 15 1 14 2 13 3 12 4 11 5 9 6 10 7 8 8 6 9 7 10 80 11 79 12
REMARK SMILES IDX 81 13 77 14 5 15 3 16 4 17 84 18 83 19 82 20 2 21 1 22 78 23
REMARK SMILES IDX 16 26 17 27 18 28 19 29 20 30 21 31 22 32 23 33 24 34 76 35
REMARK SMILES IDX 25 36 75 37 26 38 27 39 28 40 69 41 29 42 74 43 68 44 70 45
REMARK SMILES IDX 30 46 73 47 67 48 66 49 31 51 57 52 40 53 56 54 41 55 44 56
REMARK SMILES IDX 55 57 71 58 42 59 43 60 54 62 72 63 45 64 32 65 33 66 38 67
REMARK SMILES IDX 34 68 35 69 37 70 39 71 36 72 58 73 59 74 64 75 60 76 61 77
REMARK SMILES IDX 63 78 65 79 62 80 46 81 47 82 52 83 48 84 49 85 51 86 53 87
REMARK SMILES IDX 50 88
REMARK H PARENT 78 24 78 25 70 50 44 61
REMARK Flexibility Score: inf
ROOT
ATOM      1  C   UNL     1       3.962   6.215  -3.583  1.00  0.00     0.188 C 
ENDROOT
BRANCH   1   2
ATOM      2  O   UNL     1       4.568   7.313  -4.239  1.00  0.00    -0.376 OA
BRANCH   2   3
ATOM      3  C   UNL     1       4.315   7.561  -5.613  1.00  0.00     0.202 C 
BRANCH   3   4
ATOM      4  C   UNL     1       4.076   6.447  -6.652  1.00  0.00     0.261 C 
BRANCH   4   5
ATOM      5  O   UNL     1       3.330   5.304  -6.210  1.00  0.00    -0.460 OA
BRANCH   5   6
ATOM      6  C   UNL     1       4.037   4.153  -6.060  1.00  0.00     0.340 C 
ATOM      7  O   UNL     1       5.223   4.001  -6.303  1.00  0.00    -0.246 OA
BRANCH   6   8
ATOM      8  C   UNL     1       3.228   3.128  -5.344  1.00  0.00     0.085 A 
ATOM      9  C   UNL     1       3.270   1.369  -3.640  1.00  0.00     0.074 A 
ATOM     10  C   UNL     1       3.903   2.396  -4.343  1.00  0.00     0.047 A 
ATOM     11  C   UNL     1       1.944   1.081  -3.988  1.00  0.00     0.148 A 
ATOM     12  C   UNL     1       1.251   1.823  -4.945  1.00  0.00     0.067 A 
ATOM     13  F   UNL     1       1.306   0.068  -3.379  1.00  0.00    -0.205 F 
ATOM     14  C   UNL     1       1.862   2.900  -5.596  1.00  0.00     0.049 A 
BRANCH   9  15
ATOM     15  N   UNL     1       3.954   0.635  -2.699  1.00  0.00    -0.363 N 
ATOM     16  C   UNL     1       3.771   0.083  -0.287  1.00  0.00     0.240 C 
ATOM     17  C   UNL     1       4.221   1.127  -1.341  1.00  0.00     0.164 C 
ATOM     18  O   UNL     1       4.311  -1.225  -0.586  1.00  0.00    -0.360 OA
ATOM     19  C   UNL     1       3.850  -1.673  -1.872  1.00  0.00     0.183 C 
ATOM     20  C   UNL     1       4.339  -0.746  -2.991  1.00  0.00     0.145 C 
BRANCH  16  21
ATOM     21  C   UNL     1       4.181   0.511   1.059  1.00  0.00     0.096 C 
ATOM     22  N   UNL     1       4.457   0.890   2.125  1.00  0.00    -0.195 NA
ENDBRANCH  16  21
ENDBRANCH   9  15
BRANCH  14  23
ATOM     23  N   UNL     1       1.134   3.604  -6.553  1.00  0.00    -0.398 N 
ATOM     24  H   UNL     1       1.545   4.365  -7.023  1.00  0.00     0.156 HD
ATOM     25  H   UNL     1       0.208   3.341  -6.759  1.00  0.00     0.156 HD
ENDBRANCH  14  23
ENDBRANCH   6   8
ENDBRANCH   5   6
ENDBRANCH   4   5
ENDBRANCH   3   4
ENDBRANCH   2   3
ENDBRANCH   1   2
BRANCH   1  26
ATOM     26  C   UNL     1       2.425   6.090  -3.565  1.00  0.00     0.188 C 
BRANCH  26  27
ATOM     27  O   UNL     1       1.734   6.954  -4.434  1.00  0.00    -0.376 OA
BRANCH  27  28
ATOM     28  C   UNL     1       1.375   8.251  -3.986  1.00  0.00     0.202 C 
BRANCH  28  29
ATOM     29  C   UNL     1       1.866   8.939  -2.690  1.00  0.00     0.261 C 
BRANCH  29  30
ATOM     30  O   UNL     1       2.775   8.245  -1.826  1.00  0.00    -0.460 OA
BRANCH  30  31
ATOM     31  C   UNL     1       2.229   7.655  -0.734  1.00  0.00     0.338 C 
ATOM     32  O   UNL     1       1.050   7.618  -0.431  1.00  0.00    -0.246 OA
BRANCH  31  33
ATOM     33  C   UNL     1       3.265   6.858  -0.043  1.00  0.00     0.060 A 
ATOM     34  C   UNL     1       3.162   5.462  -0.078  1.00  0.00     0.016 A 
ATOM     35  C   UNL     1       4.293   7.472   0.674  1.00  0.00     0.016 A 
ATOM     36  C   UNL     1       4.076   4.678   0.624  1.00  0.00     0.010 A 
ATOM     37  C   UNL     1       5.202   6.680   1.389  1.00  0.00     0.010 A 
ATOM     38  C   UNL     1       5.086   5.278   1.386  1.00  0.00    -0.014 A 
BRANCH  38  39
ATOM     39  C   UNL     1       5.907   4.424   2.282  1.00  0.00     0.031 A 
ATOM     40  C   UNL     1       5.571   4.362   3.748  1.00  0.00     0.074 A 
ATOM     41  C   UNL     1       6.889   3.649   1.788  1.00  0.00     0.049 A 
ATOM     42  N   UNL     1       6.146   3.686   4.710  1.00  0.00    -0.248 NA
ATOM     43  C   UNL     1       4.435   5.187   4.187  1.00  0.00     0.031 C 
ATOM     44  C   UNL     1       7.279   3.570   0.381  1.00  0.00     0.029 A 
ATOM     45  N   UNL     1       7.729   2.766   2.420  1.00  0.00    -0.354 N 
ATOM     46  C   UNL     1       5.436   3.992   5.864  1.00  0.00     0.074 A 
ATOM     47  C   UNL     1       4.427   4.962   5.492  1.00  0.00     0.031 C 
ATOM     48  C   UNL     1       8.277   2.678   0.257  1.00  0.00     0.029 A 
ATOM     49  C   UNL     1       8.622   2.153   1.578  1.00  0.00     0.049 A 
ATOM     50  H   UNL     1       7.693   2.589   3.388  1.00  0.00     0.167 HD
ATOM     51  C   UNL     1       5.599   3.503   7.117  1.00  0.00     0.037 A 
ATOM     52  C   UNL     1       9.615   1.282   1.845  1.00  0.00     0.037 A 
ATOM     53  C   UNL     1       6.606   2.539   7.487  1.00  0.00     0.049 A 
ATOM     54  C   UNL     1       9.843   0.829   3.264  1.00  0.00     0.074 A 
ATOM     55  C   UNL     1       6.857   1.987   8.731  1.00  0.00     0.029 A 
ATOM     56  N   UNL     1       7.533   1.988   6.614  1.00  0.00    -0.354 N 
ATOM     57  N   UNL     1       9.175   1.128   4.352  1.00  0.00    -0.248 NA
ATOM     58  C   UNL     1      10.969  -0.089   3.490  1.00  0.00     0.031 C 
ATOM     59  C   UNL     1       7.982   1.162   8.627  1.00  0.00     0.029 A 
ATOM     60  C   UNL     1       8.386   1.137   7.302  1.00  0.00     0.049 A 
ATOM     61  H   UNL     1       7.578   2.173   5.648  1.00  0.00     0.167 HD
ATOM     62  C   UNL     1       9.774   0.412   5.381  1.00  0.00     0.074 A 
ATOM     63  C   UNL     1      10.849  -0.352   4.782  1.00  0.00     0.031 C 
ATOM     64  C   UNL     1       9.463   0.387   6.702  1.00  0.00     0.037 A 
BRANCH  51  65
ATOM     65  C   UNL     1       4.695   4.045   8.190  1.00  0.00     0.057 A 
ATOM     66  C   UNL     1       3.319   3.779   8.218  1.00  0.00     0.134 A 
ATOM     67  C   UNL     1       5.214   4.846   9.217  1.00  0.00     0.134 A 
ATOM     68  F   UNL     1       2.750   3.032   7.260  1.00  0.00    -0.206 F 
ATOM     69  C   UNL     1       2.488   4.321   9.202  1.00  0.00     0.040 A 
ATOM     70  C   UNL     1       4.399   5.364  10.226  1.00  0.00     0.040 A 
ATOM     71  F   UNL     1       6.522   5.138   9.260  1.00  0.00    -0.206 F 
ATOM     72  C   UNL     1       3.030   5.111  10.213  1.00  0.00     0.006 A 
ENDBRANCH  51  65
BRANCH  52  73
ATOM     73  C   UNL     1      10.488   0.790   0.747  1.00  0.00     0.057 A 
ATOM     74  C   UNL     1      10.487  -0.556   0.362  1.00  0.00     0.134 A 
ATOM     75  C   UNL     1      11.367   1.649   0.075  1.00  0.00     0.134 A 
ATOM     76  F   UNL     1       9.690  -1.437   0.985  1.00  0.00    -0.206 F 
ATOM     77  C   UNL     1      11.338  -1.033  -0.637  1.00  0.00     0.040 A 
ATOM     78  C   UNL     1      12.199   1.192  -0.948  1.00  0.00     0.040 A 
ATOM     79  F   UNL     1      11.422   2.950   0.397  1.00  0.00    -0.206 F 
ATOM     80  C   UNL     1      12.192  -0.155  -1.301  1.00  0.00     0.006 A 
ENDBRANCH  52  73
BRANCH  64  81
ATOM     81  C   UNL     1      10.280  -0.522   7.583  1.00  0.00     0.057 A 
ATOM     82  C   UNL     1      11.639  -0.292   7.839  1.00  0.00     0.134 A 
ATOM     83  C   UNL     1       9.698  -1.647   8.183  1.00  0.00     0.134 A 
ATOM     84  F   UNL     1      12.266   0.762   7.295  1.00  0.00    -0.206 F 
ATOM     85  C   UNL     1      12.398  -1.173   8.613  1.00  0.00     0.040 A 
ATOM     86  C   UNL     1      10.438  -2.514   8.990  1.00  0.00     0.040 A 
ATOM     87  F   UNL     1       8.398  -1.925   7.999  1.00  0.00    -0.206 F 
ATOM     88  C   UNL     1      11.796  -2.287   9.194  1.00  0.00     0.006 A 
ENDBRANCH  64  81
ENDBRANCH  38  39
ENDBRANCH  31  33
ENDBRANCH  30  31
ENDBRANCH  29  30
ENDBRANCH  28  29
ENDBRANCH  27  28
ENDBRANCH  26  27
ENDBRANCH   1  26
TORSDOF 20
