REMARK SMILES O=C(OCCOCCOCCOC(=O)[C@H]1CS[C@]2(c3ccccc3)CCC(=O)N12)c1ccc(-c2c3nc(c(-c4c(F)cccc4F)c4ccc([nH]4)c(-c4c(F)cccc4F)c4nc(c(-c5c(F)cccc5F)c5ccc2[nH]5)C=C4)C=C3)cc1
REMARK SMILES IDX 7 1 6 2 5 3 4 4 3 5 2 6 1 7 30 8 31 9 83 10 32 11 82 12
REMARK SMILES IDX 33 13 34 14 35 15 76 16 36 17 81 18 75 19 77 20 37 21 80 22
REMARK SMILES IDX 74 23 73 24 38 26 64 27 47 28 63 29 48 30 51 31 62 32 78 33
REMARK SMILES IDX 49 34 50 35 61 37 79 38 52 39 39 40 40 41 45 42 41 43 42 44
REMARK SMILES IDX 44 45 46 46 43 47 65 48 66 49 71 50 67 51 68 52 70 53 72 54
REMARK SMILES IDX 69 55 53 56 54 57 59 58 55 59 56 60 58 61 60 62 57 63 8 64
REMARK SMILES IDX 9 65 10 66 11 67 12 68 13 69 14 70 15 71 16 72 29 73 17 74
REMARK SMILES IDX 18 75 27 76 25 77 26 78 28 79 19 80 20 81 24 82 21 83 23 84
REMARK SMILES IDX 22 85
REMARK H PARENT 77 25 51 36
REMARK Flexibility Score: inf
ROOT
ATOM      1  C   UNL     1       2.627  -1.300   1.751  1.00  0.00     0.188 C 
ENDROOT
BRANCH   1   2
ATOM      2  O   UNL     1       3.892  -1.229   1.078  1.00  0.00    -0.376 OA
BRANCH   2   3
ATOM      3  C   UNL     1       4.755  -0.214   1.603  1.00  0.00     0.202 C 
BRANCH   3   4
ATOM      4  C   UNL     1       4.463   1.208   1.102  1.00  0.00     0.261 C 
BRANCH   4   5
ATOM      5  O   UNL     1       3.073   1.420   0.805  1.00  0.00    -0.460 OA
BRANCH   5   6
ATOM      6  C   UNL     1       2.458   1.369  -0.403  1.00  0.00     0.338 C 
ATOM      7  O   UNL     1       1.288   1.737  -0.483  1.00  0.00    -0.246 OA
BRANCH   6   8
ATOM      8  C   UNL     1       3.136   0.920  -1.661  1.00  0.00     0.060 A 
ATOM      9  C   UNL     1       4.256   0.091  -1.716  1.00  0.00     0.016 A 
ATOM     10  C   UNL     1       2.569   1.332  -2.880  1.00  0.00     0.016 A 
ATOM     11  C   UNL     1       4.877  -0.214  -2.921  1.00  0.00     0.010 A 
ATOM     12  C   UNL     1       3.149   0.977  -4.104  1.00  0.00     0.010 A 
ATOM     13  C   UNL     1       4.335   0.237  -4.121  1.00  0.00    -0.014 A 
BRANCH  13  14
ATOM     14  C   UNL     1       5.107   0.016  -5.361  1.00  0.00     0.031 A 
ATOM     15  C   UNL     1       5.842   1.173  -5.956  1.00  0.00     0.074 A 
ATOM     16  C   UNL     1       5.256  -1.228  -5.848  1.00  0.00     0.049 A 
ATOM     17  N   UNL     1       6.574   1.218  -7.035  1.00  0.00    -0.248 NA
ATOM     18  C   UNL     1       5.758   2.450  -5.226  1.00  0.00     0.031 C 
ATOM     19  C   UNL     1       4.671  -2.424  -5.250  1.00  0.00     0.029 A 
ATOM     20  N   UNL     1       5.956  -1.706  -6.922  1.00  0.00    -0.354 N 
ATOM     21  C   UNL     1       7.026   2.526  -7.122  1.00  0.00     0.074 A 
ATOM     22  C   UNL     1       6.474   3.250  -5.999  1.00  0.00     0.031 C 
ATOM     23  C   UNL     1       5.047  -3.505  -5.949  1.00  0.00     0.029 A 
ATOM     24  C   UNL     1       5.848  -3.067  -7.085  1.00  0.00     0.049 A 
ATOM     25  H   UNL     1       6.485  -1.131  -7.521  1.00  0.00     0.167 HD
ATOM     26  C   UNL     1       7.832   3.067  -8.063  1.00  0.00     0.037 A 
ATOM     27  C   UNL     1       6.320  -3.858  -8.065  1.00  0.00     0.037 A 
ATOM     28  C   UNL     1       8.352   2.324  -9.177  1.00  0.00     0.049 A 
ATOM     29  C   UNL     1       7.111  -3.208  -9.166  1.00  0.00     0.074 A 
ATOM     30  C   UNL     1       9.113   2.772 -10.239  1.00  0.00     0.029 A 
ATOM     31  N   UNL     1       8.156   0.961  -9.367  1.00  0.00    -0.354 N 
ATOM     32  N   UNL     1       7.479  -1.954  -9.283  1.00  0.00    -0.248 NA
ATOM     33  C   UNL     1       7.537  -4.069 -10.275  1.00  0.00     0.031 C 
ATOM     34  C   UNL     1       9.343   1.687 -11.093  1.00  0.00     0.029 A 
ATOM     35  C   UNL     1       8.767   0.553 -10.538  1.00  0.00     0.049 A 
ATOM     36  H   UNL     1       7.654   0.373  -8.757  1.00  0.00     0.167 HD
ATOM     37  C   UNL     1       8.197  -1.875 -10.466  1.00  0.00     0.074 A 
ATOM     38  C   UNL     1       8.225  -3.216 -11.021  1.00  0.00     0.031 C 
ATOM     39  C   UNL     1       8.777  -0.796 -11.047  1.00  0.00     0.037 A 
BRANCH  26  40
ATOM     40  C   UNL     1       8.120   4.533  -7.940  1.00  0.00     0.057 A 
ATOM     41  C   UNL     1       8.960   5.045  -6.941  1.00  0.00     0.134 A 
ATOM     42  C   UNL     1       7.498   5.451  -8.794  1.00  0.00     0.134 A 
ATOM     43  F   UNL     1       9.558   4.220  -6.067  1.00  0.00    -0.206 F 
ATOM     44  C   UNL     1       9.148   6.419  -6.780  1.00  0.00     0.040 A 
ATOM     45  C   UNL     1       7.696   6.826  -8.657  1.00  0.00     0.040 A 
ATOM     46  F   UNL     1       6.673   5.028  -9.763  1.00  0.00    -0.206 F 
ATOM     47  C   UNL     1       8.515   7.314  -7.641  1.00  0.00     0.006 A 
ENDBRANCH  26  40
BRANCH  27  48
ATOM     48  C   UNL     1       6.024  -5.315  -8.071  1.00  0.00     0.057 A 
ATOM     49  C   UNL     1       7.038  -6.269  -7.930  1.00  0.00     0.134 A 
ATOM     50  C   UNL     1       4.714  -5.792  -8.224  1.00  0.00     0.134 A 
ATOM     51  F   UNL     1       8.315  -5.882  -7.797  1.00  0.00    -0.206 F 
ATOM     52  C   UNL     1       6.764  -7.640  -7.955  1.00  0.00     0.040 A 
ATOM     53  C   UNL     1       4.423  -7.158  -8.220  1.00  0.00     0.040 A 
ATOM     54  F   UNL     1       3.693  -4.934  -8.365  1.00  0.00    -0.206 F 
ATOM     55  C   UNL     1       5.452  -8.087  -8.093  1.00  0.00     0.006 A 
ENDBRANCH  27  48
BRANCH  39  56
ATOM     56  C   UNL     1       9.517  -1.040 -12.326  1.00  0.00     0.057 A 
ATOM     57  C   UNL     1       8.848  -1.270 -13.533  1.00  0.00     0.134 A 
ATOM     58  C   UNL     1      10.917  -0.996 -12.352  1.00  0.00     0.134 A 
ATOM     59  F   UNL     1       7.508  -1.338 -13.566  1.00  0.00    -0.206 F 
ATOM     60  C   UNL     1       9.547  -1.467 -14.723  1.00  0.00     0.040 A 
ATOM     61  C   UNL     1      11.625  -1.165 -13.540  1.00  0.00     0.040 A 
ATOM     62  F   UNL     1      11.613  -0.772 -11.227  1.00  0.00    -0.206 F 
ATOM     63  C   UNL     1      10.940  -1.406 -14.730  1.00  0.00     0.006 A 
ENDBRANCH  39  56
ENDBRANCH  13  14
ENDBRANCH   6   8
ENDBRANCH   5   6
ENDBRANCH   4   5
ENDBRANCH   3   4
ENDBRANCH   2   3
ENDBRANCH   1   2
BRANCH   1  64
ATOM     64  C   UNL     1       2.127  -2.740   1.855  1.00  0.00     0.188 C 
BRANCH  64  65
ATOM     65  O   UNL     1       2.883  -3.638   2.668  1.00  0.00    -0.376 OA
BRANCH  65  66
ATOM     66  C   UNL     1       4.295  -3.685   2.509  1.00  0.00     0.202 C 
BRANCH  66  67
ATOM     67  C   UNL     1       4.891  -4.346   1.251  1.00  0.00     0.261 C 
BRANCH  67  68
ATOM     68  O   UNL     1       4.195  -4.114   0.020  1.00  0.00    -0.462 OA
BRANCH  68  69
ATOM     69  C   UNL     1       3.168  -4.992  -0.188  1.00  0.00     0.329 C 
ATOM     70  O   UNL     1       2.879  -5.896   0.585  1.00  0.00    -0.250 OA
BRANCH  69  71
ATOM     71  C   UNL     1       2.365  -4.606  -1.430  1.00  0.00     0.206 C 
ATOM     72  C   UNL     1       3.083  -4.722  -2.773  1.00  0.00     0.109 C 
ATOM     73  N   UNL     1       1.138  -5.380  -1.553  1.00  0.00    -0.309 N 
ATOM     74  S   UNL     1       2.271  -6.058  -3.744  1.00  0.00    -0.126 SA
ATOM     75  C   UNL     1       1.221  -6.612  -2.317  1.00  0.00     0.116 C 
ATOM     76  C   UNL     1      -0.051  -4.691  -1.745  1.00  0.00     0.224 C 
ATOM     77  C   UNL     1      -0.241  -6.830  -2.751  1.00  0.00     0.055 C 
ATOM     78  C   UNL     1      -0.895  -5.455  -2.723  1.00  0.00     0.104 C 
ATOM     79  O   UNL     1      -0.303  -3.568  -1.332  1.00  0.00    -0.275 OA
BRANCH  75  80
ATOM     80  C   UNL     1       1.884  -7.790  -1.564  1.00  0.00    -0.012 A 
ATOM     81  C   UNL     1       3.291  -7.937  -1.476  1.00  0.00     0.007 A 
ATOM     82  C   UNL     1       1.129  -8.748  -0.860  1.00  0.00     0.007 A 
ATOM     83  C   UNL     1       3.898  -8.935  -0.705  1.00  0.00     0.000 A 
ATOM     84  C   UNL     1       1.735  -9.770  -0.114  1.00  0.00     0.000 A 
ATOM     85  C   UNL     1       3.118  -9.854  -0.024  1.00  0.00     0.000 A 
ENDBRANCH  75  80
ENDBRANCH  69  71
ENDBRANCH  68  69
ENDBRANCH  67  68
ENDBRANCH  66  67
ENDBRANCH  65  66
ENDBRANCH  64  65
ENDBRANCH   1  64
TORSDOF 18
