REMARK SMILES O=C(OCCOCCOCCOC(=O)[C@@H](c1cccc(O)c1)[NH+]1CC[NH+](C2CCCC2)CC1)c1ccc(-c2c3nc(c(-c4c(F)cccc4F)c4ccc([nH]4)c(-c4c(F)cccc4F)c4nc(c(-c5c(F)cccc5F)c5ccc2[nH]5)C=C4)C=C3)cc1
REMARK SMILES IDX 7 1 6 2 5 3 4 4 3 5 2 6 1 7 34 8 35 9 87 10 36 11 86 12
REMARK SMILES IDX 37 13 38 14 39 15 80 16 40 17 85 18 79 19 81 20 41 21 84 22
REMARK SMILES IDX 78 23 77 24 42 26 68 27 51 28 67 29 52 30 55 31 66 32 82 33
REMARK SMILES IDX 53 34 54 35 65 37 83 38 56 39 43 40 44 41 49 42 45 43 46 44
REMARK SMILES IDX 48 45 50 46 47 47 69 48 70 49 75 50 71 51 72 52 74 53 76 54
REMARK SMILES IDX 73 55 57 56 58 57 63 58 59 59 60 60 62 61 64 62 61 63 8 64
REMARK SMILES IDX 9 65 10 66 11 67 12 68 13 69 14 70 15 71 16 72 17 73 22 74
REMARK SMILES IDX 18 75 20 76 19 77 21 78 23 80 24 81 33 82 25 84 32 85 26 86
REMARK SMILES IDX 27 88 28 89 31 90 29 91 30 92
REMARK H PARENT 81 25 55 36 21 79 23 83 26 87
REMARK Flexibility Score: inf
ROOT
ATOM      1  C   UNL     1       2.452  -1.626  -0.183  1.00  0.00     0.188 C 
ENDROOT
BRANCH   1   2
ATOM      2  O   UNL     1       3.791  -1.289  -0.578  1.00  0.00    -0.376 OA
BRANCH   2   3
ATOM      3  C   UNL     1       4.783  -1.784   0.333  1.00  0.00     0.202 C 
BRANCH   3   4
ATOM      4  C   UNL     1       5.073  -0.856   1.517  1.00  0.00     0.261 C 
BRANCH   4   5
ATOM      5  O   UNL     1       3.892  -0.209   2.006  1.00  0.00    -0.460 OA
BRANCH   5   6
ATOM      6  C   UNL     1       3.327   0.945   1.587  1.00  0.00     0.338 C 
ATOM      7  O   UNL     1       2.258   1.272   2.110  1.00  0.00    -0.246 OA
BRANCH   6   8
ATOM      8  C   UNL     1       3.894   1.875   0.550  1.00  0.00     0.060 A 
ATOM      9  C   UNL     1       4.901   1.601  -0.385  1.00  0.00     0.016 A 
ATOM     10  C   UNL     1       3.286   3.143   0.485  1.00  0.00     0.016 A 
ATOM     11  C   UNL     1       5.338   2.570  -1.302  1.00  0.00     0.010 A 
ATOM     12  C   UNL     1       3.673   4.091  -0.464  1.00  0.00     0.010 A 
ATOM     13  C   UNL     1       4.734   3.825  -1.338  1.00  0.00    -0.014 A 
BRANCH  13  14
ATOM     14  C   UNL     1       5.309   4.939  -2.128  1.00  0.00     0.031 A 
ATOM     15  C   UNL     1       5.947   6.061  -1.368  1.00  0.00     0.074 A 
ATOM     16  C   UNL     1       5.216   5.001  -3.467  1.00  0.00     0.049 A 
ATOM     17  N   UNL     1       6.335   7.234  -1.787  1.00  0.00    -0.248 NA
ATOM     18  C   UNL     1       6.115   5.842   0.077  1.00  0.00     0.031 C 
ATOM     19  C   UNL     1       4.611   3.982  -4.311  1.00  0.00     0.029 A 
ATOM     20  N   UNL     1       5.606   5.978  -4.349  1.00  0.00    -0.354 N 
ATOM     21  C   UNL     1       6.738   7.912  -0.647  1.00  0.00     0.074 A 
ATOM     22  C   UNL     1       6.490   7.042   0.481  1.00  0.00     0.031 C 
ATOM     23  C   UNL     1       4.653   4.393  -5.590  1.00  0.00     0.029 A 
ATOM     24  C   UNL     1       5.285   5.700  -5.655  1.00  0.00     0.049 A 
ATOM     25  H   UNL     1       6.071   6.800  -4.072  1.00  0.00     0.167 HD
ATOM     26  C   UNL     1       7.290   9.143  -0.548  1.00  0.00     0.037 A 
ATOM     27  C   UNL     1       5.471   6.417  -6.780  1.00  0.00     0.037 A 
ATOM     28  C   UNL     1       7.568   9.981  -1.679  1.00  0.00     0.049 A 
ATOM     29  C   UNL     1       6.120   7.766  -6.664  1.00  0.00     0.074 A 
ATOM     30  C   UNL     1       8.137  11.239  -1.708  1.00  0.00     0.029 A 
ATOM     31  N   UNL     1       7.302   9.624  -2.995  1.00  0.00    -0.354 N 
ATOM     32  N   UNL     1       6.513   8.396  -5.582  1.00  0.00    -0.248 NA
ATOM     33  C   UNL     1       6.353   8.505  -7.911  1.00  0.00     0.031 C 
ATOM     34  C   UNL     1       8.206  11.649  -3.046  1.00  0.00     0.029 A 
ATOM     35  C   UNL     1       7.706  10.634  -3.848  1.00  0.00     0.049 A 
ATOM     36  H   UNL     1       6.887   8.778  -3.278  1.00  0.00     0.167 HD
ATOM     37  C   UNL     1       7.066   9.591  -6.018  1.00  0.00     0.074 A 
ATOM     38  C   UNL     1       6.960   9.597  -7.464  1.00  0.00     0.031 C 
ATOM     39  C   UNL     1       7.612  10.592  -5.287  1.00  0.00     0.037 A 
BRANCH  26  40
ATOM     40  C   UNL     1       7.585   9.613   0.844  1.00  0.00     0.057 A 
ATOM     41  C   UNL     1       8.585   9.013   1.624  1.00  0.00     0.134 A 
ATOM     42  C   UNL     1       6.767  10.565   1.460  1.00  0.00     0.134 A 
ATOM     43  F   UNL     1       9.378   8.065   1.100  1.00  0.00    -0.206 F 
ATOM     44  C   UNL     1       8.710   9.289   2.986  1.00  0.00     0.040 A 
ATOM     45  C   UNL     1       6.905  10.874   2.814  1.00  0.00     0.040 A 
ATOM     46  F   UNL     1       5.790  11.174   0.771  1.00  0.00    -0.206 F 
ATOM     47  C   UNL     1       7.863  10.218   3.586  1.00  0.00     0.006 A 
ENDBRANCH  26  40
BRANCH  27  48
ATOM     48  C   UNL     1       5.072   5.862  -8.101  1.00  0.00     0.057 A 
ATOM     49  C   UNL     1       6.034   5.449  -9.030  1.00  0.00     0.134 A 
ATOM     50  C   UNL     1       3.727   5.711  -8.461  1.00  0.00     0.134 A 
ATOM     51  F   UNL     1       7.340   5.577  -8.752  1.00  0.00    -0.206 F 
ATOM     52  C   UNL     1       5.677   4.922 -10.274  1.00  0.00     0.040 A 
ATOM     53  C   UNL     1       3.354   5.163  -9.691  1.00  0.00     0.040 A 
ATOM     54  F   UNL     1       2.756   6.077  -7.612  1.00  0.00    -0.206 F 
ATOM     55  C   UNL     1       4.332   4.772 -10.605  1.00  0.00     0.006 A 
ENDBRANCH  27  48
BRANCH  39  56
ATOM     56  C   UNL     1       8.189  11.749  -6.040  1.00  0.00     0.057 A 
ATOM     57  C   UNL     1       7.380  12.743  -6.599  1.00  0.00     0.134 A 
ATOM     58  C   UNL     1       9.578  11.905  -6.133  1.00  0.00     0.134 A 
ATOM     59  F   UNL     1       6.043  12.638  -6.553  1.00  0.00    -0.206 F 
ATOM     60  C   UNL     1       7.934  13.858  -7.228  1.00  0.00     0.040 A 
ATOM     61  C   UNL     1      10.143  13.024  -6.742  1.00  0.00     0.040 A 
ATOM     62  F   UNL     1      10.403  10.983  -5.613  1.00  0.00    -0.206 F 
ATOM     63  C   UNL     1       9.319  14.005  -7.290  1.00  0.00     0.006 A 
ENDBRANCH  39  56
ENDBRANCH  13  14
ENDBRANCH   6   8
ENDBRANCH   5   6
ENDBRANCH   4   5
ENDBRANCH   3   4
ENDBRANCH   2   3
ENDBRANCH   1   2
BRANCH   1  64
ATOM     64  C   UNL     1       1.688  -2.417  -1.250  1.00  0.00     0.188 C 
BRANCH  64  65
ATOM     65  O   UNL     1       2.202  -3.714  -1.537  1.00  0.00    -0.376 OA
BRANCH  65  66
ATOM     66  C   UNL     1       3.442  -3.776  -2.229  1.00  0.00     0.202 C 
BRANCH  66  67
ATOM     67  C   UNL     1       3.444  -3.339  -3.693  1.00  0.00     0.261 C 
BRANCH  67  68
ATOM     68  O   UNL     1       3.153  -1.948  -3.926  1.00  0.00    -0.459 OA
BRANCH  68  69
ATOM     69  C   UNL     1       2.039  -1.702  -4.683  1.00  0.00     0.369 C 
ATOM     70  O   UNL     1       1.115  -2.510  -4.815  1.00  0.00    -0.245 OA
BRANCH  69  71
ATOM     71  C   UNL     1       2.111  -0.372  -5.471  1.00  0.00     0.326 C 
BRANCH  71  72
ATOM     72  C   UNL     1       1.753   0.868  -4.652  1.00  0.00     0.025 A 
ATOM     73  C   UNL     1       2.005   0.982  -3.280  1.00  0.00     0.011 A 
ATOM     74  C   UNL     1       1.197   1.987  -5.311  1.00  0.00     0.056 A 
ATOM     75  C   UNL     1       1.674   2.153  -2.593  1.00  0.00     0.004 A 
ATOM     76  C   UNL     1       0.989   3.185  -4.635  1.00  0.00     0.116 A 
ATOM     77  C   UNL     1       1.202   3.273  -3.270  1.00  0.00     0.046 A 
BRANCH  76  78
ATOM     78  O   UNL     1       0.616   4.274  -5.365  1.00  0.00    -0.508 OA
ATOM     79  H   UNL     1       0.469   5.095  -4.939  1.00  0.00     0.293 HD
ENDBRANCH  76  78
ENDBRANCH  71  72
BRANCH  71  80
ATOM     80  N   UNL     1       3.322  -0.270  -6.320  1.00  0.00    -0.310 N 
ATOM     81  C   UNL     1       4.039   0.981  -6.519  1.00  0.00     0.325 C 
ATOM     82  C   UNL     1       4.088  -1.460  -6.664  1.00  0.00     0.325 C 
ATOM     83  H   UNL     1       2.599  -0.176  -7.033  1.00  0.00     0.349 HD
ATOM     84  C   UNL     1       5.528   0.969  -6.080  1.00  0.00     0.324 C 
ATOM     85  C   UNL     1       5.477  -1.420  -5.999  1.00  0.00     0.324 C 
ATOM     86  N   UNL     1       6.287  -0.258  -6.378  1.00  0.00    -0.323 N 
ATOM     87  H   UNL     1       7.126  -0.292  -5.799  1.00  0.00     0.348 HD
BRANCH  86  88
ATOM     88  C   UNL     1       6.909  -0.278  -7.704  1.00  0.00     0.184 C 
ATOM     89  C   UNL     1       7.550  -1.611  -8.113  1.00  0.00     0.065 C 
ATOM     90  C   UNL     1       6.114   0.157  -8.952  1.00  0.00     0.065 C 
ATOM     91  C   UNL     1       7.871  -1.401  -9.583  1.00  0.00     0.006 C 
ATOM     92  C   UNL     1       6.633  -0.696 -10.110  1.00  0.00     0.006 C 
ENDBRANCH  86  88
ENDBRANCH  71  80
ENDBRANCH  69  71
ENDBRANCH  68  69
ENDBRANCH  67  68
ENDBRANCH  66  67
ENDBRANCH  65  66
ENDBRANCH  64  65
ENDBRANCH   1  64
TORSDOF 21
