REMARK SMILES CCS(=O)(=O)Nc1ccc(N2CC[NH+](C)CC2)cc1C(=O)OCCOCCOCCOC(=O)c1ccc(-c2c3nc(c(-c4c(F)cccc4F)c4ccc([nH]4)c(-c4c(F)cccc4F)c4nc(c(-c5c(F)cccc5F)c5ccc2[nH]5)C=C4)C=C3)cc1
REMARK SMILES IDX 26 1 25 2 24 3 23 4 22 5 20 6 21 7 19 8 7 9 8 10 9 11 18 12
REMARK SMILES IDX 10 13 6 14 3 16 4 17 5 18 2 19 1 20 11 21 12 22 17 23 13 24
REMARK SMILES IDX 16 25 14 26 15 27 27 29 28 30 29 31 30 32 31 33 32 34 33 35
REMARK SMILES IDX 34 36 35 37 87 38 36 39 86 40 37 41 38 42 39 43 80 44 40 45
REMARK SMILES IDX 85 46 79 47 81 48 41 49 84 50 78 51 77 52 42 54 68 55 51 56
REMARK SMILES IDX 67 57 52 58 55 59 66 60 82 61 53 62 54 63 65 65 83 66 56 67
REMARK SMILES IDX 43 68 44 69 49 70 45 71 46 72 48 73 50 74 47 75 69 76 70 77
REMARK SMILES IDX 75 78 71 79 72 80 74 81 76 82 73 83 57 84 58 85 63 86 59 87
REMARK SMILES IDX 60 88 62 89 64 90 61 91
REMARK H PARENT 6 15 14 28 81 53 55 64
REMARK Flexibility Score: inf
ROOT
ATOM      1  C   UNL     1       1.974  -0.421   3.106  1.00  0.00     0.188 C 
ENDROOT
BRANCH   1   2
ATOM      2  O   UNL     1       0.691  -0.973   3.340  1.00  0.00    -0.376 OA
BRANCH   2   3
ATOM      3  C   UNL     1      -0.295  -0.640   2.378  1.00  0.00     0.202 C 
BRANCH   3   4
ATOM      4  C   UNL     1      -0.064  -1.199   0.977  1.00  0.00     0.261 C 
BRANCH   4   5
ATOM      5  O   UNL     1       1.201  -0.919   0.344  1.00  0.00    -0.460 OA
BRANCH   5   6
ATOM      6  C   UNL     1       1.613   0.337   0.084  1.00  0.00     0.340 C 
ATOM      7  O   UNL     1       1.080   1.367   0.465  1.00  0.00    -0.246 OA
BRANCH   6   8
ATOM      8  C   UNL     1       2.848   0.301  -0.750  1.00  0.00     0.086 A 
ATOM      9  C   UNL     1       3.097  -0.690  -1.715  1.00  0.00     0.063 A 
ATOM     10  C   UNL     1       4.284  -0.633  -2.448  1.00  0.00     0.030 A 
ATOM     11  C   UNL     1       5.197   0.413  -2.248  1.00  0.00     0.028 A 
ATOM     12  C   UNL     1       3.782   1.336  -0.550  1.00  0.00     0.043 A 
ATOM     13  C   UNL     1       4.965   1.414  -1.297  1.00  0.00     0.038 A 
BRANCH   9  14
ATOM     14  N   UNL     1       2.337  -1.887  -1.813  1.00  0.00    -0.283 N 
ATOM     15  H   UNL     1       2.696  -2.659  -1.318  1.00  0.00     0.180 HD
BRANCH  14  16
ATOM     16  S   UNL     1       0.937  -2.165  -2.640  1.00  0.00     0.232 S 
ATOM     17  O   UNL     1       0.082  -2.833  -1.676  1.00  0.00    -0.207 OA
ATOM     18  O   UNL     1       1.322  -2.880  -3.841  1.00  0.00    -0.207 OA
BRANCH  16  19
ATOM     19  C   UNL     1       0.050  -0.712  -3.203  1.00  0.00     0.156 C 
ATOM     20  C   UNL     1      -0.030   0.547  -2.389  1.00  0.00     0.023 C 
ENDBRANCH  16  19
ENDBRANCH  14  16
ENDBRANCH   9  14
BRANCH  13  21
ATOM     21  N   UNL     1       5.845   2.453  -1.117  1.00  0.00    -0.360 N 
ATOM     22  C   UNL     1       6.431   2.790   0.186  1.00  0.00     0.178 C 
ATOM     23  C   UNL     1       6.323   3.260  -2.245  1.00  0.00     0.178 C 
ATOM     24  C   UNL     1       6.295   4.305   0.465  1.00  0.00     0.283 C 
ATOM     25  C   UNL     1       6.175   4.766  -1.907  1.00  0.00     0.283 C 
ATOM     26  N   UNL     1       6.835   5.139  -0.634  1.00  0.00    -0.334 N 
ATOM     27  C   UNL     1       6.644   6.558  -0.340  1.00  0.00     0.332 C 
ATOM     28  H   UNL     1       7.837   4.972  -0.724  1.00  0.00     0.347 HD
ENDBRANCH  13  21
ENDBRANCH   6   8
ENDBRANCH   5   6
ENDBRANCH   4   5
ENDBRANCH   3   4
ENDBRANCH   2   3
ENDBRANCH   1   2
BRANCH   1  29
ATOM     29  C   UNL     1       2.995  -1.415   2.505  1.00  0.00     0.188 C 
BRANCH  29  30
ATOM     30  O   UNL     1       2.689  -2.797   2.424  1.00  0.00    -0.376 OA
BRANCH  30  31
ATOM     31  C   UNL     1       2.049  -3.414   3.531  1.00  0.00     0.202 C 
BRANCH  31  32
ATOM     32  C   UNL     1       2.618  -3.234   4.956  1.00  0.00     0.261 C 
BRANCH  32  33
ATOM     33  O   UNL     1       3.032  -1.903   5.323  1.00  0.00    -0.460 OA
BRANCH  33  34
ATOM     34  C   UNL     1       4.372  -1.668   5.340  1.00  0.00     0.338 C 
ATOM     35  O   UNL     1       5.258  -2.480   5.165  1.00  0.00    -0.246 OA
BRANCH  34  36
ATOM     36  C   UNL     1       4.625  -0.199   5.356  1.00  0.00     0.060 A 
ATOM     37  C   UNL     1       5.380   0.357   4.307  1.00  0.00     0.016 A 
ATOM     38  C   UNL     1       4.145   0.622   6.376  1.00  0.00     0.016 A 
ATOM     39  C   UNL     1       5.685   1.719   4.291  1.00  0.00     0.010 A 
ATOM     40  C   UNL     1       4.489   1.982   6.384  1.00  0.00     0.010 A 
ATOM     41  C   UNL     1       5.297   2.526   5.364  1.00  0.00    -0.014 A 
BRANCH  41  42
ATOM     42  C   UNL     1       5.995   3.821   5.574  1.00  0.00     0.031 A 
ATOM     43  C   UNL     1       7.199   3.818   6.481  1.00  0.00     0.074 A 
ATOM     44  C   UNL     1       5.630   4.956   4.952  1.00  0.00     0.049 A 
ATOM     45  N   UNL     1       7.945   4.813   6.886  1.00  0.00    -0.248 NA
ATOM     46  C   UNL     1       7.611   2.504   7.001  1.00  0.00     0.031 C 
ATOM     47  C   UNL     1       4.541   5.088   3.989  1.00  0.00     0.029 A 
ATOM     48  N   UNL     1       6.147   6.225   5.055  1.00  0.00    -0.354 N 
ATOM     49  C   UNL     1       8.904   4.246   7.718  1.00  0.00     0.074 A 
ATOM     50  C   UNL     1       8.624   2.829   7.787  1.00  0.00     0.031 C 
ATOM     51  C   UNL     1       4.461   6.374   3.599  1.00  0.00     0.029 A 
ATOM     52  C   UNL     1       5.468   7.160   4.313  1.00  0.00     0.049 A 
ATOM     53  H   UNL     1       6.932   6.443   5.608  1.00  0.00     0.167 HD
ATOM     54  C   UNL     1       9.934   4.844   8.363  1.00  0.00     0.037 A 
ATOM     55  C   UNL     1       5.626   8.497   4.245  1.00  0.00     0.037 A 
ATOM     56  C   UNL     1      10.208   6.254   8.309  1.00  0.00     0.049 A 
ATOM     57  C   UNL     1       6.705   9.165   5.064  1.00  0.00     0.074 A 
ATOM     58  C   UNL     1      11.217   6.962   8.937  1.00  0.00     0.029 A 
ATOM     59  N   UNL     1       9.460   7.175   7.590  1.00  0.00    -0.354 N 
ATOM     60  N   UNL     1       7.602   8.625   5.855  1.00  0.00    -0.248 NA
ATOM     61  C   UNL     1       6.790  10.631   4.979  1.00  0.00     0.031 C 
ATOM     62  C   UNL     1      11.045   8.319   8.644  1.00  0.00     0.029 A 
ATOM     63  C   UNL     1       9.971   8.448   7.778  1.00  0.00     0.049 A 
ATOM     64  H   UNL     1       8.681   6.955   7.029  1.00  0.00     0.167 HD
ATOM     65  C   UNL     1       8.383   9.677   6.325  1.00  0.00     0.074 A 
ATOM     66  C   UNL     1       7.854  10.886   5.729  1.00  0.00     0.031 C 
ATOM     67  C   UNL     1       9.447   9.644   7.166  1.00  0.00     0.037 A 
BRANCH  54  68
ATOM     68  C   UNL     1      10.804   3.967   9.218  1.00  0.00     0.057 A 
ATOM     69  C   UNL     1      11.652   2.996   8.668  1.00  0.00     0.134 A 
ATOM     70  C   UNL     1      10.777   4.083  10.614  1.00  0.00     0.134 A 
ATOM     71  F   UNL     1      11.711   2.818   7.339  1.00  0.00    -0.206 F 
ATOM     72  C   UNL     1      12.411   2.147   9.476  1.00  0.00     0.040 A 
ATOM     73  C   UNL     1      11.556   3.263  11.430  1.00  0.00     0.040 A 
ATOM     74  F   UNL     1       9.989   4.992  11.207  1.00  0.00    -0.206 F 
ATOM     75  C   UNL     1      12.367   2.282  10.862  1.00  0.00     0.006 A 
ENDBRANCH  54  68
BRANCH  55  76
ATOM     76  C   UNL     1       4.737   9.312   3.377  1.00  0.00     0.057 A 
ATOM     77  C   UNL     1       5.234   9.961   2.240  1.00  0.00     0.134 A 
ATOM     78  C   UNL     1       3.381   9.489   3.677  1.00  0.00     0.134 A 
ATOM     79  F   UNL     1       6.529   9.850   1.912  1.00  0.00    -0.206 F 
ATOM     80  C   UNL     1       4.420  10.769   1.443  1.00  0.00     0.040 A 
ATOM     81  C   UNL     1       2.549  10.271   2.873  1.00  0.00     0.040 A 
ATOM     82  F   UNL     1       2.843   8.899   4.755  1.00  0.00    -0.206 F 
ATOM     83  C   UNL     1       3.071  10.920   1.756  1.00  0.00     0.006 A 
ENDBRANCH  55  76
BRANCH  67  84
ATOM     84  C   UNL     1      10.157  10.940   7.446  1.00  0.00     0.057 A 
ATOM     85  C   UNL     1       9.588  11.956   8.223  1.00  0.00     0.134 A 
ATOM     86  C   UNL     1      11.458  11.150   6.965  1.00  0.00     0.134 A 
ATOM     87  F   UNL     1       8.343  11.825   8.707  1.00  0.00    -0.206 F 
ATOM     88  C   UNL     1      10.273  13.143   8.489  1.00  0.00     0.040 A 
ATOM     89  C   UNL     1      12.165  12.319   7.251  1.00  0.00     0.040 A 
ATOM     90  F   UNL     1      12.071  10.214   6.225  1.00  0.00    -0.206 F 
ATOM     91  C   UNL     1      11.569  13.324   8.009  1.00  0.00     0.006 A 
ENDBRANCH  67  84
ENDBRANCH  41  42
ENDBRANCH  34  36
ENDBRANCH  33  34
ENDBRANCH  32  33
ENDBRANCH  31  32
ENDBRANCH  30  31
ENDBRANCH  29  30
ENDBRANCH   1  29
TORSDOF 21
