REMARK SMILES O=C(OCCOCCOCCOC(=O)[C@H](NC(=O)[C@H]1CC[C@@H](CNC(=O)[C@@H]2Cc3ccccc3C[NH2+]2)CC1)c1ccccc1)c1ccc(-c2c3nc(c(-c4c(F)cccc4F)c4ccc([nH]4)c(-c4c(F)cccc4F)c4nc(c(-c5c(F)cccc5F)c5ccc2[nH]5)C=C4)C=C3)cc1
REMARK SMILES IDX 9 1 8 2 7 3 6 4 5 5 4 6 3 7 2 8 1 9 45 10 46 11 98 12 47 13
REMARK SMILES IDX 97 14 48 15 49 16 50 17 91 18 51 19 96 20 90 21 92 22 52 23
REMARK SMILES IDX 95 24 89 25 88 26 53 28 79 29 62 30 78 31 63 32 66 33 77 34
REMARK SMILES IDX 93 35 64 36 65 37 76 39 94 40 67 41 54 42 55 43 60 44 56 45
REMARK SMILES IDX 57 46 59 47 61 48 58 49 80 50 81 51 86 52 82 53 83 54 85 55
REMARK SMILES IDX 87 56 84 57 68 58 69 59 74 60 70 61 71 62 73 63 75 64 72 65
REMARK SMILES IDX 10 66 11 67 12 68 13 69 14 70 15 71 39 72 40 73 44 74 41 75
REMARK SMILES IDX 43 76 42 77 16 78 17 79 18 81 19 82 38 83 20 84 37 85 21 86
REMARK SMILES IDX 22 87 23 88 24 89 25 90 26 92 27 93 28 94 36 95 29 96 35 97
REMARK SMILES IDX 30 100 34 101 31 102 33 103 32 104
REMARK H PARENT 92 27 66 38 16 80 24 91 36 98 36 99
REMARK Flexibility Score: inf
ROOT
ATOM      1  O   UNL     1       2.011  -7.653   7.470  1.00  0.00    -0.376 OA
ENDROOT
BRANCH   1   2
ATOM      2  C   UNL     1       1.285  -8.685   6.817  1.00  0.00     0.188 C 
BRANCH   2   3
ATOM      3  C   UNL     1       0.129  -9.323   7.587  1.00  0.00     0.188 C 
BRANCH   3   4
ATOM      4  O   UNL     1      -0.882  -8.419   8.046  1.00  0.00    -0.376 OA
BRANCH   4   5
ATOM      5  C   UNL     1      -1.116  -8.507   9.460  1.00  0.00     0.202 C 
BRANCH   5   6
ATOM      6  C   UNL     1      -1.846  -9.775   9.945  1.00  0.00     0.261 C 
BRANCH   6   7
ATOM      7  O   UNL     1      -1.597 -10.940   9.142  1.00  0.00    -0.460 OA
BRANCH   7   8
ATOM      8  C   UNL     1      -2.267 -11.398   8.060  1.00  0.00     0.338 C 
ATOM      9  O   UNL     1      -1.883 -12.446   7.542  1.00  0.00    -0.246 OA
BRANCH   8  10
ATOM     10  C   UNL     1      -3.427 -10.702   7.415  1.00  0.00     0.060 A 
ATOM     11  C   UNL     1      -3.761  -9.355   7.569  1.00  0.00     0.016 A 
ATOM     12  C   UNL     1      -4.177 -11.459   6.492  1.00  0.00     0.016 A 
ATOM     13  C   UNL     1      -4.806  -8.779   6.851  1.00  0.00     0.010 A 
ATOM     14  C   UNL     1      -5.222 -10.889   5.758  1.00  0.00     0.010 A 
ATOM     15  C   UNL     1      -5.544  -9.545   5.951  1.00  0.00    -0.014 A 
BRANCH  15  16
ATOM     16  C   UNL     1      -6.750  -8.937   5.363  1.00  0.00     0.031 A 
ATOM     17  C   UNL     1      -8.042  -9.144   6.081  1.00  0.00     0.074 A 
ATOM     18  C   UNL     1      -6.649  -8.128   4.295  1.00  0.00     0.049 A 
ATOM     19  N   UNL     1      -9.230  -8.704   5.778  1.00  0.00    -0.248 NA
ATOM     20  C   UNL     1      -7.995  -9.981   7.294  1.00  0.00     0.031 C 
ATOM     21  C   UNL     1      -5.412  -7.875   3.566  1.00  0.00     0.029 A 
ATOM     22  N   UNL     1      -7.570  -7.334   3.666  1.00  0.00    -0.354 N 
ATOM     23  C   UNL     1     -10.083  -9.275   6.711  1.00  0.00     0.074 A 
ATOM     24  C   UNL     1      -9.275 -10.048   7.625  1.00  0.00     0.031 C 
ATOM     25  C   UNL     1      -5.620  -6.904   2.664  1.00  0.00     0.029 A 
ATOM     26  C   UNL     1      -7.028  -6.532   2.686  1.00  0.00     0.049 A 
ATOM     27  H   UNL     1      -8.528  -7.337   3.892  1.00  0.00     0.167 HD
ATOM     28  C   UNL     1     -11.430  -9.193   6.748  1.00  0.00     0.037 A 
ATOM     29  C   UNL     1      -7.625  -5.622   1.889  1.00  0.00     0.037 A 
ATOM     30  C   UNL     1     -12.189  -8.403   5.818  1.00  0.00     0.049 A 
ATOM     31  C   UNL     1      -9.125  -5.507   1.996  1.00  0.00     0.074 A 
ATOM     32  C   UNL     1     -13.559  -8.265   5.719  1.00  0.00     0.029 A 
ATOM     33  N   UNL     1     -11.627  -7.617   4.819  1.00  0.00    -0.354 N 
ATOM     34  N   UNL     1      -9.939  -6.081   2.854  1.00  0.00    -0.248 NA
ATOM     35  C   UNL     1      -9.803  -4.681   0.989  1.00  0.00     0.031 C 
ATOM     36  C   UNL     1     -13.828  -7.438   4.625  1.00  0.00     0.029 A 
ATOM     37  C   UNL     1     -12.624  -7.014   4.077  1.00  0.00     0.049 A 
ATOM     38  H   UNL     1     -10.661  -7.507   4.662  1.00  0.00     0.167 HD
ATOM     39  C   UNL     1     -11.220  -5.721   2.467  1.00  0.00     0.074 A 
ATOM     40  C   UNL     1     -11.073  -4.819   1.341  1.00  0.00     0.031 C 
ATOM     41  C   UNL     1     -12.416  -6.127   2.961  1.00  0.00     0.037 A 
BRANCH  28  42
ATOM     42  C   UNL     1     -12.142 -10.069   7.731  1.00  0.00     0.057 A 
ATOM     43  C   UNL     1     -12.136  -9.826   9.110  1.00  0.00     0.134 A 
ATOM     44  C   UNL     1     -12.827 -11.204   7.278  1.00  0.00     0.134 A 
ATOM     45  F   UNL     1     -11.467  -8.778   9.614  1.00  0.00    -0.206 F 
ATOM     46  C   UNL     1     -12.773 -10.691  10.003  1.00  0.00     0.040 A 
ATOM     47  C   UNL     1     -13.487 -12.062   8.158  1.00  0.00     0.040 A 
ATOM     48  F   UNL     1     -12.856 -11.505   5.970  1.00  0.00    -0.206 F 
ATOM     49  C   UNL     1     -13.456 -11.808   9.527  1.00  0.00     0.006 A 
ENDBRANCH  28  42
BRANCH  29  50
ATOM     50  C   UNL     1      -6.854  -4.822   0.891  1.00  0.00     0.057 A 
ATOM     51  C   UNL     1      -6.865  -3.420   0.915  1.00  0.00     0.134 A 
ATOM     52  C   UNL     1      -6.117  -5.425  -0.138  1.00  0.00     0.134 A 
ATOM     53  F   UNL     1      -7.561  -2.765   1.856  1.00  0.00    -0.206 F 
ATOM     54  C   UNL     1      -6.196  -2.657  -0.049  1.00  0.00     0.040 A 
ATOM     55  C   UNL     1      -5.405  -4.676  -1.079  1.00  0.00     0.040 A 
ATOM     56  F   UNL     1      -6.067  -6.761  -0.245  1.00  0.00    -0.206 F 
ATOM     57  C   UNL     1      -5.454  -3.286  -1.045  1.00  0.00     0.006 A 
ENDBRANCH  29  50
BRANCH  41  58
ATOM     58  C   UNL     1     -13.641  -5.617   2.265  1.00  0.00     0.057 A 
ATOM     59  C   UNL     1     -14.024  -6.113   1.013  1.00  0.00     0.134 A 
ATOM     60  C   UNL     1     -14.483  -4.689   2.888  1.00  0.00     0.134 A 
ATOM     61  F   UNL     1     -13.251  -6.997   0.364  1.00  0.00    -0.206 F 
ATOM     62  C   UNL     1     -15.202  -5.693   0.397  1.00  0.00     0.040 A 
ATOM     63  C   UNL     1     -15.677  -4.283   2.294  1.00  0.00     0.040 A 
ATOM     64  F   UNL     1     -14.173  -4.189   4.093  1.00  0.00    -0.206 F 
ATOM     65  C   UNL     1     -16.037  -4.783   1.044  1.00  0.00     0.006 A 
ENDBRANCH  41  58
ENDBRANCH  15  16
ENDBRANCH   8  10
ENDBRANCH   7   8
ENDBRANCH   6   7
ENDBRANCH   5   6
ENDBRANCH   4   5
ENDBRANCH   3   4
ENDBRANCH   2   3
ENDBRANCH   1   2
BRANCH   1  66
ATOM     66  C   UNL     1       1.308  -6.468   7.821  1.00  0.00     0.202 C 
BRANCH  66  67
ATOM     67  C   UNL     1       0.677  -5.650   6.694  1.00  0.00     0.261 C 
BRANCH  67  68
ATOM     68  O   UNL     1      -0.358  -6.323   5.961  1.00  0.00    -0.461 OA
BRANCH  68  69
ATOM     69  C   UNL     1      -0.104  -6.596   4.646  1.00  0.00     0.333 C 
ATOM     70  O   UNL     1       1.005  -6.523   4.120  1.00  0.00    -0.249 OA
BRANCH  69  71
ATOM     71  C   UNL     1      -1.389  -6.965   3.867  1.00  0.00     0.223 C 
BRANCH  71  72
ATOM     72  C   UNL     1      -1.321  -8.414   3.384  1.00  0.00    -0.014 A 
ATOM     73  C   UNL     1      -0.598  -8.706   2.211  1.00  0.00     0.006 A 
ATOM     74  C   UNL     1      -1.879  -9.494   4.083  1.00  0.00     0.006 A 
ATOM     75  C   UNL     1      -0.468 -10.018   1.743  1.00  0.00     0.000 A 
ATOM     76  C   UNL     1      -1.763 -10.806   3.607  1.00  0.00     0.000 A 
ATOM     77  C   UNL     1      -1.060 -11.067   2.437  1.00  0.00     0.000 A 
ENDBRANCH  71  72
BRANCH  71  78
ATOM     78  N   UNL     1      -2.584  -6.630   4.643  1.00  0.00    -0.339 N 
ATOM     79  C   UNL     1      -3.150  -5.430   4.939  1.00  0.00     0.224 C 
ATOM     80  H   UNL     1      -3.060  -7.407   5.014  1.00  0.00     0.164 HD
ATOM     81  O   UNL     1      -4.080  -5.454   5.753  1.00  0.00    -0.275 OA
BRANCH  79  82
ATOM     82  C   UNL     1      -2.746  -4.088   4.307  1.00  0.00     0.078 C 
ATOM     83  C   UNL     1      -1.250  -3.785   4.221  1.00  0.00     0.014 C 
ATOM     84  C   UNL     1      -3.473  -3.848   2.980  1.00  0.00     0.014 C 
ATOM     85  C   UNL     1      -0.938  -2.430   3.598  1.00  0.00     0.006 C 
ATOM     86  C   UNL     1      -3.108  -2.490   2.366  1.00  0.00     0.006 C 
ATOM     87  C   UNL     1      -1.594  -2.281   2.218  1.00  0.00     0.008 C 
BRANCH  87  88
ATOM     88  C   UNL     1      -0.956  -3.249   1.207  1.00  0.00     0.119 C 
BRANCH  88  89
ATOM     89  N   UNL     1      -1.294  -2.943  -0.166  1.00  0.00    -0.351 N 
ATOM     90  C   UNL     1      -0.533  -3.087  -1.293  1.00  0.00     0.278 C 
ATOM     91  H   UNL     1      -2.198  -2.579  -0.309  1.00  0.00     0.163 HD
ATOM     92  O   UNL     1      -1.100  -2.936  -2.378  1.00  0.00    -0.268 OA
BRANCH  90  93
ATOM     93  C   UNL     1       0.982  -3.384  -1.204  1.00  0.00     0.277 C 
ATOM     94  C   UNL     1       1.263  -4.792  -0.645  1.00  0.00     0.111 C 
ATOM     95  N   UNL     1       1.688  -2.224  -0.617  1.00  0.00    -0.332 N 
ATOM     96  C   UNL     1       2.691  -4.953  -0.201  1.00  0.00    -0.033 A 
ATOM     97  C   UNL     1       2.668  -2.515   0.419  1.00  0.00     0.298 C 
ATOM     98  H   UNL     1       0.985  -1.606  -0.212  1.00  0.00     0.347 HD
ATOM     99  H   UNL     1       2.221  -1.816  -1.385  1.00  0.00     0.347 HD
ATOM    100  C   UNL     1       3.305  -6.211  -0.186  1.00  0.00     0.004 A 
ATOM    101  C   UNL     1       3.389  -3.827   0.262  1.00  0.00     0.010 A 
ATOM    102  C   UNL     1       4.624  -6.341   0.248  1.00  0.00     0.000 A 
ATOM    103  C   UNL     1       4.716  -3.969   0.690  1.00  0.00     0.010 A 
ATOM    104  C   UNL     1       5.333  -5.219   0.672  1.00  0.00     0.001 A 
ENDBRANCH  90  93
ENDBRANCH  88  89
ENDBRANCH  87  88
ENDBRANCH  79  82
ENDBRANCH  71  78
ENDBRANCH  69  71
ENDBRANCH  68  69
ENDBRANCH  67  68
ENDBRANCH  66  67
ENDBRANCH   1  66
TORSDOF 23
