REMARK SMILES NS(=O)(=O)c1ccc(N2N=C(C(=O)OCCOCCOCCOC(=O)c3ccc(-c4c5nc(c(-c6c(F)cccc6F)c6ccc([nH]6)c(-c6c(F)cccc6F)c6nc(c(-c7c(F)cccc7F)c7ccc4[nH]7)C=C6)C=C5)cc3)C[C@H]2c2cccs2)cc1
REMARK SMILES IDX 18 1 17 2 16 3 15 4 14 5 12 6 13 7 11 8 9 9 10 10 81 11
REMARK SMILES IDX 80 12 8 13 5 14 6 15 88 16 7 17 87 18 2 19 3 20 4 21 1 22
REMARK SMILES IDX 82 25 83 26 86 27 84 28 85 29 19 30 20 31 21 32 22 33 23 34
REMARK SMILES IDX 24 35 25 36 26 37 27 38 79 39 28 40 78 41 29 42 30 43 31 44
REMARK SMILES IDX 72 45 32 46 77 47 71 48 73 49 33 50 76 51 70 52 69 53 34 55
REMARK SMILES IDX 60 56 43 57 59 58 44 59 47 60 58 61 74 62 45 63 46 64 57 66
REMARK SMILES IDX 75 67 48 68 35 69 36 70 41 71 37 72 38 73 40 74 42 75 39 76
REMARK SMILES IDX 61 77 62 78 67 79 63 80 64 81 66 82 68 83 65 84 49 85 50 86
REMARK SMILES IDX 55 87 51 88 52 89 54 90 56 91 53 92
REMARK H PARENT 1 23 1 24 73 54 47 65
REMARK Flexibility Score: inf
ROOT
ATOM      1  C   UNL     1      -0.567  -9.936  -3.055  1.00  0.00     0.188 C 
ENDROOT
BRANCH   1   2
ATOM      2  O   UNL     1      -0.768 -10.704  -4.239  1.00  0.00    -0.376 OA
BRANCH   2   3
ATOM      3  C   UNL     1       0.320 -11.440  -4.793  1.00  0.00     0.202 C 
BRANCH   3   4
ATOM      4  C   UNL     1       1.644 -10.705  -5.048  1.00  0.00     0.261 C 
BRANCH   4   5
ATOM      5  O   UNL     1       2.149 -10.046  -3.876  1.00  0.00    -0.459 OA
BRANCH   5   6
ATOM      6  C   UNL     1       2.555  -8.776  -4.060  1.00  0.00     0.354 C 
ATOM      7  O   UNL     1       2.738  -8.191  -5.110  1.00  0.00    -0.245 OA
BRANCH   6   8
ATOM      8  C   UNL     1       2.646  -8.078  -2.728  1.00  0.00     0.148 C 
ATOM      9  N   UNL     1       2.373  -6.627  -1.210  1.00  0.00    -0.256 N 
ATOM     10  N   UNL     1       1.942  -7.022  -2.445  1.00  0.00    -0.169 NA
ATOM     11  C   UNL     1       3.642  -7.287  -0.834  1.00  0.00     0.154 C 
ATOM     12  C   UNL     1       3.517  -8.598  -1.627  1.00  0.00     0.099 C 
BRANCH   9  13
ATOM     13  C   UNL     1       1.946  -5.402  -0.716  1.00  0.00     0.060 A 
ATOM     14  C   UNL     1       1.079  -2.945   0.349  1.00  0.00     0.082 A 
ATOM     15  C   UNL     1       0.379  -4.116   0.648  1.00  0.00     0.024 A 
ATOM     16  C   UNL     1       2.176  -2.981  -0.510  1.00  0.00     0.024 A 
ATOM     17  C   UNL     1       0.820  -5.336   0.119  1.00  0.00     0.029 A 
ATOM     18  C   UNL     1       2.590  -4.203  -1.048  1.00  0.00     0.029 A 
BRANCH  14  19
ATOM     19  S   UNL     1       0.544  -1.420   1.065  1.00  0.00     0.238 S 
ATOM     20  O   UNL     1       1.283  -1.213   2.286  1.00  0.00    -0.207 OA
ATOM     21  O   UNL     1      -0.898  -1.354   1.000  1.00  0.00    -0.207 OA
BRANCH  19  22
ATOM     22  N   UNL     1       1.085  -0.240  -0.005  1.00  0.00    -0.225 NA
ATOM     23  H   UNL     1       0.813   0.681   0.339  1.00  0.00     0.137 HD
ATOM     24  H   UNL     1       0.668  -0.396  -0.923  1.00  0.00     0.137 HD
ENDBRANCH  19  22
ENDBRANCH  14  19
ENDBRANCH   9  13
BRANCH  11  25
ATOM     25  C   UNL     1       4.936  -6.534  -1.124  1.00  0.00     0.030 A 
ATOM     26  C   UNL     1       5.552  -5.595  -0.312  1.00  0.00     0.017 A 
ATOM     27  S   UNL     1       5.830  -6.745  -2.580  1.00  0.00    -0.147 S 
ATOM     28  C   UNL     1       6.750  -5.072  -0.880  1.00  0.00     0.012 A 
ATOM     29  C   UNL     1       7.035  -5.644  -2.097  1.00  0.00     0.065 A 
ENDBRANCH  11  25
ENDBRANCH   6   8
ENDBRANCH   5   6
ENDBRANCH   4   5
ENDBRANCH   3   4
ENDBRANCH   2   3
ENDBRANCH   1   2
BRANCH   1  30
ATOM     30  C   UNL     1       0.159 -10.577  -1.855  1.00  0.00     0.188 C 
BRANCH  30  31
ATOM     31  O   UNL     1       0.607 -11.895  -2.091  1.00  0.00    -0.376 OA
BRANCH  31  32
ATOM     32  C   UNL     1      -0.058 -12.948  -1.411  1.00  0.00     0.202 C 
BRANCH  32  33
ATOM     33  C   UNL     1      -1.592 -13.064  -1.478  1.00  0.00     0.261 C 
BRANCH  33  34
ATOM     34  O   UNL     1      -2.345 -11.846  -1.373  1.00  0.00    -0.460 OA
BRANCH  34  35
ATOM     35  C   UNL     1      -2.523 -11.327  -0.137  1.00  0.00     0.338 C 
ATOM     36  O   UNL     1      -2.089 -11.760   0.914  1.00  0.00    -0.246 OA
BRANCH  35  37
ATOM     37  C   UNL     1      -3.184 -10.013  -0.301  1.00  0.00     0.060 A 
ATOM     38  C   UNL     1      -2.498  -8.852   0.082  1.00  0.00     0.016 A 
ATOM     39  C   UNL     1      -4.468  -9.929  -0.843  1.00  0.00     0.016 A 
ATOM     40  C   UNL     1      -3.106  -7.603  -0.057  1.00  0.00     0.010 A 
ATOM     41  C   UNL     1      -5.084  -8.680  -0.962  1.00  0.00     0.010 A 
ATOM     42  C   UNL     1      -4.417  -7.514  -0.545  1.00  0.00    -0.014 A 
BRANCH  42  43
ATOM     43  C   UNL     1      -5.155  -6.230  -0.465  1.00  0.00     0.031 A 
ATOM     44  C   UNL     1      -6.083  -6.007   0.696  1.00  0.00     0.074 A 
ATOM     45  C   UNL     1      -5.010  -5.279  -1.404  1.00  0.00     0.049 A 
ATOM     46  N   UNL     1      -6.877  -4.998   0.947  1.00  0.00    -0.248 NA
ATOM     47  C   UNL     1      -6.123  -7.074   1.709  1.00  0.00     0.031 C 
ATOM     48  C   UNL     1      -4.118  -5.358  -2.557  1.00  0.00     0.029 A 
ATOM     49  N   UNL     1      -5.631  -4.062  -1.536  1.00  0.00    -0.354 N 
ATOM     50  C   UNL     1      -7.515  -5.310   2.140  1.00  0.00     0.074 A 
ATOM     51  C   UNL     1      -7.040  -6.615   2.547  1.00  0.00     0.031 C 
ATOM     52  C   UNL     1      -4.262  -4.242  -3.293  1.00  0.00     0.029 A 
ATOM     53  C   UNL     1      -5.277  -3.387  -2.678  1.00  0.00     0.049 A 
ATOM     54  H   UNL     1      -6.268  -3.707  -0.875  1.00  0.00     0.167 HD
ATOM     55  C   UNL     1      -8.412  -4.574   2.838  1.00  0.00     0.037 A 
ATOM     56  C   UNL     1      -5.737  -2.224  -3.179  1.00  0.00     0.037 A 
ATOM     57  C   UNL     1      -8.889  -3.279   2.430  1.00  0.00     0.049 A 
ATOM     58  C   UNL     1      -6.787  -1.452  -2.423  1.00  0.00     0.074 A 
ATOM     59  C   UNL     1      -9.779  -2.443   3.081  1.00  0.00     0.029 A 
ATOM     60  N   UNL     1      -8.525  -2.639   1.254  1.00  0.00    -0.354 N 
ATOM     61  N   UNL     1      -7.365  -1.740  -1.281  1.00  0.00    -0.248 NA
ATOM     62  C   UNL     1      -7.247  -0.192  -3.025  1.00  0.00     0.031 C 
ATOM     63  C   UNL     1      -9.995  -1.321   2.273  1.00  0.00     0.029 A 
ATOM     64  C   UNL     1      -9.197  -1.433   1.145  1.00  0.00     0.049 A 
ATOM     65  H   UNL     1      -7.883  -2.990   0.596  1.00  0.00     0.167 HD
ATOM     66  C   UNL     1      -8.232  -0.687  -1.015  1.00  0.00     0.074 A 
ATOM     67  C   UNL     1      -8.100   0.250  -2.111  1.00  0.00     0.031 C 
ATOM     68  C   UNL     1      -9.059  -0.510   0.046  1.00  0.00     0.037 A 
BRANCH  55  69
ATOM     69  C   UNL     1      -8.959  -5.178   4.098  1.00  0.00     0.057 A 
ATOM     70  C   UNL     1      -8.176  -5.335   5.249  1.00  0.00     0.134 A 
ATOM     71  C   UNL     1     -10.291  -5.608   4.160  1.00  0.00     0.134 A 
ATOM     72  F   UNL     1      -6.887  -4.960   5.252  1.00  0.00    -0.206 F 
ATOM     73  C   UNL     1      -8.688  -5.928   6.405  1.00  0.00     0.040 A 
ATOM     74  C   UNL     1     -10.821  -6.177   5.319  1.00  0.00     0.040 A 
ATOM     75  F   UNL     1     -11.097  -5.485   3.095  1.00  0.00    -0.206 F 
ATOM     76  C   UNL     1     -10.016  -6.347   6.443  1.00  0.00     0.006 A 
ENDBRANCH  55  69
BRANCH  56  77
ATOM     77  C   UNL     1      -5.217  -1.725  -4.476  1.00  0.00     0.057 A 
ATOM     78  C   UNL     1      -4.390  -0.598  -4.544  1.00  0.00     0.134 A 
ATOM     79  C   UNL     1      -5.536  -2.365  -5.681  1.00  0.00     0.134 A 
ATOM     80  F   UNL     1      -4.072   0.074  -3.429  1.00  0.00    -0.206 F 
ATOM     81  C   UNL     1      -3.904  -0.121  -5.763  1.00  0.00     0.040 A 
ATOM     82  C   UNL     1      -5.038  -1.912  -6.904  1.00  0.00     0.040 A 
ATOM     83  F   UNL     1      -6.329  -3.446  -5.684  1.00  0.00    -0.206 F 
ATOM     84  C   UNL     1      -4.222  -0.784  -6.947  1.00  0.00     0.006 A 
ENDBRANCH  56  77
BRANCH  68  85
ATOM     85  C   UNL     1      -9.866   0.756   0.090  1.00  0.00     0.057 A 
ATOM     86  C   UNL     1     -10.958   0.970  -0.759  1.00  0.00     0.134 A 
ATOM     87  C   UNL     1      -9.574   1.754   1.030  1.00  0.00     0.134 A 
ATOM     88  F   UNL     1     -11.285   0.059  -1.689  1.00  0.00    -0.206 F 
ATOM     89  C   UNL     1     -11.719   2.139  -0.690  1.00  0.00     0.040 A 
ATOM     90  C   UNL     1     -10.343   2.915   1.127  1.00  0.00     0.040 A 
ATOM     91  F   UNL     1      -8.548   1.609   1.882  1.00  0.00    -0.206 F 
ATOM     92  C   UNL     1     -11.416   3.112   0.261  1.00  0.00     0.006 A 
ENDBRANCH  68  85
ENDBRANCH  42  43
ENDBRANCH  35  37
ENDBRANCH  34  35
ENDBRANCH  33  34
ENDBRANCH  32  33
ENDBRANCH  31  32
ENDBRANCH  30  31
ENDBRANCH   1  30
TORSDOF 21
