REMARK SMILES COc1cc(NC(=O)[C@@H]2[C@@H](C(=O)OCCOCCOCCOC(=O)c3ccc(-c4c5nc(c(-c6c(F)cccc6F)c6ccc([nH]6)c(-c6c(F)cccc6F)c6nc(c(-c7c(F)cccc7F)c7ccc4[nH]7)C=C6)C=C5)cc3)[C@H]3C=C[C@@H]2C3)ccc1NC(=O)c1ccccc1
REMARK SMILES IDX 17 1 16 2 15 3 14 4 13 5 11 6 12 7 10 8 9 9 82 10 79 11
REMARK SMILES IDX 81 12 83 13 80 14 7 15 6 16 8 18 5 19 3 20 4 21 86 22 85 23
REMARK SMILES IDX 84 24 2 25 1 26 87 27 88 28 89 30 90 31 91 32 95 33 92 34
REMARK SMILES IDX 94 35 93 36 18 37 19 38 20 39 21 40 22 41 23 42 24 43 25 44
REMARK SMILES IDX 26 45 78 46 27 47 77 48 28 49 29 50 30 51 71 52 31 53 76 54
REMARK SMILES IDX 70 55 72 56 32 57 75 58 69 59 68 60 33 62 59 63 42 64 58 65
REMARK SMILES IDX 43 66 46 67 57 68 73 69 44 70 45 71 56 73 74 74 47 75 34 76
REMARK SMILES IDX 35 77 40 78 36 79 37 80 39 81 41 82 38 83 60 84 61 85 66 86
REMARK SMILES IDX 62 87 63 88 65 89 67 90 64 91 48 92 49 93 54 94 50 95 51 96
REMARK SMILES IDX 53 97 55 98 52 99
REMARK H PARENT 6 17 87 29 72 61 46 72
REMARK Flexibility Score: inf
ROOT
ATOM      1  C   UNL     1      -5.783  -0.311  -2.880  1.00  0.00     0.188 C 
ENDROOT
BRANCH   1   2
ATOM      2  O   UNL     1      -6.163   0.444  -1.730  1.00  0.00    -0.376 OA
BRANCH   2   3
ATOM      3  C   UNL     1      -6.170   1.858  -1.815  1.00  0.00     0.202 C 
BRANCH   3   4
ATOM      4  C   UNL     1      -4.802   2.541  -1.880  1.00  0.00     0.261 C 
BRANCH   4   5
ATOM      5  O   UNL     1      -3.765   1.732  -2.456  1.00  0.00    -0.463 OA
BRANCH   5   6
ATOM      6  C   UNL     1      -3.023   1.032  -1.558  1.00  0.00     0.310 C 
ATOM      7  O   UNL     1      -3.143   1.117  -0.341  1.00  0.00    -0.252 OA
BRANCH   6   8
ATOM      8  C   UNL     1      -1.864   0.325  -2.236  1.00  0.00     0.119 C 
ATOM      9  C   UNL     1      -2.073  -0.454  -3.548  1.00  0.00     0.100 C 
ATOM     10  C   UNL     1      -1.687  -1.914  -3.169  1.00  0.00     0.025 C 
ATOM     11  C   UNL     1      -1.257  -0.763  -1.304  1.00  0.00     0.027 C 
ATOM     12  C   UNL     1      -2.650  -2.395  -2.102  1.00  0.00    -0.027 C 
ATOM     13  C   UNL     1      -0.503  -1.717  -2.236  1.00  0.00     0.017 C 
ATOM     14  C   UNL     1      -2.375  -1.726  -0.972  1.00  0.00    -0.027 C 
BRANCH   9  15
ATOM     15  C   UNL     1      -1.404   0.084  -4.826  1.00  0.00     0.228 C 
ATOM     16  N   UNL     1      -0.105   0.433  -5.050  1.00  0.00    -0.326 N 
ATOM     17  H   UNL     1       0.045   0.716  -5.980  1.00  0.00     0.169 HD
ATOM     18  O   UNL     1      -2.113   0.103  -5.849  1.00  0.00    -0.274 OA
BRANCH  16  19
ATOM     19  C   UNL     1       1.075   0.490  -4.287  1.00  0.00     0.045 A 
ATOM     20  C   UNL     1       2.213   0.525  -2.155  1.00  0.00     0.144 A 
ATOM     21  C   UNL     1       1.154   0.912  -2.963  1.00  0.00     0.074 A 
ATOM     22  C   UNL     1       3.362   0.017  -2.747  1.00  0.00     0.084 A 
ATOM     23  C   UNL     1       3.392  -0.205  -4.125  1.00  0.00     0.032 A 
ATOM     24  C   UNL     1       2.240   0.011  -4.891  1.00  0.00     0.028 A 
BRANCH  20  25
ATOM     25  O   UNL     1       2.162   0.465  -0.789  1.00  0.00    -0.494 OA
ATOM     26  C   UNL     1       1.631   1.564  -0.070  1.00  0.00     0.278 C 
ENDBRANCH  20  25
BRANCH  22  27
ATOM     27  N   UNL     1       4.459  -0.144  -1.886  1.00  0.00    -0.319 N 
ATOM     28  C   UNL     1       5.745   0.306  -2.060  1.00  0.00     0.255 C 
ATOM     29  H   UNL     1       4.285  -0.642  -1.054  1.00  0.00     0.170 HD
ATOM     30  O   UNL     1       6.598   0.161  -1.190  1.00  0.00    -0.269 OA
BRANCH  28  31
ATOM     31  C   UNL     1       6.079   1.036  -3.296  1.00  0.00     0.040 A 
ATOM     32  C   UNL     1       7.010   0.456  -4.154  1.00  0.00     0.014 A 
ATOM     33  C   UNL     1       5.394   2.207  -3.655  1.00  0.00     0.014 A 
ATOM     34  C   UNL     1       7.199   1.004  -5.419  1.00  0.00     0.001 A 
ATOM     35  C   UNL     1       5.581   2.744  -4.926  1.00  0.00     0.001 A 
ATOM     36  C   UNL     1       6.473   2.133  -5.810  1.00  0.00     0.000 A 
ENDBRANCH  28  31
ENDBRANCH  22  27
ENDBRANCH  16  19
ENDBRANCH   9  15
ENDBRANCH   6   8
ENDBRANCH   5   6
ENDBRANCH   4   5
ENDBRANCH   3   4
ENDBRANCH   2   3
ENDBRANCH   1   2
BRANCH   1  37
ATOM     37  C   UNL     1      -5.764   0.350  -4.268  1.00  0.00     0.188 C 
BRANCH  37  38
ATOM     38  O   UNL     1      -7.000   1.014  -4.511  1.00  0.00    -0.376 OA
BRANCH  38  39
ATOM     39  C   UNL     1      -7.686   0.580  -5.673  1.00  0.00     0.202 C 
BRANCH  39  40
ATOM     40  C   UNL     1      -8.491  -0.709  -5.460  1.00  0.00     0.261 C 
BRANCH  40  41
ATOM     41  O   UNL     1      -7.801  -1.785  -4.795  1.00  0.00    -0.460 OA
BRANCH  41  42
ATOM     42  C   UNL     1      -6.946  -2.534  -5.529  1.00  0.00     0.338 C 
ATOM     43  O   UNL     1      -6.655  -2.360  -6.697  1.00  0.00    -0.246 OA
BRANCH  42  44
ATOM     44  C   UNL     1      -6.316  -3.562  -4.653  1.00  0.00     0.060 A 
ATOM     45  C   UNL     1      -4.945  -3.811  -4.779  1.00  0.00     0.016 A 
ATOM     46  C   UNL     1      -7.073  -4.315  -3.747  1.00  0.00     0.016 A 
ATOM     47  C   UNL     1      -4.341  -4.833  -4.029  1.00  0.00     0.010 A 
ATOM     48  C   UNL     1      -6.467  -5.338  -2.999  1.00  0.00     0.010 A 
ATOM     49  C   UNL     1      -5.099  -5.618  -3.147  1.00  0.00    -0.014 A 
BRANCH  49  50
ATOM     50  C   UNL     1      -4.502  -6.831  -2.519  1.00  0.00     0.031 A 
ATOM     51  C   UNL     1      -4.563  -8.133  -3.274  1.00  0.00     0.074 A 
ATOM     52  C   UNL     1      -3.913  -6.803  -1.307  1.00  0.00     0.049 A 
ATOM     53  N   UNL     1      -4.152  -9.323  -2.917  1.00  0.00    -0.248 NA
ATOM     54  C   UNL     1      -5.179  -8.084  -4.610  1.00  0.00     0.031 C 
ATOM     55  C   UNL     1      -3.770  -5.623  -0.461  1.00  0.00     0.029 A 
ATOM     56  N   UNL     1      -3.325  -7.810  -0.575  1.00  0.00    -0.354 N 
ATOM     57  C   UNL     1      -4.470 -10.165  -3.975  1.00  0.00     0.074 A 
ATOM     58  C   UNL     1      -5.111  -9.352  -4.986  1.00  0.00     0.031 C 
ATOM     59  C   UNL     1      -3.123  -5.966   0.667  1.00  0.00     0.029 A 
ATOM     60  C   UNL     1      -2.850  -7.402   0.650  1.00  0.00     0.049 A 
ATOM     61  H   UNL     1      -3.251  -8.737  -0.899  1.00  0.00     0.167 HD
ATOM     62  C   UNL     1      -4.257 -11.497  -4.095  1.00  0.00     0.037 A 
ATOM     63  C   UNL     1      -2.291  -8.108   1.655  1.00  0.00     0.037 A 
ATOM     64  C   UNL     1      -3.631 -12.322  -3.097  1.00  0.00     0.049 A 
ATOM     65  C   UNL     1      -2.108  -9.600   1.513  1.00  0.00     0.074 A 
ATOM     66  C   UNL     1      -3.365 -13.680  -3.148  1.00  0.00     0.029 A 
ATOM     67  N   UNL     1      -3.183 -11.871  -1.867  1.00  0.00    -0.354 N 
ATOM     68  N   UNL     1      -2.384 -10.376   0.493  1.00  0.00    -0.248 NA
ATOM     69  C   UNL     1      -1.548 -10.316   2.672  1.00  0.00     0.031 C 
ATOM     70  C   UNL     1      -2.797 -14.060  -1.929  1.00  0.00     0.029 A 
ATOM     71  C   UNL     1      -2.665 -12.930  -1.139  1.00  0.00     0.049 A 
ATOM     72  H   UNL     1      -3.226 -10.938  -1.556  1.00  0.00     0.167 HD
ATOM     73  C   UNL     1      -2.013 -11.660   0.879  1.00  0.00     0.074 A 
ATOM     74  C   UNL     1      -1.474 -11.559   2.217  1.00  0.00     0.031 C 
ATOM     75  C   UNL     1      -2.116 -12.820   0.187  1.00  0.00     0.037 A 
BRANCH  62  76
ATOM     76  C   UNL     1      -4.743 -12.161  -5.347  1.00  0.00     0.057 A 
ATOM     77  C   UNL     1      -4.069 -12.022  -6.565  1.00  0.00     0.134 A 
ATOM     78  C   UNL     1      -5.874 -12.987  -5.318  1.00  0.00     0.134 A 
ATOM     79  F   UNL     1      -2.989 -11.232  -6.659  1.00  0.00    -0.206 F 
ATOM     80  C   UNL     1      -4.510 -12.675  -7.717  1.00  0.00     0.040 A 
ATOM     81  C   UNL     1      -6.312 -13.661  -6.458  1.00  0.00     0.040 A 
ATOM     82  F   UNL     1      -6.562 -13.160  -4.179  1.00  0.00    -0.206 F 
ATOM     83  C   UNL     1      -5.630 -13.504  -7.663  1.00  0.00     0.006 A 
ENDBRANCH  62  76
BRANCH  63  84
ATOM     84  C   UNL     1      -1.895  -7.439   2.923  1.00  0.00     0.057 A 
ATOM     85  C   UNL     1      -0.553  -7.352   3.314  1.00  0.00     0.134 A 
ATOM     86  C   UNL     1      -2.855  -6.939   3.811  1.00  0.00     0.134 A 
ATOM     87  F   UNL     1       0.413  -7.846   2.525  1.00  0.00    -0.206 F 
ATOM     88  C   UNL     1      -0.182  -6.817   4.550  1.00  0.00     0.040 A 
ATOM     89  C   UNL     1      -2.497  -6.375   5.037  1.00  0.00     0.040 A 
ATOM     90  F   UNL     1      -4.159  -7.001   3.503  1.00  0.00    -0.206 F 
ATOM     91  C   UNL     1      -1.157  -6.324   5.415  1.00  0.00     0.006 A 
ENDBRANCH  63  84
BRANCH  75  92
ATOM     92  C   UNL     1      -1.607 -14.071   0.842  1.00  0.00     0.057 A 
ATOM     93  C   UNL     1      -2.296 -14.690   1.893  1.00  0.00     0.134 A 
ATOM     94  C   UNL     1      -0.438 -14.692   0.382  1.00  0.00     0.134 A 
ATOM     95  F   UNL     1      -3.416 -14.141   2.388  1.00  0.00    -0.206 F 
ATOM     96  C   UNL     1      -1.831 -15.871   2.474  1.00  0.00     0.040 A 
ATOM     97  C   UNL     1       0.023 -15.886   0.938  1.00  0.00     0.040 A 
ATOM     98  F   UNL     1       0.264 -14.157  -0.629  1.00  0.00    -0.206 F 
ATOM     99  C   UNL     1      -0.672 -16.476   1.992  1.00  0.00     0.006 A 
ENDBRANCH  75  92
ENDBRANCH  49  50
ENDBRANCH  42  44
ENDBRANCH  41  42
ENDBRANCH  40  41
ENDBRANCH  39  40
ENDBRANCH  38  39
ENDBRANCH  37  38
ENDBRANCH   1  37
TORSDOF 22
