REMARK SMILES Cc1c(C#N)c2ccccc2n1CC(=O)N1CC[C@H](O)C[C@@H]1C(=O)OCCOCCOCCOC(=O)c1ccc(-c2c3nc(c(-c4c(F)cccc4F)c4ccc([nH]4)c(-c4c(F)cccc4F)c4nc(c(-c5c(F)cccc5F)c5ccc2[nH]5)C=C4)C=C3)cc1
REMARK SMILES IDX 29 1 28 2 27 3 26 4 25 5 23 6 24 7 22 8 16 9 17 10 18 11
REMARK SMILES IDX 21 12 19 13 14 14 15 15 13 16 12 17 1 18 2 19 3 20 6 21
REMARK SMILES IDX 11 22 7 23 10 24 8 25 9 26 4 27 5 28 20 29 30 31 31 32 32 33
REMARK SMILES IDX 33 34 34 35 35 36 36 37 37 38 38 39 90 40 39 41 89 42 40 43
REMARK SMILES IDX 41 44 42 45 83 46 43 47 88 48 82 49 84 50 44 51 87 52 81 53
REMARK SMILES IDX 80 54 45 56 71 57 54 58 70 59 55 60 58 61 69 62 85 63 56 64
REMARK SMILES IDX 57 65 68 67 86 68 59 69 46 70 47 71 52 72 48 73 49 74 51 75
REMARK SMILES IDX 53 76 50 77 72 78 73 79 78 80 74 81 75 82 77 83 79 84 76 85
REMARK SMILES IDX 60 86 61 87 66 88 62 89 63 90 65 91 67 92 64 93
REMARK H PARENT 20 30 84 55 58 66
REMARK Flexibility Score: inf
ROOT
ATOM      1  C   UNL     1       5.049   5.185   5.861  1.00  0.00     0.188 C 
ENDROOT
BRANCH   1   2
ATOM      2  O   UNL     1       4.585   5.124   7.185  1.00  0.00    -0.376 OA
BRANCH   2   3
ATOM      3  C   UNL     1       3.941   3.965   7.670  1.00  0.00     0.202 C 
BRANCH   3   4
ATOM      4  C   UNL     1       2.989   3.132   6.801  1.00  0.00     0.261 C 
BRANCH   4   5
ATOM      5  O   UNL     1       3.538   2.567   5.584  1.00  0.00    -0.462 OA
BRANCH   5   6
ATOM      6  C   UNL     1       2.995   3.091   4.453  1.00  0.00     0.329 C 
ATOM      7  O   UNL     1       2.100   3.927   4.522  1.00  0.00    -0.250 OA
BRANCH   6   8
ATOM      8  C   UNL     1       3.456   2.481   3.095  1.00  0.00     0.197 C 
ATOM      9  N   UNL     1       2.511   1.419   2.827  1.00  0.00    -0.327 N 
ATOM     10  C   UNL     1       2.909   0.145   3.404  1.00  0.00     0.123 C 
ATOM     11  C   UNL     1       4.219  -0.313   2.775  1.00  0.00     0.053 C 
ATOM     12  C   UNL     1       4.862   2.099   2.612  1.00  0.00     0.069 C 
ATOM     13  C   UNL     1       5.314   0.713   3.025  1.00  0.00     0.118 C 
BRANCH   9  14
ATOM     14  C   UNL     1       1.828   1.464   1.624  1.00  0.00     0.243 C 
ATOM     15  O   UNL     1       2.400   1.710   0.564  1.00  0.00    -0.273 OA
BRANCH  14  16
ATOM     16  C   UNL     1       0.327   1.295   1.724  1.00  0.00     0.222 C 
BRANCH  16  17
ATOM     17  N   UNL     1      -0.029  -0.068   2.047  1.00  0.00    -0.334 N 
ATOM     18  C   UNL     1       0.853  -1.013  -0.116  1.00  0.00     0.066 C 
ATOM     19  C   UNL     1       0.283  -1.153   1.257  1.00  0.00     0.034 A 
ATOM     20  C   UNL     1       0.088  -2.277   2.040  1.00  0.00     0.080 A 
ATOM     21  C   UNL     1      -0.372  -1.855   3.325  1.00  0.00     0.018 A 
ATOM     22  C   UNL     1      -0.470  -0.463   3.294  1.00  0.00     0.050 A 
ATOM     23  C   UNL     1      -0.660  -2.514   4.538  1.00  0.00     0.012 A 
ATOM     24  C   UNL     1      -0.849   0.294   4.418  1.00  0.00     0.027 A 
ATOM     25  C   UNL     1      -1.032  -1.768   5.665  1.00  0.00     0.001 A 
ATOM     26  C   UNL     1      -1.127  -0.383   5.603  1.00  0.00     0.002 A 
BRANCH  20  27
ATOM     27  C   UNL     1       0.409  -3.603   1.630  1.00  0.00     0.102 C 
ATOM     28  N   UNL     1       0.705  -4.673   1.267  1.00  0.00    -0.192 NA
ENDBRANCH  20  27
ENDBRANCH  16  17
ENDBRANCH  14  16
ENDBRANCH   9  14
BRANCH  13  29
ATOM     29  O   UNL     1       5.713   0.647   4.386  1.00  0.00    -0.393 OA
ATOM     30  H   UNL     1       4.955   0.847   4.955  1.00  0.00     0.210 HD
ENDBRANCH  13  29
ENDBRANCH   6   8
ENDBRANCH   5   6
ENDBRANCH   4   5
ENDBRANCH   3   4
ENDBRANCH   2   3
ENDBRANCH   1   2
BRANCH   1  31
ATOM     31  C   UNL     1       5.828   4.008   5.275  1.00  0.00     0.188 C 
BRANCH  31  32
ATOM     32  O   UNL     1       6.308   2.975   6.086  1.00  0.00    -0.376 OA
BRANCH  32  33
ATOM     33  C   UNL     1       7.347   3.354   6.976  1.00  0.00     0.202 C 
BRANCH  33  34
ATOM     34  C   UNL     1       8.407   4.436   6.588  1.00  0.00     0.261 C 
BRANCH  34  35
ATOM     35  O   UNL     1       7.960   5.535   5.741  1.00  0.00    -0.460 OA
BRANCH  35  36
ATOM     36  C   UNL     1       8.512   5.657   4.488  1.00  0.00     0.338 C 
ATOM     37  O   UNL     1       9.565   5.153   4.132  1.00  0.00    -0.246 OA
BRANCH  36  38
ATOM     38  C   UNL     1       7.444   6.107   3.507  1.00  0.00     0.060 A 
ATOM     39  C   UNL     1       6.507   7.115   3.763  1.00  0.00     0.016 A 
ATOM     40  C   UNL     1       7.182   5.226   2.446  1.00  0.00     0.016 A 
ATOM     41  C   UNL     1       5.256   7.129   3.081  1.00  0.00     0.010 A 
ATOM     42  C   UNL     1       5.931   5.229   1.800  1.00  0.00     0.010 A 
ATOM     43  C   UNL     1       4.912   6.130   2.147  1.00  0.00    -0.014 A 
BRANCH  43  44
ATOM     44  C   UNL     1       3.783   6.234   1.169  1.00  0.00     0.031 A 
ATOM     45  C   UNL     1       3.998   7.385   0.293  1.00  0.00     0.074 A 
ATOM     46  C   UNL     1       2.617   5.567   0.949  1.00  0.00     0.049 A 
ATOM     47  N   UNL     1       3.325   8.479   0.433  1.00  0.00    -0.248 NA
ATOM     48  C   UNL     1       5.156   7.473  -0.585  1.00  0.00     0.031 C 
ATOM     49  C   UNL     1       1.766   4.948   1.932  1.00  0.00     0.029 A 
ATOM     50  N   UNL     1       1.851   5.404  -0.211  1.00  0.00    -0.354 N 
ATOM     51  C   UNL     1       3.823   9.339  -0.520  1.00  0.00     0.074 A 
ATOM     52  C   UNL     1       5.060   8.749  -0.966  1.00  0.00     0.031 C 
ATOM     53  C   UNL     1       0.720   4.333   1.350  1.00  0.00     0.029 A 
ATOM     54  C   UNL     1       0.852   4.397  -0.105  1.00  0.00     0.049 A 
ATOM     55  H   UNL     1       1.992   5.938  -1.026  1.00  0.00     0.167 HD
ATOM     56  C   UNL     1       2.992  10.276  -1.046  1.00  0.00     0.037 A 
ATOM     57  C   UNL     1      -0.287   4.141  -0.824  1.00  0.00     0.037 A 
ATOM     58  C   UNL     1       1.864  10.523  -0.165  1.00  0.00     0.049 A 
ATOM     59  C   UNL     1      -0.911   5.450  -1.098  1.00  0.00     0.074 A 
ATOM     60  C   UNL     1       1.694  10.986   1.127  1.00  0.00     0.029 A 
ATOM     61  N   UNL     1       0.666   9.944  -0.502  1.00  0.00    -0.354 N 
ATOM     62  N   UNL     1      -1.467   6.174  -0.168  1.00  0.00    -0.248 NA
ATOM     63  C   UNL     1      -0.398   6.162  -2.257  1.00  0.00     0.031 C 
ATOM     64  C   UNL     1       0.574  10.272   1.648  1.00  0.00     0.029 A 
ATOM     65  C   UNL     1       0.067   9.470   0.631  1.00  0.00     0.049 A 
ATOM     66  H   UNL     1       0.298   9.879  -1.413  1.00  0.00     0.167 HD
ATOM     67  C   UNL     1      -0.933   7.436  -0.376  1.00  0.00     0.074 A 
ATOM     68  C   UNL     1      -0.302   7.370  -1.698  1.00  0.00     0.031 C 
ATOM     69  C   UNL     1      -0.822   8.340   0.640  1.00  0.00     0.037 A 
BRANCH  56  70
ATOM     70  C   UNL     1       2.918  10.536  -2.535  1.00  0.00     0.057 A 
ATOM     71  C   UNL     1       3.486   9.714  -3.531  1.00  0.00     0.134 A 
ATOM     72  C   UNL     1       1.945  11.440  -2.997  1.00  0.00     0.134 A 
ATOM     73  F   UNL     1       4.434   8.806  -3.284  1.00  0.00    -0.206 F 
ATOM     74  C   UNL     1       3.042   9.711  -4.853  1.00  0.00     0.040 A 
ATOM     75  C   UNL     1       1.463  11.415  -4.309  1.00  0.00     0.040 A 
ATOM     76  F   UNL     1       1.347  12.299  -2.157  1.00  0.00    -0.206 F 
ATOM     77  C   UNL     1       1.996  10.530  -5.236  1.00  0.00     0.006 A 
ENDBRANCH  56  70
BRANCH  57  78
ATOM     78  C   UNL     1      -0.457   2.983  -1.760  1.00  0.00     0.057 A 
ATOM     79  C   UNL     1       0.628   2.267  -2.285  1.00  0.00     0.134 A 
ATOM     80  C   UNL     1      -1.728   2.542  -2.175  1.00  0.00     0.134 A 
ATOM     81  F   UNL     1       1.885   2.642  -2.016  1.00  0.00    -0.206 F 
ATOM     82  C   UNL     1       0.468   1.155  -3.127  1.00  0.00     0.040 A 
ATOM     83  C   UNL     1      -1.905   1.437  -3.030  1.00  0.00     0.040 A 
ATOM     84  F   UNL     1      -2.835   3.172  -1.755  1.00  0.00    -0.206 F 
ATOM     85  C   UNL     1      -0.802   0.731  -3.499  1.00  0.00     0.006 A 
ENDBRANCH  57  78
BRANCH  69  86
ATOM     86  C   UNL     1      -1.536   8.051   1.927  1.00  0.00     0.057 A 
ATOM     87  C   UNL     1      -2.700   8.749   2.237  1.00  0.00     0.134 A 
ATOM     88  C   UNL     1      -1.002   7.255   2.945  1.00  0.00     0.134 A 
ATOM     89  F   UNL     1      -3.197   9.642   1.368  1.00  0.00    -0.206 F 
ATOM     90  C   UNL     1      -3.327   8.616   3.481  1.00  0.00     0.040 A 
ATOM     91  C   UNL     1      -1.651   7.045   4.165  1.00  0.00     0.040 A 
ATOM     92  F   UNL     1       0.239   6.785   2.840  1.00  0.00    -0.206 F 
ATOM     93  C   UNL     1      -2.825   7.735   4.437  1.00  0.00     0.006 A 
ENDBRANCH  69  86
ENDBRANCH  43  44
ENDBRANCH  36  38
ENDBRANCH  35  36
ENDBRANCH  34  35
ENDBRANCH  33  34
ENDBRANCH  32  33
ENDBRANCH  31  32
ENDBRANCH   1  31
TORSDOF 22
