REMARK SMILES O=C(C[C@@H](NS(=O)(=O)c1ccc(Cl)cc1)c1ccc(F)cc1)OCCOCCOCCOC(=O)c1ccc(-c2c3nc(c(-c4c(F)cccc4F)c4ccc([nH]4)c(-c4c(F)cccc4F)c4nc(c(-c5c(F)cccc5F)c5ccc2[nH]5)C=C4)C=C3)cc1
REMARK SMILES IDX 27 1 26 2 25 3 24 4 23 5 2 6 1 7 3 8 4 9 5 10 6 12 7 13 8 14
REMARK SMILES IDX 9 15 10 16 15 17 11 18 14 19 12 20 13 21 16 22 17 23 22 24
REMARK SMILES IDX 18 25 21 26 19 27 20 28 28 29 29 30 30 31 31 32 32 33 33 34
REMARK SMILES IDX 34 35 35 36 36 37 88 38 37 39 87 40 38 41 39 42 40 43 81 44
REMARK SMILES IDX 41 45 86 46 80 47 82 48 42 49 85 50 79 51 78 52 43 54 69 55
REMARK SMILES IDX 52 56 68 57 53 58 56 59 67 60 83 61 54 62 55 63 66 65 84 66
REMARK SMILES IDX 57 67 44 68 45 69 50 70 46 71 47 72 49 73 51 74 48 75 70 76
REMARK SMILES IDX 71 77 76 78 72 79 73 80 75 81 77 82 74 83 58 84 59 85 64 86
REMARK SMILES IDX 60 87 61 88 63 89 65 90 62 91
REMARK H PARENT 5 11 82 53 56 64
REMARK Flexibility Score: inf
ROOT
ATOM      1  C   UNL     1       2.800   0.507   1.873  1.00  0.00     0.188 C 
ENDROOT
BRANCH   1   2
ATOM      2  O   UNL     1       4.211   0.424   1.813  1.00  0.00    -0.376 OA
BRANCH   2   3
ATOM      3  C   UNL     1       4.877   0.687   0.582  1.00  0.00     0.202 C 
BRANCH   3   4
ATOM      4  C   UNL     1       4.136   1.451  -0.520  1.00  0.00     0.261 C 
BRANCH   4   5
ATOM      5  O   UNL     1       3.522   0.645  -1.573  1.00  0.00    -0.463 OA
BRANCH   5   6
ATOM      6  C   UNL     1       2.557  -0.281  -1.341  1.00  0.00     0.307 C 
ATOM      7  O   UNL     1       1.381  -0.082  -1.617  1.00  0.00    -0.252 OA
BRANCH   6   8
ATOM      8  C   UNL     1       3.051  -1.595  -0.795  1.00  0.00     0.147 C 
BRANCH   8   9
ATOM      9  C   UNL     1       4.159  -2.269  -1.615  1.00  0.00     0.111 C 
BRANCH   9  10
ATOM     10  N   UNL     1       5.234  -1.307  -1.959  1.00  0.00    -0.203 NA
ATOM     11  H   UNL     1       5.835  -1.238  -1.137  1.00  0.00     0.142 HD
BRANCH  10  12
ATOM     12  S   UNL     1       6.248  -1.576  -3.270  1.00  0.00     0.241 S 
ATOM     13  O   UNL     1       5.420  -2.000  -4.377  1.00  0.00    -0.207 OA
ATOM     14  O   UNL     1       7.078  -0.396  -3.352  1.00  0.00    -0.207 OA
BRANCH  12  15
ATOM     15  C   UNL     1       7.246  -2.919  -2.721  1.00  0.00     0.082 A 
ATOM     16  C   UNL     1       6.878  -4.217  -3.082  1.00  0.00     0.023 A 
ATOM     17  C   UNL     1       8.341  -2.680  -1.884  1.00  0.00     0.023 A 
ATOM     18  C   UNL     1       7.572  -5.296  -2.543  1.00  0.00     0.022 A 
ATOM     19  C   UNL     1       9.040  -3.767  -1.358  1.00  0.00     0.022 A 
ATOM     20  C   UNL     1       8.642  -5.068  -1.678  1.00  0.00     0.041 A 
ATOM     21  Cl  UNL     1       9.462  -6.407  -0.977  1.00  0.00    -0.084 Cl
ENDBRANCH  12  15
ENDBRANCH  10  12
ENDBRANCH   9  10
BRANCH   9  22
ATOM     22  C   UNL     1       4.660  -3.432  -0.755  1.00  0.00    -0.029 A 
ATOM     23  C   UNL     1       5.658  -3.247   0.225  1.00  0.00     0.008 A 
ATOM     24  C   UNL     1       4.084  -4.706  -0.885  1.00  0.00     0.008 A 
ATOM     25  C   UNL     1       6.110  -4.313   1.004  1.00  0.00     0.039 A 
ATOM     26  C   UNL     1       4.533  -5.771  -0.098  1.00  0.00     0.039 A 
ATOM     27  C   UNL     1       5.549  -5.568   0.828  1.00  0.00     0.123 A 
ATOM     28  F   UNL     1       5.995  -6.598   1.558  1.00  0.00    -0.207 F 
ENDBRANCH   9  22
ENDBRANCH   8   9
ENDBRANCH   6   8
ENDBRANCH   5   6
ENDBRANCH   4   5
ENDBRANCH   3   4
ENDBRANCH   2   3
ENDBRANCH   1   2
BRANCH   1  29
ATOM     29  C   UNL     1       2.224   1.736   2.584  1.00  0.00     0.188 C 
BRANCH  29  30
ATOM     30  O   UNL     1       3.019   2.905   2.654  1.00  0.00    -0.376 OA
BRANCH  30  31
ATOM     31  C   UNL     1       4.294   2.829   3.287  1.00  0.00     0.202 C 
BRANCH  31  32
ATOM     32  C   UNL     1       4.456   2.108   4.638  1.00  0.00     0.261 C 
BRANCH  32  33
ATOM     33  O   UNL     1       4.095   0.712   4.643  1.00  0.00    -0.460 OA
BRANCH  33  34
ATOM     34  C   UNL     1       3.046   0.386   5.435  1.00  0.00     0.338 C 
ATOM     35  O   UNL     1       2.369   1.143   6.112  1.00  0.00    -0.246 OA
BRANCH  34  36
ATOM     36  C   UNL     1       2.700  -1.042   5.298  1.00  0.00     0.060 A 
ATOM     37  C   UNL     1       1.437  -1.379   4.791  1.00  0.00     0.016 A 
ATOM     38  C   UNL     1       3.530  -2.025   5.837  1.00  0.00     0.016 A 
ATOM     39  C   UNL     1       0.978  -2.695   4.869  1.00  0.00     0.010 A 
ATOM     40  C   UNL     1       3.061  -3.341   5.931  1.00  0.00     0.010 A 
ATOM     41  C   UNL     1       1.764  -3.671   5.495  1.00  0.00    -0.014 A 
BRANCH  41  42
ATOM     42  C   UNL     1       1.146  -4.960   5.900  1.00  0.00     0.031 A 
ATOM     43  C   UNL     1       0.654  -5.109   7.316  1.00  0.00     0.074 A 
ATOM     44  C   UNL     1       0.985  -5.971   5.030  1.00  0.00     0.049 A 
ATOM     45  N   UNL     1       0.110  -6.144   7.904  1.00  0.00    -0.248 NA
ATOM     46  C   UNL     1       0.800  -3.930   8.185  1.00  0.00     0.031 C 
ATOM     47  C   UNL     1       1.369  -5.944   3.622  1.00  0.00     0.029 A 
ATOM     48  N   UNL     1       0.454  -7.225   5.214  1.00  0.00    -0.354 N 
ATOM     49  C   UNL     1      -0.148  -5.743   9.210  1.00  0.00     0.074 A 
ATOM     50  C   UNL     1       0.335  -4.385   9.338  1.00  0.00     0.031 C 
ATOM     51  C   UNL     1       1.063  -7.130   3.067  1.00  0.00     0.029 A 
ATOM     52  C   UNL     1       0.490  -8.009   4.088  1.00  0.00     0.049 A 
ATOM     53  H   UNL     1       0.082  -7.532   6.072  1.00  0.00     0.167 HD
ATOM     54  C   UNL     1      -0.745  -6.434  10.209  1.00  0.00     0.037 A 
ATOM     55  C   UNL     1       0.116  -9.291   3.904  1.00  0.00     0.037 A 
ATOM     56  C   UNL     1      -1.222  -7.787  10.088  1.00  0.00     0.049 A 
ATOM     57  C   UNL     1      -0.476 -10.072   5.049  1.00  0.00     0.074 A 
ATOM     58  C   UNL     1      -1.840  -8.570  11.047  1.00  0.00     0.029 A 
ATOM     59  N   UNL     1      -1.129  -8.558   8.940  1.00  0.00    -0.354 N 
ATOM     60  N   UNL     1      -0.719  -9.684   6.277  1.00  0.00    -0.248 NA
ATOM     61  C   UNL     1      -0.851 -11.469   4.779  1.00  0.00     0.031 C 
ATOM     62  C   UNL     1      -2.072  -9.834  10.496  1.00  0.00     0.029 A 
ATOM     63  C   UNL     1      -1.661  -9.816   9.173  1.00  0.00     0.049 A 
ATOM     64  H   UNL     1      -0.743  -8.257   8.086  1.00  0.00     0.167 HD
ATOM     65  C   UNL     1      -1.306 -10.772   6.915  1.00  0.00     0.074 A 
ATOM     66  C   UNL     1      -1.382 -11.837   5.938  1.00  0.00     0.031 C 
ATOM     67  C   UNL     1      -1.748 -10.871   8.193  1.00  0.00     0.037 A 
BRANCH  54  68
ATOM     68  C   UNL     1      -0.897  -5.742  11.533  1.00  0.00     0.057 A 
ATOM     69  C   UNL     1      -0.164  -6.165  12.649  1.00  0.00     0.134 A 
ATOM     70  C   UNL     1      -1.790  -4.678  11.714  1.00  0.00     0.134 A 
ATOM     71  F   UNL     1       0.705  -7.182  12.549  1.00  0.00    -0.206 F 
ATOM     72  C   UNL     1      -0.317  -5.558  13.897  1.00  0.00     0.040 A 
ATOM     73  C   UNL     1      -1.930  -4.043  12.949  1.00  0.00     0.040 A 
ATOM     74  F   UNL     1      -2.513  -4.214  10.683  1.00  0.00    -0.206 F 
ATOM     75  C   UNL     1      -1.197  -4.489  14.047  1.00  0.00     0.006 A 
ENDBRANCH  54  68
BRANCH  55  76
ATOM     76  C   UNL     1       0.273  -9.908   2.563  1.00  0.00     0.057 A 
ATOM     77  C   UNL     1       1.537 -10.205   2.039  1.00  0.00     0.134 A 
ATOM     78  C   UNL     1      -0.839 -10.186   1.761  1.00  0.00     0.134 A 
ATOM     79  F   UNL     1       2.642  -9.962   2.759  1.00  0.00    -0.206 F 
ATOM     80  C   UNL     1       1.691 -10.730   0.755  1.00  0.00     0.040 A 
ATOM     81  C   UNL     1      -0.702 -10.732   0.484  1.00  0.00     0.040 A 
ATOM     82  F   UNL     1      -2.077  -9.946   2.218  1.00  0.00    -0.206 F 
ATOM     83  C   UNL     1       0.569 -10.996  -0.026  1.00  0.00     0.006 A 
ENDBRANCH  55  76
BRANCH  67  84
ATOM     84  C   UNL     1      -2.404 -12.155   8.619  1.00  0.00     0.057 A 
ATOM     85  C   UNL     1      -3.775 -12.186   8.911  1.00  0.00     0.134 A 
ATOM     86  C   UNL     1      -1.674 -13.331   8.828  1.00  0.00     0.134 A 
ATOM     87  F   UNL     1      -4.532 -11.091   8.746  1.00  0.00    -0.206 F 
ATOM     88  C   UNL     1      -4.392 -13.334   9.412  1.00  0.00     0.040 A 
ATOM     89  C   UNL     1      -2.286 -14.495   9.302  1.00  0.00     0.040 A 
ATOM     90  F   UNL     1      -0.360 -13.373   8.562  1.00  0.00    -0.206 F 
ATOM     91  C   UNL     1      -3.646 -14.494   9.606  1.00  0.00     0.006 A 
ENDBRANCH  67  84
ENDBRANCH  41  42
ENDBRANCH  34  36
ENDBRANCH  33  34
ENDBRANCH  32  33
ENDBRANCH  31  32
ENDBRANCH  30  31
ENDBRANCH  29  30
ENDBRANCH   1  29
TORSDOF 22
