REMARK SMILES CCOC(=O)CCC(=O)N[C@H]1CCCCC[C@@H]1C(=O)OCCOCCOCCOC(=O)c1ccc(-c2c3nc(c(-c4c(F)cccc4F)c4ccc([nH]4)c(-c4c(F)cccc4F)c4nc(c(-c5c(F)cccc5F)c5ccc2[nH]5)C=C4)C=C3)cc1
REMARK SMILES IDX 22 1 21 2 20 3 18 4 19 5 17 6 11 7 10 8 8 9 9 10 7 12 6 13
REMARK SMILES IDX 4 14 5 15 3 16 2 17 1 18 12 19 13 20 14 21 16 23 15 24 23 26
REMARK SMILES IDX 24 27 25 28 26 29 27 30 28 31 29 32 30 33 31 34 32 35 33 36
REMARK SMILES IDX 85 37 34 38 84 39 35 40 36 41 37 42 78 43 38 44 83 45 77 46
REMARK SMILES IDX 79 47 39 48 82 49 76 50 75 51 40 53 66 54 49 55 65 56 50 57
REMARK SMILES IDX 53 58 64 59 80 60 51 61 52 62 63 64 81 65 54 66 41 67 42 68
REMARK SMILES IDX 47 69 43 70 44 71 46 72 48 73 45 74 67 75 68 76 73 77 69 78
REMARK SMILES IDX 70 79 72 80 74 81 71 82 55 83 56 84 61 85 57 86 58 87 60 88
REMARK SMILES IDX 62 89 59 90
REMARK H PARENT 10 11 79 52 53 63
REMARK Flexibility Score: 100.00
ROOT
ATOM      1  C   UNL     1       1.310   6.478   0.765  1.00  0.00     0.202 C 
ENDROOT
BRANCH   1   2
ATOM      2  C   UNL     1       1.653   5.227   1.589  1.00  0.00     0.261 C 
BRANCH   2   3
ATOM      3  O   UNL     1       1.861   3.994   0.850  1.00  0.00    -0.463 OA
BRANCH   3   4
ATOM      4  C   UNL     1       1.841   2.896   1.661  1.00  0.00     0.311 C 
ATOM      5  O   UNL     1       1.639   2.979   2.872  1.00  0.00    -0.252 OA
BRANCH   4   6
ATOM      6  C   UNL     1       2.169   1.531   1.003  1.00  0.00     0.121 C 
BRANCH   6   7
ATOM      7  C   UNL     1       1.845   1.417  -0.837  1.00  0.00     0.096 C 
BRANCH   7   8
ATOM      8  N   UNL     1       3.134   1.354  -1.502  1.00  0.00    -0.352 N 
ATOM      9  C   UNL     1       3.774   0.171  -1.662  1.00  0.00     0.220 C 
ATOM     10  O   UNL     1       4.877   0.077  -2.182  1.00  0.00    -0.275 OA
ATOM     11  H   UNL     1       3.548   2.180  -1.842  1.00  0.00     0.163 HD
BRANCH   9  12
ATOM     12  C   UNL     1       2.955  -1.001  -1.214  1.00  0.00     0.111 C 
BRANCH  12  13
ATOM     13  C   UNL     1       2.048  -0.683   0.065  1.00  0.00     0.132 C 
BRANCH  13  14
ATOM     14  C   UNL     1       0.215   0.058   0.474  1.00  0.00     0.306 C 
ATOM     15  O   UNL     1      -0.836  -0.526   0.765  1.00  0.00    -0.252 OA
BRANCH  14  16
ATOM     16  O   UNL     1      -0.010   1.424   0.478  1.00  0.00    -0.466 OA
BRANCH  16  17
ATOM     17  C   UNL     1      -1.201   1.908   1.148  1.00  0.00     0.229 C 
ATOM     18  C   UNL     1      -2.373   1.991   0.204  1.00  0.00     0.049 C 
ENDBRANCH  16  17
ENDBRANCH  14  16
ENDBRANCH  13  14
ENDBRANCH  12  13
ENDBRANCH   9  12
ENDBRANCH   7   8
BRANCH   7  19
ATOM     19  C   UNL     1       0.710   0.206  -1.714  1.00  0.00     0.026 C 
BRANCH  19  20
ATOM     20  C   UNL     1       0.221  -1.522  -1.198  1.00  0.00     0.002 C 
BRANCH  20  21
ATOM     21  C   UNL     1       0.377  -2.335   0.466  1.00  0.00     0.000 CG0
ATOM     22  G   UNL     1       0.978  -1.492   2.038  1.00  0.00     0.000 G0
ENDBRANCH  20  21
ENDBRANCH  19  20
ENDBRANCH   7  19
ENDBRANCH   6   7
BRANCH   6  23
ATOM     23  C   UNL     1       1.622   0.236   2.262  1.00  0.00     0.017 C 
BRANCH  23  24
ATOM     24  C   UNL     1       0.978  -1.492   2.038  1.00  0.00     0.001 CG0
ATOM     25  G   UNL     1       0.377  -2.335   0.466  1.00  0.00     0.000 G0
ENDBRANCH  23  24
ENDBRANCH   6  23
ENDBRANCH   4   6
ENDBRANCH   3   4
ENDBRANCH   2   3
ENDBRANCH   1   2
BRANCH   1  26
ATOM     26  O   UNL     1       0.044   6.621   0.130  1.00  0.00    -0.376 OA
BRANCH  26  27
ATOM     27  C   UNL     1      -0.677   5.472  -0.239  1.00  0.00     0.188 C 
BRANCH  27  28
ATOM     28  C   UNL     1      -0.088   4.552  -1.301  1.00  0.00     0.188 C 
BRANCH  28  29
ATOM     29  O   UNL     1       1.072   4.892  -2.039  1.00  0.00    -0.376 OA
BRANCH  29  30
ATOM     30  C   UNL     1       1.126   6.154  -2.686  1.00  0.00     0.202 C 
BRANCH  30  31
ATOM     31  C   UNL     1       0.109   6.491  -3.786  1.00  0.00     0.261 C 
BRANCH  31  32
ATOM     32  O   UNL     1      -1.143   5.804  -3.689  1.00  0.00    -0.460 OA
BRANCH  32  33
ATOM     33  C   UNL     1      -1.212   4.654  -4.407  1.00  0.00     0.338 C 
ATOM     34  O   UNL     1      -0.365   4.208  -5.166  1.00  0.00    -0.246 OA
BRANCH  33  35
ATOM     35  C   UNL     1      -2.411   3.890  -3.989  1.00  0.00     0.060 A 
ATOM     36  C   UNL     1      -2.255   2.522  -3.727  1.00  0.00     0.016 A 
ATOM     37  C   UNL     1      -3.658   4.498  -3.821  1.00  0.00     0.016 A 
ATOM     38  C   UNL     1      -3.349   1.754  -3.322  1.00  0.00     0.010 A 
ATOM     39  C   UNL     1      -4.761   3.721  -3.441  1.00  0.00     0.010 A 
ATOM     40  C   UNL     1      -4.618   2.341  -3.212  1.00  0.00    -0.014 A 
BRANCH  40  41
ATOM     41  C   UNL     1      -5.819   1.475  -3.077  1.00  0.00     0.031 A 
ATOM     42  C   UNL     1      -6.458   0.956  -4.333  1.00  0.00     0.074 A 
ATOM     43  C   UNL     1      -6.337   1.133  -1.883  1.00  0.00     0.049 A 
ATOM     44  N   UNL     1      -7.529   0.220  -4.475  1.00  0.00    -0.248 NA
ATOM     45  C   UNL     1      -5.805   1.328  -5.598  1.00  0.00     0.031 C 
ATOM     46  C   UNL     1      -5.810   1.550  -0.592  1.00  0.00     0.029 A 
ATOM     47  N   UNL     1      -7.423   0.354  -1.561  1.00  0.00    -0.354 N 
ATOM     48  C   UNL     1      -7.682   0.045  -5.843  1.00  0.00     0.074 A 
ATOM     49  C   UNL     1      -6.606   0.764  -6.489  1.00  0.00     0.031 C 
ATOM     50  C   UNL     1      -6.549   1.004   0.389  1.00  0.00     0.029 A 
ATOM     51  C   UNL     1      -7.650   0.251  -0.208  1.00  0.00     0.049 A 
ATOM     52  H   UNL     1      -7.985  -0.089  -2.236  1.00  0.00     0.167 HD
ATOM     53  C   UNL     1      -8.637  -0.649  -6.503  1.00  0.00     0.037 A 
ATOM     54  C   UNL     1      -8.652  -0.347   0.469  1.00  0.00     0.037 A 
ATOM     55  C   UNL     1      -9.723  -1.346  -5.870  1.00  0.00     0.049 A 
ATOM     56  C   UNL     1      -9.749  -1.043  -0.299  1.00  0.00     0.074 A 
ATOM     57  C   UNL     1     -10.741  -2.071  -6.465  1.00  0.00     0.029 A 
ATOM     58  N   UNL     1      -9.943  -1.394  -4.502  1.00  0.00    -0.354 N 
ATOM     59  N   UNL     1      -9.873  -1.220  -1.592  1.00  0.00    -0.248 NA
ATOM     60  C   UNL     1     -10.855  -1.612   0.489  1.00  0.00     0.031 C 
ATOM     61  C   UNL     1     -11.607  -2.513  -5.461  1.00  0.00     0.029 A 
ATOM     62  C   UNL     1     -11.094  -2.116  -4.236  1.00  0.00     0.049 A 
ATOM     63  H   UNL     1      -9.366  -0.977  -3.822  1.00  0.00     0.167 HD
ATOM     64  C   UNL     1     -11.045  -1.946  -1.768  1.00  0.00     0.074 A 
ATOM     65  C   UNL     1     -11.590  -2.189  -0.450  1.00  0.00     0.031 C 
ATOM     66  C   UNL     1     -11.619  -2.373  -2.920  1.00  0.00     0.037 A 
BRANCH  53  67
ATOM     67  C   UNL     1      -8.568  -0.651  -8.000  1.00  0.00     0.057 A 
ATOM     68  C   UNL     1      -7.591  -1.376  -8.694  1.00  0.00     0.134 A 
ATOM     69  C   UNL     1      -9.510   0.059  -8.754  1.00  0.00     0.134 A 
ATOM     70  F   UNL     1      -6.647  -2.057  -8.026  1.00  0.00    -0.206 F 
ATOM     71  C   UNL     1      -7.545  -1.382 -10.088  1.00  0.00     0.040 A 
ATOM     72  C   UNL     1      -9.490   0.038 -10.148  1.00  0.00     0.040 A 
ATOM     73  F   UNL     1     -10.469   0.774  -8.148  1.00  0.00    -0.206 F 
ATOM     74  C   UNL     1      -8.502  -0.681 -10.819  1.00  0.00     0.006 A 
ENDBRANCH  53  67
BRANCH  54  75
ATOM     75  C   UNL     1      -8.713  -0.286   1.955  1.00  0.00     0.057 A 
ATOM     76  C   UNL     1      -8.620  -1.444   2.737  1.00  0.00     0.134 A 
ATOM     77  C   UNL     1      -8.946   0.922   2.626  1.00  0.00     0.134 A 
ATOM     78  F   UNL     1      -8.432  -2.638   2.155  1.00  0.00    -0.206 F 
ATOM     79  C   UNL     1      -8.787  -1.409   4.124  1.00  0.00     0.040 A 
ATOM     80  C   UNL     1      -9.082   0.976   4.014  1.00  0.00     0.040 A 
ATOM     81  F   UNL     1      -9.052   2.069   1.940  1.00  0.00    -0.206 F 
ATOM     82  C   UNL     1      -9.016  -0.195   4.766  1.00  0.00     0.006 A 
ENDBRANCH  54  75
BRANCH  66  83
ATOM     83  C   UNL     1     -12.869  -3.198  -2.812  1.00  0.00     0.057 A 
ATOM     84  C   UNL     1     -14.098  -2.647  -2.426  1.00  0.00     0.134 A 
ATOM     85  C   UNL     1     -12.851  -4.558  -3.150  1.00  0.00     0.134 A 
ATOM     86  F   UNL     1     -14.184  -1.353  -2.079  1.00  0.00    -0.206 F 
ATOM     87  C   UNL     1     -15.256  -3.423  -2.357  1.00  0.00     0.040 A 
ATOM     88  C   UNL     1     -14.008  -5.337  -3.114  1.00  0.00     0.040 A 
ATOM     89  F   UNL     1     -11.710  -5.148  -3.539  1.00  0.00    -0.206 F 
ATOM     90  C   UNL     1     -15.215  -4.771  -2.710  1.00  0.00     0.006 A 
ENDBRANCH  66  83
ENDBRANCH  40  41
ENDBRANCH  33  35
ENDBRANCH  32  33
ENDBRANCH  31  32
ENDBRANCH  30  31
ENDBRANCH  29  30
ENDBRANCH  28  29
ENDBRANCH  27  28
ENDBRANCH  26  27
ENDBRANCH   1  26
TORSDOF 23
