REMARK SMILES C[C@H](O)C[NH2+][C@H](CC(=O)Nc1cccc2ccccc12)C(=O)OCCOCCOCCOC(=O)c1ccc(-c2c3nc(c(-c4c(F)cccc4F)c4ccc([nH]4)c(-c4c(F)cccc4F)c4nc(c(-c5c(F)cccc5F)c5ccc2[nH]5)C=C4)C=C3)cc1
REMARK SMILES IDX 27 1 26 2 25 3 24 4 23 5 21 6 22 7 6 8 5 9 4 12 2 13 1 14
REMARK SMILES IDX 3 15 7 17 8 18 9 19 10 20 11 22 12 23 20 24 13 25 15 26
REMARK SMILES IDX 19 27 14 28 16 29 18 30 17 31 28 32 29 33 30 34 31 35 32 36
REMARK SMILES IDX 33 37 34 38 35 39 36 40 88 41 37 42 87 43 38 44 39 45 40 46
REMARK SMILES IDX 81 47 41 48 86 49 80 50 82 51 42 52 85 53 79 54 78 55 43 57
REMARK SMILES IDX 69 58 52 59 68 60 53 61 56 62 67 63 83 64 54 65 55 66 66 68
REMARK SMILES IDX 84 69 57 70 44 71 45 72 50 73 46 74 47 75 49 76 51 77 48 78
REMARK SMILES IDX 70 79 71 80 76 81 72 82 73 83 75 84 77 85 74 86 58 87 59 88
REMARK SMILES IDX 64 89 60 90 61 91 63 92 65 93 62 94
REMARK H PARENT 5 10 5 11 3 16 10 21 82 56 56 67
REMARK Flexibility Score: inf
ROOT
ATOM      1  C   UNL     1      -2.519   3.967  -3.516  1.00  0.00     0.188 C 
ENDROOT
BRANCH   1   2
ATOM      2  O   UNL     1      -3.097   5.000  -2.715  1.00  0.00    -0.376 OA
BRANCH   2   3
ATOM      3  C   UNL     1      -2.967   5.030  -1.157  1.00  0.00     0.202 C 
BRANCH   3   4
ATOM      4  C   UNL     1      -4.143   4.063   0.411  1.00  0.00     0.261 C 
BRANCH   4   5
ATOM      5  O   UNL     1      -4.281   2.364   0.648  1.00  0.00    -0.459 OA
BRANCH   5   6
ATOM      6  C   UNL     1      -4.781   1.365  -0.184  1.00  0.00     0.365 C 
ATOM      7  O   UNL     1      -5.800   1.459  -0.861  1.00  0.00    -0.245 OA
BRANCH   6   8
ATOM      8  C   UNL     1      -3.768   0.115  -0.279  1.00  0.00     0.302 C 
BRANCH   8   9
ATOM      9  N   UNL     1      -3.882  -0.806   0.894  1.00  0.00    -0.332 N 
ATOM     10  H   UNL     1      -4.577  -1.530   0.708  1.00  0.00     0.347 HD
ATOM     11  H   UNL     1      -2.997  -1.274   1.085  1.00  0.00     0.347 HD
BRANCH   9  12
ATOM     12  C   UNL     1      -4.300   0.017   2.019  1.00  0.00     0.292 C 
BRANCH  12  13
ATOM     13  C   UNL     1      -4.377  -0.528   3.422  1.00  0.00     0.166 C 
ATOM     14  C   UNL     1      -4.873   0.655   4.265  1.00  0.00     0.044 C 
BRANCH  13  15
ATOM     15  O   UNL     1      -3.086  -0.925   3.865  1.00  0.00    -0.388 OA
ATOM     16  H   UNL     1      -2.480  -0.169   3.814  1.00  0.00     0.211 HD
ENDBRANCH  13  15
ENDBRANCH  12  13
ENDBRANCH   9  12
ENDBRANCH   8   9
BRANCH   8  17
ATOM     17  C   UNL     1      -2.291   0.356  -0.662  1.00  0.00     0.177 C 
BRANCH  17  18
ATOM     18  C   UNL     1      -1.403   1.050   0.336  1.00  0.00     0.231 C 
ATOM     19  O   UNL     1      -0.642   0.381   1.044  1.00  0.00    -0.274 OA
ATOM     20  N   UNL     1      -1.397   2.397   0.485  1.00  0.00    -0.325 N 
ATOM     21  H   UNL     1      -0.671   2.739   1.055  1.00  0.00     0.169 HD
BRANCH  20  22
ATOM     22  C   UNL     1      -2.245   3.393  -0.031  1.00  0.00     0.049 A 
ATOM     23  C   UNL     1      -3.524   3.097  -1.282  1.00  0.00     0.027 A 
ATOM     24  C   UNL     1      -2.192   4.968   0.854  1.00  0.00     0.005 A 
ATOM     25  C   UNL     1      -4.885   4.274  -1.493  1.00  0.00     0.003 A 
ATOM     26  C   UNL     1      -3.498   6.156   0.596  1.00  0.00    -0.016 A 
ATOM     27  C   UNL     1      -1.097   5.420   1.589  1.00  0.00     0.011 A 
ATOM     28  C   UNL     1      -4.843   5.798  -0.553  1.00  0.00     0.009 A 
ATOM     29  C   UNL     1      -3.231   7.441   1.052  1.00  0.00     0.009 A 
ATOM     30  C   UNL     1      -0.964   6.789   1.860  1.00  0.00     0.001 A 
ATOM     31  C   UNL     1      -1.964   7.750   1.578  1.00  0.00     0.001 A 
ENDBRANCH  20  22
ENDBRANCH  17  18
ENDBRANCH   8  17
ENDBRANCH   6   8
ENDBRANCH   5   6
ENDBRANCH   4   5
ENDBRANCH   3   4
ENDBRANCH   2   3
ENDBRANCH   1   2
BRANCH   1  32
ATOM     32  C   UNL     1      -1.224   3.254  -3.066  1.00  0.00     0.188 C 
BRANCH  32  33
ATOM     33  O   UNL     1      -0.428   3.847  -2.075  1.00  0.00    -0.376 OA
BRANCH  33  34
ATOM     34  C   UNL     1       0.471   4.880  -2.433  1.00  0.00     0.202 C 
BRANCH  34  35
ATOM     35  C   UNL     1       0.133   5.837  -3.584  1.00  0.00     0.261 C 
BRANCH  35  36
ATOM     36  O   UNL     1      -0.201   5.285  -4.878  1.00  0.00    -0.460 OA
BRANCH  36  37
ATOM     37  C   UNL     1       0.460   4.230  -5.412  1.00  0.00     0.338 C 
ATOM     38  O   UNL     1       1.504   3.742  -5.025  1.00  0.00    -0.246 OA
BRANCH  37  39
ATOM     39  C   UNL     1      -0.526   3.560  -6.321  1.00  0.00     0.060 A 
ATOM     40  C   UNL     1      -0.867   2.204  -6.119  1.00  0.00     0.016 A 
ATOM     41  C   UNL     1      -1.236   4.316  -7.252  1.00  0.00     0.016 A 
ATOM     42  C   UNL     1      -1.909   1.611  -6.837  1.00  0.00     0.010 A 
ATOM     43  C   UNL     1      -2.230   3.708  -8.020  1.00  0.00     0.010 A 
ATOM     44  C   UNL     1      -2.541   2.345  -7.844  1.00  0.00    -0.014 A 
BRANCH  44  45
ATOM     45  C   UNL     1      -3.231   1.641  -8.949  1.00  0.00     0.031 A 
ATOM     46  C   UNL     1      -2.395   1.331 -10.161  1.00  0.00     0.074 A 
ATOM     47  C   UNL     1      -4.537   1.330  -8.921  1.00  0.00     0.049 A 
ATOM     48  N   UNL     1      -2.760   0.925 -11.347  1.00  0.00    -0.248 NA
ATOM     49  C   UNL     1      -0.942   1.533 -10.013  1.00  0.00     0.031 C 
ATOM     50  C   UNL     1      -5.434   1.509  -7.783  1.00  0.00     0.029 A 
ATOM     51  N   UNL     1      -5.342   0.821  -9.911  1.00  0.00    -0.354 N 
ATOM     52  C   UNL     1      -1.587   0.854 -12.090  1.00  0.00     0.074 A 
ATOM     53  C   UNL     1      -0.506   1.282 -11.235  1.00  0.00     0.031 C 
ATOM     54  C   UNL     1      -6.677   1.147  -8.150  1.00  0.00     0.029 A 
ATOM     55  C   UNL     1      -6.669   0.762  -9.562  1.00  0.00     0.049 A 
ATOM     56  H   UNL     1      -5.000   0.526 -10.786  1.00  0.00     0.167 HD
ATOM     57  C   UNL     1      -1.428   0.468 -13.376  1.00  0.00     0.037 A 
ATOM     58  C   UNL     1      -7.751   0.474 -10.315  1.00  0.00     0.037 A 
ATOM     59  C   UNL     1      -2.513   0.056 -14.221  1.00  0.00     0.049 A 
ATOM     60  C   UNL     1      -7.565   0.142 -11.777  1.00  0.00     0.074 A 
ATOM     61  C   UNL     1      -2.465  -0.364 -15.537  1.00  0.00     0.029 A 
ATOM     62  N   UNL     1      -3.844   0.028 -13.834  1.00  0.00    -0.354 N 
ATOM     63  N   UNL     1      -6.457   0.069 -12.477  1.00  0.00    -0.248 NA
ATOM     64  C   UNL     1      -8.780  -0.142 -12.556  1.00  0.00     0.031 C 
ATOM     65  C   UNL     1      -3.776  -0.576 -15.969  1.00  0.00     0.029 A 
ATOM     66  C   UNL     1      -4.633  -0.372 -14.898  1.00  0.00     0.049 A 
ATOM     67  H   UNL     1      -4.178   0.258 -12.937  1.00  0.00     0.167 HD
ATOM     68  C   UNL     1      -6.837  -0.312 -13.760  1.00  0.00     0.074 A 
ATOM     69  C   UNL     1      -8.277  -0.456 -13.742  1.00  0.00     0.031 C 
ATOM     70  C   UNL     1      -6.064  -0.529 -14.854  1.00  0.00     0.037 A 
BRANCH  57  71
ATOM     71  C   UNL     1      -0.042   0.524 -13.950  1.00  0.00     0.057 A 
ATOM     72  C   UNL     1       0.981  -0.332 -13.520  1.00  0.00     0.134 A 
ATOM     73  C   UNL     1       0.269   1.442 -14.962  1.00  0.00     0.134 A 
ATOM     74  F   UNL     1       0.758  -1.221 -12.539  1.00  0.00    -0.206 F 
ATOM     75  C   UNL     1       2.268  -0.259 -14.055  1.00  0.00     0.040 A 
ATOM     76  C   UNL     1       1.541   1.500 -15.530  1.00  0.00     0.040 A 
ATOM     77  F   UNL     1      -0.662   2.292 -15.420  1.00  0.00    -0.206 F 
ATOM     78  C   UNL     1       2.548   0.654 -15.070  1.00  0.00     0.006 A 
ENDBRANCH  57  71
BRANCH  58  79
ATOM     79  C   UNL     1      -9.113   0.514  -9.719  1.00  0.00     0.057 A 
ATOM     80  C   UNL     1      -9.888  -0.647  -9.602  1.00  0.00     0.134 A 
ATOM     81  C   UNL     1      -9.690   1.714  -9.283  1.00  0.00     0.134 A 
ATOM     82  F   UNL     1      -9.406  -1.825 -10.025  1.00  0.00    -0.206 F 
ATOM     83  C   UNL     1     -11.189  -0.614  -9.095  1.00  0.00     0.040 A 
ATOM     84  C   UNL     1     -10.977   1.757  -8.744  1.00  0.00     0.040 A 
ATOM     85  F   UNL     1      -9.007   2.865  -9.369  1.00  0.00    -0.206 F 
ATOM     86  C   UNL     1     -11.735   0.591  -8.659  1.00  0.00     0.006 A 
ENDBRANCH  58  79
BRANCH  70  87
ATOM     87  C   UNL     1      -6.739  -1.010 -16.108  1.00  0.00     0.057 A 
ATOM     88  C   UNL     1      -7.562  -0.182 -16.880  1.00  0.00     0.134 A 
ATOM     89  C   UNL     1      -6.488  -2.303 -16.590  1.00  0.00     0.134 A 
ATOM     90  F   UNL     1      -7.849   1.064 -16.473  1.00  0.00    -0.206 F 
ATOM     91  C   UNL     1      -8.126  -0.628 -18.077  1.00  0.00     0.040 A 
ATOM     92  C   UNL     1      -7.017  -2.747 -17.802  1.00  0.00     0.040 A 
ATOM     93  F   UNL     1      -5.696  -3.143 -15.908  1.00  0.00    -0.206 F 
ATOM     94  C   UNL     1      -7.844  -1.910 -18.547  1.00  0.00     0.006 A 
ENDBRANCH  70  87
ENDBRANCH  44  45
ENDBRANCH  37  39
ENDBRANCH  36  37
ENDBRANCH  35  36
ENDBRANCH  34  35
ENDBRANCH  33  34
ENDBRANCH  32  33
ENDBRANCH   1  32
TORSDOF 24
