REMARK SMILES O=C(OCCOCCOCCOC(=O)c1ccc(F)cc1-c1ccc(F)c(Cl)c1)c1ccc(-c2c3nc(c(-c4c(F)cccc4F)c4ccc([nH]4)c(-c4c(F)cccc4F)c4nc(c(-c5c(F)cccc5F)c5ccc2[nH]5)C=C4)C=C3)cc1
REMARK SMILES IDX 7 1 6 2 5 3 4 4 3 5 2 6 1 7 30 8 31 9 83 10 32 11 82 12
REMARK SMILES IDX 33 13 34 14 35 15 76 16 36 17 81 18 75 19 77 20 37 21 80 22
REMARK SMILES IDX 74 23 73 24 38 26 64 27 47 28 63 29 48 30 51 31 62 32 78 33
REMARK SMILES IDX 49 34 50 35 61 37 79 38 52 39 39 40 40 41 45 42 41 43 42 44
REMARK SMILES IDX 44 45 46 46 43 47 65 48 66 49 71 50 67 51 68 52 70 53 72 54
REMARK SMILES IDX 69 55 53 56 54 57 59 58 55 59 56 60 58 61 60 62 57 63 8 64
REMARK SMILES IDX 9 65 10 66 11 67 12 68 13 69 14 70 15 71 16 72 21 73 17 74
REMARK SMILES IDX 20 75 18 76 19 77 22 78 23 79 29 80 24 81 27 82 25 83 28 84
REMARK SMILES IDX 26 85
REMARK H PARENT 77 25 51 36
REMARK Flexibility Score: inf
ROOT
ATOM      1  C   UNL     1       3.552  -1.194  -1.211  1.00  0.00     0.188 C 
ENDROOT
BRANCH   1   2
ATOM      2  O   UNL     1       4.923  -1.220  -0.814  1.00  0.00    -0.376 OA
BRANCH   2   3
ATOM      3  C   UNL     1       5.194  -1.796   0.460  1.00  0.00     0.202 C 
BRANCH   3   4
ATOM      4  C   UNL     1       5.030  -0.801   1.614  1.00  0.00     0.261 C 
BRANCH   4   5
ATOM      5  O   UNL     1       3.716  -0.224   1.582  1.00  0.00    -0.460 OA
BRANCH   5   6
ATOM      6  C   UNL     1       3.590   1.112   1.758  1.00  0.00     0.338 C 
ATOM      7  O   UNL     1       3.047   1.587   2.746  1.00  0.00    -0.246 OA
BRANCH   6   8
ATOM      8  C   UNL     1       3.833   1.954   0.548  1.00  0.00     0.060 A 
ATOM      9  C   UNL     1       4.953   1.819  -0.280  1.00  0.00     0.016 A 
ATOM     10  C   UNL     1       2.930   3.000   0.297  1.00  0.00     0.016 A 
ATOM     11  C   UNL     1       5.217   2.753  -1.282  1.00  0.00     0.010 A 
ATOM     12  C   UNL     1       3.179   3.929  -0.720  1.00  0.00     0.010 A 
ATOM     13  C   UNL     1       4.367   3.848  -1.458  1.00  0.00    -0.014 A 
BRANCH  13  14
ATOM     14  C   UNL     1       4.904   5.045  -2.145  1.00  0.00     0.031 A 
ATOM     15  C   UNL     1       5.498   6.126  -1.282  1.00  0.00     0.074 A 
ATOM     16  C   UNL     1       4.978   5.130  -3.483  1.00  0.00     0.049 A 
ATOM     17  N   UNL     1       6.051   7.257  -1.629  1.00  0.00    -0.248 NA
ATOM     18  C   UNL     1       5.488   5.882   0.171  1.00  0.00     0.031 C 
ATOM     19  C   UNL     1       4.550   4.094  -4.416  1.00  0.00     0.029 A 
ATOM     20  N   UNL     1       5.455   6.135  -4.285  1.00  0.00    -0.354 N 
ATOM     21  C   UNL     1       6.463   7.848  -0.443  1.00  0.00     0.074 A 
ATOM     22  C   UNL     1       6.060   6.979   0.637  1.00  0.00     0.031 C 
ATOM     23  C   UNL     1       4.767   4.526  -5.670  1.00  0.00     0.029 A 
ATOM     24  C   UNL     1       5.316   5.878  -5.626  1.00  0.00     0.049 A 
ATOM     25  H   UNL     1       5.859   6.961  -3.933  1.00  0.00     0.167 HD
ATOM     26  C   UNL     1       7.136   9.006  -0.266  1.00  0.00     0.037 A 
ATOM     27  C   UNL     1       5.581   6.654  -6.695  1.00  0.00     0.037 A 
ATOM     28  C   UNL     1       7.519   9.877  -1.338  1.00  0.00     0.049 A 
ATOM     29  C   UNL     1       6.196   8.008  -6.477  1.00  0.00     0.074 A 
ATOM     30  C   UNL     1       8.165  11.097  -1.270  1.00  0.00     0.029 A 
ATOM     31  N   UNL     1       7.277   9.618  -2.679  1.00  0.00    -0.354 N 
ATOM     32  N   UNL     1       6.564   8.569  -5.350  1.00  0.00    -0.248 NA
ATOM     33  C   UNL     1       6.443   8.833  -7.667  1.00  0.00     0.031 C 
ATOM     34  C   UNL     1       8.275  11.598  -2.571  1.00  0.00     0.029 A 
ATOM     35  C   UNL     1       7.740  10.668  -3.450  1.00  0.00     0.049 A 
ATOM     36  H   UNL     1       6.841   8.808  -3.030  1.00  0.00     0.167 HD
ATOM     37  C   UNL     1       7.113   9.796  -5.694  1.00  0.00     0.074 A 
ATOM     38  C   UNL     1       7.025   9.903  -7.136  1.00  0.00     0.031 C 
ATOM     39  C   UNL     1       7.652  10.743  -4.887  1.00  0.00     0.037 A 
BRANCH  26  40
ATOM     40  C   UNL     1       7.454   9.393   1.146  1.00  0.00     0.057 A 
ATOM     41  C   UNL     1       6.738  10.414   1.782  1.00  0.00     0.134 A 
ATOM     42  C   UNL     1       8.440   8.730   1.889  1.00  0.00     0.134 A 
ATOM     43  F   UNL     1       5.776  11.080   1.128  1.00  0.00    -0.206 F 
ATOM     44  C   UNL     1       6.989  10.759   3.110  1.00  0.00     0.040 A 
ATOM     45  C   UNL     1       8.684   9.051   3.225  1.00  0.00     0.040 A 
ATOM     46  F   UNL     1       9.139   7.722   1.344  1.00  0.00    -0.206 F 
ATOM     47  C   UNL     1       7.959  10.071   3.838  1.00  0.00     0.006 A 
ENDBRANCH  26  40
BRANCH  27  48
ATOM     48  C   UNL     1       5.251   6.161  -8.056  1.00  0.00     0.057 A 
ATOM     49  C   UNL     1       3.918   6.035  -8.474  1.00  0.00     0.134 A 
ATOM     50  C   UNL     1       6.246   5.763  -8.954  1.00  0.00     0.134 A 
ATOM     51  F   UNL     1       2.918   6.402  -7.660  1.00  0.00    -0.206 F 
ATOM     52  C   UNL     1       3.588   5.509  -9.724  1.00  0.00     0.040 A 
ATOM     53  C   UNL     1       5.930   5.252 -10.216  1.00  0.00     0.040 A 
ATOM     54  F   UNL     1       7.540   5.875  -8.620  1.00  0.00    -0.206 F 
ATOM     55  C   UNL     1       4.597   5.116 -10.600  1.00  0.00     0.006 A 
ENDBRANCH  27  48
BRANCH  39  56
ATOM     56  C   UNL     1       8.222  11.968  -5.531  1.00  0.00     0.057 A 
ATOM     57  C   UNL     1       9.609  12.158  -5.583  1.00  0.00     0.134 A 
ATOM     58  C   UNL     1       7.402  13.011  -5.976  1.00  0.00     0.134 A 
ATOM     59  F   UNL     1      10.444  11.197  -5.159  1.00  0.00    -0.206 F 
ATOM     60  C   UNL     1      10.162  13.356  -6.032  1.00  0.00     0.040 A 
ATOM     61  C   UNL     1       7.945  14.207  -6.445  1.00  0.00     0.040 A 
ATOM     62  F   UNL     1       6.067  12.883  -5.954  1.00  0.00    -0.206 F 
ATOM     63  C   UNL     1       9.328  14.387  -6.462  1.00  0.00     0.006 A 
ENDBRANCH  39  56
ENDBRANCH  13  14
ENDBRANCH   6   8
ENDBRANCH   5   6
ENDBRANCH   4   5
ENDBRANCH   3   4
ENDBRANCH   2   3
ENDBRANCH   1   2
BRANCH   1  64
ATOM     64  C   UNL     1       2.860  -2.541  -1.448  1.00  0.00     0.188 C 
BRANCH  64  65
ATOM     65  O   UNL     1       3.581  -3.579  -2.096  1.00  0.00    -0.376 OA
BRANCH  65  66
ATOM     66  C   UNL     1       4.575  -3.240  -3.050  1.00  0.00     0.202 C 
BRANCH  66  67
ATOM     67  C   UNL     1       4.084  -2.713  -4.399  1.00  0.00     0.261 C 
BRANCH  67  68
ATOM     68  O   UNL     1       3.604  -1.356  -4.379  1.00  0.00    -0.460 OA
BRANCH  68  69
ATOM     69  C   UNL     1       2.270  -1.184  -4.562  1.00  0.00     0.338 C 
ATOM     70  O   UNL     1       1.404  -2.038  -4.538  1.00  0.00    -0.246 OA
BRANCH  69  71
ATOM     71  C   UNL     1       2.009   0.230  -4.913  1.00  0.00     0.068 A 
ATOM     72  C   UNL     1       2.661   0.725  -6.059  1.00  0.00     0.019 A 
ATOM     73  C   UNL     1       1.064   1.022  -4.226  1.00  0.00    -0.001 A 
ATOM     74  C   UNL     1       2.365   1.999  -6.538  1.00  0.00     0.040 A 
ATOM     75  C   UNL     1       0.810   2.318  -4.716  1.00  0.00     0.048 A 
ATOM     76  C   UNL     1       1.445   2.785  -5.861  1.00  0.00     0.123 A 
ATOM     77  F   UNL     1       1.166   4.012  -6.315  1.00  0.00    -0.207 F 
BRANCH  73  78
ATOM     78  C   UNL     1       0.341   0.600  -3.020  1.00  0.00    -0.016 A 
ATOM     79  C   UNL     1       0.890   0.829  -1.749  1.00  0.00     0.012 A 
ATOM     80  C   UNL     1      -0.958   0.074  -3.100  1.00  0.00     0.032 A 
ATOM     81  C   UNL     1       0.179   0.519  -0.587  1.00  0.00     0.041 A 
ATOM     82  C   UNL     1      -1.679  -0.216  -1.938  1.00  0.00     0.077 A 
ATOM     83  C   UNL     1      -1.105   0.002  -0.688  1.00  0.00     0.141 A 
ATOM     84  Cl  UNL     1      -3.291  -0.806  -2.068  1.00  0.00    -0.081 Cl
ATOM     85  F   UNL     1      -1.783  -0.264   0.438  1.00  0.00    -0.205 F 
ENDBRANCH  73  78
ENDBRANCH  69  71
ENDBRANCH  68  69
ENDBRANCH  67  68
ENDBRANCH  66  67
ENDBRANCH  65  66
ENDBRANCH  64  65
ENDBRANCH   1  64
TORSDOF 18
