REMARK SMILES CCCCCCNC(=O)Oc1cccc(-c2ccc([C@@H](C)C(=O)OCCOCCOCCOC(=O)c3ccc(-c4c5nc(c(-c6c(F)cccc6F)c6ccc([nH]6)c(-c6c(F)cccc6F)c6nc(c(-c7c(F)cccc7F)c7ccc4[nH]7)C=C6)C=C5)cc3)cc2N)c1
REMARK SMILES IDX 25 1 24 2 22 3 23 4 20 5 21 6 19 7 16 8 17 9 91 10 18 11
REMARK SMILES IDX 90 12 15 13 11 14 12 15 93 16 13 17 14 18 10 19 8 20 7 21
REMARK SMILES IDX 9 23 6 24 5 25 4 26 3 27 2 28 1 29 92 30 26 33 27 34 28 35
REMARK SMILES IDX 29 36 30 37 31 38 32 39 33 40 34 41 35 42 36 43 37 44 89 45
REMARK SMILES IDX 38 46 88 47 39 48 40 49 41 50 82 51 42 52 87 53 81 54 83 55
REMARK SMILES IDX 43 56 86 57 80 58 79 59 44 61 70 62 53 63 69 64 54 65 57 66
REMARK SMILES IDX 68 67 84 68 55 69 56 70 67 72 85 73 58 74 45 75 46 76 51 77
REMARK SMILES IDX 47 78 48 79 50 80 52 81 49 82 71 83 72 84 77 85 73 86 74 87
REMARK SMILES IDX 76 88 78 89 75 90 59 91 60 92 65 93 61 94 62 95 64 96 66 97
REMARK SMILES IDX 63 98
REMARK H PARENT 7 22 92 31 92 32 83 60 57 71
REMARK Flexibility Score: inf
ROOT
ATOM      1  C   UNL     1      -2.724 -12.027  10.883  1.00  0.00     0.261 C 
ENDROOT
BRANCH   1   2
ATOM      2  O   UNL     1      -3.623 -11.077  10.273  1.00  0.00    -0.463 OA
BRANCH   2   3
ATOM      3  C   UNL     1      -4.324 -10.283  11.120  1.00  0.00     0.313 C 
ATOM      4  O   UNL     1      -4.261 -10.380  12.345  1.00  0.00    -0.252 OA
BRANCH   3   5
ATOM      5  C   UNL     1      -5.234  -9.242  10.472  1.00  0.00     0.126 C 
ATOM      6  C   UNL     1      -6.683  -9.563  10.842  1.00  0.00     0.025 C 
BRANCH   5   7
ATOM      7  C   UNL     1      -5.127  -8.905   8.986  1.00  0.00    -0.032 A 
ATOM      8  C   UNL     1      -5.042  -8.109   6.231  1.00  0.00     0.005 A 
ATOM      9  C   UNL     1      -5.247  -9.452   6.618  1.00  0.00     0.011 A 
ATOM     10  C   UNL     1      -4.886  -7.149   7.256  1.00  0.00     0.040 A 
ATOM     11  C   UNL     1      -5.305  -9.844   7.967  1.00  0.00     0.005 A 
ATOM     12  C   UNL     1      -4.909  -7.565   8.604  1.00  0.00     0.030 A 
BRANCH   8  13
ATOM     13  C   UNL     1      -5.095  -7.745   4.790  1.00  0.00    -0.013 A 
ATOM     14  C   UNL     1      -4.209  -6.624   2.818  1.00  0.00     0.133 A 
ATOM     15  C   UNL     1      -5.358  -6.926   2.090  1.00  0.00     0.047 A 
ATOM     16  C   UNL     1      -4.061  -7.036   4.148  1.00  0.00     0.056 A 
ATOM     17  C   UNL     1      -6.372  -7.659   2.695  1.00  0.00     0.004 A 
ATOM     18  C   UNL     1      -6.244  -8.054   4.031  1.00  0.00     0.009 A 
BRANCH  14  19
ATOM     19  O   UNL     1      -3.300  -5.740   2.206  1.00  0.00    -0.410 OA
BRANCH  19  20
ATOM     20  C   UNL     1      -1.965  -6.104   2.113  1.00  0.00     0.412 C 
ATOM     21  N   UNL     1      -1.185  -5.140   1.528  1.00  0.00    -0.321 N 
ATOM     22  H   UNL     1      -0.218  -5.319   1.499  1.00  0.00     0.167 HD
ATOM     23  O   UNL     1      -1.486  -7.170   2.474  1.00  0.00    -0.224 OA
BRANCH  21  24
ATOM     24  C   UNL     1      -1.627  -3.885   0.948  1.00  0.00     0.119 C 
BRANCH  24  25
ATOM     25  C   UNL     1      -1.014  -2.667   1.640  1.00  0.00     0.021 C 
BRANCH  25  26
ATOM     26  C   UNL     1       0.514  -2.562   1.547  1.00  0.00     0.002 C 
BRANCH  26  27
ATOM     27  C   UNL     1       1.094  -2.493   0.130  1.00  0.00    -0.000 C 
BRANCH  27  28
ATOM     28  C   UNL     1       0.621  -1.312  -0.723  1.00  0.00    -0.003 C 
ATOM     29  C   UNL     1       1.023   0.042  -0.158  1.00  0.00     0.004 C 
ENDBRANCH  27  28
ENDBRANCH  26  27
ENDBRANCH  25  26
ENDBRANCH  24  25
ENDBRANCH  21  24
ENDBRANCH  19  20
ENDBRANCH  14  19
ENDBRANCH   8  13
BRANCH  10  30
ATOM     30  N   UNL     1      -4.625  -5.805   6.991  1.00  0.00    -0.398 N 
ATOM     31  H   UNL     1      -4.601  -5.483   6.061  1.00  0.00     0.156 HD
ATOM     32  H   UNL     1      -4.463  -5.179   7.733  1.00  0.00     0.156 HD
ENDBRANCH  10  30
ENDBRANCH   5   7
ENDBRANCH   3   5
ENDBRANCH   2   3
ENDBRANCH   1   2
BRANCH   1  33
ATOM     33  C   UNL     1      -1.249 -11.840  10.512  1.00  0.00     0.202 C 
BRANCH  33  34
ATOM     34  O   UNL     1      -0.672 -10.573  10.794  1.00  0.00    -0.376 OA
BRANCH  34  35
ATOM     35  C   UNL     1      -1.132  -9.421  10.096  1.00  0.00     0.188 C 
BRANCH  35  36
ATOM     36  C   UNL     1      -1.698  -9.551   8.674  1.00  0.00     0.188 C 
BRANCH  36  37
ATOM     37  O   UNL     1      -1.190 -10.657   7.951  1.00  0.00    -0.376 OA
BRANCH  37  38
ATOM     38  C   UNL     1      -0.733 -10.356   6.642  1.00  0.00     0.202 C 
BRANCH  38  39
ATOM     39  C   UNL     1       0.719  -9.874   6.698  1.00  0.00     0.261 C 
BRANCH  39  40
ATOM     40  O   UNL     1       0.903  -8.685   7.492  1.00  0.00    -0.460 OA
BRANCH  40  41
ATOM     41  C   UNL     1       0.352  -7.556   6.993  1.00  0.00     0.338 C 
ATOM     42  O   UNL     1      -0.211  -7.424   5.923  1.00  0.00    -0.246 OA
BRANCH  41  43
ATOM     43  C   UNL     1       0.372  -6.513   8.040  1.00  0.00     0.060 A 
ATOM     44  C   UNL     1      -0.824  -5.849   8.341  1.00  0.00     0.016 A 
ATOM     45  C   UNL     1       1.561  -6.157   8.678  1.00  0.00     0.016 A 
ATOM     46  C   UNL     1      -0.821  -4.780   9.238  1.00  0.00     0.010 A 
ATOM     47  C   UNL     1       1.567  -5.075   9.565  1.00  0.00     0.010 A 
ATOM     48  C   UNL     1       0.385  -4.353   9.811  1.00  0.00    -0.014 A 
BRANCH  48  49
ATOM     49  C   UNL     1       0.449  -3.022  10.468  1.00  0.00     0.031 A 
ATOM     50  C   UNL     1       0.923  -1.848   9.650  1.00  0.00     0.074 A 
ATOM     51  C   UNL     1       0.066  -2.841  11.744  1.00  0.00     0.049 A 
ATOM     52  N   UNL     1       1.075  -0.597  10.000  1.00  0.00    -0.248 NA
ATOM     53  C   UNL     1       1.273  -2.126   8.247  1.00  0.00     0.031 C 
ATOM     54  C   UNL     1      -0.438  -3.882  12.637  1.00  0.00     0.029 A 
ATOM     55  N   UNL     1       0.051  -1.701  12.512  1.00  0.00    -0.354 N 
ATOM     56  C   UNL     1       1.544   0.057   8.867  1.00  0.00     0.074 A 
ATOM     57  C   UNL     1       1.679  -0.938   7.826  1.00  0.00     0.031 C 
ATOM     58  C   UNL     1      -0.702  -3.334  13.838  1.00  0.00     0.029 A 
ATOM     59  C   UNL     1      -0.364  -1.912  13.805  1.00  0.00     0.049 A 
ATOM     60  H   UNL     1       0.313  -0.817  12.168  1.00  0.00     0.167 HD
ATOM     61  C   UNL     1       1.827   1.370   8.701  1.00  0.00     0.037 A 
ATOM     62  C   UNL     1      -0.442  -1.056  14.843  1.00  0.00     0.037 A 
ATOM     63  C   UNL     1       1.688   2.367   9.728  1.00  0.00     0.049 A 
ATOM     64  C   UNL     1      -0.066   0.392  14.646  1.00  0.00     0.074 A 
ATOM     65  C   UNL     1       1.922   3.728   9.643  1.00  0.00     0.029 A 
ATOM     66  N   UNL     1       1.285   2.109  11.028  1.00  0.00    -0.354 N 
ATOM     67  N   UNL     1       0.331   1.007  13.558  1.00  0.00    -0.248 NA
ATOM     68  C   UNL     1      -0.154   1.267  15.826  1.00  0.00     0.031 C 
ATOM     69  C   UNL     1       1.706   4.288  10.906  1.00  0.00     0.029 A 
ATOM     70  C   UNL     1       1.289   3.283  11.763  1.00  0.00     0.049 A 
ATOM     71  H   UNL     1       1.034   1.224  11.378  1.00  0.00     0.167 HD
ATOM     72  C   UNL     1       0.508   2.339  13.915  1.00  0.00     0.074 A 
ATOM     73  C   UNL     1       0.159   2.448  15.314  1.00  0.00     0.031 C 
ATOM     74  C   UNL     1       0.925   3.380  13.153  1.00  0.00     0.037 A 
BRANCH  61  75
ATOM     75  C   UNL     1       2.334   1.806   7.359  1.00  0.00     0.057 A 
ATOM     76  C   UNL     1       1.495   1.887   6.241  1.00  0.00     0.134 A 
ATOM     77  C   UNL     1       3.669   2.198   7.197  1.00  0.00     0.134 A 
ATOM     78  F   UNL     1       0.210   1.509   6.327  1.00  0.00    -0.206 F 
ATOM     79  C   UNL     1       1.968   2.330   5.005  1.00  0.00     0.040 A 
ATOM     80  C   UNL     1       4.148   2.666   5.973  1.00  0.00     0.040 A 
ATOM     81  F   UNL     1       4.524   2.145   8.230  1.00  0.00    -0.206 F 
ATOM     82  C   UNL     1       3.297   2.731   4.872  1.00  0.00     0.006 A 
ENDBRANCH  61  75
BRANCH  62  83
ATOM     83  C   UNL     1      -0.875  -1.533  16.183  1.00  0.00     0.057 A 
ATOM     84  C   UNL     1      -2.077  -1.101  16.757  1.00  0.00     0.134 A 
ATOM     85  C   UNL     1      -0.063  -2.377  16.949  1.00  0.00     0.134 A 
ATOM     86  F   UNL     1      -2.885  -0.268  16.085  1.00  0.00    -0.206 F 
ATOM     87  C   UNL     1      -2.442  -1.466  18.054  1.00  0.00     0.040 A 
ATOM     88  C   UNL     1      -0.428  -2.773  18.237  1.00  0.00     0.040 A 
ATOM     89  F   UNL     1       1.104  -2.822  16.460  1.00  0.00    -0.206 F 
ATOM     90  C   UNL     1      -1.615  -2.307  18.797  1.00  0.00     0.006 A 
ENDBRANCH  62  83
BRANCH  74  91
ATOM     91  C   UNL     1       0.989   4.733  13.803  1.00  0.00     0.057 A 
ATOM     92  C   UNL     1       1.965   5.053  14.754  1.00  0.00     0.134 A 
ATOM     93  C   UNL     1       0.081   5.739  13.445  1.00  0.00     0.134 A 
ATOM     94  F   UNL     1       2.858   4.133  15.149  1.00  0.00    -0.206 F 
ATOM     95  C   UNL     1       2.020   6.316  15.347  1.00  0.00     0.040 A 
ATOM     96  C   UNL     1       0.143   7.013  14.010  1.00  0.00     0.040 A 
ATOM     97  F   UNL     1      -0.872   5.503  12.531  1.00  0.00    -0.206 F 
ATOM     98  C   UNL     1       1.110   7.303  14.970  1.00  0.00     0.006 A 
ENDBRANCH  74  91
ENDBRANCH  48  49
ENDBRANCH  41  43
ENDBRANCH  40  41
ENDBRANCH  39  40
ENDBRANCH  38  39
ENDBRANCH  37  38
ENDBRANCH  36  37
ENDBRANCH  35  36
ENDBRANCH  34  35
ENDBRANCH  33  34
ENDBRANCH   1  33
TORSDOF 27
