REMARK SMILES C=CCN(CC(=O)OCCOCCOCCOC(=O)c1ccc(-c2c3nc(c(-c4c(F)cccc4F)c4ccc([nH]4)c(-c4c(F)cccc4F)c4nc(c(-c5c(F)cccc5F)c5ccc2[nH]5)C=C4)C=C3)cc1)S(=O)(=O)c1ccccc1OC
REMARK SMILES IDX 12 1 11 2 10 3 9 4 8 5 6 6 7 7 5 8 4 9 3 10 2 11 1 12 74 13
REMARK SMILES IDX 75 14 76 15 77 16 78 17 82 18 79 19 81 20 80 21 83 22 84 23
REMARK SMILES IDX 13 24 14 25 15 26 16 27 17 28 18 29 19 30 20 31 21 32 73 33
REMARK SMILES IDX 22 34 72 35 23 36 24 37 25 38 66 39 26 40 71 41 65 42 67 43
REMARK SMILES IDX 27 44 70 45 64 46 63 47 28 49 54 50 37 51 53 52 38 53 41 54
REMARK SMILES IDX 52 55 68 56 39 57 40 58 51 60 69 61 42 62 29 63 30 64 35 65
REMARK SMILES IDX 31 66 32 67 34 68 36 69 33 70 55 71 56 72 61 73 57 74 58 75
REMARK SMILES IDX 60 76 62 77 59 78 43 79 44 80 49 81 45 82 46 83 48 84 50 85
REMARK SMILES IDX 47 86
REMARK H PARENT 67 48 41 59
REMARK Flexibility Score: inf
ROOT
ATOM      1  C   UNL     1      -3.712   1.576   2.588  1.00  0.00     0.188 C 
ENDROOT
BRANCH   1   2
ATOM      2  O   UNL     1      -4.525   0.519   3.086  1.00  0.00    -0.376 OA
BRANCH   2   3
ATOM      3  C   UNL     1      -4.415  -0.759   2.465  1.00  0.00     0.202 C 
BRANCH   3   4
ATOM      4  C   UNL     1      -4.789  -0.823   0.976  1.00  0.00     0.261 C 
BRANCH   4   5
ATOM      5  O   UNL     1      -3.794  -0.222   0.111  1.00  0.00    -0.462 OA
BRANCH   5   6
ATOM      6  C   UNL     1      -4.240   0.495  -0.960  1.00  0.00     0.321 C 
ATOM      7  O   UNL     1      -5.428   0.626  -1.237  1.00  0.00    -0.251 OA
BRANCH   6   8
ATOM      8  C   UNL     1      -3.122   1.073  -1.838  1.00  0.00     0.225 C 
BRANCH   8   9
ATOM      9  N   UNL     1      -1.835   1.413  -1.138  1.00  0.00    -0.183 NA
BRANCH   9  10
ATOM     10  C   UNL     1      -0.992   0.124  -1.144  1.00  0.00     0.130 C 
BRANCH  10  11
ATOM     11  C   UNL     1       0.496   0.268  -1.054  1.00  0.00    -0.018 C 
ATOM     12  C   UNL     1       1.251  -0.081  -0.005  1.00  0.00     0.005 C 
ENDBRANCH  10  11
ENDBRANCH   9  10
BRANCH   9  13
ATOM     13  S   UNL     1      -0.973   2.819  -1.614  1.00  0.00     0.247 S 
ATOM     14  O   UNL     1       0.106   2.906  -0.642  1.00  0.00    -0.207 OA
ATOM     15  O   UNL     1      -0.676   2.662  -3.023  1.00  0.00    -0.207 OA
BRANCH  13  16
ATOM     16  C   UNL     1      -1.717   4.436  -1.440  1.00  0.00     0.124 A 
ATOM     17  C   UNL     1      -0.768   5.469  -1.206  1.00  0.00     0.026 A 
ATOM     18  C   UNL     1      -3.041   4.819  -1.603  1.00  0.00     0.138 A 
ATOM     19  C   UNL     1      -1.119   6.822  -1.180  1.00  0.00     0.002 A 
ATOM     20  C   UNL     1      -3.385   6.189  -1.632  1.00  0.00     0.048 A 
ATOM     21  C   UNL     1      -2.433   7.186  -1.418  1.00  0.00     0.004 A 
BRANCH  18  22
ATOM     22  O   UNL     1      -4.078   3.954  -1.756  1.00  0.00    -0.495 OA
ATOM     23  C   UNL     1      -4.732   3.773  -0.498  1.00  0.00     0.278 C 
ENDBRANCH  18  22
ENDBRANCH  13  16
ENDBRANCH   9  13
ENDBRANCH   8   9
ENDBRANCH   6   8
ENDBRANCH   5   6
ENDBRANCH   4   5
ENDBRANCH   3   4
ENDBRANCH   2   3
ENDBRANCH   1   2
BRANCH   1  24
ATOM     24  C   UNL     1      -2.255   1.254   2.235  1.00  0.00     0.188 C 
BRANCH  24  25
ATOM     25  O   UNL     1      -1.727   0.216   3.044  1.00  0.00    -0.376 OA
BRANCH  25  26
ATOM     26  C   UNL     1      -0.570   0.561   3.787  1.00  0.00     0.202 C 
BRANCH  26  27
ATOM     27  C   UNL     1      -0.879   1.503   4.951  1.00  0.00     0.261 C 
BRANCH  27  28
ATOM     28  O   UNL     1      -1.467   2.752   4.537  1.00  0.00    -0.460 OA
BRANCH  28  29
ATOM     29  C   UNL     1      -0.616   3.754   4.223  1.00  0.00     0.338 C 
ATOM     30  O   UNL     1       0.598   3.732   4.256  1.00  0.00    -0.246 OA
BRANCH  29  31
ATOM     31  C   UNL     1      -1.422   4.928   3.832  1.00  0.00     0.060 A 
ATOM     32  C   UNL     1      -1.877   5.064   2.520  1.00  0.00     0.016 A 
ATOM     33  C   UNL     1      -1.672   5.934   4.766  1.00  0.00     0.016 A 
ATOM     34  C   UNL     1      -2.561   6.224   2.141  1.00  0.00     0.010 A 
ATOM     35  C   UNL     1      -2.362   7.092   4.378  1.00  0.00     0.010 A 
ATOM     36  C   UNL     1      -2.785   7.267   3.048  1.00  0.00    -0.014 A 
BRANCH  36  37
ATOM     37  C   UNL     1      -3.313   8.584   2.578  1.00  0.00     0.031 A 
ATOM     38  C   UNL     1      -2.418   9.797   2.632  1.00  0.00     0.074 A 
ATOM     39  C   UNL     1      -4.545   8.723   2.049  1.00  0.00     0.049 A 
ATOM     40  N   UNL     1      -2.714  11.062   2.462  1.00  0.00    -0.248 NA
ATOM     41  C   UNL     1      -0.996   9.546   2.909  1.00  0.00     0.031 C 
ATOM     42  C   UNL     1      -5.499   7.641   1.815  1.00  0.00     0.029 A 
ATOM     43  N   UNL     1      -5.207   9.849   1.611  1.00  0.00    -0.354 N 
ATOM     44  C   UNL     1      -1.530  11.760   2.670  1.00  0.00     0.074 A 
ATOM     45  C   UNL     1      -0.509  10.777   2.968  1.00  0.00     0.031 C 
ATOM     46  C   UNL     1      -6.616   8.151   1.270  1.00  0.00     0.029 A 
ATOM     47  C   UNL     1      -6.492   9.606   1.190  1.00  0.00     0.049 A 
ATOM     48  H   UNL     1      -4.797  10.744   1.601  1.00  0.00     0.167 HD
ATOM     49  C   UNL     1      -1.310  13.096   2.623  1.00  0.00     0.037 A 
ATOM     50  C   UNL     1      -7.478  10.456   0.833  1.00  0.00     0.037 A 
ATOM     51  C   UNL     1      -2.303  14.080   2.280  1.00  0.00     0.049 A 
ATOM     52  C   UNL     1      -7.241  11.944   0.875  1.00  0.00     0.074 A 
ATOM     53  C   UNL     1      -2.168  15.457   2.218  1.00  0.00     0.029 A 
ATOM     54  N   UNL     1      -3.611  13.793   1.926  1.00  0.00    -0.354 N 
ATOM     55  N   UNL     1      -6.143  12.601   1.158  1.00  0.00    -0.248 NA
ATOM     56  C   UNL     1      -8.393  12.809   0.573  1.00  0.00     0.031 C 
ATOM     57  C   UNL     1      -3.406  16.005   1.867  1.00  0.00     0.029 A 
ATOM     58  C   UNL     1      -4.298  14.967   1.662  1.00  0.00     0.049 A 
ATOM     59  H   UNL     1      -3.996  12.888   1.870  1.00  0.00     0.167 HD
ATOM     60  C   UNL     1      -6.466  13.950   1.050  1.00  0.00     0.074 A 
ATOM     61  C   UNL     1      -7.857  14.019   0.658  1.00  0.00     0.031 C 
ATOM     62  C   UNL     1      -5.680  15.033   1.262  1.00  0.00     0.037 A 
BRANCH  49  63
ATOM     63  C   UNL     1       0.057  13.584   3.007  1.00  0.00     0.057 A 
ATOM     64  C   UNL     1       1.169  13.432   2.171  1.00  0.00     0.134 A 
ATOM     65  C   UNL     1       0.248  14.248   4.227  1.00  0.00     0.134 A 
ATOM     66  F   UNL     1       1.055  12.792   0.998  1.00  0.00    -0.206 F 
ATOM     67  C   UNL     1       2.429  13.904   2.545  1.00  0.00     0.040 A 
ATOM     68  C   UNL     1       1.496  14.746   4.599  1.00  0.00     0.040 A 
ATOM     69  F   UNL     1      -0.779  14.431   5.070  1.00  0.00    -0.206 F 
ATOM     70  C   UNL     1       2.593  14.569   3.759  1.00  0.00     0.006 A 
ENDBRANCH  49  63
BRANCH  50  71
ATOM     71  C   UNL     1      -8.819   9.931   0.463  1.00  0.00     0.057 A 
ATOM     72  C   UNL     1      -9.320  10.068  -0.837  1.00  0.00     0.134 A 
ATOM     73  C   UNL     1      -9.650   9.321   1.411  1.00  0.00     0.134 A 
ATOM     74  F   UNL     1      -8.587  10.675  -1.782  1.00  0.00    -0.206 F 
ATOM     75  C   UNL     1     -10.601   9.629  -1.177  1.00  0.00     0.040 A 
ATOM     76  C   UNL     1     -10.921   8.851   1.078  1.00  0.00     0.040 A 
ATOM     77  F   UNL     1      -9.234   9.168   2.677  1.00  0.00    -0.206 F 
ATOM     78  C   UNL     1     -11.403   9.012  -0.219  1.00  0.00     0.006 A 
ENDBRANCH  50  71
BRANCH  62  79
ATOM     79  C   UNL     1      -6.287  16.389   1.041  1.00  0.00     0.057 A 
ATOM     80  C   UNL     1      -7.219  16.937   1.931  1.00  0.00     0.134 A 
ATOM     81  C   UNL     1      -5.902  17.173  -0.054  1.00  0.00     0.134 A 
ATOM     82  F   UNL     1      -7.640  16.235   2.994  1.00  0.00    -0.206 F 
ATOM     83  C   UNL     1      -7.761  18.209   1.729  1.00  0.00     0.040 A 
ATOM     84  C   UNL     1      -6.419  18.455  -0.253  1.00  0.00     0.040 A 
ATOM     85  F   UNL     1      -5.007  16.712  -0.941  1.00  0.00    -0.206 F 
ATOM     86  C   UNL     1      -7.355  18.974   0.638  1.00  0.00     0.006 A 
ENDBRANCH  62  79
ENDBRANCH  36  37
ENDBRANCH  29  31
ENDBRANCH  28  29
ENDBRANCH  27  28
ENDBRANCH  26  27
ENDBRANCH  25  26
ENDBRANCH  24  25
ENDBRANCH   1  24
TORSDOF 23
