REMARK SMILES Cc1cc(CS(=O)(=O)NC[C@@H]2CC[C@H](C(=O)OCCOCCOCCOC(=O)c3ccc(-c4c5nc(c(-c6c(F)cccc6F)c6ccc([nH]6)c(-c6c(F)cccc6F)c6nc(c(-c7c(F)cccc7F)c7ccc4[nH]7)C=C6)C=C5)cc3)O2)no1
REMARK SMILES IDX 20 1 19 2 18 3 17 4 15 5 16 6 14 7 11 8 12 9 83 10 13 11
REMARK SMILES IDX 10 12 9 13 6 15 7 16 8 17 5 18 4 19 1 20 2 21 3 22 85 23
REMARK SMILES IDX 84 24 21 25 22 26 23 27 24 28 25 29 26 30 27 31 28 32 29 33
REMARK SMILES IDX 30 34 82 35 31 36 81 37 32 38 33 39 34 40 75 41 35 42 80 43
REMARK SMILES IDX 74 44 76 45 36 46 79 47 73 48 72 49 37 51 63 52 46 53 62 54
REMARK SMILES IDX 47 55 50 56 61 57 77 58 48 59 49 60 60 62 78 63 51 64 38 65
REMARK SMILES IDX 39 66 44 67 40 68 41 69 43 70 45 71 42 72 64 73 65 74 70 75
REMARK SMILES IDX 66 76 67 77 69 78 71 79 68 80 52 81 53 82 58 83 54 84 55 85
REMARK SMILES IDX 57 86 59 87 56 88
REMARK H PARENT 9 14 76 50 50 61
REMARK Flexibility Score: inf
ROOT
ATOM      1  O   UNL     1       1.984   5.785   3.050  1.00  0.00    -0.376 OA
ENDROOT
BRANCH   1   2
ATOM      2  C   UNL     1       2.716   4.724   2.438  1.00  0.00     0.202 C 
BRANCH   2   3
ATOM      3  C   UNL     1       2.376   3.293   2.886  1.00  0.00     0.261 C 
BRANCH   3   4
ATOM      4  O   UNL     1       0.973   2.960   2.832  1.00  0.00    -0.461 OA
BRANCH   4   5
ATOM      5  C   UNL     1       0.377   2.684   4.029  1.00  0.00     0.335 C 
ATOM      6  O   UNL     1       0.978   2.615   5.098  1.00  0.00    -0.249 OA
BRANCH   5   7
ATOM      7  C   UNL     1      -1.151   2.509   3.935  1.00  0.00     0.228 C 
ATOM      8  C   UNL     1      -2.170   0.517   3.211  1.00  0.00     0.134 C 
ATOM      9  C   UNL     1      -1.839   1.378   2.004  1.00  0.00     0.037 C 
ATOM     10  O   UNL     1      -1.502   1.167   4.320  1.00  0.00    -0.362 OA
ATOM     11  C   UNL     1      -1.812   2.757   2.593  1.00  0.00     0.047 C 
BRANCH   8  12
ATOM     12  C   UNL     1      -1.660  -0.922   3.102  1.00  0.00     0.130 C 
BRANCH  12  13
ATOM     13  N   UNL     1      -2.600  -1.933   2.581  1.00  0.00    -0.212 NA
ATOM     14  H   UNL     1      -2.026  -2.748   2.364  1.00  0.00     0.141 HD
BRANCH  13  15
ATOM     15  S   UNL     1      -3.605  -1.739   1.262  1.00  0.00     0.217 S 
ATOM     16  O   UNL     1      -4.166  -0.410   1.296  1.00  0.00    -0.212 OA
ATOM     17  O   UNL     1      -4.497  -2.880   1.357  1.00  0.00    -0.212 OA
BRANCH  15  18
ATOM     18  C   UNL     1      -2.611  -1.993  -0.217  1.00  0.00     0.213 C 
BRANCH  18  19
ATOM     19  C   UNL     1      -1.378  -1.183  -0.334  1.00  0.00     0.100 A 
ATOM     20  C   UNL     1       2.124  -0.087  -0.156  1.00  0.00     0.091 C 
ATOM     21  C   UNL     1       0.703  -0.445  -0.311  1.00  0.00     0.133 A 
ATOM     22  C   UNL     1      -0.056  -1.534   0.040  1.00  0.00     0.073 A 
ATOM     23  O   UNL     1      -0.095   0.477  -0.911  1.00  0.00    -0.361 OA
ATOM     24  N   UNL     1      -1.394   0.005  -0.953  1.00  0.00    -0.084 NA
ENDBRANCH  18  19
ENDBRANCH  15  18
ENDBRANCH  13  15
ENDBRANCH  12  13
ENDBRANCH   8  12
ENDBRANCH   5   7
ENDBRANCH   4   5
ENDBRANCH   3   4
ENDBRANCH   2   3
ENDBRANCH   1   2
BRANCH   1  25
ATOM     25  C   UNL     1       0.575   5.798   2.848  1.00  0.00     0.188 C 
BRANCH  25  26
ATOM     26  C   UNL     1       0.098   5.822   1.396  1.00  0.00     0.188 C 
BRANCH  26  27
ATOM     27  O   UNL     1       0.757   4.921   0.521  1.00  0.00    -0.376 OA
BRANCH  27  28
ATOM     28  C   UNL     1       0.558   5.121  -0.882  1.00  0.00     0.202 C 
BRANCH  28  29
ATOM     29  C   UNL     1       0.782   6.550  -1.435  1.00  0.00     0.261 C 
BRANCH  29  30
ATOM     30  O   UNL     1      -0.059   7.589  -0.879  1.00  0.00    -0.460 OA
BRANCH  30  31
ATOM     31  C   UNL     1      -1.396   7.377  -0.888  1.00  0.00     0.338 C 
ATOM     32  O   UNL     1      -1.984   6.546  -1.562  1.00  0.00    -0.246 OA
BRANCH  31  33
ATOM     33  C   UNL     1      -2.023   8.110   0.251  1.00  0.00     0.060 A 
ATOM     34  C   UNL     1      -3.006   7.436   0.992  1.00  0.00     0.016 A 
ATOM     35  C   UNL     1      -1.635   9.396   0.642  1.00  0.00     0.016 A 
ATOM     36  C   UNL     1      -3.634   8.055   2.078  1.00  0.00     0.010 A 
ATOM     37  C   UNL     1      -2.280  10.024   1.723  1.00  0.00     0.010 A 
ATOM     38  C   UNL     1      -3.310   9.372   2.426  1.00  0.00    -0.014 A 
BRANCH  38  39
ATOM     39  C   UNL     1      -4.186  10.111   3.382  1.00  0.00     0.031 A 
ATOM     40  C   UNL     1      -5.245  11.031   2.825  1.00  0.00     0.074 A 
ATOM     41  C   UNL     1      -4.114   9.926   4.715  1.00  0.00     0.049 A 
ATOM     42  N   UNL     1      -6.132  11.763   3.453  1.00  0.00    -0.248 NA
ATOM     43  C   UNL     1      -5.314  11.135   1.358  1.00  0.00     0.031 C 
ATOM     44  C   UNL     1      -3.181   9.036   5.401  1.00  0.00     0.029 A 
ATOM     45  N   UNL     1      -4.853  10.485   5.734  1.00  0.00    -0.354 N 
ATOM     46  C   UNL     1      -6.865  12.404   2.461  1.00  0.00     0.074 A 
ATOM     47  C   UNL     1      -6.294  12.009   1.192  1.00  0.00     0.031 C 
ATOM     48  C   UNL     1      -3.400   9.111   6.727  1.00  0.00     0.029 A 
ATOM     49  C   UNL     1      -4.469  10.074   6.989  1.00  0.00     0.049 A 
ATOM     50  H   UNL     1      -5.589  11.120   5.579  1.00  0.00     0.167 HD
ATOM     51  C   UNL     1      -7.929  13.234   2.587  1.00  0.00     0.037 A 
ATOM     52  C   UNL     1      -4.917  10.443   8.208  1.00  0.00     0.037 A 
ATOM     53  C   UNL     1      -8.507  13.641   3.842  1.00  0.00     0.049 A 
ATOM     54  C   UNL     1      -6.043  11.444   8.322  1.00  0.00     0.074 A 
ATOM     55  C   UNL     1      -9.584  14.483   4.061  1.00  0.00     0.029 A 
ATOM     56  N   UNL     1      -8.054  13.241   5.088  1.00  0.00    -0.354 N 
ATOM     57  N   UNL     1      -6.739  12.025   7.376  1.00  0.00    -0.248 NA
ATOM     58  C   UNL     1      -6.447  11.835   9.683  1.00  0.00     0.031 C 
ATOM     59  C   UNL     1      -9.751  14.633   5.441  1.00  0.00     0.029 A 
ATOM     60  C   UNL     1      -8.817  13.837   6.081  1.00  0.00     0.049 A 
ATOM     61  H   UNL     1      -7.303  12.624   5.246  1.00  0.00     0.167 HD
ATOM     62  C   UNL     1      -7.682  12.817   8.025  1.00  0.00     0.074 A 
ATOM     63  C   UNL     1      -7.484  12.624   9.445  1.00  0.00     0.031 C 
ATOM     64  C   UNL     1      -8.625  13.633   7.493  1.00  0.00     0.037 A 
BRANCH  51  65
ATOM     65  C   UNL     1      -8.540  13.776   1.327  1.00  0.00     0.057 A 
ATOM     66  C   UNL     1      -9.293  12.968   0.465  1.00  0.00     0.134 A 
ATOM     67  C   UNL     1      -8.423  15.134   1.002  1.00  0.00     0.134 A 
ATOM     68  F   UNL     1      -9.432  11.656   0.710  1.00  0.00    -0.206 F 
ATOM     69  C   UNL     1      -9.896  13.488  -0.682  1.00  0.00     0.040 A 
ATOM     70  C   UNL     1      -9.044  15.671  -0.126  1.00  0.00     0.040 A 
ATOM     71  F   UNL     1      -7.720  15.964   1.787  1.00  0.00    -0.206 F 
ATOM     72  C   UNL     1      -9.781  14.846  -0.974  1.00  0.00     0.006 A 
ENDBRANCH  51  65
BRANCH  52  73
ATOM     73  C   UNL     1      -4.295   9.894   9.445  1.00  0.00     0.057 A 
ATOM     74  C   UNL     1      -5.024   9.098  10.339  1.00  0.00     0.134 A 
ATOM     75  C   UNL     1      -2.983  10.224   9.807  1.00  0.00     0.134 A 
ATOM     76  F   UNL     1      -6.298   8.774  10.070  1.00  0.00    -0.206 F 
ATOM     77  C   UNL     1      -4.485   8.681  11.559  1.00  0.00     0.040 A 
ATOM     78  C   UNL     1      -2.421   9.786  11.008  1.00  0.00     0.040 A 
ATOM     79  F   UNL     1      -2.231  10.989   9.003  1.00  0.00    -0.206 F 
ATOM     80  C   UNL     1      -3.177   9.023  11.894  1.00  0.00     0.006 A 
ENDBRANCH  52  73
BRANCH  64  81
ATOM     81  C   UNL     1      -9.547  14.343   8.447  1.00  0.00     0.057 A 
ATOM     82  C   UNL     1      -9.101  15.367   9.293  1.00  0.00     0.134 A 
ATOM     83  C   UNL     1     -10.906  14.005   8.510  1.00  0.00     0.134 A 
ATOM     84  F   UNL     1      -7.811  15.736   9.292  1.00  0.00    -0.206 F 
ATOM     85  C   UNL     1      -9.961  16.001  10.193  1.00  0.00     0.040 A 
ATOM     86  C   UNL     1     -11.783  14.654   9.382  1.00  0.00     0.040 A 
ATOM     87  F   UNL     1     -11.408  13.045   7.719  1.00  0.00    -0.206 F 
ATOM     88  C   UNL     1     -11.308  15.647  10.235  1.00  0.00     0.006 A 
ENDBRANCH  64  81
ENDBRANCH  38  39
ENDBRANCH  31  33
ENDBRANCH  30  31
ENDBRANCH  29  30
ENDBRANCH  28  29
ENDBRANCH  27  28
ENDBRANCH  26  27
ENDBRANCH  25  26
ENDBRANCH   1  25
TORSDOF 22
