REMARK SMILES CCN1C(=O)N/C(=C/c2cc(Cl)c(OCc3cccc(C(=O)OCCOCCOCCOC(=O)c4ccc(-c5c6nc(c(-c7c(F)cccc7F)c7ccc([nH]7)c(-c7c(F)cccc7F)c7nc(c(-c8c(F)cccc8F)c8ccc5[nH]8)C=C7)C=C6)cc4)c3)c(OC)c2)C1=O
REMARK SMILES IDX 26 1 25 2 24 3 23 4 21 5 22 6 20 7 16 8 17 9 89 10 18 11
REMARK SMILES IDX 19 12 15 13 14 14 13 15 9 16 10 17 93 18 11 19 90 20 12 21
REMARK SMILES IDX 8 22 3 23 4 24 94 25 5 26 6 27 7 28 95 29 2 31 1 32 91 33
REMARK SMILES IDX 92 34 27 35 28 36 29 37 30 38 31 39 32 40 33 41 34 42 35 43
REMARK SMILES IDX 36 44 88 45 37 46 87 47 38 48 39 49 40 50 81 51 41 52 86 53
REMARK SMILES IDX 80 54 82 55 42 56 85 57 79 58 78 59 43 61 69 62 52 63 68 64
REMARK SMILES IDX 53 65 56 66 67 67 83 68 54 69 55 70 66 72 84 73 57 74 44 75
REMARK SMILES IDX 45 76 50 77 46 78 47 79 49 80 51 81 48 82 70 83 71 84 76 85
REMARK SMILES IDX 72 86 73 87 75 88 77 89 74 90 58 91 59 92 64 93 60 94 61 95
REMARK SMILES IDX 63 96 65 97 62 98
REMARK H PARENT 6 30 82 60 56 71
REMARK Flexibility Score: inf
ROOT
ATOM      1  O   UNL     1      -6.123   3.754  -4.277  1.00  0.00    -0.376 OA
ENDROOT
BRANCH   1   2
ATOM      2  C   UNL     1      -6.960   3.901  -3.140  1.00  0.00     0.202 C 
BRANCH   2   3
ATOM      3  C   UNL     1      -6.450   3.796  -1.692  1.00  0.00     0.261 C 
BRANCH   3   4
ATOM      4  O   UNL     1      -5.181   4.404  -1.421  1.00  0.00    -0.460 OA
BRANCH   4   5
ATOM      5  C   UNL     1      -4.170   3.545  -1.130  1.00  0.00     0.338 C 
ATOM      6  O   UNL     1      -4.251   2.332  -1.033  1.00  0.00    -0.246 OA
BRANCH   5   7
ATOM      7  C   UNL     1      -2.875   4.267  -1.154  1.00  0.00     0.060 A 
ATOM      8  C   UNL     1      -1.456   6.144  -0.534  1.00  0.00    -0.010 A 
ATOM      9  C   UNL     1      -0.396   5.553  -1.237  1.00  0.00     0.007 A 
ATOM     10  C   UNL     1      -2.717   5.520  -0.556  1.00  0.00     0.023 A 
ATOM     11  C   UNL     1      -0.571   4.330  -1.889  1.00  0.00     0.001 A 
ATOM     12  C   UNL     1      -1.800   3.673  -1.823  1.00  0.00     0.016 A 
BRANCH   8  13
ATOM     13  C   UNL     1      -1.259   7.426   0.251  1.00  0.00     0.265 C 
BRANCH  13  14
ATOM     14  O   UNL     1      -0.174   7.465   1.189  1.00  0.00    -0.483 OA
BRANCH  14  15
ATOM     15  C   UNL     1       0.067   6.433   2.061  1.00  0.00     0.180 A 
ATOM     16  C   UNL     1       0.895   4.267   3.675  1.00  0.00    -0.018 A 
ATOM     17  C   UNL     1      -0.460   4.500   3.438  1.00  0.00     0.033 A 
ATOM     18  C   UNL     1       1.836   5.176   3.195  1.00  0.00     0.058 A 
ATOM     19  C   UNL     1      -0.877   5.596   2.671  1.00  0.00     0.087 A 
ATOM     20  C   UNL     1       1.431   6.257   2.399  1.00  0.00     0.162 A 
ATOM     21  Cl  UNL     1      -2.579   5.895   2.694  1.00  0.00    -0.080 Cl
BRANCH  16  22
ATOM     22  C   UNL     1       1.326   3.067   4.395  1.00  0.00     0.040 C 
ATOM     23  N   UNL     1       1.017   0.082   2.429  1.00  0.00    -0.259 N 
ATOM     24  C   UNL     1       1.477  -0.393   3.640  1.00  0.00     0.328 C 
ATOM     25  C   UNL     1       0.848   1.443   2.472  1.00  0.00     0.278 C 
ATOM     26  O   UNL     1       1.675  -1.552   3.964  1.00  0.00    -0.248 OA
ATOM     27  N   UNL     1       1.659   0.694   4.481  1.00  0.00    -0.303 N 
ATOM     28  C   UNL     1       1.294   1.846   3.849  1.00  0.00     0.109 C 
ATOM     29  O   UNL     1       0.412   2.177   1.601  1.00  0.00    -0.267 OA
ATOM     30  H   UNL     1       2.002   0.642   5.403  1.00  0.00     0.172 HD
BRANCH  23  31
ATOM     31  C   UNL     1       0.608  -0.763   1.325  1.00  0.00     0.127 C 
ATOM     32  C   UNL     1       1.178  -0.333  -0.019  1.00  0.00     0.028 C 
ENDBRANCH  23  31
ENDBRANCH  16  22
BRANCH  20  33
ATOM     33  O   UNL     1       2.317   7.177   1.882  1.00  0.00    -0.493 OA
ATOM     34  C   UNL     1       3.567   7.308   2.553  1.00  0.00     0.278 C 
ENDBRANCH  20  33
ENDBRANCH  14  15
ENDBRANCH  13  14
ENDBRANCH   8  13
ENDBRANCH   5   7
ENDBRANCH   4   5
ENDBRANCH   3   4
ENDBRANCH   2   3
ENDBRANCH   1   2
BRANCH   1  35
ATOM     35  C   UNL     1      -4.790   4.227  -4.250  1.00  0.00     0.188 C 
BRANCH  35  36
ATOM     36  C   UNL     1      -4.503   5.715  -3.964  1.00  0.00     0.188 C 
BRANCH  36  37
ATOM     37  O   UNL     1      -5.576   6.528  -3.560  1.00  0.00    -0.376 OA
BRANCH  37  38
ATOM     38  C   UNL     1      -6.504   7.016  -4.513  1.00  0.00     0.202 C 
BRANCH  38  39
ATOM     39  C   UNL     1      -6.407   6.861  -6.046  1.00  0.00     0.261 C 
BRANCH  39  40
ATOM     40  O   UNL     1      -5.474   5.920  -6.583  1.00  0.00    -0.460 OA
BRANCH  40  41
ATOM     41  C   UNL     1      -4.350   6.450  -7.126  1.00  0.00     0.338 C 
ATOM     42  O   UNL     1      -4.035   7.625  -7.183  1.00  0.00    -0.246 OA
BRANCH  41  43
ATOM     43  C   UNL     1      -3.443   5.350  -7.505  1.00  0.00     0.060 A 
ATOM     44  C   UNL     1      -2.259   5.165  -6.777  1.00  0.00     0.016 A 
ATOM     45  C   UNL     1      -3.742   4.533  -8.595  1.00  0.00     0.016 A 
ATOM     46  C   UNL     1      -1.359   4.167  -7.149  1.00  0.00     0.010 A 
ATOM     47  C   UNL     1      -2.827   3.549  -8.980  1.00  0.00     0.010 A 
ATOM     48  C   UNL     1      -1.620   3.378  -8.277  1.00  0.00    -0.014 A 
BRANCH  48  49
ATOM     49  C   UNL     1      -0.563   2.493  -8.825  1.00  0.00     0.031 A 
ATOM     50  C   UNL     1       0.239   2.973 -10.003  1.00  0.00     0.074 A 
ATOM     51  C   UNL     1      -0.316   1.286  -8.288  1.00  0.00     0.049 A 
ATOM     52  N   UNL     1       1.155   2.347 -10.697  1.00  0.00    -0.248 NA
ATOM     53  C   UNL     1      -0.035   4.344 -10.462  1.00  0.00     0.031 C 
ATOM     54  C   UNL     1      -0.992   0.723  -7.122  1.00  0.00     0.029 A 
ATOM     55  N   UNL     1       0.569   0.308  -8.672  1.00  0.00    -0.354 N 
ATOM     56  C   UNL     1       1.558   3.242 -11.680  1.00  0.00     0.074 A 
ATOM     57  C   UNL     1       0.765   4.441 -11.512  1.00  0.00     0.031 C 
ATOM     58  C   UNL     1      -0.508  -0.510  -6.893  1.00  0.00     0.029 A 
ATOM     59  C   UNL     1       0.482  -0.837  -7.918  1.00  0.00     0.049 A 
ATOM     60  H   UNL     1       1.205   0.418  -9.416  1.00  0.00     0.167 HD
ATOM     61  C   UNL     1       2.507   3.082 -12.633  1.00  0.00     0.037 A 
ATOM     62  C   UNL     1       1.110  -2.021  -8.060  1.00  0.00     0.037 A 
ATOM     63  C   UNL     1       3.289   1.885 -12.803  1.00  0.00     0.049 A 
ATOM     64  C   UNL     1       2.101  -2.206  -9.181  1.00  0.00     0.074 A 
ATOM     65  C   UNL     1       4.288   1.633 -13.726  1.00  0.00     0.029 A 
ATOM     66  N   UNL     1       3.150   0.736 -12.040  1.00  0.00    -0.354 N 
ATOM     67  N   UNL     1       2.497  -1.347 -10.090  1.00  0.00    -0.248 NA
ATOM     68  C   UNL     1       2.734  -3.529  -9.295  1.00  0.00     0.031 C 
ATOM     69  C   UNL     1       4.710   0.309 -13.563  1.00  0.00     0.029 A 
ATOM     70  C   UNL     1       4.023  -0.241 -12.493  1.00  0.00     0.049 A 
ATOM     71  H   UNL     1       2.524   0.629 -11.287  1.00  0.00     0.167 HD
ATOM     72  C   UNL     1       3.446  -2.013 -10.859  1.00  0.00     0.074 A 
ATOM     73  C   UNL     1       3.575  -3.343 -10.302  1.00  0.00     0.031 C 
ATOM     74  C   UNL     1       4.149  -1.561 -11.927  1.00  0.00     0.037 A 
BRANCH  61  75
ATOM     75  C   UNL     1       2.724   4.220 -13.589  1.00  0.00     0.057 A 
ATOM     76  C   UNL     1       3.299   5.433 -13.185  1.00  0.00     0.134 A 
ATOM     77  C   UNL     1       2.372   4.092 -14.939  1.00  0.00     0.134 A 
ATOM     78  F   UNL     1       3.647   5.628 -11.904  1.00  0.00    -0.206 F 
ATOM     79  C   UNL     1       3.486   6.487 -14.082  1.00  0.00     0.040 A 
ATOM     80  C   UNL     1       2.584   5.127 -15.851  1.00  0.00     0.040 A 
ATOM     81  F   UNL     1       1.823   2.957 -15.396  1.00  0.00    -0.206 F 
ATOM     82  C   UNL     1       3.134   6.332 -15.421  1.00  0.00     0.006 A 
ENDBRANCH  61  75
BRANCH  62  83
ATOM     83  C   UNL     1       0.814  -3.137  -7.126  1.00  0.00     0.057 A 
ATOM     84  C   UNL     1       1.778  -3.607  -6.227  1.00  0.00     0.134 A 
ATOM     85  C   UNL     1      -0.432  -3.779  -7.126  1.00  0.00     0.134 A 
ATOM     86  F   UNL     1       2.999  -3.053  -6.197  1.00  0.00    -0.206 F 
ATOM     87  C   UNL     1       1.523  -4.684  -5.376  1.00  0.00     0.040 A 
ATOM     88  C   UNL     1      -0.711  -4.837  -6.260  1.00  0.00     0.040 A 
ATOM     89  F   UNL     1      -1.399  -3.379  -7.965  1.00  0.00    -0.206 F 
ATOM     90  C   UNL     1       0.272  -5.298  -5.387  1.00  0.00     0.006 A 
ENDBRANCH  62  83
BRANCH  74  91
ATOM     91  C   UNL     1       5.156  -2.494 -12.540  1.00  0.00     0.057 A 
ATOM     92  C   UNL     1       4.777  -3.629 -13.268  1.00  0.00     0.134 A 
ATOM     93  C   UNL     1       6.528  -2.226 -12.436  1.00  0.00     0.134 A 
ATOM     94  F   UNL     1       3.481  -3.951 -13.399  1.00  0.00    -0.206 F 
ATOM     95  C   UNL     1       5.724  -4.477 -13.845  1.00  0.00     0.040 A 
ATOM     96  C   UNL     1       7.483  -3.048 -13.036  1.00  0.00     0.040 A 
ATOM     97  F   UNL     1       6.963  -1.149 -11.764  1.00  0.00    -0.206 F 
ATOM     98  C   UNL     1       7.082  -4.183 -13.737  1.00  0.00     0.006 A 
ENDBRANCH  74  91
ENDBRANCH  48  49
ENDBRANCH  41  43
ENDBRANCH  40  41
ENDBRANCH  39  40
ENDBRANCH  38  39
ENDBRANCH  37  38
ENDBRANCH  36  37
ENDBRANCH  35  36
ENDBRANCH   1  35
TORSDOF 23
