REMARK SMILES CC(=O)Nc1cccc(NS(=O)(=O)c2cccc(C(=O)OCCOCCOCCOC(=O)c3ccc(-c4c5nc(c(-c6c(F)cccc6F)c6ccc([nH]6)c(-c6c(F)cccc6F)c6nc(c(-c7c(F)cccc7F)c7ccc4[nH]7)C=C6)C=C5)cc3)c2)c1
REMARK SMILES IDX 25 1 24 2 23 3 22 4 21 5 19 6 20 7 18 8 14 9 15 10 87 11
REMARK SMILES IDX 16 12 17 13 11 14 12 15 13 16 10 17 9 19 5 20 6 21 88 22
REMARK SMILES IDX 7 23 8 24 4 25 1 26 2 27 3 28 26 30 27 31 28 32 29 33 30 34
REMARK SMILES IDX 31 35 32 36 33 37 34 38 86 39 35 40 85 41 36 42 37 43 38 44
REMARK SMILES IDX 79 45 39 46 84 47 78 48 80 49 40 50 83 51 77 52 76 53 41 55
REMARK SMILES IDX 67 56 50 57 66 58 51 59 54 60 65 61 81 62 52 63 53 64 64 66
REMARK SMILES IDX 82 67 55 68 42 69 43 70 48 71 44 72 45 73 47 74 49 75 46 76
REMARK SMILES IDX 68 77 69 78 74 79 70 80 71 81 73 82 75 83 72 84 56 85 57 86
REMARK SMILES IDX 62 87 58 88 59 89 61 90 63 91 60 92
REMARK H PARENT 10 18 4 29 80 54 54 65
REMARK Flexibility Score: inf
ROOT
ATOM      1  C   UNL     1       7.040  -9.748   3.322  1.00  0.00     0.188 C 
ENDROOT
BRANCH   1   2
ATOM      2  O   UNL     1       6.886 -11.029   2.720  1.00  0.00    -0.376 OA
BRANCH   2   3
ATOM      3  C   UNL     1       6.571 -11.118   1.332  1.00  0.00     0.202 C 
BRANCH   3   4
ATOM      4  C   UNL     1       5.345 -10.360   0.800  1.00  0.00     0.261 C 
BRANCH   4   5
ATOM      5  O   UNL     1       5.386  -8.946   1.058  1.00  0.00    -0.460 OA
BRANCH   5   6
ATOM      6  C   UNL     1       4.347  -8.440   1.763  1.00  0.00     0.338 C 
ATOM      7  O   UNL     1       3.320  -9.013   2.092  1.00  0.00    -0.246 OA
BRANCH   6   8
ATOM      8  C   UNL     1       4.744  -7.129   2.321  1.00  0.00     0.061 A 
ATOM      9  C   UNL     1       5.616  -4.898   2.147  1.00  0.00     0.088 A 
ATOM     10  C   UNL     1       5.606  -4.770   3.544  1.00  0.00     0.022 A 
ATOM     11  C   UNL     1       5.242  -6.096   1.522  1.00  0.00     0.038 A 
ATOM     12  C   UNL     1       5.107  -5.806   4.328  1.00  0.00     0.002 A 
ATOM     13  C   UNL     1       4.646  -6.969   3.715  1.00  0.00     0.016 A 
BRANCH   9  14
ATOM     14  S   UNL     1       5.961  -3.460   1.170  1.00  0.00     0.261 S 
ATOM     15  O   UNL     1       6.667  -3.897  -0.015  1.00  0.00    -0.201 OA
ATOM     16  O   UNL     1       6.527  -2.444   2.032  1.00  0.00    -0.201 OA
BRANCH  14  17
ATOM     17  N   UNL     1       4.440  -2.895   0.643  1.00  0.00    -0.280 N 
ATOM     18  H   UNL     1       4.280  -2.761  -0.319  1.00  0.00     0.180 HD
BRANCH  17  19
ATOM     19  C   UNL     1       3.387  -2.611   1.583  1.00  0.00     0.051 A 
ATOM     20  C   UNL     1       1.670  -1.100   2.401  1.00  0.00     0.043 A 
ATOM     21  C   UNL     1       1.222  -2.076   3.292  1.00  0.00     0.026 A 
ATOM     22  C   UNL     1       2.794  -1.347   1.598  1.00  0.00     0.052 A 
ATOM     23  C   UNL     1       1.772  -3.348   3.245  1.00  0.00     0.004 A 
ATOM     24  C   UNL     1       2.803  -3.619   2.348  1.00  0.00     0.027 A 
BRANCH  20  25
ATOM     25  N   UNL     1       0.920   0.083   2.337  1.00  0.00    -0.326 N 
ATOM     26  C   UNL     1       0.929   0.357  -0.138  1.00  0.00     0.114 C 
ATOM     27  C   UNL     1       0.592   0.844   1.248  1.00  0.00     0.221 C 
ATOM     28  O   UNL     1      -0.046   1.885   1.415  1.00  0.00    -0.275 OA
ATOM     29  H   UNL     1       0.579   0.412   3.199  1.00  0.00     0.169 HD
ENDBRANCH  20  25
ENDBRANCH  17  19
ENDBRANCH  14  17
ENDBRANCH   9  14
ENDBRANCH   6   8
ENDBRANCH   5   6
ENDBRANCH   4   5
ENDBRANCH   3   4
ENDBRANCH   2   3
ENDBRANCH   1   2
BRANCH   1  30
ATOM     30  C   UNL     1       7.912  -8.678   2.630  1.00  0.00     0.188 C 
BRANCH  30  31
ATOM     31  O   UNL     1       8.485  -9.123   1.425  1.00  0.00    -0.376 OA
BRANCH  31  32
ATOM     32  C   UNL     1       9.869  -9.415   1.400  1.00  0.00     0.202 C 
BRANCH  32  33
ATOM     33  C   UNL     1      10.547 -10.236   2.513  1.00  0.00     0.261 C 
BRANCH  33  34
ATOM     34  O   UNL     1      10.003 -10.147   3.838  1.00  0.00    -0.460 OA
BRANCH  34  35
ATOM     35  C   UNL     1      10.472  -9.162   4.636  1.00  0.00     0.338 C 
ATOM     36  O   UNL     1      11.273  -8.293   4.345  1.00  0.00    -0.246 OA
BRANCH  35  37
ATOM     37  C   UNL     1       9.718  -9.208   5.908  1.00  0.00     0.060 A 
ATOM     38  C   UNL     1       8.877  -8.138   6.241  1.00  0.00     0.016 A 
ATOM     39  C   UNL     1       9.854 -10.296   6.773  1.00  0.00     0.016 A 
ATOM     40  C   UNL     1       8.190  -8.142   7.457  1.00  0.00     0.010 A 
ATOM     41  C   UNL     1       9.178 -10.290   7.998  1.00  0.00     0.010 A 
ATOM     42  C   UNL     1       8.365  -9.202   8.359  1.00  0.00    -0.014 A 
BRANCH  42  43
ATOM     43  C   UNL     1       7.835  -9.101   9.742  1.00  0.00     0.031 A 
ATOM     44  C   UNL     1       8.765  -8.660  10.839  1.00  0.00     0.074 A 
ATOM     45  C   UNL     1       6.555  -9.397  10.026  1.00  0.00     0.049 A 
ATOM     46  N   UNL     1       8.548  -8.563  12.126  1.00  0.00    -0.248 NA
ATOM     47  C   UNL     1      10.126  -8.280  10.427  1.00  0.00     0.031 C 
ATOM     48  C   UNL     1       5.544  -9.805   9.053  1.00  0.00     0.029 A 
ATOM     49  N   UNL     1       5.892  -9.414  11.229  1.00  0.00    -0.354 N 
ATOM     50  C   UNL     1       9.744  -8.120  12.677  1.00  0.00     0.074 A 
ATOM     51  C   UNL     1      10.690  -7.993  11.590  1.00  0.00     0.031 C 
ATOM     52  C   UNL     1       4.391 -10.049   9.700  1.00  0.00     0.029 A 
ATOM     53  C   UNL     1       4.592  -9.847  11.134  1.00  0.00     0.049 A 
ATOM     54  H   UNL     1       6.309  -9.141  12.078  1.00  0.00     0.167 HD
ATOM     55  C   UNL     1      10.027  -7.839  13.971  1.00  0.00     0.037 A 
ATOM     56  C   UNL     1       3.679 -10.079  12.099  1.00  0.00     0.037 A 
ATOM     57  C   UNL     1       9.090  -7.972  15.055  1.00  0.00     0.049 A 
ATOM     58  C   UNL     1       4.041  -9.831  13.541  1.00  0.00     0.074 A 
ATOM     59  C   UNL     1       9.278  -7.691  16.397  1.00  0.00     0.029 A 
ATOM     60  N   UNL     1       7.790  -8.436  14.922  1.00  0.00    -0.354 N 
ATOM     61  N   UNL     1       5.163  -9.381  14.049  1.00  0.00    -0.248 NA
ATOM     62  C   UNL     1       3.006 -10.123  14.545  1.00  0.00     0.031 C 
ATOM     63  C   UNL     1       8.109  -8.035  17.084  1.00  0.00     0.029 A 
ATOM     64  C   UNL     1       7.174  -8.475  16.162  1.00  0.00     0.049 A 
ATOM     65  H   UNL     1       7.368  -8.699  14.072  1.00  0.00     0.167 HD
ATOM     66  C   UNL     1       4.960  -9.307  15.422  1.00  0.00     0.074 A 
ATOM     67  C   UNL     1       3.603  -9.748  15.668  1.00  0.00     0.031 C 
ATOM     68  C   UNL     1       5.819  -8.907  16.393  1.00  0.00     0.037 A 
BRANCH  55  69
ATOM     69  C   UNL     1      11.422  -7.385  14.288  1.00  0.00     0.057 A 
ATOM     70  C   UNL     1      11.893  -6.119  13.915  1.00  0.00     0.134 A 
ATOM     71  C   UNL     1      12.298  -8.217  14.998  1.00  0.00     0.134 A 
ATOM     72  F   UNL     1      11.110  -5.281  13.220  1.00  0.00    -0.206 F 
ATOM     73  C   UNL     1      13.192  -5.706  14.216  1.00  0.00     0.040 A 
ATOM     74  C   UNL     1      13.589  -7.804  15.328  1.00  0.00     0.040 A 
ATOM     75  F   UNL     1      11.909  -9.440  15.388  1.00  0.00    -0.206 F 
ATOM     76  C   UNL     1      14.042  -6.548  14.931  1.00  0.00     0.006 A 
ENDBRANCH  55  69
BRANCH  56  77
ATOM     77  C   UNL     1       2.332 -10.593  11.742  1.00  0.00     0.057 A 
ATOM     78  C   UNL     1       1.188  -9.803  11.902  1.00  0.00     0.134 A 
ATOM     79  C   UNL     1       2.153 -11.896  11.263  1.00  0.00     0.134 A 
ATOM     80  F   UNL     1       1.291  -8.555  12.382  1.00  0.00    -0.206 F 
ATOM     81  C   UNL     1      -0.087 -10.294  11.615  1.00  0.00     0.040 A 
ATOM     82  C   UNL     1       0.887 -12.392  10.947  1.00  0.00     0.040 A 
ATOM     83  F   UNL     1       3.208 -12.706  11.091  1.00  0.00    -0.206 F 
ATOM     84  C   UNL     1      -0.239 -11.592  11.131  1.00  0.00     0.006 A 
ENDBRANCH  56  77
BRANCH  68  85
ATOM     85  C   UNL     1       5.308  -8.885  17.805  1.00  0.00     0.057 A 
ATOM     86  C   UNL     1       5.075 -10.060  18.530  1.00  0.00     0.134 A 
ATOM     87  C   UNL     1       5.091  -7.667  18.463  1.00  0.00     0.134 A 
ATOM     88  F   UNL     1       5.252 -11.260  17.956  1.00  0.00    -0.206 F 
ATOM     89  C   UNL     1       4.623 -10.025  19.851  1.00  0.00     0.040 A 
ATOM     90  C   UNL     1       4.666  -7.619  19.792  1.00  0.00     0.040 A 
ATOM     91  F   UNL     1       5.304  -6.503  17.831  1.00  0.00    -0.206 F 
ATOM     92  C   UNL     1       4.425  -8.801  20.488  1.00  0.00     0.006 A 
ENDBRANCH  68  85
ENDBRANCH  42  43
ENDBRANCH  35  37
ENDBRANCH  34  35
ENDBRANCH  33  34
ENDBRANCH  32  33
ENDBRANCH  31  32
ENDBRANCH  30  31
ENDBRANCH   1  30
TORSDOF 21
