REMARK SMILES Cc1cccc(CC(=O)N2CCC3(CCC(=O)N([C@H](C)C(=O)OCCOCCOCCOC(=O)c4ccc(-c5c6nc(c(-c7c(F)cccc7F)c7ccc([nH]7)c(-c7c(F)cccc7F)c7nc(c(-c8c(F)cccc8F)c8ccc5[nH]8)C=C7)C=C6)cc4)C3)CC2)c1
REMARK SMILES IDX 27 1 26 2 25 3 24 4 23 5 21 6 22 7 19 8 20 9 18 10 8 11 9 12
REMARK SMILES IDX 10 13 11 14 91 15 12 16 90 17 13 18 14 19 89 20 15 21 16 22
REMARK SMILES IDX 17 23 7 24 6 25 1 26 2 27 3 28 92 29 4 30 5 31 28 32 29 33
REMARK SMILES IDX 30 34 31 35 32 36 33 37 34 38 35 39 36 40 88 41 37 42 87 43
REMARK SMILES IDX 38 44 39 45 40 46 81 47 41 48 86 49 80 50 82 51 42 52 85 53
REMARK SMILES IDX 79 54 78 55 43 57 69 58 52 59 68 60 53 61 56 62 67 63 83 64
REMARK SMILES IDX 54 65 55 66 66 68 84 69 57 70 44 71 45 72 50 73 46 74 47 75
REMARK SMILES IDX 49 76 51 77 48 78 70 79 71 80 76 81 72 82 73 83 75 84 77 85
REMARK SMILES IDX 74 86 58 87 59 88 64 89 60 90 61 91 63 92 65 93 62 94
REMARK H PARENT 82 56 56 67
REMARK Flexibility Score: inf
ROOT
ATOM      1  C   UNL     1      -3.762   5.431  -6.752  1.00  0.00     0.188 C 
ENDROOT
BRANCH   1   2
ATOM      2  O   UNL     1      -4.532   6.555  -7.106  1.00  0.00    -0.376 OA
BRANCH   2   3
ATOM      3  C   UNL     1      -4.219   7.320  -8.300  1.00  0.00     0.202 C 
BRANCH   3   4
ATOM      4  C   UNL     1      -2.749   8.018  -8.996  1.00  0.00     0.261 C 
BRANCH   4   5
ATOM      5  O   UNL     1      -1.308   8.842  -8.213  1.00  0.00    -0.462 OA
BRANCH   5   6
ATOM      6  C   UNL     1       0.002   8.810  -7.465  1.00  0.00     0.328 C 
ATOM      7  O   UNL     1       0.408   9.815  -6.862  1.00  0.00    -0.250 OA
BRANCH   6   8
ATOM      8  C   UNL     1       1.207   7.610  -7.270  1.00  0.00     0.192 C 
ATOM      9  C   UNL     1       1.448   6.110  -6.964  1.00  0.00     0.044 C 
BRANCH   8  10
ATOM     10  N   UNL     1       2.377   8.008  -8.066  1.00  0.00    -0.329 N 
ATOM     11  C   UNL     1       8.154   5.183  -6.997  1.00  0.00     0.226 C 
ATOM     12  O   UNL     1       8.314   3.988  -6.725  1.00  0.00    -0.275 OA
ATOM     13  N   UNL     1       7.124   5.582  -7.825  1.00  0.00    -0.342 N 
ATOM     14  C   UNL     1       5.901   4.799  -7.814  1.00  0.00     0.120 C 
ATOM     15  C   UNL     1       7.065   6.807  -8.613  1.00  0.00     0.120 C 
ATOM     16  C   UNL     1       4.747   5.689  -7.339  1.00  0.00     0.030 C 
ATOM     17  C   UNL     1       6.035   7.734  -8.018  1.00  0.00     0.030 C 
ATOM     18  C   UNL     1       4.673   7.045  -8.105  1.00  0.00    -0.008 C 
ATOM     19  C   UNL     1       4.393   6.755  -9.620  1.00  0.00     0.019 C 
ATOM     20  C   UNL     1       3.675   8.060  -7.459  1.00  0.00     0.127 C 
ATOM     21  C   UNL     1       2.932   6.550  -9.883  1.00  0.00     0.101 C 
ATOM     22  C   UNL     1       2.415   7.880  -9.433  1.00  0.00     0.223 C 
ATOM     23  O   UNL     1       2.526   8.865 -10.162  1.00  0.00    -0.275 OA
BRANCH  11  24
ATOM     24  C   UNL     1       8.916   6.238  -6.201  1.00  0.00     0.135 C 
BRANCH  24  25
ATOM     25  C   UNL     1       9.468   7.418  -6.957  1.00  0.00    -0.038 A 
ATOM     26  C   UNL     1       8.709  11.146  -7.254  1.00  0.00     0.044 C 
ATOM     27  C   UNL     1       9.287   9.786  -7.512  1.00  0.00    -0.051 A 
ATOM     28  C   UNL     1      10.074   9.560  -8.648  1.00  0.00     0.003 A 
ATOM     29  C   UNL     1       9.009   8.714  -6.656  1.00  0.00     0.007 A 
ATOM     30  C   UNL     1      10.584   8.288  -8.920  1.00  0.00     0.001 A 
ATOM     31  C   UNL     1      10.300   7.220  -8.069  1.00  0.00     0.004 A 
ENDBRANCH  24  25
ENDBRANCH  11  24
ENDBRANCH   8  10
ENDBRANCH   6   8
ENDBRANCH   5   6
ENDBRANCH   4   5
ENDBRANCH   3   4
ENDBRANCH   2   3
ENDBRANCH   1   2
BRANCH   1  32
ATOM     32  C   UNL     1      -4.010   3.920  -6.927  1.00  0.00     0.188 C 
BRANCH  32  33
ATOM     33  O   UNL     1      -5.301   3.539  -7.232  1.00  0.00    -0.376 OA
BRANCH  33  34
ATOM     34  C   UNL     1      -6.152   4.202  -6.329  1.00  0.00     0.202 C 
BRANCH  34  35
ATOM     35  C   UNL     1      -5.801   4.206  -4.785  1.00  0.00     0.261 C 
BRANCH  35  36
ATOM     36  O   UNL     1      -4.438   3.981  -4.007  1.00  0.00    -0.460 OA
BRANCH  36  37
ATOM     37  C   UNL     1      -3.235   3.796  -3.408  1.00  0.00     0.338 C 
ATOM     38  O   UNL     1      -3.184   3.551  -2.207  1.00  0.00    -0.246 OA
BRANCH  37  39
ATOM     39  C   UNL     1      -1.892   4.060  -4.037  1.00  0.00     0.060 A 
ATOM     40  C   UNL     1      -1.114   5.120  -3.584  1.00  0.00     0.016 A 
ATOM     41  C   UNL     1      -1.519   3.566  -5.249  1.00  0.00     0.016 A 
ATOM     42  C   UNL     1      -0.794   6.121  -4.495  1.00  0.00     0.010 A 
ATOM     43  C   UNL     1      -1.142   4.525  -6.166  1.00  0.00     0.010 A 
ATOM     44  C   UNL     1      -1.138   5.885  -5.812  1.00  0.00    -0.014 A 
BRANCH  44  45
ATOM     45  C   UNL     1      -1.512   6.932  -6.838  1.00  0.00     0.031 A 
ATOM     46  C   UNL     1      -0.869   6.505  -8.522  1.00  0.00     0.074 A 
ATOM     47  C   UNL     1      -2.372   8.056  -6.340  1.00  0.00     0.049 A 
ATOM     48  N   UNL     1      -0.303   7.420  -9.288  1.00  0.00    -0.248 NA
ATOM     49  C   UNL     1      -0.732   5.285  -9.360  1.00  0.00     0.031 C 
ATOM     50  C   UNL     1      -3.123   9.337  -6.998  1.00  0.00     0.029 A 
ATOM     51  N   UNL     1      -2.855   8.332  -5.051  1.00  0.00    -0.354 N 
ATOM     52  C   UNL     1      -0.192   7.190 -10.609  1.00  0.00     0.074 A 
ATOM     53  C   UNL     1      -0.295   5.746 -10.575  1.00  0.00     0.031 C 
ATOM     54  C   UNL     1      -3.749  10.154  -6.169  1.00  0.00     0.029 A 
ATOM     55  C   UNL     1      -3.220   9.728  -4.949  1.00  0.00     0.049 A 
ATOM     56  H   UNL     1      -2.933   7.674  -4.323  1.00  0.00     0.167 HD
ATOM     57  C   UNL     1      -0.032   8.280 -11.453  1.00  0.00     0.037 A 
ATOM     58  C   UNL     1      -2.559  10.617  -4.175  1.00  0.00     0.037 A 
ATOM     59  C   UNL     1      -0.381   9.648 -10.835  1.00  0.00     0.049 A 
ATOM     60  C   UNL     1      -1.595  11.518  -5.035  1.00  0.00     0.074 A 
ATOM     61  C   UNL     1      -1.526  10.437 -10.908  1.00  0.00     0.029 A 
ATOM     62  N   UNL     1       0.420  10.350  -9.894  1.00  0.00    -0.354 N 
ATOM     63  N   UNL     1      -1.483  11.483  -6.363  1.00  0.00    -0.248 NA
ATOM     64  C   UNL     1      -0.772  12.599  -4.497  1.00  0.00     0.031 C 
ATOM     65  C   UNL     1      -1.497  11.436  -9.873  1.00  0.00     0.029 A 
ATOM     66  C   UNL     1      -0.295  11.363  -9.186  1.00  0.00     0.049 A 
ATOM     67  H   UNL     1       1.374  10.158  -9.745  1.00  0.00     0.167 HD
ATOM     68  C   UNL     1      -0.420  12.265  -6.804  1.00  0.00     0.074 A 
ATOM     69  C   UNL     1      -0.151  13.059  -5.603  1.00  0.00     0.031 C 
ATOM     70  C   UNL     1       0.276  12.148  -8.020  1.00  0.00     0.037 A 
BRANCH  57  71
ATOM     71  C   UNL     1       0.266   8.133 -12.949  1.00  0.00     0.057 A 
ATOM     72  C   UNL     1      -0.112   9.104 -13.902  1.00  0.00     0.134 A 
ATOM     73  C   UNL     1       0.993   7.057 -13.499  1.00  0.00     0.134 A 
ATOM     74  F   UNL     1      -0.743  10.230 -13.546  1.00  0.00    -0.206 F 
ATOM     75  C   UNL     1       0.125   8.966 -15.285  1.00  0.00     0.040 A 
ATOM     76  C   UNL     1       1.235   6.905 -14.879  1.00  0.00     0.040 A 
ATOM     77  F   UNL     1       1.518   6.102 -12.722  1.00  0.00    -0.206 F 
ATOM     78  C   UNL     1       0.779   7.851 -15.783  1.00  0.00     0.006 A 
ENDBRANCH  57  71
BRANCH  58  79
ATOM     79  C   UNL     1      -2.679   9.959  -2.823  1.00  0.00     0.057 A 
ATOM     80  C   UNL     1      -4.049   9.648  -2.484  1.00  0.00     0.134 A 
ATOM     81  C   UNL     1      -1.744   8.997  -2.442  1.00  0.00     0.134 A 
ATOM     82  F   UNL     1      -5.027  10.501  -2.844  1.00  0.00    -0.206 F 
ATOM     83  C   UNL     1      -4.466   8.342  -2.165  1.00  0.00     0.040 A 
ATOM     84  C   UNL     1      -2.166   7.734  -1.976  1.00  0.00     0.040 A 
ATOM     85  F   UNL     1      -0.453   9.136  -2.776  1.00  0.00    -0.206 F 
ATOM     86  C   UNL     1      -3.514   7.363  -1.948  1.00  0.00     0.006 A 
ENDBRANCH  58  79
BRANCH  70  87
ATOM     87  C   UNL     1       1.648  12.820  -8.188  1.00  0.00     0.057 A 
ATOM     88  C   UNL     1       2.512  13.151  -7.125  1.00  0.00     0.134 A 
ATOM     89  C   UNL     1       2.169  13.132  -9.460  1.00  0.00     0.134 A 
ATOM     90  F   UNL     1       2.328  12.677  -5.884  1.00  0.00    -0.206 F 
ATOM     91  C   UNL     1       3.643  13.964  -7.282  1.00  0.00     0.040 A 
ATOM     92  C   UNL     1       3.358  13.856  -9.640  1.00  0.00     0.040 A 
ATOM     93  F   UNL     1       1.555  12.751 -10.589  1.00  0.00    -0.206 F 
ATOM     94  C   UNL     1       4.061  14.338  -8.547  1.00  0.00     0.006 A 
ENDBRANCH  70  87
ENDBRANCH  44  45
ENDBRANCH  37  39
ENDBRANCH  36  37
ENDBRANCH  35  36
ENDBRANCH  34  35
ENDBRANCH  33  34
ENDBRANCH  32  33
ENDBRANCH   1  32
TORSDOF 20
