REMARK SMILES Cc1ccc(S(=O)(=O)n2cc(C(=O)C(=O)N[C@@H](Cc3cnc[nH]3)C(=O)OCCOCCOCCOC(=O)c3ccc(-c4c5nc(c(-c6c(F)cccc6F)c6ccc([nH]6)c(-c6c(F)cccc6F)c6nc(c(-c7c(F)cccc7F)c7ccc4[nH]7)C=C6)C=C5)cc3)c3ccccc32)cc1
REMARK SMILES IDX 29 1 28 2 27 3 26 4 24 5 25 6 17 7 16 8 14 9 15 10 12 12
REMARK SMILES IDX 13 13 11 14 9 15 10 16 97 17 92 18 96 19 93 20 95 21 94 22
REMARK SMILES IDX 6 23 7 24 8 25 5 26 1 27 2 28 3 29 99 30 4 31 98 32 18 33
REMARK SMILES IDX 19 34 20 35 23 36 21 37 22 38 30 40 31 41 32 42 33 43 34 44
REMARK SMILES IDX 35 45 36 46 37 47 38 48 39 49 91 50 40 51 90 52 41 53 42 54
REMARK SMILES IDX 43 55 84 56 44 57 89 58 83 59 85 60 45 61 88 62 82 63 81 64
REMARK SMILES IDX 46 66 72 67 55 68 71 69 56 70 59 71 70 72 86 73 57 74 58 75
REMARK SMILES IDX 69 77 87 78 60 79 47 80 48 81 53 82 49 83 50 84 52 85 54 86
REMARK SMILES IDX 51 87 73 88 74 89 79 90 75 91 76 92 78 93 80 94 77 95 61 96
REMARK SMILES IDX 62 97 67 98 63 99 64 100 66 101 68 102 65 103
REMARK H PARENT 16 11 23 39 85 65 59 76
REMARK Flexibility Score: inf
ROOT
ATOM      1  O   UNL     1      -3.193   8.189   6.964  1.00  0.00    -0.376 OA
ENDROOT
BRANCH   1   2
ATOM      2  C   UNL     1      -4.602   8.342   6.856  1.00  0.00     0.202 C 
BRANCH   2   3
ATOM      3  C   UNL     1      -5.355   7.141   6.244  1.00  0.00     0.261 C 
BRANCH   3   4
ATOM      4  O   UNL     1      -5.432   7.029   4.652  1.00  0.00    -0.462 OA
BRANCH   4   5
ATOM      5  C   UNL     1      -6.112   6.975   3.427  1.00  0.00     0.329 C 
ATOM      6  O   UNL     1      -5.380   6.539   2.528  1.00  0.00    -0.250 OA
BRANCH   5   7
ATOM      7  C   UNL     1      -7.797   7.449   2.945  1.00  0.00     0.198 C 
BRANCH   7   8
ATOM      8  N   UNL     1      -8.354   6.235   2.171  1.00  0.00    -0.335 N 
ATOM      9  C   UNL     1      -7.840   5.291   1.246  1.00  0.00     0.293 C 
ATOM     10  O   UNL     1      -8.556   4.325   0.970  1.00  0.00    -0.265 OA
ATOM     11  H   UNL     1      -9.305   6.076   2.370  1.00  0.00     0.164 HD
BRANCH   9  12
ATOM     12  C   UNL     1      -6.478   5.378   0.504  1.00  0.00     0.252 C 
ATOM     13  O   UNL     1      -6.234   6.502   0.049  1.00  0.00    -0.283 OA
BRANCH  12  14
ATOM     14  C   UNL     1      -5.579   4.199   0.132  1.00  0.00     0.054 A 
ATOM     15  N   UNL     1      -4.423   2.236  -0.048  1.00  0.00    -0.240 N 
ATOM     16  C   UNL     1      -5.415   2.915   0.673  1.00  0.00     0.117 A 
ATOM     17  C   UNL     1      -4.048   2.966  -1.153  1.00  0.00     0.065 A 
ATOM     18  C   UNL     1      -4.662   4.220  -1.006  1.00  0.00     0.012 A 
ATOM     19  C   UNL     1      -3.220   2.657  -2.253  1.00  0.00     0.028 A 
ATOM     20  C   UNL     1      -4.350   5.209  -1.966  1.00  0.00     0.011 A 
ATOM     21  C   UNL     1      -2.946   3.660  -3.182  1.00  0.00     0.002 A 
ATOM     22  C   UNL     1      -3.490   4.926  -3.031  1.00  0.00     0.001 A 
BRANCH  15  23
ATOM     23  S   UNL     1      -3.904   0.598   0.195  1.00  0.00     0.268 S 
ATOM     24  O   UNL     1      -4.389  -0.118  -0.950  1.00  0.00    -0.201 OA
ATOM     25  O   UNL     1      -4.336   0.262   1.557  1.00  0.00    -0.201 OA
BRANCH  23  26
ATOM     26  C   UNL     1      -2.107   0.472   0.177  1.00  0.00     0.088 A 
ATOM     27  C   UNL     1       2.203  -0.028   0.011  1.00  0.00     0.044 C 
ATOM     28  C   UNL     1       0.708   0.145   0.057  1.00  0.00    -0.051 A 
ATOM     29  C   UNL     1      -0.138  -0.967  -0.021  1.00  0.00     0.005 A 
ATOM     30  C   UNL     1       0.129   1.414   0.201  1.00  0.00     0.005 A 
ATOM     31  C   UNL     1      -1.534  -0.807   0.030  1.00  0.00     0.022 A 
ATOM     32  C   UNL     1      -1.267   1.580   0.272  1.00  0.00     0.022 A 
ENDBRANCH  23  26
ENDBRANCH  15  23
ENDBRANCH  12  14
ENDBRANCH   9  12
ENDBRANCH   7   8
BRANCH   7  33
ATOM     33  C   UNL     1      -9.153   8.556   3.661  1.00  0.00     0.092 C 
BRANCH  33  34
ATOM     34  C   UNL     1      -9.969   8.735   5.334  1.00  0.00     0.037 A 
ATOM     35  C   UNL     1     -10.423   7.912   6.445  1.00  0.00     0.134 A 
ATOM     36  N   UNL     1     -10.195   9.974   5.949  1.00  0.00    -0.348 N 
ATOM     37  N   UNL     1     -10.802   8.574   7.576  1.00  0.00    -0.245 NA
ATOM     38  C   UNL     1     -10.659   9.821   7.241  1.00  0.00     0.196 A 
ATOM     39  H   UNL     1     -10.042  10.844   5.514  1.00  0.00     0.167 HD
ENDBRANCH  33  34
ENDBRANCH   7  33
ENDBRANCH   5   7
ENDBRANCH   4   5
ENDBRANCH   3   4
ENDBRANCH   2   3
ENDBRANCH   1   2
BRANCH   1  40
ATOM     40  C   UNL     1      -2.619   7.799   5.728  1.00  0.00     0.188 C 
BRANCH  40  41
ATOM     41  C   UNL     1      -2.317   6.301   5.679  1.00  0.00     0.188 C 
BRANCH  41  42
ATOM     42  O   UNL     1      -3.228   5.477   6.374  1.00  0.00    -0.376 OA
BRANCH  42  43
ATOM     43  C   UNL     1      -3.089   5.339   7.789  1.00  0.00     0.202 C 
BRANCH  43  44
ATOM     44  C   UNL     1      -2.712   3.883   8.027  1.00  0.00     0.261 C 
BRANCH  44  45
ATOM     45  O   UNL     1      -3.845   3.041   7.694  1.00  0.00    -0.460 OA
BRANCH  45  46
ATOM     46  C   UNL     1      -4.107   2.907   6.363  1.00  0.00     0.338 C 
ATOM     47  O   UNL     1      -3.278   2.673   5.497  1.00  0.00    -0.246 OA
BRANCH  46  48
ATOM     48  C   UNL     1      -5.510   3.372   6.096  1.00  0.00     0.060 A 
ATOM     49  C   UNL     1      -5.879   3.643   4.787  1.00  0.00     0.016 A 
ATOM     50  C   UNL     1      -6.361   3.805   7.128  1.00  0.00     0.016 A 
ATOM     51  C   UNL     1      -6.964   4.497   4.550  1.00  0.00     0.010 A 
ATOM     52  C   UNL     1      -7.381   4.741   6.876  1.00  0.00     0.010 A 
ATOM     53  C   UNL     1      -7.581   5.223   5.587  1.00  0.00    -0.014 A 
BRANCH  53  54
ATOM     54  C   UNL     1      -8.330   6.543   5.350  1.00  0.00     0.031 A 
ATOM     55  C   UNL     1      -9.895   6.110   4.606  1.00  0.00     0.074 A 
ATOM     56  C   UNL     1      -7.677   7.889   5.605  1.00  0.00     0.049 A 
ATOM     57  N   UNL     1     -10.750   6.860   3.915  1.00  0.00    -0.248 NA
ATOM     58  C   UNL     1     -10.571   4.824   4.872  1.00  0.00     0.031 C 
ATOM     59  C   UNL     1      -7.760   8.917   6.742  1.00  0.00     0.029 A 
ATOM     60  N   UNL     1      -6.907   8.809   4.730  1.00  0.00    -0.354 N 
ATOM     61  C   UNL     1     -12.036   6.547   4.343  1.00  0.00     0.074 A 
ATOM     62  C   UNL     1     -11.862   5.129   4.610  1.00  0.00     0.031 C 
ATOM     63  C   UNL     1      -7.460  10.193   6.317  1.00  0.00     0.029 A 
ATOM     64  C   UNL     1      -6.946  10.171   4.973  1.00  0.00     0.049 A 
ATOM     65  H   UNL     1      -6.372   8.454   3.983  1.00  0.00     0.167 HD
ATOM     66  C   UNL     1     -12.975   7.480   4.811  1.00  0.00     0.037 A 
ATOM     67  C   UNL     1      -6.619  11.139   4.063  1.00  0.00     0.037 A 
ATOM     68  C   UNL     1     -12.783   8.991   4.608  1.00  0.00     0.049 A 
ATOM     69  C   UNL     1      -7.856  11.801   3.438  1.00  0.00     0.074 A 
ATOM     70  C   UNL     1     -13.061  10.070   5.468  1.00  0.00     0.029 A 
ATOM     71  N   UNL     1     -12.171   9.620   3.511  1.00  0.00    -0.354 N 
ATOM     72  N   UNL     1      -9.095  11.630   3.843  1.00  0.00    -0.248 NA
ATOM     73  C   UNL     1      -7.772  12.610   2.212  1.00  0.00     0.031 C 
ATOM     74  C   UNL     1     -12.544  11.286   4.956  1.00  0.00     0.029 A 
ATOM     75  C   UNL     1     -11.920  10.991   3.764  1.00  0.00     0.049 A 
ATOM     76  H   UNL     1     -11.943   9.164   2.669  1.00  0.00     0.167 HD
ATOM     77  C   UNL     1      -9.945  12.108   2.853  1.00  0.00     0.074 A 
ATOM     78  C   UNL     1      -9.067  12.770   1.900  1.00  0.00     0.031 C 
ATOM     79  C   UNL     1     -11.301  11.901   2.806  1.00  0.00     0.037 A 
BRANCH  66  80
ATOM     80  C   UNL     1     -14.032   7.091   5.926  1.00  0.00     0.057 A 
ATOM     81  C   UNL     1     -15.083   7.982   6.269  1.00  0.00     0.134 A 
ATOM     82  C   UNL     1     -13.930   6.012   6.831  1.00  0.00     0.134 A 
ATOM     83  F   UNL     1     -15.417   9.010   5.472  1.00  0.00    -0.206 F 
ATOM     84  C   UNL     1     -15.829   7.901   7.462  1.00  0.00     0.040 A 
ATOM     85  C   UNL     1     -14.761   5.849   7.958  1.00  0.00     0.040 A 
ATOM     86  F   UNL     1     -12.996   5.063   6.731  1.00  0.00    -0.206 F 
ATOM     87  C   UNL     1     -15.678   6.821   8.311  1.00  0.00     0.006 A 
ENDBRANCH  66  80
BRANCH  67  88
ATOM     88  C   UNL     1      -5.378  10.827   3.245  1.00  0.00     0.057 A 
ATOM     89  C   UNL     1      -4.132  11.003   3.877  1.00  0.00     0.134 A 
ATOM     90  C   UNL     1      -5.343  10.158   2.013  1.00  0.00     0.134 A 
ATOM     91  F   UNL     1      -4.066  11.669   5.039  1.00  0.00    -0.206 F 
ATOM     92  C   UNL     1      -2.944  10.442   3.387  1.00  0.00     0.040 A 
ATOM     93  C   UNL     1      -4.162   9.568   1.520  1.00  0.00     0.040 A 
ATOM     94  F   UNL     1      -6.462  10.001   1.296  1.00  0.00    -0.206 F 
ATOM     95  C   UNL     1      -2.966   9.678   2.226  1.00  0.00     0.006 A 
ENDBRANCH  67  88
BRANCH  79  96
ATOM     96  C   UNL     1     -12.257  12.709   1.948  1.00  0.00     0.057 A 
ATOM     97  C   UNL     1     -12.048  14.044   1.565  1.00  0.00     0.134 A 
ATOM     98  C   UNL     1     -13.553  12.212   1.688  1.00  0.00     0.134 A 
ATOM     99  F   UNL     1     -10.926  14.702   1.891  1.00  0.00    -0.206 F 
ATOM    100  C   UNL     1     -13.021  14.791   0.888  1.00  0.00     0.040 A 
ATOM    101  C   UNL     1     -14.554  12.971   1.081  1.00  0.00     0.040 A 
ATOM    102  F   UNL     1     -13.916  10.971   2.042  1.00  0.00    -0.206 F 
ATOM    103  C   UNL     1     -14.282  14.258   0.652  1.00  0.00     0.006 A 
ENDBRANCH  79  96
ENDBRANCH  53  54
ENDBRANCH  46  48
ENDBRANCH  45  46
ENDBRANCH  44  45
ENDBRANCH  43  44
ENDBRANCH  42  43
ENDBRANCH  41  42
ENDBRANCH  40  41
ENDBRANCH   1  40
TORSDOF 24
