REMARK SMILES Cc1ccc(-c2cc3cccnc3n2CCC(=O)OCCOCCOCCOC(=O)c2ccc(-c3c4nc(c(-c5c(F)cccc5F)c5ccc([nH]5)c(-c5c(F)cccc5F)c5nc(c(-c6c(F)cccc6F)c6ccc3[nH]6)C=C5)C=C4)cc2)cn1
REMARK SMILES IDX 23 1 22 2 21 3 20 4 19 5 17 6 18 7 16 8 15 9 14 10 6 11 7 12
REMARK SMILES IDX 8 13 13 14 9 15 12 16 10 17 11 18 5 19 1 20 2 21 3 22 86 23
REMARK SMILES IDX 4 24 85 25 24 26 25 27 26 28 27 29 28 30 29 31 30 32 31 33
REMARK SMILES IDX 32 34 84 35 33 36 83 37 34 38 35 39 36 40 77 41 37 42 82 43
REMARK SMILES IDX 76 44 78 45 38 46 81 47 75 48 74 49 39 51 65 52 48 53 64 54
REMARK SMILES IDX 49 55 52 56 63 57 79 58 50 59 51 60 62 62 80 63 53 64 40 65
REMARK SMILES IDX 41 66 46 67 42 68 43 69 45 70 47 71 44 72 66 73 67 74 72 75
REMARK SMILES IDX 68 76 69 77 71 78 73 79 70 80 54 81 55 82 60 83 56 84 57 85
REMARK SMILES IDX 59 86 61 87 58 88
REMARK H PARENT 78 50 52 61
REMARK Flexibility Score: inf
ROOT
ATOM      1  C   UNL     1      -0.254   0.122   1.572  1.00  0.00     0.188 C 
ENDROOT
BRANCH   1   2
ATOM      2  O   UNL     1      -0.175  -0.050   0.059  1.00  0.00    -0.376 OA
BRANCH   2   3
ATOM      3  C   UNL     1      -0.446  -1.181  -1.565  1.00  0.00     0.202 C 
BRANCH   3   4
ATOM      4  C   UNL     1      -1.665  -2.347  -2.007  1.00  0.00     0.261 C 
BRANCH   4   5
ATOM      5  O   UNL     1      -2.930  -2.503  -1.305  1.00  0.00    -0.463 OA
BRANCH   5   6
ATOM      6  C   UNL     1      -3.101  -3.542  -0.450  1.00  0.00     0.307 C 
ATOM      7  O   UNL     1      -2.458  -4.584  -0.509  1.00  0.00    -0.252 OA
BRANCH   6   8
ATOM      8  C   UNL     1      -4.103  -3.266   0.676  1.00  0.00     0.144 C 
BRANCH   8   9
ATOM      9  C   UNL     1      -4.142  -1.883   1.343  1.00  0.00     0.136 C 
BRANCH   9  10
ATOM     10  N   UNL     1      -4.411  -0.782   0.446  1.00  0.00    -0.325 N 
ATOM     11  C   UNL     1      -3.482  -0.117  -0.328  1.00  0.00     0.052 A 
ATOM     12  C   UNL     1      -4.200   0.722  -1.167  1.00  0.00     0.039 A 
ATOM     13  C   UNL     1      -5.562   0.650  -0.822  1.00  0.00     0.020 A 
ATOM     14  C   UNL     1      -5.663  -0.251   0.230  1.00  0.00     0.140 A 
ATOM     15  C   UNL     1      -6.730   1.258  -1.298  1.00  0.00     0.013 A 
ATOM     16  N   UNL     1      -6.790  -0.580   0.895  1.00  0.00    -0.238 NA
ATOM     17  C   UNL     1      -7.916   0.961  -0.637  1.00  0.00     0.021 A 
ATOM     18  C   UNL     1      -7.883   0.076   0.434  1.00  0.00     0.113 A 
BRANCH  11  19
ATOM     19  C   UNL     1      -2.028  -0.329  -0.366  1.00  0.00     0.017 A 
ATOM     20  C   UNL     1       2.983  -0.220  -0.497  1.00  0.00     0.066 C 
ATOM     21  C   UNL     1       1.521  -0.462  -0.706  1.00  0.00     0.037 A 
ATOM     22  C   UNL     1       0.716  -1.791   0.187  1.00  0.00     0.024 A 
ATOM     23  N   UNL     1       0.635   0.845  -1.449  1.00  0.00    -0.261 NA
ATOM     24  C   UNL     1      -1.086  -1.729   0.368  1.00  0.00     0.014 A 
ATOM     25  C   UNL     1      -1.107   0.916  -1.261  1.00  0.00     0.121 A 
ENDBRANCH  11  19
ENDBRANCH   9  10
ENDBRANCH   8   9
ENDBRANCH   6   8
ENDBRANCH   5   6
ENDBRANCH   4   5
ENDBRANCH   3   4
ENDBRANCH   2   3
ENDBRANCH   1   2
BRANCH   1  26
ATOM     26  C   UNL     1      -1.411   1.033   2.033  1.00  0.00     0.188 C 
BRANCH  26  27
ATOM     27  O   UNL     1      -1.544   2.320   1.425  1.00  0.00    -0.376 OA
BRANCH  27  28
ATOM     28  C   UNL     1      -0.368   3.001   0.982  1.00  0.00     0.202 C 
BRANCH  28  29
ATOM     29  C   UNL     1       0.251   3.911   2.026  1.00  0.00     0.261 C 
BRANCH  29  30
ATOM     30  O   UNL     1       0.774   3.076   3.050  1.00  0.00    -0.460 OA
BRANCH  30  31
ATOM     31  C   UNL     1      -0.111   2.783   4.027  1.00  0.00     0.338 C 
ATOM     32  O   UNL     1      -1.159   3.369   4.272  1.00  0.00    -0.246 OA
BRANCH  31  33
ATOM     33  C   UNL     1       0.385   1.559   4.764  1.00  0.00     0.060 A 
ATOM     34  C   UNL     1      -0.334   1.419   5.949  1.00  0.00     0.016 A 
ATOM     35  C   UNL     1       1.772   1.544   4.795  1.00  0.00     0.016 A 
ATOM     36  C   UNL     1       0.198   2.064   7.037  1.00  0.00     0.010 A 
ATOM     37  C   UNL     1       2.301   2.280   5.815  1.00  0.00     0.010 A 
ATOM     38  C   UNL     1       1.467   2.625   6.885  1.00  0.00    -0.014 A 
BRANCH  38  39
ATOM     39  C   UNL     1       2.006   3.428   7.949  1.00  0.00     0.031 A 
ATOM     40  C   UNL     1       2.821   2.585   8.839  1.00  0.00     0.074 A 
ATOM     41  C   UNL     1       1.888   4.761   8.027  1.00  0.00     0.049 A 
ATOM     42  N   UNL     1       2.394   1.921   9.864  1.00  0.00    -0.248 NA
ATOM     43  C   UNL     1       4.123   2.130   8.321  1.00  0.00     0.031 C 
ATOM     44  C   UNL     1       1.347   5.713   7.059  1.00  0.00     0.029 A 
ATOM     45  N   UNL     1       2.342   5.557   9.030  1.00  0.00    -0.354 N 
ATOM     46  C   UNL     1       3.490   1.159  10.238  1.00  0.00     0.074 A 
ATOM     47  C   UNL     1       4.289   1.030   9.056  1.00  0.00     0.031 C 
ATOM     48  C   UNL     1       1.702   6.968   7.429  1.00  0.00     0.029 A 
ATOM     49  C   UNL     1       2.391   6.908   8.708  1.00  0.00     0.049 A 
ATOM     50  H   UNL     1       2.613   5.207   9.909  1.00  0.00     0.167 HD
ATOM     51  C   UNL     1       3.881   1.089  11.539  1.00  0.00     0.037 A 
ATOM     52  C   UNL     1       3.057   7.838   9.440  1.00  0.00     0.037 A 
ATOM     53  C   UNL     1       2.833   1.583  12.407  1.00  0.00     0.049 A 
ATOM     54  C   UNL     1       3.292   7.246  10.791  1.00  0.00     0.074 A 
ATOM     55  C   UNL     1       1.512   1.245  12.636  1.00  0.00     0.029 A 
ATOM     56  N   UNL     1       2.985   2.858  12.903  1.00  0.00    -0.354 N 
ATOM     57  N   UNL     1       2.337   7.010  11.648  1.00  0.00    -0.248 NA
ATOM     58  C   UNL     1       4.501   6.453  10.983  1.00  0.00     0.031 C 
ATOM     59  C   UNL     1       0.837   2.482  12.854  1.00  0.00     0.029 A 
ATOM     60  C   UNL     1       1.782   3.508  12.812  1.00  0.00     0.049 A 
ATOM     61  H   UNL     1       3.819   3.240  13.262  1.00  0.00     0.167 HD
ATOM     62  C   UNL     1       2.642   5.769  12.195  1.00  0.00     0.074 A 
ATOM     63  C   UNL     1       4.026   5.511  11.805  1.00  0.00     0.031 C 
ATOM     64  C   UNL     1       1.653   4.938  12.644  1.00  0.00     0.037 A 
BRANCH  51  65
ATOM     65  C   UNL     1       5.331   1.031  11.980  1.00  0.00     0.057 A 
ATOM     66  C   UNL     1       6.464   1.377  11.206  1.00  0.00     0.134 A 
ATOM     67  C   UNL     1       5.587   0.881  13.353  1.00  0.00     0.134 A 
ATOM     68  F   UNL     1       6.438   1.573   9.886  1.00  0.00    -0.206 F 
ATOM     69  C   UNL     1       7.718   1.632  11.759  1.00  0.00     0.040 A 
ATOM     70  C   UNL     1       6.831   1.177  13.922  1.00  0.00     0.040 A 
ATOM     71  F   UNL     1       4.611   0.521  14.198  1.00  0.00    -0.206 F 
ATOM     72  C   UNL     1       7.897   1.575  13.126  1.00  0.00     0.006 A 
ENDBRANCH  51  65
BRANCH  52  73
ATOM     73  C   UNL     1       3.768   9.050   8.974  1.00  0.00     0.057 A 
ATOM     74  C   UNL     1       4.311   9.135   7.680  1.00  0.00     0.134 A 
ATOM     75  C   UNL     1       4.166  10.052   9.872  1.00  0.00     0.134 A 
ATOM     76  F   UNL     1       4.068   8.188   6.763  1.00  0.00    -0.206 F 
ATOM     77  C   UNL     1       5.201  10.146   7.303  1.00  0.00     0.040 A 
ATOM     78  C   UNL     1       5.062  11.067   9.509  1.00  0.00     0.040 A 
ATOM     79  F   UNL     1       3.741  10.034  11.144  1.00  0.00    -0.206 F 
ATOM     80  C   UNL     1       5.590  11.110   8.223  1.00  0.00     0.006 A 
ENDBRANCH  52  73
BRANCH  64  81
ATOM     81  C   UNL     1       0.267   5.516  12.751  1.00  0.00     0.057 A 
ATOM     82  C   UNL     1      -0.375   5.507  13.992  1.00  0.00     0.134 A 
ATOM     83  C   UNL     1      -0.485   5.960  11.652  1.00  0.00     0.134 A 
ATOM     84  F   UNL     1       0.260   5.038  15.078  1.00  0.00    -0.206 F 
ATOM     85  C   UNL     1      -1.696   5.937  14.141  1.00  0.00     0.040 A 
ATOM     86  C   UNL     1      -1.796   6.426  11.792  1.00  0.00     0.040 A 
ATOM     87  F   UNL     1       0.011   5.905  10.409  1.00  0.00    -0.206 F 
ATOM     88  C   UNL     1      -2.406   6.412  13.041  1.00  0.00     0.006 A 
ENDBRANCH  64  81
ENDBRANCH  38  39
ENDBRANCH  31  33
ENDBRANCH  30  31
ENDBRANCH  29  30
ENDBRANCH  28  29
ENDBRANCH  27  28
ENDBRANCH  26  27
ENDBRANCH   1  26
TORSDOF 20
