REMARK SMILES CC(C)[C@@H](Cc1nc2ccccc2n1C)C(=O)OCCOCCOCCOC(=O)c1ccc(-c2c3nc(c(-c4c(F)cccc4F)c4ccc([nH]4)c(-c4c(F)cccc4F)c4nc(c(-c5c(F)cccc5F)c5ccc2[nH]5)C=C4)C=C3)cc1
REMARK SMILES IDX 22 1 21 2 20 3 19 4 18 5 16 6 17 7 4 8 2 9 1 10 3 11 5 12
REMARK SMILES IDX 6 13 7 14 14 15 8 16 13 17 15 18 9 19 12 20 10 21 11 22
REMARK SMILES IDX 23 23 24 24 25 25 26 26 27 27 28 28 29 29 30 30 31 31 83 32
REMARK SMILES IDX 32 33 82 34 33 35 34 36 35 37 76 38 36 39 81 40 75 41 77 42
REMARK SMILES IDX 37 43 80 44 74 45 73 46 38 48 64 49 47 50 63 51 48 52 51 53
REMARK SMILES IDX 62 54 78 55 49 56 50 57 61 59 79 60 52 61 39 62 40 63 45 64
REMARK SMILES IDX 41 65 42 66 44 67 46 68 43 69 65 70 66 71 71 72 67 73 68 74
REMARK SMILES IDX 70 75 72 76 69 77 53 78 54 79 59 80 55 81 56 82 58 83 60 84
REMARK SMILES IDX 57 85
REMARK H PARENT 77 47 51 58
REMARK Flexibility Score: inf
ROOT
ATOM      1  C   UNL     1      -1.899  -5.335  -0.271  1.00  0.00     0.188 C 
ENDROOT
BRANCH   1   2
ATOM      2  O   UNL     1      -2.578  -5.921  -1.371  1.00  0.00    -0.376 OA
BRANCH   2   3
ATOM      3  C   UNL     1      -2.397  -5.357  -2.667  1.00  0.00     0.202 C 
BRANCH   3   4
ATOM      4  C   UNL     1      -2.640  -3.850  -2.845  1.00  0.00     0.261 C 
BRANCH   4   5
ATOM      5  O   UNL     1      -1.643  -2.963  -2.273  1.00  0.00    -0.463 OA
BRANCH   5   6
ATOM      6  C   UNL     1      -2.084  -2.087  -1.337  1.00  0.00     0.309 C 
ATOM      7  O   UNL     1      -3.181  -2.186  -0.784  1.00  0.00    -0.252 OA
BRANCH   6   8
ATOM      8  C   UNL     1      -1.196  -0.867  -1.035  1.00  0.00     0.109 C 
BRANCH   8   9
ATOM      9  C   UNL     1       0.374  -0.847  -1.065  1.00  0.00    -0.003 C 
ATOM     10  C   UNL     1       0.887   0.521  -0.558  1.00  0.00     0.008 C 
ATOM     11  C   UNL     1       1.089  -1.891  -0.205  1.00  0.00     0.008 C 
ENDBRANCH   8   9
BRANCH   8  12
ATOM     12  C   UNL     1      -1.806   0.279  -1.891  1.00  0.00     0.091 C 
BRANCH  12  13
ATOM     13  C   UNL     1      -1.356   0.179  -3.317  1.00  0.00     0.110 A 
ATOM     14  N   UNL     1      -1.322  -0.959  -3.977  1.00  0.00    -0.233 NA
ATOM     15  N   UNL     1      -0.842   1.194  -4.092  1.00  0.00    -0.331 N 
ATOM     16  C   UNL     1      -0.674  -0.715  -5.146  1.00  0.00     0.089 A 
ATOM     17  C   UNL     1      -0.387   0.638  -5.271  1.00  0.00     0.068 A 
ATOM     18  C   UNL     1      -0.729   2.591  -3.755  1.00  0.00     0.151 C 
ATOM     19  C   UNL     1      -0.291  -1.617  -6.146  1.00  0.00     0.030 A 
ATOM     20  C   UNL     1       0.245   1.161  -6.405  1.00  0.00     0.028 A 
ATOM     21  C   UNL     1       0.354  -1.118  -7.279  1.00  0.00     0.002 A 
ATOM     22  C   UNL     1       0.605   0.250  -7.409  1.00  0.00     0.002 A 
ENDBRANCH  12  13
ENDBRANCH   8  12
ENDBRANCH   6   8
ENDBRANCH   5   6
ENDBRANCH   4   5
ENDBRANCH   3   4
ENDBRANCH   2   3
ENDBRANCH   1   2
BRANCH   1  23
ATOM     23  C   UNL     1      -0.478  -4.829  -0.485  1.00  0.00     0.188 C 
BRANCH  23  24
ATOM     24  O   UNL     1       0.147  -5.311  -1.657  1.00  0.00    -0.376 OA
BRANCH  24  25
ATOM     25  C   UNL     1       1.482  -5.773  -1.538  1.00  0.00     0.202 C 
BRANCH  25  26
ATOM     26  C   UNL     1       1.553  -7.112  -0.796  1.00  0.00     0.261 C 
BRANCH  26  27
ATOM     27  O   UNL     1       1.172  -7.041   0.593  1.00  0.00    -0.460 OA
BRANCH  27  28
ATOM     28  C   UNL     1       1.893  -6.210   1.384  1.00  0.00     0.338 C 
ATOM     29  O   UNL     1       2.926  -5.630   1.092  1.00  0.00    -0.246 OA
BRANCH  28  30
ATOM     30  C   UNL     1       1.073  -5.896   2.578  1.00  0.00     0.060 A 
ATOM     31  C   UNL     1       0.875  -4.550   2.924  1.00  0.00     0.016 A 
ATOM     32  C   UNL     1       0.453  -6.908   3.312  1.00  0.00     0.016 A 
ATOM     33  C   UNL     1       0.088  -4.215   4.027  1.00  0.00     0.010 A 
ATOM     34  C   UNL     1      -0.314  -6.574   4.431  1.00  0.00     0.010 A 
ATOM     35  C   UNL     1      -0.472  -5.229   4.814  1.00  0.00    -0.014 A 
BRANCH  35  36
ATOM     36  C   UNL     1      -1.026  -4.908   6.152  1.00  0.00     0.031 A 
ATOM     37  C   UNL     1      -0.142  -5.129   7.350  1.00  0.00     0.074 A 
ATOM     38  C   UNL     1      -2.269  -4.421   6.314  1.00  0.00     0.049 A 
ATOM     39  N   UNL     1      -0.417  -5.014   8.623  1.00  0.00    -0.248 NA
ATOM     40  C   UNL     1       1.243  -5.541   7.066  1.00  0.00     0.031 C 
ATOM     41  C   UNL     1      -3.205  -4.106   5.239  1.00  0.00     0.029 A 
ATOM     42  N   UNL     1      -2.957  -4.117   7.463  1.00  0.00    -0.354 N 
ATOM     43  C   UNL     1       0.753  -5.353   9.291  1.00  0.00     0.074 A 
ATOM     44  C   UNL     1       1.731  -5.706   8.285  1.00  0.00     0.031 C 
ATOM     45  C   UNL     1      -4.355  -3.664   5.780  1.00  0.00     0.029 A 
ATOM     46  C   UNL     1      -4.247  -3.702   7.239  1.00  0.00     0.049 A 
ATOM     47  H   UNL     1      -2.563  -4.188   8.363  1.00  0.00     0.167 HD
ATOM     48  C   UNL     1       0.996  -5.364  10.623  1.00  0.00     0.037 A 
ATOM     49  C   UNL     1      -5.234  -3.416   8.112  1.00  0.00     0.037 A 
ATOM     50  C   UNL     1       0.024  -5.015  11.624  1.00  0.00     0.049 A 
ATOM     51  C   UNL     1      -4.968  -3.521   9.594  1.00  0.00     0.074 A 
ATOM     52  C   UNL     1       0.175  -4.990  12.999  1.00  0.00     0.029 A 
ATOM     53  N   UNL     1      -1.283  -4.637  11.357  1.00  0.00    -0.354 N 
ATOM     54  N   UNL     1      -3.858  -3.835  10.218  1.00  0.00    -0.248 NA
ATOM     55  C   UNL     1      -6.096  -3.231  10.492  1.00  0.00     0.031 C 
ATOM     56  C   UNL     1      -1.057  -4.648  13.567  1.00  0.00     0.029 A 
ATOM     57  C   UNL     1      -1.957  -4.401  12.543  1.00  0.00     0.049 A 
ATOM     58  H   UNL     1      -1.673  -4.550  10.457  1.00  0.00     0.167 HD
ATOM     59  C   UNL     1      -4.144  -3.749  11.576  1.00  0.00     0.074 A 
ATOM     60  C   UNL     1      -5.529  -3.341  11.685  1.00  0.00     0.031 C 
ATOM     61  C   UNL     1      -3.334  -3.984  12.638  1.00  0.00     0.037 A 
BRANCH  48  62
ATOM     62  C   UNL     1       2.359  -5.805  11.069  1.00  0.00     0.057 A 
ATOM     63  C   UNL     1       3.501  -5.020  10.859  1.00  0.00     0.134 A 
ATOM     64  C   UNL     1       2.529  -7.028  11.730  1.00  0.00     0.134 A 
ATOM     65  F   UNL     1       3.410  -3.847  10.214  1.00  0.00    -0.206 F 
ATOM     66  C   UNL     1       4.765  -5.448  11.267  1.00  0.00     0.040 A 
ATOM     67  C   UNL     1       3.784  -7.453  12.169  1.00  0.00     0.040 A 
ATOM     68  F   UNL     1       1.478  -7.828  11.964  1.00  0.00    -0.206 F 
ATOM     69  C   UNL     1       4.908  -6.665  11.930  1.00  0.00     0.006 A 
ENDBRANCH  48  62
BRANCH  49  70
ATOM     70  C   UNL     1      -6.580  -3.023   7.620  1.00  0.00     0.057 A 
ATOM     71  C   UNL     1      -7.082  -1.733   7.828  1.00  0.00     0.134 A 
ATOM     72  C   UNL     1      -7.412  -3.938   6.962  1.00  0.00     0.134 A 
ATOM     73  F   UNL     1      -6.347  -0.820   8.479  1.00  0.00    -0.206 F 
ATOM     74  C   UNL     1      -8.367  -1.372   7.418  1.00  0.00     0.040 A 
ATOM     75  C   UNL     1      -8.688  -3.583   6.521  1.00  0.00     0.040 A 
ATOM     76  F   UNL     1      -6.994  -5.192   6.737  1.00  0.00    -0.206 F 
ATOM     77  C   UNL     1      -9.172  -2.298   6.757  1.00  0.00     0.006 A 
ENDBRANCH  49  70
BRANCH  61  78
ATOM     78  C   UNL     1      -3.904  -3.760  14.010  1.00  0.00     0.057 A 
ATOM     79  C   UNL     1      -4.862  -4.615  14.568  1.00  0.00     0.134 A 
ATOM     80  C   UNL     1      -3.452  -2.695  14.802  1.00  0.00     0.134 A 
ATOM     81  F   UNL     1      -5.345  -5.648  13.861  1.00  0.00    -0.206 F 
ATOM     82  C   UNL     1      -5.370  -4.404  15.852  1.00  0.00     0.040 A 
ATOM     83  C   UNL     1      -3.930  -2.491  16.097  1.00  0.00     0.040 A 
ATOM     84  F   UNL     1      -2.525  -1.844  14.335  1.00  0.00    -0.206 F 
ATOM     85  C   UNL     1      -4.898  -3.344  16.623  1.00  0.00     0.006 A 
ENDBRANCH  61  78
ENDBRANCH  35  36
ENDBRANCH  28  30
ENDBRANCH  27  28
ENDBRANCH  26  27
ENDBRANCH  25  26
ENDBRANCH  24  25
ENDBRANCH  23  24
ENDBRANCH   1  23
TORSDOF 20
