REMARK SMILES O=C(OCCOCCOCCOC(=O)[C@H]1CC2(CC[NH+](S(=O)(=O)N3CCOCC3)CC2)C[NH2+]1)c1ccc(-c2c3nc(c(-c4c(F)cccc4F)c4ccc([nH]4)c(-c4c(F)cccc4F)c4nc(c(-c5c(F)cccc5F)c5ccc2[nH]5)C=C4)C=C3)cc1
REMARK SMILES IDX 7 1 6 2 5 3 4 4 3 5 2 6 1 7 34 8 35 9 87 10 36 11 86 12
REMARK SMILES IDX 37 13 38 14 39 15 80 16 40 17 85 18 79 19 81 20 41 21 84 22
REMARK SMILES IDX 78 23 77 24 42 26 68 27 51 28 67 29 52 30 55 31 66 32 82 33
REMARK SMILES IDX 53 34 54 35 65 37 83 38 56 39 43 40 44 41 49 42 45 43 46 44
REMARK SMILES IDX 48 45 50 46 47 47 69 48 70 49 75 50 71 51 72 52 74 53 76 54
REMARK SMILES IDX 73 55 57 56 58 57 63 58 59 59 60 60 62 61 64 62 61 63 8 64
REMARK SMILES IDX 9 65 10 66 11 67 12 68 13 69 14 70 15 71 16 72 33 73 17 74
REMARK SMILES IDX 32 75 18 78 31 79 19 80 30 81 20 82 21 84 22 85 23 86 24 87
REMARK SMILES IDX 25 88 29 89 26 90 28 91 27 92
REMARK H PARENT 81 25 55 36 33 76 33 77 20 83
REMARK Flexibility Score: inf
ROOT
ATOM      1  C   UNL     1       2.923  -3.485  -0.197  1.00  0.00     0.188 C 
ENDROOT
BRANCH   1   2
ATOM      2  O   UNL     1       2.735  -2.068  -0.184  1.00  0.00    -0.376 OA
BRANCH   2   3
ATOM      3  C   UNL     1       3.012  -1.424  -1.434  1.00  0.00     0.202 C 
BRANCH   3   4
ATOM      4  C   UNL     1       4.485  -1.422  -1.887  1.00  0.00     0.261 C 
BRANCH   4   5
ATOM      5  O   UNL     1       5.285  -2.473  -1.316  1.00  0.00    -0.460 OA
BRANCH   5   6
ATOM      6  C   UNL     1       6.038  -2.464  -0.188  1.00  0.00     0.338 C 
ATOM      7  O   UNL     1       6.733  -3.445   0.066  1.00  0.00    -0.246 OA
BRANCH   6   8
ATOM      8  C   UNL     1       6.057  -1.332   0.786  1.00  0.00     0.060 A 
ATOM      9  C   UNL     1       5.037  -0.398   0.929  1.00  0.00     0.016 A 
ATOM     10  C   UNL     1       7.149  -1.246   1.667  1.00  0.00     0.016 A 
ATOM     11  C   UNL     1       5.125   0.651   1.826  1.00  0.00     0.010 A 
ATOM     12  C   UNL     1       7.226  -0.221   2.618  1.00  0.00     0.010 A 
ATOM     13  C   UNL     1       6.223   0.754   2.669  1.00  0.00    -0.014 A 
BRANCH  13  14
ATOM     14  C   UNL     1       6.349   1.990   3.460  1.00  0.00     0.031 A 
ATOM     15  C   UNL     1       7.348   3.010   3.011  1.00  0.00     0.074 A 
ATOM     16  C   UNL     1       5.458   2.266   4.429  1.00  0.00     0.049 A 
ATOM     17  N   UNL     1       7.652   4.159   3.548  1.00  0.00    -0.248 NA
ATOM     18  C   UNL     1       8.084   2.707   1.771  1.00  0.00     0.031 C 
ATOM     19  C   UNL     1       4.336   1.406   4.809  1.00  0.00     0.029 A 
ATOM     20  N   UNL     1       5.329   3.353   5.248  1.00  0.00    -0.354 N 
ATOM     21  C   UNL     1       8.625   4.707   2.724  1.00  0.00     0.074 A 
ATOM     22  C   UNL     1       8.876   3.761   1.661  1.00  0.00     0.031 C 
ATOM     23  C   UNL     1       3.638   1.996   5.792  1.00  0.00     0.029 A 
ATOM     24  C   UNL     1       4.303   3.236   6.155  1.00  0.00     0.049 A 
ATOM     25  H   UNL     1       5.914   4.143   5.194  1.00  0.00     0.167 HD
ATOM     26  C   UNL     1       9.247   5.899   2.855  1.00  0.00     0.037 A 
ATOM     27  C   UNL     1       3.979   4.021   7.196  1.00  0.00     0.037 A 
ATOM     28  C   UNL     1       8.975   6.811   3.931  1.00  0.00     0.049 A 
ATOM     29  C   UNL     1       4.800   5.251   7.422  1.00  0.00     0.074 A 
ATOM     30  C   UNL     1       9.576   8.023   4.213  1.00  0.00     0.029 A 
ATOM     31  N   UNL     1       8.015   6.598   4.913  1.00  0.00    -0.354 N 
ATOM     32  N   UNL     1       5.781   5.728   6.694  1.00  0.00    -0.248 NA
ATOM     33  C   UNL     1       4.476   6.046   8.609  1.00  0.00     0.031 C 
ATOM     34  C   UNL     1       9.020   8.514   5.399  1.00  0.00     0.029 A 
ATOM     35  C   UNL     1       8.026   7.642   5.820  1.00  0.00     0.049 A 
ATOM     36  H   UNL     1       7.415   5.819   4.956  1.00  0.00     0.167 HD
ATOM     37  C   UNL     1       6.180   6.896   7.321  1.00  0.00     0.074 A 
ATOM     38  C   UNL     1       5.325   7.056   8.483  1.00  0.00     0.031 C 
ATOM     39  C   UNL     1       7.158   7.763   6.965  1.00  0.00     0.037 A 
BRANCH  26  40
ATOM     40  C   UNL     1      10.323   6.218   1.860  1.00  0.00     0.057 A 
ATOM     41  C   UNL     1      10.045   6.505   0.517  1.00  0.00     0.134 A 
ATOM     42  C   UNL     1      11.668   6.194   2.249  1.00  0.00     0.134 A 
ATOM     43  F   UNL     1       8.780   6.509   0.069  1.00  0.00    -0.206 F 
ATOM     44  C   UNL     1      11.068   6.728  -0.408  1.00  0.00     0.040 A 
ATOM     45  C   UNL     1      12.697   6.443   1.341  1.00  0.00     0.040 A 
ATOM     46  F   UNL     1      12.005   5.914   3.517  1.00  0.00    -0.206 F 
ATOM     47  C   UNL     1      12.399   6.702   0.005  1.00  0.00     0.006 A 
ENDBRANCH  26  40
BRANCH  27  48
ATOM     48  C   UNL     1       2.922   3.619   8.153  1.00  0.00     0.057 A 
ATOM     49  C   UNL     1       1.690   4.273   8.224  1.00  0.00     0.134 A 
ATOM     50  C   UNL     1       3.154   2.579   9.059  1.00  0.00     0.134 A 
ATOM     51  F   UNL     1       1.425   5.305   7.411  1.00  0.00    -0.206 F 
ATOM     52  C   UNL     1       0.721   3.899   9.161  1.00  0.00     0.040 A 
ATOM     53  C   UNL     1       2.188   2.175   9.981  1.00  0.00     0.040 A 
ATOM     54  F   UNL     1       4.331   1.935   9.047  1.00  0.00    -0.206 F 
ATOM     55  C   UNL     1       0.967   2.841  10.036  1.00  0.00     0.006 A 
ENDBRANCH  27  48
BRANCH  39  56
ATOM     56  C   UNL     1       7.308   8.981   7.821  1.00  0.00     0.057 A 
ATOM     57  C   UNL     1       7.843   8.920   9.112  1.00  0.00     0.134 A 
ATOM     58  C   UNL     1       6.929  10.235   7.327  1.00  0.00     0.134 A 
ATOM     59  F   UNL     1       8.202   7.742   9.646  1.00  0.00    -0.206 F 
ATOM     60  C   UNL     1       7.972  10.065   9.896  1.00  0.00     0.040 A 
ATOM     61  C   UNL     1       7.085  11.391   8.088  1.00  0.00     0.040 A 
ATOM     62  F   UNL     1       6.413  10.355   6.094  1.00  0.00    -0.206 F 
ATOM     63  C   UNL     1       7.601  11.306   9.379  1.00  0.00     0.006 A 
ENDBRANCH  39  56
ENDBRANCH  13  14
ENDBRANCH   6   8
ENDBRANCH   5   6
ENDBRANCH   4   5
ENDBRANCH   3   4
ENDBRANCH   2   3
ENDBRANCH   1   2
BRANCH   1  64
ATOM     64  C   UNL     1       1.838  -4.261   0.551  1.00  0.00     0.188 C 
BRANCH  64  65
ATOM     65  O   UNL     1       0.510  -4.175   0.047  1.00  0.00    -0.376 OA
BRANCH  65  66
ATOM     66  C   UNL     1      -0.041  -2.880  -0.163  1.00  0.00     0.202 C 
BRANCH  66  67
ATOM     67  C   UNL     1      -0.300  -1.987   1.060  1.00  0.00     0.261 C 
BRANCH  67  68
ATOM     68  O   UNL     1       0.853  -1.743   1.880  1.00  0.00    -0.459 OA
BRANCH  68  69
ATOM     69  C   UNL     1       0.871  -2.394   3.079  1.00  0.00     0.364 C 
ATOM     70  O   UNL     1      -0.024  -3.123   3.494  1.00  0.00    -0.245 OA
BRANCH  69  71
ATOM     71  C   UNL     1       2.179  -2.109   3.829  1.00  0.00     0.294 C 
ATOM     72  C   UNL     1       1.874  -1.733   5.272  1.00  0.00     0.090 C 
ATOM     73  N   UNL     1       3.008  -3.325   3.925  1.00  0.00    -0.334 N 
ATOM     74  C   UNL     1       2.906  -2.483   6.144  1.00  0.00     0.036 C 
ATOM     75  C   UNL     1       3.812  -3.193   5.134  1.00  0.00     0.268 C 
ATOM     76  H   UNL     1       3.614  -3.403   3.108  1.00  0.00     0.347 HD
ATOM     77  H   UNL     1       2.427  -4.163   3.963  1.00  0.00     0.347 HD
ATOM     78  C   UNL     1       2.172  -3.483   7.057  1.00  0.00     0.076 C 
ATOM     79  C   UNL     1       3.743  -1.536   7.023  1.00  0.00     0.076 C 
ATOM     80  C   UNL     1       1.383  -2.735   8.120  1.00  0.00     0.280 C 
ATOM     81  C   UNL     1       2.938  -0.876   8.137  1.00  0.00     0.280 C 
ATOM     82  N   UNL     1       2.237  -1.886   8.970  1.00  0.00    -0.215 N 
ATOM     83  H   UNL     1       1.553  -1.452   9.590  1.00  0.00     0.367 HD
BRANCH  82  84
ATOM     84  S   UNL     1       3.202  -2.560  10.185  1.00  0.00     0.371 S 
ATOM     85  O   UNL     1       4.128  -3.490   9.577  1.00  0.00    -0.157 OA
ATOM     86  O   UNL     1       3.678  -1.455  10.982  1.00  0.00    -0.157 OA
BRANCH  84  87
ATOM     87  N   UNL     1       2.121  -3.406  11.104  1.00  0.00    -0.151 NA
ATOM     88  C   UNL     1       1.106  -2.718  11.910  1.00  0.00     0.136 C 
ATOM     89  C   UNL     1       1.876  -4.849  10.945  1.00  0.00     0.136 C 
ATOM     90  C   UNL     1      -0.262  -2.963  11.282  1.00  0.00     0.177 C 
ATOM     91  C   UNL     1       0.424  -5.149  10.541  1.00  0.00     0.177 C 
ATOM     92  O   UNL     1      -0.562  -4.367  11.232  1.00  0.00    -0.379 OA
ENDBRANCH  84  87
ENDBRANCH  82  84
ENDBRANCH  69  71
ENDBRANCH  68  69
ENDBRANCH  67  68
ENDBRANCH  66  67
ENDBRANCH  65  66
ENDBRANCH  64  65
ENDBRANCH   1  64
TORSDOF 19
