REMARK SMILES O=C(OCCOCCOCCOC(=O)c1nnn(-c2cccc(Br)c2)c1[C@@H]1COc2ccccc2O1)c1ccc(-c2c3nc(c(-c4c(F)cccc4F)c4ccc([nH]4)c(-c4c(F)cccc4F)c4nc(c(-c5c(F)cccc5F)c5ccc2[nH]5)C=C4)C=C3)cc1
REMARK SMILES IDX 7 1 6 2 5 3 4 4 3 5 2 6 1 7 37 8 38 9 90 10 39 11 89 12
REMARK SMILES IDX 40 13 41 14 42 15 83 16 43 17 88 18 82 19 84 20 44 21 87 22
REMARK SMILES IDX 81 23 80 24 45 26 71 27 54 28 70 29 55 30 58 31 69 32 85 33
REMARK SMILES IDX 56 34 57 35 68 37 86 38 59 39 46 40 47 41 52 42 48 43 49 44
REMARK SMILES IDX 51 45 53 46 50 47 72 48 73 49 78 50 74 51 75 52 77 53 79 54
REMARK SMILES IDX 76 55 60 56 61 57 66 58 62 59 63 60 65 61 67 62 64 63 8 64
REMARK SMILES IDX 9 65 10 66 11 67 12 68 13 69 14 70 15 71 16 72 26 73 17 74
REMARK SMILES IDX 18 75 27 76 28 77 36 78 29 79 35 80 30 81 34 82 31 83 33 84
REMARK SMILES IDX 32 85 19 86 20 87 25 88 21 89 23 90 22 91 24 92
REMARK H PARENT 84 25 58 36
REMARK Flexibility Score: inf
ROOT
ATOM      1  C   UNL     1       3.178  -1.350   0.534  1.00  0.00     0.188 C 
ENDROOT
BRANCH   1   2
ATOM      2  O   UNL     1       4.225  -0.490   0.086  1.00  0.00    -0.376 OA
BRANCH   2   3
ATOM      3  C   UNL     1       4.794   0.475   0.949  1.00  0.00     0.202 C 
BRANCH   3   4
ATOM      4  C   UNL     1       4.301   1.883   0.622  1.00  0.00     0.261 C 
BRANCH   4   5
ATOM      5  O   UNL     1       2.877   2.004   0.760  1.00  0.00    -0.460 OA
BRANCH   5   6
ATOM      6  C   UNL     1       1.873   1.741  -0.103  1.00  0.00     0.338 C 
ATOM      7  O   UNL     1       0.721   1.901   0.305  1.00  0.00    -0.246 OA
BRANCH   6   8
ATOM      8  C   UNL     1       2.029   1.294  -1.522  1.00  0.00     0.060 A 
ATOM      9  C   UNL     1       3.225   1.124  -2.222  1.00  0.00     0.016 A 
ATOM     10  C   UNL     1       0.823   1.093  -2.224  1.00  0.00     0.016 A 
ATOM     11  C   UNL     1       3.226   0.973  -3.603  1.00  0.00     0.010 A 
ATOM     12  C   UNL     1       0.815   0.899  -3.598  1.00  0.00     0.010 A 
ATOM     13  C   UNL     1       2.019   0.946  -4.293  1.00  0.00    -0.014 A 
BRANCH  13  14
ATOM     14  C   UNL     1       2.066   1.054  -5.745  1.00  0.00     0.031 A 
ATOM     15  C   UNL     1       2.680  -0.068  -6.504  1.00  0.00     0.074 A 
ATOM     16  C   UNL     1       1.496   2.099  -6.376  1.00  0.00     0.049 A 
ATOM     17  N   UNL     1       3.621  -0.024  -7.395  1.00  0.00    -0.248 NA
ATOM     18  C   UNL     1       2.195  -1.425  -6.210  1.00  0.00     0.031 C 
ATOM     19  C   UNL     1       0.633   3.136  -5.798  1.00  0.00     0.029 A 
ATOM     20  N   UNL     1       1.474   2.385  -7.707  1.00  0.00    -0.354 N 
ATOM     21  C   UNL     1       3.732  -1.318  -7.899  1.00  0.00     0.074 A 
ATOM     22  C   UNL     1       2.896  -2.155  -7.076  1.00  0.00     0.031 C 
ATOM     23  C   UNL     1      -0.008   3.783  -6.793  1.00  0.00     0.029 A 
ATOM     24  C   UNL     1       0.497   3.299  -8.065  1.00  0.00     0.049 A 
ATOM     25  H   UNL     1       2.096   1.981  -8.355  1.00  0.00     0.167 HD
ATOM     26  C   UNL     1       4.364  -1.600  -9.070  1.00  0.00     0.037 A 
ATOM     27  C   UNL     1       0.070   3.580  -9.318  1.00  0.00     0.037 A 
ATOM     28  C   UNL     1       5.290  -0.577  -9.462  1.00  0.00     0.049 A 
ATOM     29  C   UNL     1       1.106   3.124 -10.272  1.00  0.00     0.074 A 
ATOM     30  C   UNL     1       6.424  -0.025  -8.898  1.00  0.00     0.029 A 
ATOM     31  N   UNL     1       4.954   0.262 -10.494  1.00  0.00    -0.354 N 
ATOM     32  N   UNL     1       2.274   3.684 -10.418  1.00  0.00    -0.248 NA
ATOM     33  C   UNL     1       0.989   1.779 -10.814  1.00  0.00     0.031 C 
ATOM     34  C   UNL     1       6.409   1.344  -9.293  1.00  0.00     0.029 A 
ATOM     35  C   UNL     1       5.276   1.531 -10.084  1.00  0.00     0.049 A 
ATOM     36  H   UNL     1       4.559   0.004 -11.358  1.00  0.00     0.167 HD
ATOM     37  C   UNL     1       3.140   2.635 -10.689  1.00  0.00     0.074 A 
ATOM     38  C   UNL     1       2.277   1.511 -11.035  1.00  0.00     0.031 C 
ATOM     39  C   UNL     1       4.459   2.693 -10.341  1.00  0.00     0.037 A 
BRANCH  26  40
ATOM     40  C   UNL     1       3.920  -2.694 -10.002  1.00  0.00     0.057 A 
ATOM     41  C   UNL     1       4.769  -3.148 -11.025  1.00  0.00     0.134 A 
ATOM     42  C   UNL     1       2.582  -3.128 -10.089  1.00  0.00     0.134 A 
ATOM     43  F   UNL     1       6.053  -2.764 -11.076  1.00  0.00    -0.206 F 
ATOM     44  C   UNL     1       4.310  -3.958 -12.072  1.00  0.00     0.040 A 
ATOM     45  C   UNL     1       2.124  -3.975 -11.101  1.00  0.00     0.040 A 
ATOM     46  F   UNL     1       1.637  -2.676  -9.252  1.00  0.00    -0.206 F 
ATOM     47  C   UNL     1       2.984  -4.376 -12.111  1.00  0.00     0.006 A 
ENDBRANCH  26  40
BRANCH  27  48
ATOM     48  C   UNL     1      -1.297   3.958  -9.733  1.00  0.00     0.057 A 
ATOM     49  C   UNL     1      -1.539   4.575 -10.965  1.00  0.00     0.134 A 
ATOM     50  C   UNL     1      -2.431   3.510  -9.030  1.00  0.00     0.134 A 
ATOM     51  F   UNL     1      -0.520   4.990 -11.731  1.00  0.00    -0.206 F 
ATOM     52  C   UNL     1      -2.836   4.734 -11.472  1.00  0.00     0.040 A 
ATOM     53  C   UNL     1      -3.730   3.675  -9.517  1.00  0.00     0.040 A 
ATOM     54  F   UNL     1      -2.313   2.821  -7.886  1.00  0.00    -0.206 F 
ATOM     55  C   UNL     1      -3.935   4.280 -10.749  1.00  0.00     0.006 A 
ENDBRANCH  27  48
BRANCH  39  56
ATOM     56  C   UNL     1       5.009   4.020  -9.897  1.00  0.00     0.057 A 
ATOM     57  C   UNL     1       4.577   4.688  -8.741  1.00  0.00     0.134 A 
ATOM     58  C   UNL     1       6.110   4.564 -10.567  1.00  0.00     0.134 A 
ATOM     59  F   UNL     1       3.605   4.182  -7.972  1.00  0.00    -0.206 F 
ATOM     60  C   UNL     1       5.178   5.872  -8.305  1.00  0.00     0.040 A 
ATOM     61  C   UNL     1       6.742   5.729 -10.122  1.00  0.00     0.040 A 
ATOM     62  F   UNL     1       6.624   3.943 -11.641  1.00  0.00    -0.206 F 
ATOM     63  C   UNL     1       6.268   6.394  -8.994  1.00  0.00     0.006 A 
ENDBRANCH  39  56
ENDBRANCH  13  14
ENDBRANCH   6   8
ENDBRANCH   5   6
ENDBRANCH   4   5
ENDBRANCH   3   4
ENDBRANCH   2   3
ENDBRANCH   1   2
BRANCH   1  64
ATOM     64  C   UNL     1       2.240  -1.004   1.711  1.00  0.00     0.188 C 
BRANCH  64  65
ATOM     65  O   UNL     1       2.816  -0.659   2.967  1.00  0.00    -0.376 OA
BRANCH  65  66
ATOM     66  C   UNL     1       3.688  -1.606   3.578  1.00  0.00     0.202 C 
BRANCH  66  67
ATOM     67  C   UNL     1       3.060  -2.972   3.814  1.00  0.00     0.261 C 
BRANCH  67  68
ATOM     68  O   UNL     1       3.068  -3.666   2.559  1.00  0.00    -0.458 OA
BRANCH  68  69
ATOM     69  C   UNL     1       2.211  -4.707   2.450  1.00  0.00     0.361 C 
ATOM     70  O   UNL     1       1.522  -5.148   3.357  1.00  0.00    -0.244 OA
BRANCH  69  71
ATOM     71  C   UNL     1       2.185  -5.236   1.104  1.00  0.00     0.198 A 
ATOM     72  N   UNL     1       1.200  -4.890   0.206  1.00  0.00    -0.122 NA
ATOM     73  C   UNL     1       3.071  -6.099   0.484  1.00  0.00     0.123 A 
ATOM     74  N   UNL     1       1.406  -5.565  -0.918  1.00  0.00    -0.061 NA
ATOM     75  N   UNL     1       2.396  -6.445  -0.672  1.00  0.00    -0.213 N 
BRANCH  73  76
ATOM     76  C   UNL     1       4.452  -6.605   0.755  1.00  0.00     0.262 C 
ATOM     77  C   UNL     1       4.823  -6.936   2.196  1.00  0.00     0.281 C 
ATOM     78  O   UNL     1       5.347  -5.697   0.108  1.00  0.00    -0.477 OA
ATOM     79  O   UNL     1       5.133  -5.805   3.005  1.00  0.00    -0.485 OA
ATOM     80  C   UNL     1       5.943  -4.800   0.944  1.00  0.00     0.162 A 
ATOM     81  C   UNL     1       5.873  -4.872   2.333  1.00  0.00     0.161 A 
ATOM     82  C   UNL     1       6.633  -3.752   0.334  1.00  0.00     0.050 A 
ATOM     83  C   UNL     1       6.511  -3.908   3.113  1.00  0.00     0.050 A 
ATOM     84  C   UNL     1       7.251  -2.774   1.113  1.00  0.00     0.004 A 
ATOM     85  C   UNL     1       7.200  -2.858   2.504  1.00  0.00     0.004 A 
ENDBRANCH  73  76
BRANCH  75  86
ATOM     86  C   UNL     1       2.509  -7.650  -1.393  1.00  0.00     0.068 A 
ATOM     87  C   UNL     1       2.565  -8.856  -0.674  1.00  0.00     0.028 A 
ATOM     88  C   UNL     1       2.613  -7.634  -2.783  1.00  0.00     0.044 A 
ATOM     89  C   UNL     1       2.789 -10.052  -1.345  1.00  0.00     0.003 A 
ATOM     90  C   UNL     1       2.873  -8.839  -3.437  1.00  0.00     0.020 A 
ATOM     91  C   UNL     1       2.967 -10.041  -2.727  1.00  0.00     0.016 A 
ATOM     92  Br  UNL     1       3.159  -8.847  -5.306  1.00  0.00    -0.051 Br
ENDBRANCH  75  86
ENDBRANCH  69  71
ENDBRANCH  68  69
ENDBRANCH  67  68
ENDBRANCH  66  67
ENDBRANCH  65  66
ENDBRANCH  64  65
ENDBRANCH   1  64
TORSDOF 19
