REMARK SMILES Cc1cc([N+](=O)[O-])ccc1-c1ccc(/C=C/C(=O)Nc2ccc(O)c(C(=O)OCCOCCOCCOC(=O)c3ccc(-c4c5nc(c(-c6c(F)cccc6F)c6ccc([nH]6)c(-c6c(F)cccc6F)c6nc(c(-c7c(F)cccc7F)c7ccc4[nH]7)C=C6)C=C5)cc3)c2)o1
REMARK SMILES IDX 31 1 30 2 29 3 28 4 26 5 27 6 25 7 20 8 21 9 94 10 22 11
REMARK SMILES IDX 23 12 19 13 17 14 18 15 16 17 15 18 14 19 11 20 12 21 95 22
REMARK SMILES IDX 13 23 10 24 1 25 2 26 3 27 4 28 9 29 8 30 5 31 6 32 7 33
REMARK SMILES IDX 24 34 32 36 33 37 34 38 35 39 36 40 37 41 38 42 39 43 40 44
REMARK SMILES IDX 41 45 93 46 42 47 92 48 43 49 44 50 45 51 86 52 46 53 91 54
REMARK SMILES IDX 85 55 87 56 47 57 90 58 84 59 83 60 48 62 74 63 57 64 73 65
REMARK SMILES IDX 58 66 61 67 72 68 88 69 59 70 60 71 71 73 89 74 62 75 49 76
REMARK SMILES IDX 50 77 55 78 51 79 52 80 54 81 56 82 53 83 75 84 76 85 81 86
REMARK SMILES IDX 77 87 78 88 80 89 82 90 79 91 63 92 64 93 69 94 65 95 66 96
REMARK SMILES IDX 68 97 70 98 67 99
REMARK H PARENT 19 16 24 35 87 61 61 72
REMARK Flexibility Score: inf
ROOT
ATOM      1  O   UNL     1       9.750   9.388  -2.181  1.00  0.00    -0.376 OA
ENDROOT
BRANCH   1   2
ATOM      2  C   UNL     1       9.036   9.318  -3.419  1.00  0.00     0.202 C 
BRANCH   2   3
ATOM      3  C   UNL     1       8.060   8.108  -3.528  1.00  0.00     0.261 C 
BRANCH   3   4
ATOM      4  O   UNL     1       6.681   8.437  -3.165  1.00  0.00    -0.460 OA
BRANCH   4   5
ATOM      5  C   UNL     1       5.771   7.443  -3.328  1.00  0.00     0.342 C 
ATOM      6  O   UNL     1       5.936   6.446  -4.019  1.00  0.00    -0.246 OA
BRANCH   5   7
ATOM      7  C   UNL     1       4.441   7.698  -2.695  1.00  0.00     0.103 A 
ATOM      8  C   UNL     1       3.040   7.842  -0.664  1.00  0.00     0.042 A 
ATOM      9  C   UNL     1       1.899   7.774  -1.452  1.00  0.00     0.030 A 
ATOM     10  C   UNL     1       4.287   7.808  -1.306  1.00  0.00     0.045 A 
ATOM     11  C   UNL     1       2.022   7.683  -2.845  1.00  0.00     0.049 A 
ATOM     12  C   UNL     1       3.280   7.629  -3.458  1.00  0.00     0.130 A 
BRANCH   8  13
ATOM     13  N   UNL     1       3.010   7.989   0.743  1.00  0.00    -0.322 N 
ATOM     14  C   UNL     1       2.141   7.464   1.675  1.00  0.00     0.248 C 
ATOM     15  O   UNL     1       2.135   7.837   2.843  1.00  0.00    -0.270 OA
ATOM     16  H   UNL     1       3.724   8.555   1.115  1.00  0.00     0.170 HD
BRANCH  14  17
ATOM     17  C   UNL     1       1.395   6.263   1.256  1.00  0.00     0.075 C 
ATOM     18  C   UNL     1       2.099   5.124   1.322  1.00  0.00     0.053 C 
BRANCH  18  19
ATOM     19  C   UNL     1       1.745   4.045   0.481  1.00  0.00     0.127 A 
ATOM     20  C   UNL     1       0.908   2.131  -0.227  1.00  0.00     0.135 A 
ATOM     21  C   UNL     1       1.609   2.649  -1.290  1.00  0.00     0.051 A 
ATOM     22  O   UNL     1       0.968   2.973   0.842  1.00  0.00    -0.457 OA
ATOM     23  C   UNL     1       2.152   3.865  -0.836  1.00  0.00     0.051 A 
BRANCH  20  24
ATOM     24  C   UNL     1       0.185   0.889  -0.039  1.00  0.00     0.021 A 
ATOM     25  C   UNL     1       2.364  -0.452   0.022  1.00  0.00     0.045 C 
ATOM     26  C   UNL     1       0.861  -0.348   0.039  1.00  0.00    -0.033 A 
ATOM     27  C   UNL     1       0.111  -1.536   0.084  1.00  0.00     0.089 A 
ATOM     28  C   UNL     1      -1.290  -1.487   0.084  1.00  0.00     0.269 A 
ATOM     29  C   UNL     1      -1.218   0.922  -0.010  1.00  0.00     0.019 A 
ATOM     30  C   UNL     1      -1.960  -0.260   0.050  1.00  0.00     0.086 A 
BRANCH  28  31
ATOM     31  N   UNL     1      -2.059  -2.737   0.102  1.00  0.00     0.062 N 
ATOM     32  O   UNL     1      -1.427  -3.803   0.119  1.00  0.00    -0.258 OA
ATOM     33  O   UNL     1      -3.296  -2.654   0.092  1.00  0.00    -0.258 OA
ENDBRANCH  28  31
ENDBRANCH  20  24
ENDBRANCH  18  19
ENDBRANCH  14  17
ENDBRANCH   8  13
BRANCH  12  34
ATOM     34  O   UNL     1       3.295   7.491  -4.817  1.00  0.00    -0.507 OA
ATOM     35  H   UNL     1       2.488   7.449  -5.292  1.00  0.00     0.293 HD
ENDBRANCH  12  34
ENDBRANCH   5   7
ENDBRANCH   4   5
ENDBRANCH   3   4
ENDBRANCH   2   3
ENDBRANCH   1   2
BRANCH   1  36
ATOM     36  C   UNL     1       9.757  10.566  -1.367  1.00  0.00     0.188 C 
BRANCH  36  37
ATOM     37  C   UNL     1       9.560  11.972  -1.955  1.00  0.00     0.188 C 
BRANCH  37  38
ATOM     38  O   UNL     1       8.272  12.087  -2.546  1.00  0.00    -0.376 OA
BRANCH  38  39
ATOM     39  C   UNL     1       7.881  13.394  -2.959  1.00  0.00     0.202 C 
BRANCH  39  40
ATOM     40  C   UNL     1       7.011  14.088  -1.897  1.00  0.00     0.261 C 
BRANCH  40  41
ATOM     41  O   UNL     1       5.911  13.222  -1.543  1.00  0.00    -0.460 OA
BRANCH  41  42
ATOM     42  C   UNL     1       5.728  13.013  -0.215  1.00  0.00     0.338 C 
ATOM     43  O   UNL     1       5.726  13.893   0.648  1.00  0.00    -0.246 OA
BRANCH  42  44
ATOM     44  C   UNL     1       5.782  11.556   0.094  1.00  0.00     0.060 A 
ATOM     45  C   UNL     1       5.702  11.057   1.406  1.00  0.00     0.016 A 
ATOM     46  C   UNL     1       6.205  10.700  -0.903  1.00  0.00     0.016 A 
ATOM     47  C   UNL     1       6.167   9.753   1.721  1.00  0.00     0.010 A 
ATOM     48  C   UNL     1       6.786   9.502  -0.539  1.00  0.00     0.010 A 
ATOM     49  C   UNL     1       6.794   8.987   0.746  1.00  0.00    -0.014 A 
BRANCH  49  50
ATOM     50  C   UNL     1       7.655   7.786   0.851  1.00  0.00     0.031 A 
ATOM     51  C   UNL     1       7.355   6.494   0.165  1.00  0.00     0.074 A 
ATOM     52  C   UNL     1       8.929   7.985   1.237  1.00  0.00     0.049 A 
ATOM     53  N   UNL     1       8.096   5.931  -0.741  1.00  0.00    -0.248 NA
ATOM     54  C   UNL     1       6.136   5.747   0.482  1.00  0.00     0.031 C 
ATOM     55  C   UNL     1      10.049   7.059   1.160  1.00  0.00     0.029 A 
ATOM     56  N   UNL     1       9.379   9.002   2.079  1.00  0.00    -0.354 N 
ATOM     57  C   UNL     1       7.519   4.721  -1.082  1.00  0.00     0.074 A 
ATOM     58  C   UNL     1       6.242   4.710  -0.355  1.00  0.00     0.031 C 
ATOM     59  C   UNL     1      10.856   7.307   2.204  1.00  0.00     0.029 A 
ATOM     60  C   UNL     1      10.221   8.342   3.007  1.00  0.00     0.049 A 
ATOM     61  H   UNL     1       9.160   9.960   2.038  1.00  0.00     0.167 HD
ATOM     62  C   UNL     1       8.251   3.568  -1.083  1.00  0.00     0.037 A 
ATOM     63  C   UNL     1       9.736   8.196   4.277  1.00  0.00     0.037 A 
ATOM     64  C   UNL     1       9.113   3.411   0.064  1.00  0.00     0.049 A 
ATOM     65  C   UNL     1       9.281   6.777   4.587  1.00  0.00     0.074 A 
ATOM     66  C   UNL     1      10.466   3.469   0.335  1.00  0.00     0.029 A 
ATOM     67  N   UNL     1       8.490   3.253   1.280  1.00  0.00    -0.354 N 
ATOM     68  N   UNL     1       9.497   5.747   3.811  1.00  0.00    -0.248 NA
ATOM     69  C   UNL     1       8.477   6.411   5.757  1.00  0.00     0.031 C 
ATOM     70  C   UNL     1      10.621   3.480   1.760  1.00  0.00     0.029 A 
ATOM     71  C   UNL     1       9.364   3.392   2.330  1.00  0.00     0.049 A 
ATOM     72  H   UNL     1       7.530   3.061   1.386  1.00  0.00     0.167 HD
ATOM     73  C   UNL     1       8.847   4.652   4.309  1.00  0.00     0.074 A 
ATOM     74  C   UNL     1       8.238   5.106   5.541  1.00  0.00     0.031 C 
ATOM     75  C   UNL     1       8.798   3.455   3.663  1.00  0.00     0.037 A 
BRANCH  62  76
ATOM     76  C   UNL     1       8.144   2.649  -2.265  1.00  0.00     0.057 A 
ATOM     77  C   UNL     1       9.030   1.575  -2.457  1.00  0.00     0.134 A 
ATOM     78  C   UNL     1       7.184   2.824  -3.282  1.00  0.00     0.134 A 
ATOM     79  F   UNL     1       9.969   1.276  -1.549  1.00  0.00    -0.206 F 
ATOM     80  C   UNL     1       8.990   0.762  -3.599  1.00  0.00     0.040 A 
ATOM     81  C   UNL     1       7.143   2.029  -4.434  1.00  0.00     0.040 A 
ATOM     82  F   UNL     1       6.230   3.761  -3.181  1.00  0.00    -0.206 F 
ATOM     83  C   UNL     1       8.054   0.996  -4.599  1.00  0.00     0.006 A 
ENDBRANCH  62  76
BRANCH  63  84
ATOM     84  C   UNL     1       9.127   9.481   4.749  1.00  0.00     0.057 A 
ATOM     85  C   UNL     1       9.930  10.643   4.669  1.00  0.00     0.134 A 
ATOM     86  C   UNL     1       7.755   9.687   4.896  1.00  0.00     0.134 A 
ATOM     87  F   UNL     1      11.261  10.533   4.525  1.00  0.00    -0.206 F 
ATOM     88  C   UNL     1       9.384  11.926   4.582  1.00  0.00     0.040 A 
ATOM     89  C   UNL     1       7.199  10.976   4.854  1.00  0.00     0.040 A 
ATOM     90  F   UNL     1       6.905   8.651   4.944  1.00  0.00    -0.206 F 
ATOM     91  C   UNL     1       8.008  12.092   4.646  1.00  0.00     0.006 A 
ENDBRANCH  63  84
BRANCH  75  92
ATOM     92  C   UNL     1       8.160   2.244   4.267  1.00  0.00     0.057 A 
ATOM     93  C   UNL     1       8.598   1.748   5.500  1.00  0.00     0.134 A 
ATOM     94  C   UNL     1       7.224   1.458   3.573  1.00  0.00     0.134 A 
ATOM     95  F   UNL     1       9.497   2.427   6.228  1.00  0.00    -0.206 F 
ATOM     96  C   UNL     1       8.144   0.528   6.009  1.00  0.00     0.040 A 
ATOM     97  C   UNL     1       6.788   0.221   4.053  1.00  0.00     0.040 A 
ATOM     98  F   UNL     1       6.695   1.871   2.409  1.00  0.00    -0.206 F 
ATOM     99  C   UNL     1       7.253  -0.249   5.275  1.00  0.00     0.006 A 
ENDBRANCH  75  92
ENDBRANCH  49  50
ENDBRANCH  42  44
ENDBRANCH  41  42
ENDBRANCH  40  41
ENDBRANCH  39  40
ENDBRANCH  38  39
ENDBRANCH  37  38
ENDBRANCH  36  37
ENDBRANCH   1  36
TORSDOF 23
