REMARK SMILES C[C@H]1c2ccccc2C(C)(C)C[C@H]2c3cccc(C(=O)OCCOCCOCCOC(=O)c4ccc(-c5c6nc(c(-c7c(F)cccc7F)c7ccc([nH]7)c(-c7c(F)cccc7F)c7nc(c(-c8c(F)cccc8F)c8ccc5[nH]8)C=C7)C=C6)cc4)c3C(=O)N12
REMARK SMILES IDX 25 1 24 2 23 3 22 4 21 5 19 6 20 7 18 8 90 9 13 10 88 11
REMARK SMILES IDX 14 12 87 13 89 14 15 15 16 16 17 17 2 18 1 19 3 20 4 21 8 22
REMARK SMILES IDX 5 23 7 24 6 25 9 26 10 27 11 28 12 30 26 32 27 33 28 34
REMARK SMILES IDX 29 35 30 36 31 37 32 38 33 39 34 40 86 41 35 42 85 43 36 44
REMARK SMILES IDX 37 45 38 46 79 47 39 48 84 49 78 50 80 51 40 52 83 53 77 54
REMARK SMILES IDX 76 55 41 57 67 58 50 59 66 60 51 61 54 62 65 63 81 64 52 65
REMARK SMILES IDX 53 66 64 68 82 69 55 70 42 71 43 72 48 73 44 74 45 75 47 76
REMARK SMILES IDX 49 77 46 78 68 79 69 80 74 81 70 82 71 83 73 84 75 85 72 86
REMARK SMILES IDX 56 87 57 88 62 89 58 90 59 91 61 92 63 93 60 94
REMARK H PARENT 80 56 54 67
REMARK Flexibility Score: 90.00
ROOT
ATOM      1  C   UNL     1       6.212   5.654   0.374  1.00  0.00     0.188 C 
ENDROOT
BRANCH   1   2
ATOM      2  O   UNL     1       7.068   4.807   1.096  1.00  0.00    -0.376 OA
BRANCH   2   3
ATOM      3  C   UNL     1       6.611   3.573   1.620  1.00  0.00     0.202 C 
BRANCH   3   4
ATOM      4  C   UNL     1       5.289   2.872   1.260  1.00  0.00     0.261 C 
BRANCH   4   5
ATOM      5  O   UNL     1       4.406   3.533   0.359  1.00  0.00    -0.460 OA
BRANCH   5   6
ATOM      6  C   UNL     1       3.356   4.169   0.922  1.00  0.00     0.339 C 
ATOM      7  O   UNL     1       3.151   4.384   2.103  1.00  0.00    -0.246 OA
BRANCH   6   8
ATOM      8  C   UNL     1       2.560   4.760  -0.153  1.00  0.00     0.073 A 
ATOM      9  N   UNL     1       0.498   2.314  -1.887  1.00  0.00    -0.325 N 
ATOM     10  C   UNL     1      -0.089   3.557  -2.366  1.00  0.00     0.118 C 
ATOM     11  C   UNL     1       1.515   2.534  -0.974  1.00  0.00     0.256 C 
ATOM     12  C   UNL     1       0.860   4.582  -1.841  1.00  0.00    -0.012 A 
ATOM     13  C   UNL     1       1.709   3.991  -0.908  1.00  0.00     0.059 A 
ATOM     14  O   UNL     1       2.185   1.710  -0.382  1.00  0.00    -0.269 OA
ATOM     15  C   UNL     1       0.934   5.934  -2.143  1.00  0.00     0.007 A 
ATOM     16  C   UNL     1       1.839   6.715  -1.427  1.00  0.00     0.001 A 
ATOM     17  C   UNL     1       2.614   6.143  -0.404  1.00  0.00     0.016 A 
BRANCH   9  18
ATOM     18  C   UNL     1       0.206   1.043  -2.555  1.00  0.00     0.113 C 
ATOM     19  C   UNL     1       0.183  -0.200  -1.656  1.00  0.00     0.036 C 
BRANCH  18  20
ATOM     20  C   UNL     1      -1.008   1.146  -3.495  1.00  0.00    -0.022 A 
ATOM     21  C   UNL     1      -0.810   0.643  -4.801  1.00  0.00     0.006 A 
ATOM     22  C   UNL     1      -2.203   1.870  -3.199  1.00  0.00    -0.037 A 
ATOM     23  C   UNL     1      -1.706   0.920  -5.829  1.00  0.00     0.000 A 
ATOM     24  C   UNL     1      -3.090   2.123  -4.269  1.00  0.00     0.004 A 
ATOM     25  C   UNL     1      -2.835   1.676  -5.566  1.00  0.00     0.000 A 
BRANCH  22  26
ATOM     26  C   UNL     1      -2.447   2.557  -1.837  1.00  0.00    -0.008 CG0
ATOM     27  C   UNL     1      -3.896   3.087  -1.643  1.00  0.00     0.016 C 
ATOM     28  C   UNL     1      -2.243   1.608  -0.627  1.00  0.00     0.016 C 
ATOM     29  G   UNL     1      -1.495   3.784  -1.769  1.00  0.00     0.000 G0
ENDBRANCH  22  26
ENDBRANCH  18  20
ENDBRANCH   9  18
BRANCH  10  30
ATOM     30  C   UNL     1      -1.495   3.784  -1.769  1.00  0.00     0.041 CG0
ATOM     31  G   UNL     1      -2.447   2.557  -1.837  1.00  0.00     0.000 G0
ENDBRANCH  10  30
ENDBRANCH   6   8
ENDBRANCH   5   6
ENDBRANCH   4   5
ENDBRANCH   3   4
ENDBRANCH   2   3
ENDBRANCH   1   2
BRANCH   1  32
ATOM     32  C   UNL     1       6.109   5.391  -1.145  1.00  0.00     0.188 C 
BRANCH  32  33
ATOM     33  O   UNL     1       6.907   4.395  -1.764  1.00  0.00    -0.376 OA
BRANCH  33  34
ATOM     34  C   UNL     1       8.287   4.299  -1.445  1.00  0.00     0.202 C 
BRANCH  34  35
ATOM     35  C   UNL     1       9.187   5.537  -1.575  1.00  0.00     0.261 C 
BRANCH  35  36
ATOM     36  O   UNL     1       8.724   6.704  -0.877  1.00  0.00    -0.460 OA
BRANCH  36  37
ATOM     37  C   UNL     1       8.328   7.744  -1.654  1.00  0.00     0.338 C 
ATOM     38  O   UNL     1       8.330   7.806  -2.870  1.00  0.00    -0.246 OA
BRANCH  37  39
ATOM     39  C   UNL     1       7.700   8.771  -0.797  1.00  0.00     0.060 A 
ATOM     40  C   UNL     1       8.412   9.368   0.244  1.00  0.00     0.016 A 
ATOM     41  C   UNL     1       6.371   9.141  -1.051  1.00  0.00     0.016 A 
ATOM     42  C   UNL     1       7.797  10.357   1.016  1.00  0.00     0.010 A 
ATOM     43  C   UNL     1       5.753  10.119  -0.267  1.00  0.00     0.010 A 
ATOM     44  C   UNL     1       6.470  10.750   0.759  1.00  0.00    -0.014 A 
BRANCH  44  45
ATOM     45  C   UNL     1       5.904  11.930   1.459  1.00  0.00     0.031 A 
ATOM     46  C   UNL     1       4.945  11.798   2.603  1.00  0.00     0.074 A 
ATOM     47  C   UNL     1       6.281  13.153   1.039  1.00  0.00     0.049 A 
ATOM     48  N   UNL     1       4.460  12.734   3.381  1.00  0.00    -0.248 NA
ATOM     49  C   UNL     1       4.458  10.446   2.908  1.00  0.00     0.031 C 
ATOM     50  C   UNL     1       7.175  13.412  -0.091  1.00  0.00     0.029 A 
ATOM     51  N   UNL     1       5.972  14.400   1.516  1.00  0.00    -0.354 N 
ATOM     52  C   UNL     1       3.635  12.086   4.290  1.00  0.00     0.074 A 
ATOM     53  C   UNL     1       3.640  10.682   3.927  1.00  0.00     0.031 C 
ATOM     54  C   UNL     1       7.367  14.735  -0.201  1.00  0.00     0.029 A 
ATOM     55  C   UNL     1       6.596  15.416   0.834  1.00  0.00     0.049 A 
ATOM     56  H   UNL     1       5.362  14.554   2.273  1.00  0.00     0.167 HD
ATOM     57  C   UNL     1       2.955  12.612   5.340  1.00  0.00     0.037 A 
ATOM     58  C   UNL     1       6.559  16.747   1.026  1.00  0.00     0.037 A 
ATOM     59  C   UNL     1       2.928  14.016   5.677  1.00  0.00     0.049 A 
ATOM     60  C   UNL     1       5.753  17.306   2.164  1.00  0.00     0.074 A 
ATOM     61  C   UNL     1       2.299  14.636   6.744  1.00  0.00     0.029 A 
ATOM     62  N   UNL     1       3.537  15.022   4.940  1.00  0.00    -0.354 N 
ATOM     63  N   UNL     1       5.057  16.674   3.077  1.00  0.00    -0.248 NA
ATOM     64  C   UNL     1       5.737  18.769   2.302  1.00  0.00     0.031 C 
ATOM     65  C   UNL     1       2.478  16.019   6.620  1.00  0.00     0.029 A 
ATOM     66  C   UNL     1       3.269  16.259   5.509  1.00  0.00     0.049 A 
ATOM     67  H   UNL     1       4.080  14.879   4.131  1.00  0.00     0.167 HD
ATOM     68  C   UNL     1       4.545  17.657   3.913  1.00  0.00     0.074 A 
ATOM     69  C   UNL     1       5.029  18.927   3.411  1.00  0.00     0.031 C 
ATOM     70  C   UNL     1       3.745  17.521   5.000  1.00  0.00     0.037 A 
BRANCH  57  71
ATOM     71  C   UNL     1       2.179  11.661   6.208  1.00  0.00     0.057 A 
ATOM     72  C   UNL     1       0.779  11.698   6.246  1.00  0.00     0.134 A 
ATOM     73  C   UNL     1       2.821  10.740   7.046  1.00  0.00     0.134 A 
ATOM     74  F   UNL     1       0.098  12.566   5.482  1.00  0.00    -0.206 F 
ATOM     75  C   UNL     1       0.048  10.853   7.083  1.00  0.00     0.040 A 
ATOM     76  C   UNL     1       2.100   9.870   7.867  1.00  0.00     0.040 A 
ATOM     77  F   UNL     1       4.160  10.652   7.060  1.00  0.00    -0.206 F 
ATOM     78  C   UNL     1       0.709   9.929   7.891  1.00  0.00     0.006 A 
ENDBRANCH  57  71
BRANCH  58  79
ATOM     79  C   UNL     1       7.330  17.649   0.135  1.00  0.00     0.057 A 
ATOM     80  C   UNL     1       6.968  17.832  -1.205  1.00  0.00     0.134 A 
ATOM     81  C   UNL     1       8.430  18.372   0.612  1.00  0.00     0.134 A 
ATOM     82  F   UNL     1       5.930  17.162  -1.724  1.00  0.00    -0.206 F 
ATOM     83  C   UNL     1       7.671  18.703  -2.038  1.00  0.00     0.040 A 
ATOM     84  C   UNL     1       9.123  19.268  -0.201  1.00  0.00     0.040 A 
ATOM     85  F   UNL     1       8.813  18.250   1.892  1.00  0.00    -0.206 F 
ATOM     86  C   UNL     1       8.745  19.433  -1.533  1.00  0.00     0.006 A 
ENDBRANCH  58  79
BRANCH  70  87
ATOM     87  C   UNL     1       3.368  18.780   5.730  1.00  0.00     0.057 A 
ATOM     88  C   UNL     1       3.880  19.046   7.007  1.00  0.00     0.134 A 
ATOM     89  C   UNL     1       2.502  19.731   5.174  1.00  0.00     0.134 A 
ATOM     90  F   UNL     1       4.710  18.177   7.604  1.00  0.00    -0.206 F 
ATOM     91  C   UNL     1       3.548  20.212   7.700  1.00  0.00     0.040 A 
ATOM     92  C   UNL     1       2.188  20.915   5.844  1.00  0.00     0.040 A 
ATOM     93  F   UNL     1       1.989  19.548   3.947  1.00  0.00    -0.206 F 
ATOM     94  C   UNL     1       2.708  21.155   7.114  1.00  0.00     0.006 A 
ENDBRANCH  70  87
ENDBRANCH  44  45
ENDBRANCH  37  39
ENDBRANCH  36  37
ENDBRANCH  35  36
ENDBRANCH  34  35
ENDBRANCH  33  34
ENDBRANCH  32  33
ENDBRANCH   1  32
TORSDOF 17
