REMARK SMILES CCc1cc(N2CCC[C@H](C(=O)OCCOCCOCCOC(=O)c3ccc(-c4c5nc(c(-c6c(F)cccc6F)c6ccc([nH]6)c(-c6c(F)cccc6F)c6nc(c(-c7c(F)cccc7F)c7ccc4[nH]7)C=C6)C=C5)cc3)C2)nc(-c2ccc(Cl)cc2)n1
REMARK SMILES IDX 17 1 16 2 15 3 14 4 13 5 11 6 12 7 10 8 6 9 7 10 79 11 8 12
REMARK SMILES IDX 9 13 5 14 3 15 4 16 89 17 81 18 80 19 2 20 1 21 82 22 83 23
REMARK SMILES IDX 88 24 84 25 87 26 85 27 86 28 18 29 19 30 20 31 21 32 22 33
REMARK SMILES IDX 23 34 24 35 25 36 26 37 78 38 27 39 77 40 28 41 29 42 30 43
REMARK SMILES IDX 71 44 31 45 76 46 70 47 72 48 32 49 75 50 69 51 68 52 33 54
REMARK SMILES IDX 59 55 42 56 58 57 43 58 46 59 57 60 73 61 44 62 45 63 56 65
REMARK SMILES IDX 74 66 47 67 34 68 35 69 40 70 36 71 37 72 39 73 41 74 38 75
REMARK SMILES IDX 60 76 61 77 66 78 62 79 63 80 65 81 67 82 64 83 48 84 49 85
REMARK SMILES IDX 54 86 50 87 51 88 53 89 55 90 52 91
REMARK H PARENT 72 53 46 64
REMARK Flexibility Score: inf
ROOT
ATOM      1  C   UNL     1      -1.792   3.149   8.688  1.00  0.00     0.188 C 
ENDROOT
BRANCH   1   2
ATOM      2  O   UNL     1      -2.069   1.806   9.059  1.00  0.00    -0.376 OA
BRANCH   2   3
ATOM      3  C   UNL     1      -1.045   0.854   8.789  1.00  0.00     0.202 C 
BRANCH   3   4
ATOM      4  C   UNL     1      -0.449   0.821   7.372  1.00  0.00     0.261 C 
BRANCH   4   5
ATOM      5  O   UNL     1       0.006   2.074   6.825  1.00  0.00    -0.463 OA
BRANCH   5   6
ATOM      6  C   UNL     1      -0.639   2.529   5.724  1.00  0.00     0.310 C 
ATOM      7  O   UNL     1      -1.657   2.025   5.257  1.00  0.00    -0.252 OA
BRANCH   6   8
ATOM      8  C   UNL     1      -0.011   3.767   5.102  1.00  0.00     0.118 C 
ATOM      9  N   UNL     1       1.658   2.538   3.824  1.00  0.00    -0.356 N 
ATOM     10  C   UNL     1       2.812   3.108   4.503  1.00  0.00     0.118 C 
ATOM     11  C   UNL     1       0.455   3.364   3.708  1.00  0.00     0.133 C 
ATOM     12  C   UNL     1       2.434   3.671   5.869  1.00  0.00     0.022 C 
ATOM     13  C   UNL     1       1.138   4.482   5.824  1.00  0.00     0.019 C 
BRANCH   9  14
ATOM     14  C   UNL     1       1.544   1.164   3.662  1.00  0.00     0.132 A 
ATOM     15  C   UNL     1       0.963  -0.648   2.250  1.00  0.00     0.046 A 
ATOM     16  C   UNL     1       0.972   0.706   2.490  1.00  0.00     0.070 A 
ATOM     17  N   UNL     1       1.406  -1.526   3.161  1.00  0.00    -0.233 NA
ATOM     18  C   UNL     1       1.886  -1.012   4.309  1.00  0.00     0.161 A 
ATOM     19  N   UNL     1       2.005   0.305   4.592  1.00  0.00    -0.211 NA
BRANCH  15  20
ATOM     20  C   UNL     1       0.463  -1.194   0.939  1.00  0.00     0.053 C 
ATOM     21  C   UNL     1       1.007  -0.434  -0.267  1.00  0.00     0.011 C 
ENDBRANCH  15  20
BRANCH  18  22
ATOM     22  C   UNL     1       2.264  -2.002   5.325  1.00  0.00     0.019 A 
ATOM     23  C   UNL     1       3.370  -2.847   5.137  1.00  0.00     0.013 A 
ATOM     24  C   UNL     1       1.468  -2.219   6.462  1.00  0.00     0.013 A 
ATOM     25  C   UNL     1       3.678  -3.854   6.061  1.00  0.00     0.021 A 
ATOM     26  C   UNL     1       1.783  -3.205   7.404  1.00  0.00     0.021 A 
ATOM     27  C   UNL     1       2.887  -4.023   7.194  1.00  0.00     0.041 A 
ATOM     28  Cl  UNL     1       3.251  -5.271   8.321  1.00  0.00    -0.084 Cl
ENDBRANCH  18  22
ENDBRANCH   9  14
ENDBRANCH   6   8
ENDBRANCH   5   6
ENDBRANCH   4   5
ENDBRANCH   3   4
ENDBRANCH   2   3
ENDBRANCH   1   2
BRANCH   1  29
ATOM     29  C   UNL     1      -0.500   3.763   9.241  1.00  0.00     0.188 C 
BRANCH  29  30
ATOM     30  O   UNL     1       0.581   2.871   9.434  1.00  0.00    -0.376 OA
BRANCH  30  31
ATOM     31  C   UNL     1       1.581   3.207  10.392  1.00  0.00     0.202 C 
BRANCH  31  32
ATOM     32  C   UNL     1       1.129   3.515  11.840  1.00  0.00     0.261 C 
BRANCH  32  33
ATOM     33  O   UNL     1       0.143   4.554  12.021  1.00  0.00    -0.460 OA
BRANCH  33  34
ATOM     34  C   UNL     1       0.396   5.769  11.479  1.00  0.00     0.338 C 
ATOM     35  O   UNL     1       1.476   6.166  11.072  1.00  0.00    -0.246 OA
BRANCH  34  36
ATOM     36  C   UNL     1      -0.909   6.432  11.171  1.00  0.00     0.060 A 
ATOM     37  C   UNL     1      -1.052   7.053   9.919  1.00  0.00     0.016 A 
ATOM     38  C   UNL     1      -2.013   6.352  12.027  1.00  0.00     0.016 A 
ATOM     39  C   UNL     1      -2.269   7.634   9.544  1.00  0.00     0.010 A 
ATOM     40  C   UNL     1      -3.226   6.953  11.659  1.00  0.00     0.010 A 
ATOM     41  C   UNL     1      -3.351   7.631  10.432  1.00  0.00    -0.014 A 
BRANCH  41  42
ATOM     42  C   UNL     1      -4.513   8.531  10.194  1.00  0.00     0.031 A 
ATOM     43  C   UNL     1      -4.528   9.861  10.901  1.00  0.00     0.074 A 
ATOM     44  C   UNL     1      -5.534   8.206   9.380  1.00  0.00     0.049 A 
ATOM     45  N   UNL     1      -5.450  10.790  10.921  1.00  0.00    -0.248 NA
ATOM     46  C   UNL     1      -3.336  10.178  11.704  1.00  0.00     0.031 C 
ATOM     47  C   UNL     1      -5.642   6.975   8.604  1.00  0.00     0.029 A 
ATOM     48  N   UNL     1      -6.691   8.891   9.092  1.00  0.00    -0.354 N 
ATOM     49  C   UNL     1      -4.959  11.788  11.754  1.00  0.00     0.074 A 
ATOM     50  C   UNL     1      -3.672  11.339  12.239  1.00  0.00     0.031 C 
ATOM     51  C   UNL     1      -6.816   6.978   7.946  1.00  0.00     0.029 A 
ATOM     52  C   UNL     1      -7.556   8.196   8.281  1.00  0.00     0.049 A 
ATOM     53  H   UNL     1      -6.883   9.794   9.434  1.00  0.00     0.167 HD
ATOM     54  C   UNL     1      -5.523  12.973  12.087  1.00  0.00     0.037 A 
ATOM     55  C   UNL     1      -8.810   8.492   7.881  1.00  0.00     0.037 A 
ATOM     56  C   UNL     1      -6.804  13.424  11.611  1.00  0.00     0.049 A 
ATOM     57  C   UNL     1      -9.451   9.788   8.309  1.00  0.00     0.074 A 
ATOM     58  C   UNL     1      -7.439  14.628  11.860  1.00  0.00     0.029 A 
ATOM     59  N   UNL     1      -7.654  12.682  10.804  1.00  0.00    -0.354 N 
ATOM     60  N   UNL     1      -8.964  10.745   9.062  1.00  0.00    -0.248 NA
ATOM     61  C   UNL     1     -10.817  10.048   7.826  1.00  0.00     0.031 C 
ATOM     62  C   UNL     1      -8.703  14.587  11.261  1.00  0.00     0.029 A 
ATOM     63  C   UNL     1      -8.825  13.387  10.579  1.00  0.00     0.049 A 
ATOM     64  H   UNL     1      -7.454  11.788  10.445  1.00  0.00     0.167 HD
ATOM     65  C   UNL     1      -9.948  11.726   9.124  1.00  0.00     0.074 A 
ATOM     66  C   UNL     1     -11.057  11.255   8.321  1.00  0.00     0.031 C 
ATOM     67  C   UNL     1      -9.930  12.913   9.782  1.00  0.00     0.037 A 
BRANCH  54  68
ATOM     68  C   UNL     1      -4.772  13.840  13.058  1.00  0.00     0.057 A 
ATOM     69  C   UNL     1      -3.565  14.468  12.724  1.00  0.00     0.134 A 
ATOM     70  C   UNL     1      -5.267  14.042  14.353  1.00  0.00     0.134 A 
ATOM     71  F   UNL     1      -3.026  14.302  11.506  1.00  0.00    -0.206 F 
ATOM     72  C   UNL     1      -2.857  15.231  13.654  1.00  0.00     0.040 A 
ATOM     73  C   UNL     1      -4.586  14.831  15.281  1.00  0.00     0.040 A 
ATOM     74  F   UNL     1      -6.420  13.475  14.739  1.00  0.00    -0.206 F 
ATOM     75  C   UNL     1      -3.371  15.418  14.936  1.00  0.00     0.006 A 
ENDBRANCH  54  68
BRANCH  55  76
ATOM     76  C   UNL     1      -9.562   7.521   7.043  1.00  0.00     0.057 A 
ATOM     77  C   UNL     1      -9.859   7.787   5.701  1.00  0.00     0.134 A 
ATOM     78  C   UNL     1     -10.002   6.299   7.568  1.00  0.00     0.134 A 
ATOM     79  F   UNL     1      -9.494   8.953   5.148  1.00  0.00    -0.206 F 
ATOM     80  C   UNL     1     -10.567   6.877   4.913  1.00  0.00     0.040 A 
ATOM     81  C   UNL     1     -10.687   5.369   6.785  1.00  0.00     0.040 A 
ATOM     82  F   UNL     1      -9.757   5.986   8.849  1.00  0.00    -0.206 F 
ATOM     83  C   UNL     1     -10.975   5.659   5.454  1.00  0.00     0.006 A 
ENDBRANCH  55  76
BRANCH  67  84
ATOM     84  C   UNL     1     -11.129  13.810   9.641  1.00  0.00     0.057 A 
ATOM     85  C   UNL     1     -12.360  13.510  10.237  1.00  0.00     0.134 A 
ATOM     86  C   UNL     1     -11.032  15.021   8.941  1.00  0.00     0.134 A 
ATOM     87  F   UNL     1     -12.526  12.364  10.915  1.00  0.00    -0.206 F 
ATOM     88  C   UNL     1     -13.456  14.369  10.124  1.00  0.00     0.040 A 
ATOM     89  C   UNL     1     -12.111  15.902   8.847  1.00  0.00     0.040 A 
ATOM     90  F   UNL     1      -9.880  15.380   8.355  1.00  0.00    -0.206 F 
ATOM     91  C   UNL     1     -13.330  15.574   9.434  1.00  0.00     0.006 A 
ENDBRANCH  67  84
ENDBRANCH  41  42
ENDBRANCH  34  36
ENDBRANCH  33  34
ENDBRANCH  32  33
ENDBRANCH  31  32
ENDBRANCH  30  31
ENDBRANCH  29  30
ENDBRANCH   1  29
TORSDOF 20
