REMARK SMILES C[C@@H](c1ccccn1)S(=O)(=O)N1CC[NH2+]C[C@@H]1C(=O)OCCOCCOCCOC(=O)c1ccc(-c2c3nc(c(-c4c(F)cccc4F)c4ccc([nH]4)c(-c4c(F)cccc4F)c4nc(c(-c5c(F)cccc5F)c5ccc2[nH]5)C=C4)C=C3)cc1
REMARK SMILES IDX 24 1 23 2 22 3 21 4 20 5 18 6 19 7 17 8 12 9 13 10 14 11
REMARK SMILES IDX 16 12 15 13 9 16 10 17 11 18 2 19 1 20 3 21 4 22 8 23 5 24
REMARK SMILES IDX 7 25 6 26 25 27 26 28 27 29 28 30 29 31 30 32 31 33 32 34
REMARK SMILES IDX 33 35 85 36 34 37 84 38 35 39 36 40 37 41 78 42 38 43 83 44
REMARK SMILES IDX 77 45 79 46 39 47 82 48 76 49 75 50 40 52 66 53 49 54 65 55
REMARK SMILES IDX 50 56 53 57 64 58 80 59 51 60 52 61 63 63 81 64 54 65 41 66
REMARK SMILES IDX 42 67 47 68 43 69 44 70 46 71 48 72 45 73 67 74 68 75 73 76
REMARK SMILES IDX 69 77 70 78 72 79 74 80 71 81 55 82 56 83 61 84 57 85 58 86
REMARK SMILES IDX 60 87 62 88 59 89
REMARK H PARENT 15 14 15 15 79 51 53 62
REMARK Flexibility Score: inf
ROOT
ATOM      1  C   UNL     1      -1.141   4.574  -2.296  1.00  0.00     0.188 C 
ENDROOT
BRANCH   1   2
ATOM      2  O   UNL     1      -2.227   5.247  -2.921  1.00  0.00    -0.376 OA
BRANCH   2   3
ATOM      3  C   UNL     1      -2.974   6.215  -2.205  1.00  0.00     0.202 C 
BRANCH   3   4
ATOM      4  C   UNL     1      -3.755   5.746  -0.970  1.00  0.00     0.261 C 
BRANCH   4   5
ATOM      5  O   UNL     1      -3.022   4.952  -0.013  1.00  0.00    -0.462 OA
BRANCH   5   6
ATOM      6  C   UNL     1      -3.221   3.596  -0.060  1.00  0.00     0.330 C 
ATOM      7  O   UNL     1      -3.929   3.059  -0.902  1.00  0.00    -0.250 OA
BRANCH   6   8
ATOM      8  C   UNL     1      -2.419   2.861   1.054  1.00  0.00     0.237 C 
ATOM      9  N   UNL     1      -2.450   1.339   0.942  1.00  0.00    -0.176 NA
ATOM     10  C   UNL     1      -3.912   0.920   1.131  1.00  0.00     0.164 C 
ATOM     11  C   UNL     1      -4.524   1.496   2.435  1.00  0.00     0.277 C 
ATOM     12  C   UNL     1      -2.945   3.343   2.418  1.00  0.00     0.293 C 
ATOM     13  N   UNL     1      -4.337   2.942   2.677  1.00  0.00    -0.343 N 
ATOM     14  H   UNL     1      -4.569   3.151   3.648  1.00  0.00     0.346 HD
ATOM     15  H   UNL     1      -4.948   3.460   2.045  1.00  0.00     0.346 HD
BRANCH   9  16
ATOM     16  S   UNL     1      -1.439   0.343   1.918  1.00  0.00     0.223 S 
ATOM     17  O   UNL     1      -1.824  -1.014   1.557  1.00  0.00    -0.211 OA
ATOM     18  O   UNL     1      -1.614   0.757   3.292  1.00  0.00    -0.211 OA
BRANCH  16  19
ATOM     19  C   UNL     1       0.320   0.440   1.485  1.00  0.00     0.170 C 
ATOM     20  C   UNL     1       0.629   0.109   0.037  1.00  0.00     0.033 C 
BRANCH  19  21
ATOM     21  C   UNL     1       0.971   1.684   2.027  1.00  0.00     0.060 A 
ATOM     22  C   UNL     1       0.975   2.883   1.329  1.00  0.00     0.025 A 
ATOM     23  N   UNL     1       1.654   1.562   3.192  1.00  0.00    -0.260 NA
ATOM     24  C   UNL     1       1.538   4.020   1.903  1.00  0.00     0.004 A 
ATOM     25  C   UNL     1       2.251   2.662   3.707  1.00  0.00     0.111 A 
ATOM     26  C   UNL     1       2.187   3.911   3.122  1.00  0.00     0.020 A 
ENDBRANCH  19  21
ENDBRANCH  16  19
ENDBRANCH   9  16
ENDBRANCH   6   8
ENDBRANCH   5   6
ENDBRANCH   4   5
ENDBRANCH   3   4
ENDBRANCH   2   3
ENDBRANCH   1   2
BRANCH   1  27
ATOM     27  C   UNL     1      -0.361   5.240  -1.146  1.00  0.00     0.188 C 
BRANCH  27  28
ATOM     28  O   UNL     1      -0.498   6.642  -1.098  1.00  0.00    -0.376 OA
BRANCH  28  29
ATOM     29  C   UNL     1       0.681   7.404  -1.266  1.00  0.00     0.202 C 
BRANCH  29  30
ATOM     30  C   UNL     1       1.345   7.325  -2.649  1.00  0.00     0.261 C 
BRANCH  30  31
ATOM     31  O   UNL     1       1.498   6.010  -3.220  1.00  0.00    -0.460 OA
BRANCH  31  32
ATOM     32  C   UNL     1       2.510   5.234  -2.760  1.00  0.00     0.338 C 
ATOM     33  O   UNL     1       3.281   5.504  -1.864  1.00  0.00    -0.246 OA
BRANCH  32  34
ATOM     34  C   UNL     1       2.380   3.895  -3.391  1.00  0.00     0.060 A 
ATOM     35  C   UNL     1       2.082   2.790  -2.584  1.00  0.00     0.016 A 
ATOM     36  C   UNL     1       2.527   3.727  -4.769  1.00  0.00     0.016 A 
ATOM     37  C   UNL     1       1.904   1.525  -3.155  1.00  0.00     0.010 A 
ATOM     38  C   UNL     1       2.377   2.451  -5.334  1.00  0.00     0.010 A 
ATOM     39  C   UNL     1       2.061   1.340  -4.532  1.00  0.00    -0.014 A 
BRANCH  39  40
ATOM     40  C   UNL     1       1.984  -0.023  -5.125  1.00  0.00     0.031 A 
ATOM     41  C   UNL     1       3.257  -0.756  -5.447  1.00  0.00     0.074 A 
ATOM     42  C   UNL     1       0.798  -0.606  -5.386  1.00  0.00     0.049 A 
ATOM     43  N   UNL     1       3.429  -1.869  -6.113  1.00  0.00    -0.248 NA
ATOM     44  C   UNL     1       4.502  -0.155  -4.945  1.00  0.00     0.031 C 
ATOM     45  C   UNL     1      -0.512  -0.048  -5.055  1.00  0.00     0.029 A 
ATOM     46  N   UNL     1       0.506  -1.792  -6.019  1.00  0.00    -0.354 N 
ATOM     47  C   UNL     1       4.800  -2.086  -6.138  1.00  0.00     0.074 A 
ATOM     48  C   UNL     1       5.415  -0.993  -5.415  1.00  0.00     0.031 C 
ATOM     49  C   UNL     1      -1.468  -0.871  -5.522  1.00  0.00     0.029 A 
ATOM     50  C   UNL     1      -0.840  -1.984  -6.232  1.00  0.00     0.049 A 
ATOM     51  H   UNL     1       1.194  -2.442  -6.293  1.00  0.00     0.167 HD
ATOM     52  C   UNL     1       5.482  -3.100  -6.721  1.00  0.00     0.037 A 
ATOM     53  C   UNL     1      -1.487  -2.915  -6.964  1.00  0.00     0.037 A 
ATOM     54  C   UNL     1       4.869  -4.197  -7.424  1.00  0.00     0.049 A 
ATOM     55  C   UNL     1      -0.695  -3.977  -7.688  1.00  0.00     0.074 A 
ATOM     56  C   UNL     1       5.483  -5.292  -8.009  1.00  0.00     0.029 A 
ATOM     57  N   UNL     1       3.510  -4.333  -7.649  1.00  0.00    -0.354 N 
ATOM     58  N   UNL     1       0.600  -4.187  -7.691  1.00  0.00    -0.248 NA
ATOM     59  C   UNL     1      -1.452  -4.923  -8.524  1.00  0.00     0.031 C 
ATOM     60  C   UNL     1       4.502  -6.053  -8.649  1.00  0.00     0.029 A 
ATOM     61  C   UNL     1       3.271  -5.466  -8.409  1.00  0.00     0.049 A 
ATOM     62  H   UNL     1       2.817  -3.717  -7.318  1.00  0.00     0.167 HD
ATOM     63  C   UNL     1       0.805  -5.295  -8.506  1.00  0.00     0.074 A 
ATOM     64  C   UNL     1      -0.496  -5.730  -8.962  1.00  0.00     0.031 C 
ATOM     65  C   UNL     1       1.970  -5.895  -8.854  1.00  0.00     0.037 A 
BRANCH  52  66
ATOM     66  C   UNL     1       6.981  -3.063  -6.672  1.00  0.00     0.057 A 
ATOM     67  C   UNL     1       7.698  -3.354  -5.506  1.00  0.00     0.134 A 
ATOM     68  C   UNL     1       7.715  -2.820  -7.841  1.00  0.00     0.134 A 
ATOM     69  F   UNL     1       7.055  -3.584  -4.351  1.00  0.00    -0.206 F 
ATOM     70  C   UNL     1       9.094  -3.401  -5.504  1.00  0.00     0.040 A 
ATOM     71  C   UNL     1       9.108  -2.889  -7.857  1.00  0.00     0.040 A 
ATOM     72  F   UNL     1       7.087  -2.540  -8.993  1.00  0.00    -0.206 F 
ATOM     73  C   UNL     1       9.801  -3.180  -6.685  1.00  0.00     0.006 A 
ENDBRANCH  52  66
BRANCH  53  74
ATOM     74  C   UNL     1      -2.965  -2.851  -7.133  1.00  0.00     0.057 A 
ATOM     75  C   UNL     1      -3.801  -3.872  -6.665  1.00  0.00     0.134 A 
ATOM     76  C   UNL     1      -3.570  -1.802  -7.839  1.00  0.00     0.134 A 
ATOM     77  F   UNL     1      -3.283  -4.924  -6.014  1.00  0.00    -0.206 F 
ATOM     78  C   UNL     1      -5.175  -3.869  -6.918  1.00  0.00     0.040 A 
ATOM     79  C   UNL     1      -4.946  -1.768  -8.069  1.00  0.00     0.040 A 
ATOM     80  F   UNL     1      -2.828  -0.796  -8.325  1.00  0.00    -0.206 F 
ATOM     81  C   UNL     1      -5.752  -2.811  -7.619  1.00  0.00     0.006 A 
ENDBRANCH  53  74
BRANCH  65  82
ATOM     82  C   UNL     1       1.897  -7.096  -9.753  1.00  0.00     0.057 A 
ATOM     83  C   UNL     1       1.573  -6.982 -11.111  1.00  0.00     0.134 A 
ATOM     84  C   UNL     1       2.214  -8.373  -9.270  1.00  0.00     0.134 A 
ATOM     85  F   UNL     1       1.248  -5.791 -11.634  1.00  0.00    -0.206 F 
ATOM     86  C   UNL     1       1.550  -8.097 -11.952  1.00  0.00     0.040 A 
ATOM     87  C   UNL     1       2.222  -9.490 -10.107  1.00  0.00     0.040 A 
ATOM     88  F   UNL     1       2.544  -8.553  -7.982  1.00  0.00    -0.206 F 
ATOM     89  C   UNL     1       1.885  -9.354 -11.452  1.00  0.00     0.006 A 
ENDBRANCH  65  82
ENDBRANCH  39  40
ENDBRANCH  32  34
ENDBRANCH  31  32
ENDBRANCH  30  31
ENDBRANCH  29  30
ENDBRANCH  28  29
ENDBRANCH  27  28
ENDBRANCH   1  27
TORSDOF 20
