REMARK SMILES Cc1ccc(S(=O)(=O)N2c3ccc(C(=O)OCCOCCOCCOC(=O)c4ccc(-c5c6nc(c(-c7c(F)cccc7F)c7ccc([nH]7)c(-c7c(F)cccc7F)c7nc(c(-c8c(F)cccc8F)c8ccc5[nH]8)C=C7)C=C6)cc4)cc3C[C@H]2C)cc1
REMARK SMILES IDX 20 1 19 2 18 3 17 4 16 5 14 6 15 7 13 8 9 9 10 10 85 11
REMARK SMILES IDX 11 12 83 13 84 14 86 15 12 16 82 17 6 18 7 19 8 20 5 21 1 22
REMARK SMILES IDX 2 23 3 24 88 25 4 26 87 27 21 28 22 29 23 30 24 31 25 32
REMARK SMILES IDX 26 33 27 34 28 35 29 36 81 37 30 38 80 39 31 40 32 41 33 42
REMARK SMILES IDX 74 43 34 44 79 45 73 46 75 47 35 48 78 49 72 50 71 51 36 53
REMARK SMILES IDX 62 54 45 55 61 56 46 57 49 58 60 59 76 60 47 61 48 62 59 64
REMARK SMILES IDX 77 65 50 66 37 67 38 68 43 69 39 70 40 71 42 72 44 73 41 74
REMARK SMILES IDX 63 75 64 76 69 77 65 78 66 79 68 80 70 81 67 82 51 83 52 84
REMARK SMILES IDX 57 85 53 86 54 87 56 88 58 89 55 90
REMARK H PARENT 75 52 49 63
REMARK Flexibility Score: inf
ROOT
ATOM      1  C   UNL     1     -13.000   4.851   0.823  1.00  0.00     0.188 C 
ENDROOT
BRANCH   1   2
ATOM      2  O   UNL     1     -12.678   3.458   1.034  1.00  0.00    -0.376 OA
BRANCH   2   3
ATOM      3  C   UNL     1     -12.831   2.790   2.284  1.00  0.00     0.202 C 
BRANCH   3   4
ATOM      4  C   UNL     1     -11.656   1.787   2.990  1.00  0.00     0.261 C 
BRANCH   4   5
ATOM      5  O   UNL     1     -10.001   1.775   2.892  1.00  0.00    -0.460 OA
BRANCH   5   6
ATOM      6  C   UNL     1      -9.004   1.262   2.040  1.00  0.00     0.338 C 
ATOM      7  O   UNL     1      -9.107   0.433   1.147  1.00  0.00    -0.246 OA
BRANCH   6   8
ATOM      8  C   UNL     1      -7.572   1.685   2.026  1.00  0.00     0.060 A 
ATOM      9  N   UNL     1      -3.466   1.582   0.897  1.00  0.00    -0.263 N 
ATOM     10  C   UNL     1      -4.831   1.541   1.380  1.00  0.00     0.055 A 
ATOM     11  C   UNL     1      -3.449   2.800  -0.028  1.00  0.00     0.101 C 
ATOM     12  C   UNL     1      -5.328   0.795   2.439  1.00  0.00     0.028 A 
ATOM     13  C   UNL     1      -5.666   2.334   0.609  1.00  0.00    -0.021 A 
ATOM     14  C   UNL     1      -4.906   2.938  -0.540  1.00  0.00     0.063 C 
ATOM     15  C   UNL     1      -3.043   4.030   0.800  1.00  0.00     0.032 C 
ATOM     16  C   UNL     1      -6.698   0.869   2.758  1.00  0.00     0.018 A 
ATOM     17  C   UNL     1      -7.032   2.362   0.886  1.00  0.00     0.021 A 
BRANCH   9  18
ATOM     18  S   UNL     1      -3.005   0.105   0.096  1.00  0.00     0.264 S 
ATOM     19  O   UNL     1      -3.411   0.190  -1.293  1.00  0.00    -0.201 OA
ATOM     20  O   UNL     1      -3.393  -1.016   0.929  1.00  0.00    -0.201 OA
BRANCH  18  21
ATOM     21  C   UNL     1      -1.220   0.077   0.086  1.00  0.00     0.088 A 
ATOM     22  C   UNL     1       3.074  -0.260   0.041  1.00  0.00     0.044 C 
ATOM     23  C   UNL     1       1.578  -0.137   0.052  1.00  0.00    -0.051 A 
ATOM     24  C   UNL     1       0.783  -1.260  -0.199  1.00  0.00     0.005 A 
ATOM     25  C   UNL     1       0.959   1.084   0.350  1.00  0.00     0.005 A 
ATOM     26  C   UNL     1      -0.609  -1.155  -0.188  1.00  0.00     0.022 A 
ATOM     27  C   UNL     1      -0.437   1.192   0.373  1.00  0.00     0.022 A 
ENDBRANCH  18  21
ENDBRANCH   9  18
ENDBRANCH   6   8
ENDBRANCH   5   6
ENDBRANCH   4   5
ENDBRANCH   3   4
ENDBRANCH   2   3
ENDBRANCH   1   2
BRANCH   1  28
ATOM     28  C   UNL     1     -12.911   5.835   1.991  1.00  0.00     0.188 C 
BRANCH  28  29
ATOM     29  O   UNL     1     -11.927   5.373   2.897  1.00  0.00    -0.376 OA
BRANCH  29  30
ATOM     30  C   UNL     1     -11.735   6.162   4.056  1.00  0.00     0.202 C 
BRANCH  30  31
ATOM     31  C   UNL     1     -10.754   7.317   3.799  1.00  0.00     0.261 C 
BRANCH  31  32
ATOM     32  O   UNL     1      -9.555   6.816   3.153  1.00  0.00    -0.460 OA
BRANCH  32  33
ATOM     33  C   UNL     1      -9.402   7.072   1.814  1.00  0.00     0.338 C 
ATOM     34  O   UNL     1      -9.602   8.159   1.286  1.00  0.00    -0.246 OA
BRANCH  33  35
ATOM     35  C   UNL     1      -9.204   5.789   1.046  1.00  0.00     0.060 A 
ATOM     36  C   UNL     1      -9.291   5.650  -0.349  1.00  0.00     0.016 A 
ATOM     37  C   UNL     1      -9.356   4.638   1.747  1.00  0.00     0.016 A 
ATOM     38  C   UNL     1      -9.682   4.388  -0.979  1.00  0.00     0.010 A 
ATOM     39  C   UNL     1      -9.993   3.587   1.069  1.00  0.00     0.010 A 
ATOM     40  C   UNL     1     -10.147   3.275  -0.268  1.00  0.00    -0.014 A 
BRANCH  40  41
ATOM     41  C   UNL     1     -11.057   2.071  -0.766  1.00  0.00     0.031 A 
ATOM     42  C   UNL     1     -11.090   0.496  -0.503  1.00  0.00     0.074 A 
ATOM     43  C   UNL     1     -12.025   2.391  -1.656  1.00  0.00     0.049 A 
ATOM     44  N   UNL     1     -11.004  -0.425  -1.449  1.00  0.00    -0.248 NA
ATOM     45  C   UNL     1     -11.336  -0.205   0.777  1.00  0.00     0.031 C 
ATOM     46  C   UNL     1     -13.061   1.519  -2.208  1.00  0.00     0.029 A 
ATOM     47  N   UNL     1     -12.137   3.568  -2.400  1.00  0.00    -0.354 N 
ATOM     48  C   UNL     1     -11.152  -1.692  -0.860  1.00  0.00     0.074 A 
ATOM     49  C   UNL     1     -11.174  -1.500   0.536  1.00  0.00     0.031 C 
ATOM     50  C   UNL     1     -13.452   2.030  -3.385  1.00  0.00     0.029 A 
ATOM     51  C   UNL     1     -12.626   3.193  -3.656  1.00  0.00     0.049 A 
ATOM     52  H   UNL     1     -11.915   4.480  -2.101  1.00  0.00     0.167 HD
ATOM     53  C   UNL     1     -11.474  -2.869  -1.460  1.00  0.00     0.037 A 
ATOM     54  C   UNL     1     -11.928   3.448  -4.795  1.00  0.00     0.037 A 
ATOM     55  C   UNL     1     -12.031  -2.615  -2.747  1.00  0.00     0.049 A 
ATOM     56  C   UNL     1     -11.672   2.225  -5.639  1.00  0.00     0.074 A 
ATOM     57  C   UNL     1     -13.336  -2.378  -3.138  1.00  0.00     0.029 A 
ATOM     58  N   UNL     1     -11.205  -2.162  -3.747  1.00  0.00    -0.354 N 
ATOM     59  N   UNL     1     -11.795   0.999  -5.216  1.00  0.00    -0.248 NA
ATOM     60  C   UNL     1     -11.228   2.292  -7.027  1.00  0.00     0.031 C 
ATOM     61  C   UNL     1     -13.291  -1.736  -4.394  1.00  0.00     0.029 A 
ATOM     62  C   UNL     1     -11.964  -1.652  -4.774  1.00  0.00     0.049 A 
ATOM     63  H   UNL     1     -10.222  -2.197  -3.731  1.00  0.00     0.167 HD
ATOM     64  C   UNL     1     -11.388   0.131  -6.202  1.00  0.00     0.074 A 
ATOM     65  C   UNL     1     -11.089   0.989  -7.328  1.00  0.00     0.031 C 
ATOM     66  C   UNL     1     -11.305  -1.213  -5.981  1.00  0.00     0.037 A 
BRANCH  53  67
ATOM     67  C   UNL     1     -11.625  -4.144  -0.654  1.00  0.00     0.057 A 
ATOM     68  C   UNL     1     -12.793  -4.921  -0.663  1.00  0.00     0.134 A 
ATOM     69  C   UNL     1     -10.618  -4.588   0.230  1.00  0.00     0.134 A 
ATOM     70  F   UNL     1     -13.806  -4.646  -1.493  1.00  0.00    -0.206 F 
ATOM     71  C   UNL     1     -12.990  -5.996   0.220  1.00  0.00     0.040 A 
ATOM     72  C   UNL     1     -10.813  -5.642   1.139  1.00  0.00     0.040 A 
ATOM     73  F   UNL     1      -9.431  -3.964   0.280  1.00  0.00    -0.206 F 
ATOM     74  C   UNL     1     -12.014  -6.339   1.149  1.00  0.00     0.006 A 
ENDBRANCH  53  67
BRANCH  54  75
ATOM     75  C   UNL     1     -11.057   4.657  -4.731  1.00  0.00     0.057 A 
ATOM     76  C   UNL     1     -11.650   5.904  -4.449  1.00  0.00     0.134 A 
ATOM     77  C   UNL     1      -9.663   4.591  -4.633  1.00  0.00     0.134 A 
ATOM     78  F   UNL     1     -12.985   6.044  -4.513  1.00  0.00    -0.206 F 
ATOM     79  C   UNL     1     -10.910   7.002  -4.000  1.00  0.00     0.040 A 
ATOM     80  C   UNL     1      -8.906   5.692  -4.195  1.00  0.00     0.040 A 
ATOM     81  F   UNL     1      -9.018   3.433  -4.829  1.00  0.00    -0.206 F 
ATOM     82  C   UNL     1      -9.533   6.890  -3.851  1.00  0.00     0.006 A 
ENDBRANCH  54  75
BRANCH  66  83
ATOM     83  C   UNL     1     -10.629  -2.282  -6.819  1.00  0.00     0.057 A 
ATOM     84  C   UNL     1      -9.640  -2.038  -7.777  1.00  0.00     0.134 A 
ATOM     85  C   UNL     1     -10.848  -3.659  -6.536  1.00  0.00     0.134 A 
ATOM     86  F   UNL     1      -9.258  -0.798  -8.099  1.00  0.00    -0.206 F 
ATOM     87  C   UNL     1      -8.941  -3.073  -8.417  1.00  0.00     0.040 A 
ATOM     88  C   UNL     1     -10.109  -4.692  -7.115  1.00  0.00     0.040 A 
ATOM     89  F   UNL     1     -11.774  -4.070  -5.656  1.00  0.00    -0.206 F 
ATOM     90  C   UNL     1      -9.155  -4.402  -8.072  1.00  0.00     0.006 A 
ENDBRANCH  66  83
ENDBRANCH  40  41
ENDBRANCH  33  35
ENDBRANCH  32  33
ENDBRANCH  31  32
ENDBRANCH  30  31
ENDBRANCH  29  30
ENDBRANCH  28  29
ENDBRANCH   1  28
TORSDOF 19
