REMARK SMILES COc1ccccc1/C=C/C(=O)N(CC(=O)OCCOCCOCCOC(=O)c1ccc(-c2c3nc(c(-c4c(F)cccc4F)c4ccc([nH]4)c(-c4c(F)cccc4F)c4nc(c(-c5c(F)cccc5F)c5ccc2[nH]5)C=C4)C=C3)cc1)C(C)(C)C
REMARK SMILES IDX 20 1 19 2 18 3 17 4 15 5 16 6 14 7 13 8 11 9 12 10 10 11
REMARK SMILES IDX 9 12 8 13 3 14 4 15 5 16 7 17 6 18 2 19 1 20 83 21 84 22
REMARK SMILES IDX 85 23 86 24 21 25 22 26 23 27 24 28 25 29 26 30 27 31 28 32
REMARK SMILES IDX 29 33 30 34 82 35 31 36 81 37 32 38 33 39 34 40 75 41 35 42
REMARK SMILES IDX 80 43 74 44 76 45 36 46 79 47 73 48 72 49 37 51 63 52 46 53
REMARK SMILES IDX 62 54 47 55 50 56 61 57 77 58 48 59 49 60 60 62 78 63 51 64
REMARK SMILES IDX 38 65 39 66 44 67 40 68 41 69 43 70 45 71 42 72 64 73 65 74
REMARK SMILES IDX 70 75 66 76 67 77 69 78 71 79 68 80 52 81 53 82 58 83 54 84
REMARK SMILES IDX 55 85 57 86 59 87 56 88
REMARK H PARENT 76 50 50 61
REMARK Flexibility Score: inf
ROOT
ATOM      1  O   UNL     1       3.248  -4.100   2.927  1.00  0.00    -0.376 OA
ENDROOT
BRANCH   1   2
ATOM      2  C   UNL     1       3.391  -4.486   1.565  1.00  0.00     0.202 C 
BRANCH   2   3
ATOM      3  C   UNL     1       2.878  -3.474   0.536  1.00  0.00     0.261 C 
BRANCH   3   4
ATOM      4  O   UNL     1       3.615  -2.230   0.500  1.00  0.00    -0.462 OA
BRANCH   4   5
ATOM      5  C   UNL     1       2.928  -1.129   0.909  1.00  0.00     0.325 C 
ATOM      6  O   UNL     1       1.841  -1.162   1.479  1.00  0.00    -0.250 OA
BRANCH   5   7
ATOM      7  C   UNL     1       3.588   0.208   0.543  1.00  0.00     0.243 C 
BRANCH   7   8
ATOM      8  N   UNL     1       4.973   0.233   0.010  1.00  0.00    -0.323 N 
BRANCH   8   9
ATOM      9  C   UNL     1       5.232   0.102  -1.357  1.00  0.00     0.247 C 
ATOM     10  O   UNL     1       6.349   0.011  -1.858  1.00  0.00    -0.270 OA
BRANCH   9  11
ATOM     11  C   UNL     1       4.094   0.299  -2.278  1.00  0.00     0.072 C 
ATOM     12  C   UNL     1       3.188  -0.653  -2.532  1.00  0.00     0.017 C 
BRANCH  12  13
ATOM     13  C   UNL     1       2.031  -0.364  -3.384  1.00  0.00     0.017 A 
ATOM     14  C   UNL     1       0.723  -0.479  -2.889  1.00  0.00     0.126 A 
ATOM     15  C   UNL     1      -0.372  -0.231  -3.722  1.00  0.00     0.047 A 
ATOM     16  C   UNL     1      -0.168   0.189  -5.035  1.00  0.00     0.004 A 
ATOM     17  C   UNL     1       2.222   0.056  -4.708  1.00  0.00     0.012 A 
ATOM     18  C   UNL     1       1.127   0.340  -5.526  1.00  0.00     0.001 A 
BRANCH  14  19
ATOM     19  O   UNL     1       0.521  -0.892  -1.595  1.00  0.00    -0.496 OA
ATOM     20  C   UNL     1      -0.070   0.143  -0.806  1.00  0.00     0.278 C 
ENDBRANCH  14  19
ENDBRANCH  12  13
ENDBRANCH   9  11
ENDBRANCH   8   9
BRANCH   8  21
ATOM     21  C   UNL     1       6.117   0.599   0.915  1.00  0.00     0.035 C 
ATOM     22  C   UNL     1       7.273  -0.423   0.836  1.00  0.00     0.034 C 
ATOM     23  C   UNL     1       6.645   2.002   0.537  1.00  0.00     0.034 C 
ATOM     24  C   UNL     1       5.708   0.692   2.394  1.00  0.00     0.034 C 
ENDBRANCH   8  21
ENDBRANCH   7   8
ENDBRANCH   5   7
ENDBRANCH   4   5
ENDBRANCH   3   4
ENDBRANCH   2   3
ENDBRANCH   1   2
BRANCH   1  25
ATOM     25  C   UNL     1       4.156  -3.124   3.433  1.00  0.00     0.188 C 
BRANCH  25  26
ATOM     26  C   UNL     1       5.596  -3.169   2.917  1.00  0.00     0.188 C 
BRANCH  26  27
ATOM     27  O   UNL     1       6.215  -4.412   3.247  1.00  0.00    -0.376 OA
BRANCH  27  28
ATOM     28  C   UNL     1       7.608  -4.263   3.531  1.00  0.00     0.202 C 
BRANCH  28  29
ATOM     29  C   UNL     1       7.836  -4.275   5.045  1.00  0.00     0.261 C 
BRANCH  29  30
ATOM     30  O   UNL     1       7.028  -3.301   5.741  1.00  0.00    -0.460 OA
BRANCH  30  31
ATOM     31  C   UNL     1       7.577  -2.081   5.884  1.00  0.00     0.338 C 
ATOM     32  O   UNL     1       8.661  -1.702   5.453  1.00  0.00    -0.246 OA
BRANCH  31  33
ATOM     33  C   UNL     1       6.624  -1.177   6.547  1.00  0.00     0.060 A 
ATOM     34  C   UNL     1       5.880  -0.321   5.740  1.00  0.00     0.016 A 
ATOM     35  C   UNL     1       6.577  -1.040   7.931  1.00  0.00     0.016 A 
ATOM     36  C   UNL     1       5.160   0.739   6.292  1.00  0.00     0.010 A 
ATOM     37  C   UNL     1       5.815  -0.003   8.494  1.00  0.00     0.010 A 
ATOM     38  C   UNL     1       5.145   0.933   7.678  1.00  0.00    -0.014 A 
BRANCH  38  39
ATOM     39  C   UNL     1       4.576   2.189   8.250  1.00  0.00     0.031 A 
ATOM     40  C   UNL     1       5.492   3.164   8.950  1.00  0.00     0.074 A 
ATOM     41  C   UNL     1       3.278   2.520   8.094  1.00  0.00     0.049 A 
ATOM     42  N   UNL     1       5.196   4.234   9.647  1.00  0.00    -0.248 NA
ATOM     43  C   UNL     1       6.935   2.893   8.857  1.00  0.00     0.031 C 
ATOM     44  C   UNL     1       2.279   1.732   7.374  1.00  0.00     0.029 A 
ATOM     45  N   UNL     1       2.582   3.626   8.525  1.00  0.00    -0.354 N 
ATOM     46  C   UNL     1       6.405   4.720  10.128  1.00  0.00     0.074 A 
ATOM     47  C   UNL     1       7.441   3.836   9.638  1.00  0.00     0.031 C 
ATOM     48  C   UNL     1       1.109   2.394   7.383  1.00  0.00     0.029 A 
ATOM     49  C   UNL     1       1.256   3.619   8.166  1.00  0.00     0.049 A 
ATOM     50  H   UNL     1       2.996   4.354   9.042  1.00  0.00     0.167 HD
ATOM     51  C   UNL     1       6.638   5.803  10.910  1.00  0.00     0.037 A 
ATOM     52  C   UNL     1       0.263   4.482   8.458  1.00  0.00     0.037 A 
ATOM     53  C   UNL     1       5.628   6.730  11.346  1.00  0.00     0.049 A 
ATOM     54  C   UNL     1       0.540   5.674   9.334  1.00  0.00     0.074 A 
ATOM     55  C   UNL     1       5.769   7.845  12.155  1.00  0.00     0.029 A 
ATOM     56  N   UNL     1       4.293   6.666  10.983  1.00  0.00    -0.354 N 
ATOM     57  N   UNL     1       1.672   6.065   9.866  1.00  0.00    -0.248 NA
ATOM     58  C   UNL     1      -0.608   6.531   9.668  1.00  0.00     0.031 C 
ATOM     59  C   UNL     1       4.513   8.448  12.294  1.00  0.00     0.029 A 
ATOM     60  C   UNL     1       3.599   7.723  11.549  1.00  0.00     0.049 A 
ATOM     61  H   UNL     1       3.896   5.972  10.409  1.00  0.00     0.167 HD
ATOM     62  C   UNL     1       1.373   7.210  10.595  1.00  0.00     0.074 A 
ATOM     63  C   UNL     1      -0.039   7.468  10.413  1.00  0.00     0.031 C 
ATOM     64  C   UNL     1       2.194   7.971  11.359  1.00  0.00     0.037 A 
BRANCH  51  65
ATOM     65  C   UNL     1       8.046   6.019  11.378  1.00  0.00     0.057 A 
ATOM     66  C   UNL     1       9.044   6.519  10.534  1.00  0.00     0.134 A 
ATOM     67  C   UNL     1       8.400   5.731  12.703  1.00  0.00     0.134 A 
ATOM     68  F   UNL     1       8.773   6.795   9.249  1.00  0.00    -0.206 F 
ATOM     69  C   UNL     1      10.352   6.705  10.986  1.00  0.00     0.040 A 
ATOM     70  C   UNL     1       9.698   5.934  13.172  1.00  0.00     0.040 A 
ATOM     71  F   UNL     1       7.488   5.252  13.562  1.00  0.00    -0.206 F 
ATOM     72  C   UNL     1      10.681   6.417  12.310  1.00  0.00     0.006 A 
ENDBRANCH  51  65
BRANCH  52  73
ATOM     73  C   UNL     1      -1.110   4.237   7.947  1.00  0.00     0.057 A 
ATOM     74  C   UNL     1      -1.675   5.062   6.969  1.00  0.00     0.134 A 
ATOM     75  C   UNL     1      -1.896   3.191   8.444  1.00  0.00     0.134 A 
ATOM     76  F   UNL     1      -0.982   6.101   6.478  1.00  0.00    -0.206 F 
ATOM     77  C   UNL     1      -2.977   4.861   6.507  1.00  0.00     0.040 A 
ATOM     78  C   UNL     1      -3.189   2.962   7.973  1.00  0.00     0.040 A 
ATOM     79  F   UNL     1      -1.413   2.370   9.388  1.00  0.00    -0.206 F 
ATOM     80  C   UNL     1      -3.736   3.803   7.005  1.00  0.00     0.006 A 
ENDBRANCH  52  73
BRANCH  64  81
ATOM     81  C   UNL     1       1.585   9.159  12.040  1.00  0.00     0.057 A 
ATOM     82  C   UNL     1       0.769   9.019  13.169  1.00  0.00     0.134 A 
ATOM     83  C   UNL     1       1.827  10.456  11.570  1.00  0.00     0.134 A 
ATOM     84  F   UNL     1       0.490   7.802  13.659  1.00  0.00    -0.206 F 
ATOM     85  C   UNL     1       0.196  10.127  13.796  1.00  0.00     0.040 A 
ATOM     86  C   UNL     1       1.274  11.573  12.199  1.00  0.00     0.040 A 
ATOM     87  F   UNL     1       2.603  10.658  10.495  1.00  0.00    -0.206 F 
ATOM     88  C   UNL     1       0.450  11.409  13.312  1.00  0.00     0.006 A 
ENDBRANCH  64  81
ENDBRANCH  38  39
ENDBRANCH  31  33
ENDBRANCH  30  31
ENDBRANCH  29  30
ENDBRANCH  28  29
ENDBRANCH  27  28
ENDBRANCH  26  27
ENDBRANCH  25  26
ENDBRANCH   1  25
TORSDOF 23
