REMARK SMILES C[N@H+]1Cc2ccccc2C[C@@H]1C(=O)NCCC(=O)NCC(=O)OCCOCCOCCOC(=O)c1ccc(-c2c3nc(c(-c4c(F)cccc4F)c4ccc([nH]4)c(-c4c(F)cccc4F)c4nc(c(-c5c(F)cccc5F)c5ccc2[nH]5)C=C4)C=C3)cc1
REMARK SMILES IDX 26 1 25 2 24 3 23 4 21 5 22 6 20 7 19 8 17 9 18 10 16 12
REMARK SMILES IDX 15 13 14 14 12 15 13 16 11 18 1 19 2 20 3 21 4 23 10 24 5 25
REMARK SMILES IDX 9 26 6 27 8 28 7 29 27 30 28 31 29 32 30 33 31 34 32 35
REMARK SMILES IDX 33 36 34 37 35 38 36 39 88 40 37 41 87 42 38 43 39 44 40 45
REMARK SMILES IDX 81 46 41 47 86 48 80 49 82 50 42 51 85 52 79 53 78 54 43 56
REMARK SMILES IDX 69 57 52 58 68 59 53 60 56 61 67 62 83 63 54 64 55 65 66 67
REMARK SMILES IDX 84 68 57 69 44 70 45 71 50 72 46 73 47 74 49 75 51 76 48 77
REMARK SMILES IDX 70 78 71 79 76 80 72 81 73 82 75 83 77 84 74 85 58 86 59 87
REMARK SMILES IDX 64 88 60 89 61 90 63 91 65 92 62 93
REMARK H PARENT 19 11 14 17 2 22 82 55 56 66
REMARK Flexibility Score: inf
ROOT
ATOM      1  O   UNL     1      -8.322   1.938   1.606  1.00  0.00    -0.376 OA
ENDROOT
BRANCH   1   2
ATOM      2  C   UNL     1      -7.136   1.625   2.322  1.00  0.00     0.202 C 
BRANCH   2   3
ATOM      3  C   UNL     1      -5.803   1.570   1.563  1.00  0.00     0.261 C 
BRANCH   3   4
ATOM      4  O   UNL     1      -5.412   2.792   0.900  1.00  0.00    -0.462 OA
BRANCH   4   5
ATOM      5  C   UNL     1      -5.360   2.774  -0.467  1.00  0.00     0.325 C 
ATOM      6  O   UNL     1      -5.616   1.780  -1.141  1.00  0.00    -0.250 OA
BRANCH   5   7
ATOM      7  C   UNL     1      -5.085   4.161  -1.107  1.00  0.00     0.238 C 
BRANCH   7   8
ATOM      8  N   UNL     1      -4.824   5.345  -0.283  1.00  0.00    -0.345 N 
ATOM      9  C   UNL     1      -3.663   5.887   0.153  1.00  0.00     0.222 C 
ATOM     10  O   UNL     1      -3.711   6.926   0.814  1.00  0.00    -0.275 OA
ATOM     11  H   UNL     1      -5.632   5.830   0.001  1.00  0.00     0.164 HD
BRANCH   9  12
ATOM     12  C   UNL     1      -2.351   5.228  -0.144  1.00  0.00     0.121 C 
BRANCH  12  13
ATOM     13  C   UNL     1      -2.046   4.178   0.909  1.00  0.00     0.126 C 
BRANCH  13  14
ATOM     14  N   UNL     1      -2.565   2.840   0.658  1.00  0.00    -0.350 N 
ATOM     15  C   UNL     1      -2.258   2.165  -0.502  1.00  0.00     0.278 C 
ATOM     16  O   UNL     1      -2.604   2.574  -1.609  1.00  0.00    -0.268 OA
ATOM     17  H   UNL     1      -3.144   2.412   1.329  1.00  0.00     0.163 HD
BRANCH  15  18
ATOM     18  C   UNL     1      -1.295   0.998  -0.395  1.00  0.00     0.278 C 
ATOM     19  C   UNL     1      -3.062  -0.654  -0.047  1.00  0.00     0.333 C 
ATOM     20  N   UNL     1      -1.746  -0.177   0.392  1.00  0.00    -0.323 N 
ATOM     21  C   UNL     1      -0.749  -1.266   0.153  1.00  0.00     0.299 C 
ATOM     22  H   UNL     1      -1.819   0.084   1.376  1.00  0.00     0.348 HD
ATOM     23  C   UNL     1       0.711  -0.831   0.172  1.00  0.00     0.010 A 
ATOM     24  C   UNL     1      -0.015   1.556   0.234  1.00  0.00     0.111 C 
ATOM     25  C   UNL     1       1.734  -1.780   0.070  1.00  0.00     0.010 A 
ATOM     26  C   UNL     1       1.065   0.528   0.181  1.00  0.00    -0.033 A 
ATOM     27  C   UNL     1       3.071  -1.376   0.004  1.00  0.00     0.001 A 
ATOM     28  C   UNL     1       2.404   0.931   0.143  1.00  0.00     0.004 A 
ATOM     29  C   UNL     1       3.406  -0.024   0.046  1.00  0.00     0.000 A 
ENDBRANCH  15  18
ENDBRANCH  13  14
ENDBRANCH  12  13
ENDBRANCH   9  12
ENDBRANCH   7   8
ENDBRANCH   5   7
ENDBRANCH   4   5
ENDBRANCH   3   4
ENDBRANCH   2   3
ENDBRANCH   1   2
BRANCH   1  30
ATOM     30  C   UNL     1      -8.348   3.089   0.780  1.00  0.00     0.188 C 
BRANCH  30  31
ATOM     31  C   UNL     1      -7.720   4.396   1.292  1.00  0.00     0.188 C 
BRANCH  31  32
ATOM     32  O   UNL     1      -7.332   4.460   2.634  1.00  0.00    -0.376 OA
BRANCH  32  33
ATOM     33  C   UNL     1      -8.274   4.800   3.628  1.00  0.00     0.202 C 
BRANCH  33  34
ATOM     34  C   UNL     1      -9.775   5.064   3.384  1.00  0.00     0.261 C 
BRANCH  34  35
ATOM     35  O   UNL     1     -10.305   4.916   2.059  1.00  0.00    -0.460 OA
BRANCH  35  36
ATOM     36  C   UNL     1     -10.395   6.037   1.300  1.00  0.00     0.338 C 
ATOM     37  O   UNL     1     -10.074   7.170   1.625  1.00  0.00    -0.246 OA
BRANCH  36  38
ATOM     38  C   UNL     1     -10.715   5.638  -0.093  1.00  0.00     0.060 A 
ATOM     39  C   UNL     1      -9.796   5.919  -1.119  1.00  0.00     0.016 A 
ATOM     40  C   UNL     1     -11.908   4.979  -0.387  1.00  0.00     0.016 A 
ATOM     41  C   UNL     1     -10.080   5.567  -2.442  1.00  0.00     0.010 A 
ATOM     42  C   UNL     1     -12.205   4.656  -1.717  1.00  0.00     0.010 A 
ATOM     43  C   UNL     1     -11.310   4.975  -2.756  1.00  0.00    -0.014 A 
BRANCH  43  44
ATOM     44  C   UNL     1     -11.775   4.902  -4.166  1.00  0.00     0.031 A 
ATOM     45  C   UNL     1     -12.701   5.984  -4.659  1.00  0.00     0.074 A 
ATOM     46  C   UNL     1     -11.405   3.911  -4.999  1.00  0.00     0.049 A 
ATOM     47  N   UNL     1     -13.355   6.074  -5.787  1.00  0.00    -0.248 NA
ATOM     48  C   UNL     1     -12.919   7.117  -3.743  1.00  0.00     0.031 C 
ATOM     49  C   UNL     1     -10.466   2.838  -4.683  1.00  0.00     0.029 A 
ATOM     50  N   UNL     1     -11.801   3.643  -6.288  1.00  0.00    -0.354 N 
ATOM     51  C   UNL     1     -14.066   7.266  -5.715  1.00  0.00     0.074 A 
ATOM     52  C   UNL     1     -13.791   7.848  -4.420  1.00  0.00     0.031 C 
ATOM     53  C   UNL     1     -10.374   2.014  -5.743  1.00  0.00     0.029 A 
ATOM     54  C   UNL     1     -11.279   2.476  -6.795  1.00  0.00     0.049 A 
ATOM     55  H   UNL     1     -12.402   4.231  -6.800  1.00  0.00     0.167 HD
ATOM     56  C   UNL     1     -14.870   7.833  -6.645  1.00  0.00     0.037 A 
ATOM     57  C   UNL     1     -11.532   1.842  -7.959  1.00  0.00     0.037 A 
ATOM     58  C   UNL     1     -15.155   7.255  -7.931  1.00  0.00     0.049 A 
ATOM     59  C   UNL     1     -12.524   2.435  -8.931  1.00  0.00     0.074 A 
ATOM     60  C   UNL     1     -15.973   7.746  -8.934  1.00  0.00     0.029 A 
ATOM     61  N   UNL     1     -14.632   6.057  -8.390  1.00  0.00    -0.354 N 
ATOM     62  N   UNL     1     -13.194   3.560  -8.854  1.00  0.00    -0.248 NA
ATOM     63  C   UNL     1     -12.797   1.665 -10.156  1.00  0.00     0.031 C 
ATOM     64  C   UNL     1     -15.982   6.821  -9.982  1.00  0.00     0.029 A 
ATOM     65  C   UNL     1     -15.122   5.785  -9.656  1.00  0.00     0.049 A 
ATOM     66  H   UNL     1     -14.005   5.485  -7.891  1.00  0.00     0.167 HD
ATOM     67  C   UNL     1     -13.925   3.652 -10.035  1.00  0.00     0.074 A 
ATOM     68  C   UNL     1     -13.613   2.475 -10.815  1.00  0.00     0.031 C 
ATOM     69  C   UNL     1     -14.777   4.626 -10.439  1.00  0.00     0.037 A 
BRANCH  56  70
ATOM     70  C   UNL     1     -15.514   9.144  -6.298  1.00  0.00     0.057 A 
ATOM     71  C   UNL     1     -14.774  10.330  -6.217  1.00  0.00     0.134 A 
ATOM     72  C   UNL     1     -16.896   9.228  -6.085  1.00  0.00     0.134 A 
ATOM     73  F   UNL     1     -13.444  10.315  -6.394  1.00  0.00    -0.206 F 
ATOM     74  C   UNL     1     -15.382  11.551  -5.920  1.00  0.00     0.040 A 
ATOM     75  C   UNL     1     -17.519  10.447  -5.816  1.00  0.00     0.040 A 
ATOM     76  F   UNL     1     -17.664   8.130  -6.152  1.00  0.00    -0.206 F 
ATOM     77  C   UNL     1     -16.761  11.612  -5.728  1.00  0.00     0.006 A 
ENDBRANCH  56  70
BRANCH  57  78
ATOM     78  C   UNL     1     -10.868   0.549  -8.281  1.00  0.00     0.057 A 
ATOM     79  C   UNL     1      -9.990   0.437  -9.367  1.00  0.00     0.134 A 
ATOM     80  C   UNL     1     -11.155  -0.621  -7.567  1.00  0.00     0.134 A 
ATOM     81  F   UNL     1      -9.697   1.513 -10.113  1.00  0.00    -0.206 F 
ATOM     82  C   UNL     1      -9.451  -0.793  -9.752  1.00  0.00     0.040 A 
ATOM     83  C   UNL     1     -10.598  -1.852  -7.921  1.00  0.00     0.040 A 
ATOM     84  F   UNL     1     -11.993  -0.588  -6.521  1.00  0.00    -0.206 F 
ATOM     85  C   UNL     1      -9.753  -1.942  -9.025  1.00  0.00     0.006 A 
ENDBRANCH  57  78
BRANCH  69  86
ATOM     86  C   UNL     1     -15.378   4.506 -11.811  1.00  0.00     0.057 A 
ATOM     87  C   UNL     1     -16.355   3.552 -12.120  1.00  0.00     0.134 A 
ATOM     88  C   UNL     1     -15.008   5.401 -12.826  1.00  0.00     0.134 A 
ATOM     89  F   UNL     1     -16.749   2.659 -11.198  1.00  0.00    -0.206 F 
ATOM     90  C   UNL     1     -16.924   3.475 -13.393  1.00  0.00     0.040 A 
ATOM     91  C   UNL     1     -15.591   5.353 -14.093  1.00  0.00     0.040 A 
ATOM     92  F   UNL     1     -14.087   6.349 -12.596  1.00  0.00    -0.206 F 
ATOM     93  C   UNL     1     -16.548   4.383 -14.381  1.00  0.00     0.006 A 
ENDBRANCH  69  86
ENDBRANCH  43  44
ENDBRANCH  36  38
ENDBRANCH  35  36
ENDBRANCH  34  35
ENDBRANCH  33  34
ENDBRANCH  32  33
ENDBRANCH  31  32
ENDBRANCH  30  31
ENDBRANCH   1  30
TORSDOF 22
