REMARK SMILES COc1ccccc1[C@@H]1C[N@@H+](Cc2cn3cc(C)ccc3n2)C[C@H]1C(=O)OCCOCCOCCOC(=O)c1ccc(-c2c3nc(c(-c4c(F)cccc4F)c4ccc([nH]4)c(-c4c(F)cccc4F)c4nc(c(-c5c(F)cccc5F)c5ccc2[nH]5)C=C4)C=C3)cc1
REMARK SMILES IDX 31 1 30 2 29 3 28 4 27 5 25 6 26 7 24 8 9 9 10 10 11 11
REMARK SMILES IDX 23 12 8 14 3 15 4 16 5 17 7 18 6 19 2 20 1 21 12 22 13 23
REMARK SMILES IDX 14 24 22 25 15 26 21 27 16 28 20 29 17 30 19 31 18 32 32 33
REMARK SMILES IDX 33 34 34 35 35 36 36 37 37 38 38 39 39 40 40 41 92 42 41 43
REMARK SMILES IDX 91 44 42 45 43 46 44 47 85 48 45 49 90 50 84 51 86 52 46 53
REMARK SMILES IDX 89 54 83 55 82 56 47 58 73 59 56 60 72 61 57 62 60 63 71 64
REMARK SMILES IDX 87 65 58 66 59 67 70 69 88 70 61 71 48 72 49 73 54 74 50 75
REMARK SMILES IDX 51 76 53 77 55 78 52 79 74 80 75 81 80 82 76 83 77 84 79 85
REMARK SMILES IDX 81 86 78 87 62 88 63 89 68 90 64 91 65 92 67 93 69 94 66 95
REMARK H PARENT 11 13 86 57 60 68
REMARK Flexibility Score: inf
ROOT
ATOM      1  C   UNL     1       1.681  -4.870  -1.309  1.00  0.00     0.188 C 
ENDROOT
BRANCH   1   2
ATOM      2  O   UNL     1       2.148  -5.462  -2.515  1.00  0.00    -0.376 OA
BRANCH   2   3
ATOM      3  C   UNL     1       3.368  -4.978  -3.075  1.00  0.00     0.202 C 
BRANCH   3   4
ATOM      4  C   UNL     1       3.502  -3.463  -3.281  1.00  0.00     0.261 C 
BRANCH   4   5
ATOM      5  O   UNL     1       3.467  -2.669  -2.069  1.00  0.00    -0.463 OA
BRANCH   5   6
ATOM      6  C   UNL     1       2.696  -1.560  -2.128  1.00  0.00     0.315 C 
ATOM      7  O   UNL     1       2.050  -1.237  -3.126  1.00  0.00    -0.252 OA
BRANCH   6   8
ATOM      8  C   UNL     1       2.721  -0.631  -0.928  1.00  0.00     0.167 C 
ATOM      9  C   UNL     1       2.995  -1.020   0.526  1.00  0.00     0.098 C 
ATOM     10  C   UNL     1       3.641   0.249   1.112  1.00  0.00     0.272 C 
ATOM     11  N   UNL     1       4.378   0.880   0.022  1.00  0.00    -0.329 N 
ATOM     12  C   UNL     1       3.750   0.463  -1.237  1.00  0.00     0.278 C 
ATOM     13  H   UNL     1       4.309   1.892   0.125  1.00  0.00     0.348 HD
BRANCH   9  14
ATOM     14  C   UNL     1       1.968  -1.529   1.550  1.00  0.00     0.004 A 
ATOM     15  C   UNL     1       0.645  -1.144   1.835  1.00  0.00     0.122 A 
ATOM     16  C   UNL     1      -0.026  -1.749   2.933  1.00  0.00     0.047 A 
ATOM     17  C   UNL     1       0.567  -2.679   3.777  1.00  0.00     0.004 A 
ATOM     18  C   UNL     1       2.549  -2.477   2.457  1.00  0.00     0.008 A 
ATOM     19  C   UNL     1       1.873  -3.042   3.540  1.00  0.00     0.001 A 
BRANCH  15  20
ATOM     20  O   UNL     1      -0.224  -0.241   1.312  1.00  0.00    -0.496 OA
ATOM     21  C   UNL     1       0.025   0.680   0.286  1.00  0.00     0.278 C 
ENDBRANCH  15  20
ENDBRANCH   9  14
BRANCH  11  22
ATOM     22  C   UNL     1       5.835   0.683   0.057  1.00  0.00     0.321 C 
BRANCH  22  23
ATOM     23  C   UNL     1       6.289  -0.743   0.174  1.00  0.00     0.114 A 
ATOM     24  C   UNL     1       6.630  -1.440   1.319  1.00  0.00     0.122 A 
ATOM     25  N   UNL     1       6.467  -1.541  -0.939  1.00  0.00    -0.228 NA
ATOM     26  N   UNL     1       7.034  -2.680   0.901  1.00  0.00    -0.306 N 
ATOM     27  C   UNL     1       6.931  -2.688  -0.484  1.00  0.00     0.137 A 
ATOM     28  C   UNL     1       7.466  -3.767   1.657  1.00  0.00     0.096 A 
ATOM     29  C   UNL     1       7.339  -3.878  -1.149  1.00  0.00     0.048 A 
ATOM     30  C   UNL     1       7.853  -4.898   1.034  1.00  0.00    -0.034 A 
ATOM     31  C   UNL     1       7.811  -4.920  -0.434  1.00  0.00     0.009 A 
ATOM     32  C   UNL     1       8.188  -6.167   1.757  1.00  0.00     0.046 C 
ENDBRANCH  22  23
ENDBRANCH  11  22
ENDBRANCH   6   8
ENDBRANCH   5   6
ENDBRANCH   4   5
ENDBRANCH   3   4
ENDBRANCH   2   3
ENDBRANCH   1   2
BRANCH   1  33
ATOM     33  C   UNL     1       2.687  -4.636  -0.176  1.00  0.00     0.188 C 
BRANCH  33  34
ATOM     34  O   UNL     1       3.977  -5.154  -0.436  1.00  0.00    -0.376 OA
BRANCH  34  35
ATOM     35  C   UNL     1       4.613  -5.859   0.607  1.00  0.00     0.202 C 
BRANCH  35  36
ATOM     36  C   UNL     1       4.211  -7.322   0.626  1.00  0.00     0.261 C 
BRANCH  36  37
ATOM     37  O   UNL     1       2.819  -7.462   0.830  1.00  0.00    -0.460 OA
BRANCH  37  38
ATOM     38  C   UNL     1       2.367  -6.939   1.985  1.00  0.00     0.338 C 
ATOM     39  O   UNL     1       3.015  -6.452   2.893  1.00  0.00    -0.246 OA
BRANCH  38  40
ATOM     40  C   UNL     1       0.914  -7.081   1.987  1.00  0.00     0.060 A 
ATOM     41  C   UNL     1       0.250  -6.512   3.074  1.00  0.00     0.016 A 
ATOM     42  C   UNL     1       0.337  -8.054   1.160  1.00  0.00     0.016 A 
ATOM     43  C   UNL     1      -0.865  -7.156   3.538  1.00  0.00     0.010 A 
ATOM     44  C   UNL     1      -0.749  -8.722   1.646  1.00  0.00     0.010 A 
ATOM     45  C   UNL     1      -1.244  -8.329   2.888  1.00  0.00    -0.014 A 
BRANCH  45  46
ATOM     46  C   UNL     1      -2.065  -9.251   3.629  1.00  0.00     0.031 A 
ATOM     47  C   UNL     1      -3.513  -9.036   3.511  1.00  0.00     0.074 A 
ATOM     48  C   UNL     1      -1.497 -10.304   4.246  1.00  0.00     0.049 A 
ATOM     49  N   UNL     1      -4.371  -8.873   4.460  1.00  0.00    -0.248 NA
ATOM     50  C   UNL     1      -4.063  -8.907   2.152  1.00  0.00     0.031 C 
ATOM     51  C   UNL     1      -0.111 -10.776   4.135  1.00  0.00     0.029 A 
ATOM     52  N   UNL     1      -2.095 -11.270   4.986  1.00  0.00    -0.354 N 
ATOM     53  C   UNL     1      -5.601  -8.795   3.825  1.00  0.00     0.074 A 
ATOM     54  C   UNL     1      -5.348  -8.687   2.412  1.00  0.00     0.031 C 
ATOM     55  C   UNL     1      -0.050 -12.052   4.575  1.00  0.00     0.029 A 
ATOM     56  C   UNL     1      -1.358 -12.438   5.078  1.00  0.00     0.049 A 
ATOM     57  H   UNL     1      -2.972 -11.152   5.418  1.00  0.00     0.167 HD
ATOM     58  C   UNL     1      -6.761  -9.056   4.477  1.00  0.00     0.037 A 
ATOM     59  C   UNL     1      -1.842 -13.656   5.421  1.00  0.00     0.037 A 
ATOM     60  C   UNL     1      -6.633  -8.950   5.902  1.00  0.00     0.049 A 
ATOM     61  C   UNL     1      -3.162 -13.450   6.078  1.00  0.00     0.074 A 
ATOM     62  C   UNL     1      -6.216  -7.942   6.753  1.00  0.00     0.029 A 
ATOM     63  N   UNL     1      -6.613 -10.099   6.653  1.00  0.00    -0.354 N 
ATOM     64  N   UNL     1      -3.330 -12.924   7.260  1.00  0.00    -0.248 NA
ATOM     65  C   UNL     1      -4.344 -13.448   5.225  1.00  0.00     0.031 C 
ATOM     66  C   UNL     1      -5.514  -8.604   7.801  1.00  0.00     0.029 A 
ATOM     67  C   UNL     1      -5.566  -9.972   7.532  1.00  0.00     0.049 A 
ATOM     68  H   UNL     1      -7.228 -10.864   6.577  1.00  0.00     0.167 HD
ATOM     69  C   UNL     1      -4.492 -12.171   7.154  1.00  0.00     0.074 A 
ATOM     70  C   UNL     1      -5.124 -12.613   5.915  1.00  0.00     0.031 C 
ATOM     71  C   UNL     1      -4.700 -11.060   7.922  1.00  0.00     0.037 A 
BRANCH  58  72
ATOM     72  C   UNL     1      -7.915  -9.710   3.789  1.00  0.00     0.057 A 
ATOM     73  C   UNL     1      -9.204  -9.607   4.323  1.00  0.00     0.134 A 
ATOM     74  C   UNL     1      -7.755 -10.637   2.736  1.00  0.00     0.134 A 
ATOM     75  F   UNL     1      -9.452  -8.799   5.364  1.00  0.00    -0.206 F 
ATOM     76  C   UNL     1     -10.266 -10.379   3.841  1.00  0.00     0.040 A 
ATOM     77  C   UNL     1      -8.817 -11.369   2.210  1.00  0.00     0.040 A 
ATOM     78  F   UNL     1      -6.549 -10.935   2.232  1.00  0.00    -0.206 F 
ATOM     79  C   UNL     1     -10.076 -11.256   2.777  1.00  0.00     0.006 A 
ENDBRANCH  58  72
BRANCH  59  80
ATOM     80  C   UNL     1      -1.372 -14.982   4.960  1.00  0.00     0.057 A 
ATOM     81  C   UNL     1      -1.755 -16.153   5.626  1.00  0.00     0.134 A 
ATOM     82  C   UNL     1      -0.713 -15.164   3.729  1.00  0.00     0.134 A 
ATOM     83  F   UNL     1      -2.440 -16.089   6.776  1.00  0.00    -0.206 F 
ATOM     84  C   UNL     1      -1.495 -17.427   5.103  1.00  0.00     0.040 A 
ATOM     85  C   UNL     1      -0.428 -16.429   3.207  1.00  0.00     0.040 A 
ATOM     86  F   UNL     1      -0.394 -14.124   2.946  1.00  0.00    -0.206 F 
ATOM     87  C   UNL     1      -0.828 -17.568   3.890  1.00  0.00     0.006 A 
ENDBRANCH  59  80
BRANCH  71  88
ATOM     88  C   UNL     1      -3.765 -10.802   9.069  1.00  0.00     0.057 A 
ATOM     89  C   UNL     1      -2.389 -10.576   8.914  1.00  0.00     0.134 A 
ATOM     90  C   UNL     1      -4.296 -10.611  10.351  1.00  0.00     0.134 A 
ATOM     91  F   UNL     1      -1.812 -10.619   7.706  1.00  0.00    -0.206 F 
ATOM     92  C   UNL     1      -1.571 -10.231   9.993  1.00  0.00     0.040 A 
ATOM     93  C   UNL     1      -3.495 -10.232  11.431  1.00  0.00     0.040 A 
ATOM     94  F   UNL     1      -5.615 -10.741  10.564  1.00  0.00    -0.206 F 
ATOM     95  C   UNL     1      -2.125 -10.053  11.257  1.00  0.00     0.006 A 
ENDBRANCH  71  88
ENDBRANCH  45  46
ENDBRANCH  38  40
ENDBRANCH  37  38
ENDBRANCH  36  37
ENDBRANCH  35  36
ENDBRANCH  34  35
ENDBRANCH  33  34
ENDBRANCH   1  33
TORSDOF 21
