REMARK SMILES CCCc1cc2c(cc1Cl)C=C(C(=O)OCCOCCOCCOC(=O)c1ccc(-c3c4nc(c(-c5c(F)cccc5F)c5ccc([nH]5)c(-c5c(F)cccc5F)c5nc(c(-c6c(F)cccc6F)c6ccc3[nH]6)C=C5)C=C4)cc1)[C@@H](C(F)(F)F)O2
REMARK SMILES IDX 19 1 18 2 17 3 16 4 15 5 13 6 14 7 12 8 4 9 5 10 9 11 6 12
REMARK SMILES IDX 8 13 10 14 7 15 86 16 11 17 81 18 3 19 2 20 1 21 82 22 83 23
REMARK SMILES IDX 84 24 85 25 20 26 21 27 22 28 23 29 24 30 25 31 26 32 27 33
REMARK SMILES IDX 28 34 80 35 29 36 79 37 30 38 31 39 32 40 73 41 33 42 78 43
REMARK SMILES IDX 72 44 74 45 34 46 77 47 71 48 70 49 35 51 61 52 44 53 60 54
REMARK SMILES IDX 45 55 48 56 59 57 75 58 46 59 47 60 58 62 76 63 49 64 36 65
REMARK SMILES IDX 37 66 42 67 38 68 39 69 41 70 43 71 40 72 62 73 63 74 68 75
REMARK SMILES IDX 64 76 65 77 67 78 69 79 66 80 50 81 51 82 56 83 52 84 53 85
REMARK SMILES IDX 55 86 57 87 54 88
REMARK H PARENT 74 50 48 61
REMARK Flexibility Score: inf
ROOT
ATOM      1  C   UNL     1      -3.489   2.760  -7.888  1.00  0.00     0.188 C 
ENDROOT
BRANCH   1   2
ATOM      2  O   UNL     1      -3.681   2.566  -9.272  1.00  0.00    -0.376 OA
BRANCH   2   3
ATOM      3  C   UNL     1      -3.008   1.544  -9.989  1.00  0.00     0.202 C 
BRANCH   3   4
ATOM      4  C   UNL     1      -1.628   0.994  -9.610  1.00  0.00     0.261 C 
BRANCH   4   5
ATOM      5  O   UNL     1      -1.385   0.860  -8.208  1.00  0.00    -0.460 OA
BRANCH   5   6
ATOM      6  C   UNL     1      -0.385   1.635  -7.726  1.00  0.00     0.338 C 
ATOM      7  O   UNL     1       0.326   2.396  -8.361  1.00  0.00    -0.246 OA
BRANCH   6   8
ATOM      8  C   UNL     1      -0.368   1.548  -6.254  1.00  0.00     0.087 C 
ATOM      9  C   UNL     1       0.273   2.429  -1.353  1.00  0.00    -0.026 A 
ATOM     10  C   UNL     1      -0.117   1.317  -2.115  1.00  0.00     0.052 A 
ATOM     11  C   UNL     1       0.374   3.668  -2.017  1.00  0.00     0.045 A 
ATOM     12  C   UNL     1      -0.294   1.411  -3.498  1.00  0.00     0.128 A 
ATOM     13  C   UNL     1       0.157   3.772  -3.396  1.00  0.00     0.032 A 
ATOM     14  Cl  UNL     1       0.799   5.123  -1.182  1.00  0.00    -0.084 Cl
ATOM     15  C   UNL     1      -0.136   2.633  -4.145  1.00  0.00     0.019 A 
ATOM     16  O   UNL     1      -0.617   0.249  -4.141  1.00  0.00    -0.475 OA
ATOM     17  C   UNL     1      -0.228   2.702  -5.591  1.00  0.00     0.027 C 
ATOM     18  C   UNL     1      -0.507   0.204  -5.590  1.00  0.00     0.316 C 
BRANCH   9  19
ATOM     19  C   UNL     1       0.652   2.316   0.113  1.00  0.00     0.037 C 
BRANCH  19  20
ATOM     20  C   UNL     1       0.333   1.023   0.877  1.00  0.00     0.001 C 
ATOM     21  C   UNL     1       1.313  -0.117   0.623  1.00  0.00     0.004 C 
ENDBRANCH  19  20
ENDBRANCH   9  19
BRANCH  18  22
ATOM     22  C   UNL     1       0.627  -0.750  -5.986  1.00  0.00     0.430 C 
ATOM     23  F   UNL     1       0.516  -1.941  -5.352  1.00  0.00    -0.167 F 
ATOM     24  F   UNL     1       0.612  -1.013  -7.314  1.00  0.00    -0.167 F 
ATOM     25  F   UNL     1       1.845  -0.242  -5.689  1.00  0.00    -0.167 F 
ENDBRANCH  18  22
ENDBRANCH   6   8
ENDBRANCH   5   6
ENDBRANCH   4   5
ENDBRANCH   3   4
ENDBRANCH   2   3
ENDBRANCH   1   2
BRANCH   1  26
ATOM     26  C   UNL     1      -3.939   1.694  -6.867  1.00  0.00     0.188 C 
BRANCH  26  27
ATOM     27  O   UNL     1      -4.518   0.476  -7.290  1.00  0.00    -0.376 OA
BRANCH  27  28
ATOM     28  C   UNL     1      -5.682   0.501  -8.103  1.00  0.00     0.202 C 
BRANCH  28  29
ATOM     29  C   UNL     1      -6.886   1.378  -7.745  1.00  0.00     0.261 C 
BRANCH  29  30
ATOM     30  O   UNL     1      -6.567   2.755  -7.505  1.00  0.00    -0.460 OA
BRANCH  30  31
ATOM     31  C   UNL     1      -6.795   3.190  -6.241  1.00  0.00     0.338 C 
ATOM     32  O   UNL     1      -7.244   2.548  -5.305  1.00  0.00    -0.246 OA
BRANCH  31  33
ATOM     33  C   UNL     1      -6.225   4.542  -6.088  1.00  0.00     0.060 A 
ATOM     34  C   UNL     1      -6.597   5.577  -6.945  1.00  0.00     0.016 A 
ATOM     35  C   UNL     1      -5.309   4.767  -5.051  1.00  0.00     0.016 A 
ATOM     36  C   UNL     1      -6.070   6.854  -6.742  1.00  0.00     0.010 A 
ATOM     37  C   UNL     1      -4.774   6.041  -4.857  1.00  0.00     0.010 A 
ATOM     38  C   UNL     1      -5.170   7.098  -5.688  1.00  0.00    -0.014 A 
BRANCH  38  39
ATOM     39  C   UNL     1      -4.777   8.491  -5.372  1.00  0.00     0.031 A 
ATOM     40  C   UNL     1      -3.458   9.058  -5.797  1.00  0.00     0.074 A 
ATOM     41  C   UNL     1      -5.653   9.254  -4.693  1.00  0.00     0.049 A 
ATOM     42  N   UNL     1      -3.033  10.294  -5.717  1.00  0.00    -0.248 NA
ATOM     43  C   UNL     1      -2.489   8.120  -6.378  1.00  0.00     0.031 C 
ATOM     44  C   UNL     1      -6.949   8.797  -4.187  1.00  0.00     0.029 A 
ATOM     45  N   UNL     1      -5.594  10.572  -4.322  1.00  0.00    -0.354 N 
ATOM     46  C   UNL     1      -1.758  10.293  -6.265  1.00  0.00     0.074 A 
ATOM     47  C   UNL     1      -1.458   8.920  -6.622  1.00  0.00     0.031 C 
ATOM     48  C   UNL     1      -7.576   9.826  -3.598  1.00  0.00     0.029 A 
ATOM     49  C   UNL     1      -6.723  11.008  -3.674  1.00  0.00     0.049 A 
ATOM     50  H   UNL     1      -4.818  11.150  -4.503  1.00  0.00     0.167 HD
ATOM     51  C   UNL     1      -0.928  11.345  -6.469  1.00  0.00     0.037 A 
ATOM     52  C   UNL     1      -7.041  12.228  -3.205  1.00  0.00     0.037 A 
ATOM     53  C   UNL     1      -1.222  12.704  -6.083  1.00  0.00     0.049 A 
ATOM     54  C   UNL     1      -6.080  13.366  -3.403  1.00  0.00     0.074 A 
ATOM     55  C   UNL     1      -0.464  13.845  -6.291  1.00  0.00     0.029 A 
ATOM     56  N   UNL     1      -2.356  13.104  -5.390  1.00  0.00    -0.354 N 
ATOM     57  N   UNL     1      -4.925  13.376  -4.022  1.00  0.00    -0.248 NA
ATOM     58  C   UNL     1      -6.476  14.666  -2.845  1.00  0.00     0.031 C 
ATOM     59  C   UNL     1      -1.114  14.924  -5.679  1.00  0.00     0.029 A 
ATOM     60  C   UNL     1      -2.301  14.465  -5.132  1.00  0.00     0.049 A 
ATOM     61  H   UNL     1      -3.091  12.508  -5.121  1.00  0.00     0.167 HD
ATOM     62  C   UNL     1      -4.466  14.684  -3.947  1.00  0.00     0.074 A 
ATOM     63  C   UNL     1      -5.479  15.443  -3.243  1.00  0.00     0.031 C 
ATOM     64  C   UNL     1      -3.310  15.209  -4.420  1.00  0.00     0.037 A 
BRANCH  51  65
ATOM     65  C   UNL     1       0.382  11.069  -7.147  1.00  0.00     0.057 A 
ATOM     66  C   UNL     1       1.592  11.175  -6.451  1.00  0.00     0.134 A 
ATOM     67  C   UNL     1       0.448  10.744  -8.509  1.00  0.00     0.134 A 
ATOM     68  F   UNL     1       1.603  11.495  -5.148  1.00  0.00    -0.206 F 
ATOM     69  C   UNL     1       2.820  10.966  -7.083  1.00  0.00     0.040 A 
ATOM     70  C   UNL     1       1.667  10.509  -9.147  1.00  0.00     0.040 A 
ATOM     71  F   UNL     1      -0.675  10.623  -9.233  1.00  0.00    -0.206 F 
ATOM     72  C   UNL     1       2.858  10.626  -8.434  1.00  0.00     0.006 A 
ENDBRANCH  51  65
BRANCH  52  73
ATOM     73  C   UNL     1      -8.343  12.448  -2.531  1.00  0.00     0.057 A 
ATOM     74  C   UNL     1      -8.606  11.916  -1.264  1.00  0.00     0.134 A 
ATOM     75  C   UNL     1      -9.348  13.213  -3.134  1.00  0.00     0.134 A 
ATOM     76  F   UNL     1      -7.685  11.168  -0.639  1.00  0.00    -0.206 F 
ATOM     77  C   UNL     1      -9.822  12.138  -0.618  1.00  0.00     0.040 A 
ATOM     78  C   UNL     1     -10.559  13.464  -2.490  1.00  0.00     0.040 A 
ATOM     79  F   UNL     1      -9.146  13.761  -4.342  1.00  0.00    -0.206 F 
ATOM     80  C   UNL     1     -10.800  12.922  -1.228  1.00  0.00     0.006 A 
ENDBRANCH  52  73
BRANCH  64  81
ATOM     81  C   UNL     1      -3.092  16.678  -4.199  1.00  0.00     0.057 A 
ATOM     82  C   UNL     1      -3.155  17.582  -5.267  1.00  0.00     0.134 A 
ATOM     83  C   UNL     1      -2.815  17.200  -2.928  1.00  0.00     0.134 A 
ATOM     84  F   UNL     1      -3.411  17.149  -6.511  1.00  0.00    -0.206 F 
ATOM     85  C   UNL     1      -2.953  18.950  -5.080  1.00  0.00     0.040 A 
ATOM     86  C   UNL     1      -2.639  18.570  -2.723  1.00  0.00     0.040 A 
ATOM     87  F   UNL     1      -2.759  16.392  -1.859  1.00  0.00    -0.206 F 
ATOM     88  C   UNL     1      -2.703  19.448  -3.803  1.00  0.00     0.006 A 
ENDBRANCH  64  81
ENDBRANCH  38  39
ENDBRANCH  31  33
ENDBRANCH  30  31
ENDBRANCH  29  30
ENDBRANCH  28  29
ENDBRANCH  27  28
ENDBRANCH  26  27
ENDBRANCH   1  26
TORSDOF 20
