REMARK SMILES Cc1cc(OC(F)F)ccc1NC(=O)[C@@H]1CCCC[C@@H]1C(=O)OCCOCCOCCOC(=O)c1ccc(-c2c3nc(c(-c4c(F)cccc4F)c4ccc([nH]4)c(-c4c(F)cccc4F)c4nc(c(-c5c(F)cccc5F)c5ccc2[nH]5)C=C4)C=C3)cc1
REMARK SMILES IDX 27 1 26 2 25 3 24 4 23 5 21 6 22 7 20 8 15 9 16 10 17 11
REMARK SMILES IDX 19 12 18 13 13 14 12 15 14 17 11 18 1 19 2 20 3 21 4 22
REMARK SMILES IDX 10 23 9 24 5 25 6 26 7 27 8 28 28 29 29 30 30 31 31 32 32 33
REMARK SMILES IDX 33 34 34 35 35 36 36 37 88 38 37 39 87 40 38 41 39 42 40 43
REMARK SMILES IDX 81 44 41 45 86 46 80 47 82 48 42 49 85 50 79 51 78 52 43 54
REMARK SMILES IDX 69 55 52 56 68 57 53 58 56 59 67 60 83 61 54 62 55 63 66 65
REMARK SMILES IDX 84 66 57 67 44 68 45 69 50 70 46 71 47 72 49 73 51 74 48 75
REMARK SMILES IDX 70 76 71 77 76 78 72 79 73 80 75 81 77 82 74 83 58 84 59 85
REMARK SMILES IDX 64 86 60 87 61 88 63 89 65 90 62 91
REMARK H PARENT 12 16 82 53 56 64
REMARK Flexibility Score: inf
ROOT
ATOM      1  C   UNL     1       0.126   5.675   5.287  1.00  0.00     0.188 C 
ENDROOT
BRANCH   1   2
ATOM      2  O   UNL     1       1.036   4.906   6.036  1.00  0.00    -0.376 OA
BRANCH   2   3
ATOM      3  C   UNL     1       0.968   3.533   5.658  1.00  0.00     0.202 C 
BRANCH   3   4
ATOM      4  C   UNL     1       0.690   3.207   4.149  1.00  0.00     0.261 C 
BRANCH   4   5
ATOM      5  O   UNL     1      -0.687   3.937   3.278  1.00  0.00    -0.463 OA
BRANCH   5   6
ATOM      6  C   UNL     1      -1.899   4.057   2.462  1.00  0.00     0.309 C 
ATOM      7  O   UNL     1      -2.488   5.123   2.653  1.00  0.00    -0.252 OA
BRANCH   6   8
ATOM      8  C   UNL     1      -2.490   3.087   1.144  1.00  0.00     0.111 C 
ATOM      9  C   UNL     1      -2.303   3.632  -0.394  1.00  0.00     0.093 C 
ATOM     10  C   UNL     1      -2.929   5.042  -0.402  1.00  0.00     0.014 C 
ATOM     11  C   UNL     1      -4.431   4.983  -0.097  1.00  0.00     0.001 C 
ATOM     12  C   UNL     1      -4.019   2.826   1.242  1.00  0.00     0.016 C 
ATOM     13  C   UNL     1      -4.837   4.089   1.071  1.00  0.00     0.001 C 
BRANCH   9  14
ATOM     14  C   UNL     1      -0.884   3.560  -1.304  1.00  0.00     0.228 C 
ATOM     15  N   UNL     1       0.068   2.514  -1.211  1.00  0.00    -0.326 N 
ATOM     16  H   UNL     1       0.987   2.693  -1.514  1.00  0.00     0.169 HD
ATOM     17  O   UNL     1      -0.613   4.499  -2.063  1.00  0.00    -0.274 OA
BRANCH  15  18
ATOM     18  C   UNL     1      -0.228   1.248  -0.712  1.00  0.00     0.044 A 
ATOM     19  C   UNL     1       2.240   0.158   0.129  1.00  0.00     0.047 C 
ATOM     20  C   UNL     1       0.699  -0.013   0.187  1.00  0.00    -0.024 A 
ATOM     21  C   UNL     1      -0.690  -1.542   0.592  1.00  0.00     0.052 A 
ATOM     22  C   UNL     1      -2.256  -1.474   0.082  1.00  0.00     0.126 A 
ATOM     23  C   UNL     1      -1.812   0.925  -1.076  1.00  0.00     0.030 A 
ATOM     24  C   UNL     1      -2.720  -0.288  -0.685  1.00  0.00     0.049 A 
BRANCH  22  25
ATOM     25  O   UNL     1      -2.895  -2.678   0.194  1.00  0.00    -0.435 OA
BRANCH  25  26
ATOM     26  C   UNL     1      -4.250  -2.721  -0.216  1.00  0.00     0.542 C 
ATOM     27  F   UNL     1      -4.954  -1.798   0.472  1.00  0.00    -0.167 F 
ATOM     28  F   UNL     1      -4.351  -2.439  -1.537  1.00  0.00    -0.167 F 
ENDBRANCH  25  26
ENDBRANCH  22  25
ENDBRANCH  15  18
ENDBRANCH   9  14
ENDBRANCH   6   8
ENDBRANCH   5   6
ENDBRANCH   4   5
ENDBRANCH   3   4
ENDBRANCH   2   3
ENDBRANCH   1   2
BRANCH   1  29
ATOM     29  C   UNL     1       0.765   6.555   4.250  1.00  0.00     0.188 C 
BRANCH  29  30
ATOM     30  O   UNL     1       1.688   5.757   3.534  1.00  0.00    -0.376 OA
BRANCH  30  31
ATOM     31  C   UNL     1       3.038   5.796   3.966  1.00  0.00     0.202 C 
BRANCH  31  32
ATOM     32  C   UNL     1       3.663   7.022   3.333  1.00  0.00     0.261 C 
BRANCH  32  33
ATOM     33  O   UNL     1       3.806   6.816   1.898  1.00  0.00    -0.460 OA
BRANCH  33  34
ATOM     34  C   UNL     1       2.659   6.768   1.173  1.00  0.00     0.338 C 
ATOM     35  O   UNL     1       2.017   7.763   0.858  1.00  0.00    -0.246 OA
BRANCH  34  36
ATOM     36  C   UNL     1       2.183   5.355   0.926  1.00  0.00     0.060 A 
ATOM     37  C   UNL     1       0.854   5.284   0.712  1.00  0.00     0.016 A 
ATOM     38  C   UNL     1       2.799   4.121   1.221  1.00  0.00     0.016 A 
ATOM     39  C   UNL     1       0.207   4.073   1.004  1.00  0.00     0.010 A 
ATOM     40  C   UNL     1       2.039   2.882   1.512  1.00  0.00     0.010 A 
ATOM     41  C   UNL     1       0.633   2.795   1.465  1.00  0.00    -0.014 A 
BRANCH  41  42
ATOM     42  C   UNL     1      -0.392   1.496   2.090  1.00  0.00     0.031 A 
ATOM     43  C   UNL     1      -0.821   0.127   0.973  1.00  0.00     0.074 A 
ATOM     44  C   UNL     1      -1.148   1.401   3.357  1.00  0.00     0.049 A 
ATOM     45  N   UNL     1       0.252  -0.597   2.059  1.00  0.00    -0.248 NA
ATOM     46  C   UNL     1      -0.276  -0.877  -0.960  1.00  0.00     0.031 C 
ATOM     47  C   UNL     1      -1.079   0.327   4.401  1.00  0.00     0.029 A 
ATOM     48  N   UNL     1      -1.742   2.340   4.258  1.00  0.00    -0.354 N 
ATOM     49  C   UNL     1       1.133  -1.912   1.429  1.00  0.00     0.074 A 
ATOM     50  C   UNL     1       0.934  -1.960  -0.481  1.00  0.00     0.031 C 
ATOM     51  C   UNL     1      -1.746   0.637   5.556  1.00  0.00     0.029 A 
ATOM     52  C   UNL     1      -2.321   1.966   5.446  1.00  0.00     0.049 A 
ATOM     53  H   UNL     1      -1.736   3.294   4.016  1.00  0.00     0.167 HD
ATOM     54  C   UNL     1       0.878  -3.050   2.220  1.00  0.00     0.037 A 
ATOM     55  C   UNL     1      -3.589   2.438   5.668  1.00  0.00     0.037 A 
ATOM     56  C   UNL     1      -0.313  -2.937   3.252  1.00  0.00     0.049 A 
ATOM     57  C   UNL     1      -4.411   1.341   5.021  1.00  0.00     0.074 A 
ATOM     58  C   UNL     1      -0.410  -2.985   4.638  1.00  0.00     0.029 A 
ATOM     59  N   UNL     1      -1.692  -2.688   2.896  1.00  0.00    -0.354 N 
ATOM     60  N   UNL     1      -3.893   0.502   4.150  1.00  0.00    -0.248 NA
ATOM     61  C   UNL     1      -5.707   0.917   5.511  1.00  0.00     0.031 C 
ATOM     62  C   UNL     1      -1.761  -2.622   5.053  1.00  0.00     0.029 A 
ATOM     63  C   UNL     1      -2.549  -2.291   3.948  1.00  0.00     0.049 A 
ATOM     64  H   UNL     1      -2.017  -2.790   1.972  1.00  0.00     0.167 HD
ATOM     65  C   UNL     1      -4.519  -0.693   4.264  1.00  0.00     0.074 A 
ATOM     66  C   UNL     1      -5.722  -0.345   5.043  1.00  0.00     0.031 C 
ATOM     67  C   UNL     1      -4.029  -1.896   3.797  1.00  0.00     0.037 A 
BRANCH  54  68
ATOM     68  C   UNL     1       1.655  -4.301   1.895  1.00  0.00     0.057 A 
ATOM     69  C   UNL     1       1.447  -5.493   2.598  1.00  0.00     0.134 A 
ATOM     70  C   UNL     1       2.683  -4.363   0.922  1.00  0.00     0.134 A 
ATOM     71  F   UNL     1       0.557  -5.562   3.597  1.00  0.00    -0.206 F 
ATOM     72  C   UNL     1       2.172  -6.663   2.328  1.00  0.00     0.040 A 
ATOM     73  C   UNL     1       3.361  -5.542   0.591  1.00  0.00     0.040 A 
ATOM     74  F   UNL     1       3.119  -3.268   0.282  1.00  0.00    -0.206 F 
ATOM     75  C   UNL     1       3.112  -6.701   1.304  1.00  0.00     0.006 A 
ENDBRANCH  54  68
BRANCH  55  76
ATOM     76  C   UNL     1      -3.810   3.957   5.625  1.00  0.00     0.057 A 
ATOM     77  C   UNL     1      -3.067   4.807   6.475  1.00  0.00     0.134 A 
ATOM     78  C   UNL     1      -4.553   4.652   4.668  1.00  0.00     0.134 A 
ATOM     79  F   UNL     1      -2.405   4.294   7.524  1.00  0.00    -0.206 F 
ATOM     80  C   UNL     1      -2.892   6.191   6.240  1.00  0.00     0.040 A 
ATOM     81  C   UNL     1      -4.314   6.022   4.364  1.00  0.00     0.040 A 
ATOM     82  F   UNL     1      -5.470   4.004   3.939  1.00  0.00    -0.206 F 
ATOM     83  C   UNL     1      -3.394   6.767   5.088  1.00  0.00     0.006 A 
ENDBRANCH  55  76
BRANCH  67  84
ATOM     84  C   UNL     1      -5.078  -2.885   3.351  1.00  0.00     0.057 A 
ATOM     85  C   UNL     1      -6.426  -2.550   3.064  1.00  0.00     0.134 A 
ATOM     86  C   UNL     1      -4.735  -4.210   3.068  1.00  0.00     0.134 A 
ATOM     87  F   UNL     1      -6.863  -1.281   3.030  1.00  0.00    -0.206 F 
ATOM     88  C   UNL     1      -7.390  -3.498   2.731  1.00  0.00     0.040 A 
ATOM     89  C   UNL     1      -5.674  -5.152   2.647  1.00  0.00     0.040 A 
ATOM     90  F   UNL     1      -3.468  -4.636   3.110  1.00  0.00    -0.206 F 
ATOM     91  C   UNL     1      -7.013  -4.811   2.524  1.00  0.00     0.006 A 
ENDBRANCH  67  84
ENDBRANCH  41  42
ENDBRANCH  34  36
ENDBRANCH  33  34
ENDBRANCH  32  33
ENDBRANCH  31  32
ENDBRANCH  30  31
ENDBRANCH  29  30
ENDBRANCH   1  29
TORSDOF 21
