REMARK SMILES C[C@H](NC(=O)N(CC(=O)OCCOCCOCCOC(=O)c1ccc(-c2c3nc(c(-c4c(F)cccc4F)c4ccc([nH]4)c(-c4c(F)cccc4F)c4nc(c(-c5c(F)cccc5F)c5ccc2[nH]5)C=C4)C=C3)cc1)C(C)(C)C)c1ccccc1
REMARK SMILES IDX 14 1 13 2 12 3 11 4 10 5 8 6 9 7 7 8 6 9 4 10 3 11 5 13 2 14
REMARK SMILES IDX 1 15 80 16 81 17 85 18 82 19 84 20 83 21 76 22 77 23 78 24
REMARK SMILES IDX 79 25 15 26 16 27 17 28 18 29 19 30 20 31 21 32 22 33 23 34
REMARK SMILES IDX 75 35 24 36 74 37 25 38 26 39 27 40 68 41 28 42 73 43 67 44
REMARK SMILES IDX 69 45 29 46 72 47 66 48 65 49 30 51 56 52 39 53 55 54 40 55
REMARK SMILES IDX 43 56 54 57 70 58 41 59 42 60 53 62 71 63 44 64 31 65 32 66
REMARK SMILES IDX 37 67 33 68 34 69 36 70 38 71 35 72 57 73 58 74 63 75 59 76
REMARK SMILES IDX 60 77 62 78 64 79 61 80 45 81 46 82 51 83 47 84 48 85 50 86
REMARK SMILES IDX 52 87 49 88
REMARK H PARENT 3 12 69 50 43 61
REMARK Flexibility Score: inf
ROOT
ATOM      1  C   UNL     1      -1.008   3.221   5.200  1.00  0.00     0.188 C 
ENDROOT
BRANCH   1   2
ATOM      2  O   UNL     1      -2.370   3.257   4.779  1.00  0.00    -0.376 OA
BRANCH   2   3
ATOM      3  C   UNL     1      -2.957   2.054   4.304  1.00  0.00     0.202 C 
BRANCH   3   4
ATOM      4  C   UNL     1      -2.659   1.698   2.842  1.00  0.00     0.261 C 
BRANCH   4   5
ATOM      5  O   UNL     1      -1.257   1.580   2.508  1.00  0.00    -0.462 OA
BRANCH   5   6
ATOM      6  C   UNL     1      -0.743   2.656   1.862  1.00  0.00     0.325 C 
ATOM      7  O   UNL     1      -1.331   3.729   1.727  1.00  0.00    -0.250 OA
BRANCH   6   8
ATOM      8  C   UNL     1       0.671   2.480   1.297  1.00  0.00     0.244 C 
BRANCH   8   9
ATOM      9  N   UNL     1       1.464   1.232   1.392  1.00  0.00    -0.309 N 
BRANCH   9  10
ATOM     10  C   UNL     1       1.337   0.155   0.551  1.00  0.00     0.318 C 
ATOM     11  N   UNL     1       0.847   0.215  -0.692  1.00  0.00    -0.331 N 
ATOM     12  H   UNL     1       0.909  -0.664  -1.130  1.00  0.00     0.165 HD
ATOM     13  O   UNL     1       1.747  -0.971   0.850  1.00  0.00    -0.249 OA
BRANCH  11  14
ATOM     14  C   UNL     1       0.248   1.191  -1.590  1.00  0.00     0.111 C 
ATOM     15  C   UNL     1       0.547   0.828  -3.045  1.00  0.00     0.036 C 
BRANCH  14  16
ATOM     16  C   UNL     1      -1.244   1.272  -1.336  1.00  0.00    -0.026 A 
ATOM     17  C   UNL     1      -1.903   2.508  -1.344  1.00  0.00     0.006 A 
ATOM     18  C   UNL     1      -1.994   0.114  -1.057  1.00  0.00     0.006 A 
ATOM     19  C   UNL     1      -3.264   2.587  -1.038  1.00  0.00     0.000 A 
ATOM     20  C   UNL     1      -3.353   0.194  -0.756  1.00  0.00     0.000 A 
ATOM     21  C   UNL     1      -3.986   1.432  -0.740  1.00  0.00     0.000 A 
ENDBRANCH  14  16
ENDBRANCH  11  14
ENDBRANCH   9  10
BRANCH   9  22
ATOM     22  C   UNL     1       2.519   1.111   2.471  1.00  0.00     0.037 C 
ATOM     23  C   UNL     1       2.186  -0.003   3.490  1.00  0.00     0.034 C 
ATOM     24  C   UNL     1       3.904   0.835   1.831  1.00  0.00     0.034 C 
ATOM     25  C   UNL     1       2.712   2.403   3.279  1.00  0.00     0.034 C 
ENDBRANCH   9  22
ENDBRANCH   8   9
ENDBRANCH   6   8
ENDBRANCH   5   6
ENDBRANCH   4   5
ENDBRANCH   3   4
ENDBRANCH   2   3
ENDBRANCH   1   2
BRANCH   1  26
ATOM     26  C   UNL     1      -0.397   1.875   5.596  1.00  0.00     0.188 C 
BRANCH  26  27
ATOM     27  O   UNL     1      -1.002   1.374   6.788  1.00  0.00    -0.376 OA
BRANCH  27  28
ATOM     28  C   UNL     1      -0.072   0.651   7.596  1.00  0.00     0.202 C 
BRANCH  28  29
ATOM     29  C   UNL     1       0.430   1.535   8.742  1.00  0.00     0.261 C 
BRANCH  29  30
ATOM     30  O   UNL     1       0.908   2.827   8.309  1.00  0.00    -0.460 OA
BRANCH  30  31
ATOM     31  C   UNL     1       2.194   2.876   7.911  1.00  0.00     0.338 C 
ATOM     32  O   UNL     1       2.975   1.940   7.824  1.00  0.00    -0.246 OA
BRANCH  31  33
ATOM     33  C   UNL     1       2.520   4.241   7.459  1.00  0.00     0.060 A 
ATOM     34  C   UNL     1       2.603   4.471   6.088  1.00  0.00     0.016 A 
ATOM     35  C   UNL     1       2.877   5.246   8.352  1.00  0.00     0.016 A 
ATOM     36  C   UNL     1       3.118   5.665   5.586  1.00  0.00     0.010 A 
ATOM     37  C   UNL     1       3.362   6.465   7.852  1.00  0.00     0.010 A 
ATOM     38  C   UNL     1       3.528   6.670   6.466  1.00  0.00    -0.014 A 
BRANCH  38  39
ATOM     39  C   UNL     1       4.263   7.865   5.965  1.00  0.00     0.031 A 
ATOM     40  C   UNL     1       5.702   8.055   6.367  1.00  0.00     0.074 A 
ATOM     41  C   UNL     1       3.696   8.759   5.132  1.00  0.00     0.049 A 
ATOM     42  N   UNL     1       6.459   9.117   6.276  1.00  0.00    -0.248 NA
ATOM     43  C   UNL     1       6.373   6.885   6.956  1.00  0.00     0.031 C 
ATOM     44  C   UNL     1       2.355   8.660   4.558  1.00  0.00     0.029 A 
ATOM     45  N   UNL     1       4.189   9.939   4.627  1.00  0.00    -0.354 N 
ATOM     46  C   UNL     1       7.670   8.768   6.861  1.00  0.00     0.074 A 
ATOM     47  C   UNL     1       7.554   7.388   7.284  1.00  0.00     0.031 C 
ATOM     48  C   UNL     1       2.135   9.730   3.775  1.00  0.00     0.029 A 
ATOM     49  C   UNL     1       3.284  10.627   3.856  1.00  0.00     0.049 A 
ATOM     50  H   UNL     1       5.104  10.260   4.802  1.00  0.00     0.167 HD
ATOM     51  C   UNL     1       8.774   9.532   7.041  1.00  0.00     0.037 A 
ATOM     52  C   UNL     1       3.351  11.863   3.322  1.00  0.00     0.037 A 
ATOM     53  C   UNL     1       8.911  10.883   6.567  1.00  0.00     0.049 A 
ATOM     54  C   UNL     1       4.562  12.719   3.576  1.00  0.00     0.074 A 
ATOM     55  C   UNL     1       9.979  11.750   6.719  1.00  0.00     0.029 A 
ATOM     56  N   UNL     1       7.953  11.555   5.824  1.00  0.00    -0.354 N 
ATOM     57  N   UNL     1       5.658  12.427   4.234  1.00  0.00    -0.248 NA
ATOM     58  C   UNL     1       4.532  14.088   3.040  1.00  0.00     0.031 C 
ATOM     59  C   UNL     1       9.659  12.955   6.084  1.00  0.00     0.029 A 
ATOM     60  C   UNL     1       8.404  12.826   5.511  1.00  0.00     0.049 A 
ATOM     61  H   UNL     1       7.082  11.183   5.557  1.00  0.00     0.167 HD
ATOM     62  C   UNL     1       6.446  13.570   4.187  1.00  0.00     0.074 A 
ATOM     63  C   UNL     1       5.714  14.555   3.419  1.00  0.00     0.031 C 
ATOM     64  C   UNL     1       7.664  13.789   4.740  1.00  0.00     0.037 A 
BRANCH  51  65
ATOM     65  C   UNL     1       9.899   8.937   7.830  1.00  0.00     0.057 A 
ATOM     66  C   UNL     1      10.763   7.976   7.294  1.00  0.00     0.134 A 
ATOM     67  C   UNL     1      10.126   9.348   9.151  1.00  0.00     0.134 A 
ATOM     68  F   UNL     1      10.587   7.527   6.042  1.00  0.00    -0.206 F 
ATOM     69  C   UNL     1      11.803   7.429   8.050  1.00  0.00     0.040 A 
ATOM     70  C   UNL     1      11.173   8.825   9.909  1.00  0.00     0.040 A 
ATOM     71  F   UNL     1       9.333  10.267   9.723  1.00  0.00    -0.206 F 
ATOM     72  C   UNL     1      12.012   7.858   9.360  1.00  0.00     0.006 A 
ENDBRANCH  51  65
BRANCH  52  73
ATOM     73  C   UNL     1       2.203  12.400   2.547  1.00  0.00     0.057 A 
ATOM     74  C   UNL     1       2.297  12.613   1.168  1.00  0.00     0.134 A 
ATOM     75  C   UNL     1       0.994  12.731   3.171  1.00  0.00     0.134 A 
ATOM     76  F   UNL     1       3.440  12.346   0.520  1.00  0.00    -0.206 F 
ATOM     77  C   UNL     1       1.230  13.139   0.436  1.00  0.00     0.040 A 
ATOM     78  C   UNL     1      -0.088  13.234   2.448  1.00  0.00     0.040 A 
ATOM     79  F   UNL     1       0.844  12.559   4.493  1.00  0.00    -0.206 F 
ATOM     80  C   UNL     1       0.030  13.444   1.076  1.00  0.00     0.006 A 
ENDBRANCH  52  73
BRANCH  64  81
ATOM     81  C   UNL     1       8.287  15.133   4.514  1.00  0.00     0.057 A 
ATOM     82  C   UNL     1       7.868  16.265   5.222  1.00  0.00     0.134 A 
ATOM     83  C   UNL     1       9.342  15.287   3.606  1.00  0.00     0.134 A 
ATOM     84  F   UNL     1       6.853  16.182   6.096  1.00  0.00    -0.206 F 
ATOM     85  C   UNL     1       8.467  17.510   5.024  1.00  0.00     0.040 A 
ATOM     86  C   UNL     1       9.961  16.523   3.413  1.00  0.00     0.040 A 
ATOM     87  F   UNL     1       9.793  14.239   2.901  1.00  0.00    -0.206 F 
ATOM     88  C   UNL     1       9.520  17.640   4.121  1.00  0.00     0.006 A 
ENDBRANCH  64  81
ENDBRANCH  38  39
ENDBRANCH  31  33
ENDBRANCH  30  31
ENDBRANCH  29  30
ENDBRANCH  28  29
ENDBRANCH  27  28
ENDBRANCH  26  27
ENDBRANCH   1  26
TORSDOF 22
