REMARK SMILES Cc1cc(N2CC[C@H](CC(=O)OCCOCCOCCOC(=O)c3ccc(-c4c5nc(c(-c6c(F)cccc6F)c6ccc([nH]6)c(-c6c(F)cccc6F)c6nc(c(-c7c(F)cccc7F)c7ccc4[nH]7)C=C6)C=C5)cc3)C2)ncc1[N+](=O)[O-]
REMARK SMILES IDX 16 1 15 2 14 3 13 4 12 5 10 6 11 7 9 8 8 9 5 10 6 11 78 12
REMARK SMILES IDX 7 13 4 14 1 15 2 16 3 17 81 18 80 19 79 20 82 21 83 22 84 23
REMARK SMILES IDX 17 24 18 25 19 26 20 27 21 28 22 29 23 30 24 31 25 32 77 33
REMARK SMILES IDX 26 34 76 35 27 36 28 37 29 38 70 39 30 40 75 41 69 42 71 43
REMARK SMILES IDX 31 44 74 45 68 46 67 47 32 49 58 50 41 51 57 52 42 53 45 54
REMARK SMILES IDX 56 55 72 56 43 57 44 58 55 60 73 61 46 62 33 63 34 64 39 65
REMARK SMILES IDX 35 66 36 67 38 68 40 69 37 70 59 71 60 72 65 73 61 74 62 75
REMARK SMILES IDX 64 76 66 77 63 78 47 79 48 80 53 81 49 82 50 83 52 84 54 85
REMARK SMILES IDX 51 86
REMARK H PARENT 71 48 45 59
REMARK Flexibility Score: inf
ROOT
ATOM      1  C   UNL     1       5.003   7.668   1.151  1.00  0.00     0.188 C 
ENDROOT
BRANCH   1   2
ATOM      2  O   UNL     1       6.391   7.965   1.262  1.00  0.00    -0.376 OA
BRANCH   2   3
ATOM      3  C   UNL     1       7.289   7.084   0.586  1.00  0.00     0.202 C 
BRANCH   3   4
ATOM      4  C   UNL     1       7.284   5.616   1.045  1.00  0.00     0.261 C 
BRANCH   4   5
ATOM      5  O   UNL     1       5.983   4.986   1.019  1.00  0.00    -0.463 OA
BRANCH   5   6
ATOM      6  C   UNL     1       5.532   4.509   2.208  1.00  0.00     0.306 C 
ATOM      7  O   UNL     1       6.174   4.527   3.254  1.00  0.00    -0.252 OA
BRANCH   6   8
ATOM      8  C   UNL     1       4.093   4.028   2.196  1.00  0.00     0.128 C 
BRANCH   8   9
ATOM      9  C   UNL     1       3.341   3.849   0.877  1.00  0.00     0.021 C 
ATOM     10  N   UNL     1       1.716   2.434  -0.150  1.00  0.00    -0.356 N 
ATOM     11  C   UNL     1       2.880   2.487  -1.032  1.00  0.00     0.118 C 
ATOM     12  C   UNL     1       1.986   3.135   1.106  1.00  0.00     0.122 C 
ATOM     13  C   UNL     1       4.026   2.933  -0.131  1.00  0.00     0.027 C 
BRANCH  10  14
ATOM     14  C   UNL     1       1.041   1.227  -0.050  1.00  0.00     0.129 A 
ATOM     15  C   UNL     1      -2.581   0.142   0.039  1.00  0.00     0.052 C 
ATOM     16  C   UNL     1      -1.084   0.010   0.050  1.00  0.00     0.032 A 
ATOM     17  C   UNL     1      -0.352   1.220   0.033  1.00  0.00     0.057 A 
ATOM     18  C   UNL     1      -0.343  -1.180   0.055  1.00  0.00     0.290 A 
ATOM     19  C   UNL     1       1.045  -1.091  -0.000  1.00  0.00     0.199 A 
ATOM     20  N   UNL     1       1.737   0.075  -0.062  1.00  0.00    -0.232 NA
BRANCH  18  21
ATOM     21  N   UNL     1      -0.915  -2.526   0.115  1.00  0.00     0.064 N 
ATOM     22  O   UNL     1      -0.184  -3.473  -0.214  1.00  0.00    -0.258 OA
ATOM     23  O   UNL     1      -2.077  -2.663   0.515  1.00  0.00    -0.258 OA
ENDBRANCH  18  21
ENDBRANCH  10  14
ENDBRANCH   8   9
ENDBRANCH   6   8
ENDBRANCH   5   6
ENDBRANCH   4   5
ENDBRANCH   3   4
ENDBRANCH   2   3
ENDBRANCH   1   2
BRANCH   1  24
ATOM     24  C   UNL     1       4.446   7.606  -0.272  1.00  0.00     0.188 C 
BRANCH  24  25
ATOM     25  O   UNL     1       5.190   6.821  -1.190  1.00  0.00    -0.376 OA
BRANCH  25  26
ATOM     26  C   UNL     1       4.809   6.892  -2.567  1.00  0.00     0.202 C 
BRANCH  26  27
ATOM     27  C   UNL     1       4.576   8.289  -3.188  1.00  0.00     0.261 C 
BRANCH  27  28
ATOM     28  O   UNL     1       3.582   9.123  -2.549  1.00  0.00    -0.460 OA
BRANCH  28  29
ATOM     29  C   UNL     1       2.359   8.589  -2.329  1.00  0.00     0.338 C 
ATOM     30  O   UNL     1       1.920   7.565  -2.825  1.00  0.00    -0.246 OA
BRANCH  29  31
ATOM     31  C   UNL     1       1.725   9.288  -1.173  1.00  0.00     0.060 A 
ATOM     32  C   UNL     1       1.012   8.507  -0.251  1.00  0.00     0.016 A 
ATOM     33  C   UNL     1       1.872  10.660  -0.941  1.00  0.00     0.016 A 
ATOM     34  C   UNL     1       0.408   9.094   0.864  1.00  0.00     0.010 A 
ATOM     35  C   UNL     1       1.251  11.252   0.172  1.00  0.00     0.010 A 
ATOM     36  C   UNL     1       0.484  10.479   1.062  1.00  0.00    -0.014 A 
BRANCH  36  37
ATOM     37  C   UNL     1      -0.399  11.118   2.078  1.00  0.00     0.031 A 
ATOM     38  C   UNL     1      -1.690  11.747   1.615  1.00  0.00     0.074 A 
ATOM     39  C   UNL     1      -0.116  11.088   3.394  1.00  0.00     0.049 A 
ATOM     40  N   UNL     1      -2.630  12.333   2.313  1.00  0.00    -0.248 NA
ATOM     41  C   UNL     1      -1.955  11.702   0.169  1.00  0.00     0.031 C 
ATOM     42  C   UNL     1       1.070  10.481   3.994  1.00  0.00     0.029 A 
ATOM     43  N   UNL     1      -0.818  11.583   4.468  1.00  0.00    -0.354 N 
ATOM     44  C   UNL     1      -3.596  12.723   1.393  1.00  0.00     0.074 A 
ATOM     45  C   UNL     1      -3.111  12.343   0.085  1.00  0.00     0.031 C 
ATOM     46  C   UNL     1       1.015  10.642   5.328  1.00  0.00     0.029 A 
ATOM     47  C   UNL     1      -0.196  11.386   5.677  1.00  0.00     0.049 A 
ATOM     48  H   UNL     1      -1.687  12.038   4.378  1.00  0.00     0.167 HD
ATOM     49  C   UNL     1      -4.786  13.331   1.613  1.00  0.00     0.037 A 
ATOM     50  C   UNL     1      -0.552  11.773   6.920  1.00  0.00     0.037 A 
ATOM     51  C   UNL     1      -5.278  13.720   2.909  1.00  0.00     0.049 A 
ATOM     52  C   UNL     1      -1.844  12.525   7.129  1.00  0.00     0.074 A 
ATOM     53  C   UNL     1      -6.480  14.331   3.226  1.00  0.00     0.029 A 
ATOM     54  N   UNL     1      -4.593  13.546   4.101  1.00  0.00    -0.354 N 
ATOM     55  N   UNL     1      -2.762  12.860   6.255  1.00  0.00    -0.248 NA
ATOM     56  C   UNL     1      -2.151  12.947   8.505  1.00  0.00     0.031 C 
ATOM     57  C   UNL     1      -6.497  14.579   4.602  1.00  0.00     0.029 A 
ATOM     58  C   UNL     1      -5.334  14.065   5.152  1.00  0.00     0.049 A 
ATOM     59  H   UNL     1      -3.711  13.118   4.189  1.00  0.00     0.167 HD
ATOM     60  C   UNL     1      -3.764  13.499   6.978  1.00  0.00     0.074 A 
ATOM     61  C   UNL     1      -3.352  13.488   8.364  1.00  0.00     0.031 C 
ATOM     62  C   UNL     1      -4.922  14.048   6.532  1.00  0.00     0.037 A 
BRANCH  49  63
ATOM     63  C   UNL     1      -5.637  13.639   0.414  1.00  0.00     0.057 A 
ATOM     64  C   UNL     1      -6.285  12.632  -0.314  1.00  0.00     0.134 A 
ATOM     65  C   UNL     1      -5.841  14.964   0.006  1.00  0.00     0.134 A 
ATOM     66  F   UNL     1      -6.119  11.342   0.013  1.00  0.00    -0.206 F 
ATOM     67  C   UNL     1      -7.088  12.931  -1.417  1.00  0.00     0.040 A 
ATOM     68  C   UNL     1      -6.664  15.277  -1.076  1.00  0.00     0.040 A 
ATOM     69  F   UNL     1      -5.253  15.976   0.662  1.00  0.00    -0.206 F 
ATOM     70  C   UNL     1      -7.286  14.258  -1.794  1.00  0.00     0.006 A 
ENDBRANCH  49  63
BRANCH  50  71
ATOM     71  C   UNL     1       0.331  11.480   8.082  1.00  0.00     0.057 A 
ATOM     72  C   UNL     1      -0.072  10.613   9.105  1.00  0.00     0.134 A 
ATOM     73  C   UNL     1       1.574  12.108   8.225  1.00  0.00     0.134 A 
ATOM     74  F   UNL     1      -1.266  10.005   9.044  1.00  0.00    -0.206 F 
ATOM     75  C   UNL     1       0.716  10.400  10.238  1.00  0.00     0.040 A 
ATOM     76  C   UNL     1       2.386  11.880   9.338  1.00  0.00     0.040 A 
ATOM     77  F   UNL     1       2.017  12.956   7.286  1.00  0.00    -0.206 F 
ATOM     78  C   UNL     1       1.952  11.032  10.354  1.00  0.00     0.006 A 
ENDBRANCH  50  71
BRANCH  62  79
ATOM     79  C   UNL     1      -5.848  14.644   7.557  1.00  0.00     0.057 A 
ATOM     80  C   UNL     1      -5.534  15.820   8.251  1.00  0.00     0.134 A 
ATOM     81  C   UNL     1      -7.083  14.043   7.839  1.00  0.00     0.134 A 
ATOM     82  F   UNL     1      -4.365  16.444   8.038  1.00  0.00    -0.206 F 
ATOM     83  C   UNL     1      -6.396  16.356   9.211  1.00  0.00     0.040 A 
ATOM     84  C   UNL     1      -7.966  14.587   8.773  1.00  0.00     0.040 A 
ATOM     85  F   UNL     1      -7.456  12.922   7.203  1.00  0.00    -0.206 F 
ATOM     86  C   UNL     1      -7.619  15.741   9.471  1.00  0.00     0.006 A 
ENDBRANCH  62  79
ENDBRANCH  36  37
ENDBRANCH  29  31
ENDBRANCH  28  29
ENDBRANCH  27  28
ENDBRANCH  26  27
ENDBRANCH  25  26
ENDBRANCH  24  25
ENDBRANCH   1  24
TORSDOF 20
