REMARK SMILES CC[C@@H](NC(=O)N1CCO[C@H](CC(=O)OCCOCCOCCOC(=O)c2ccc(-c3c4nc(c(-c5c(F)cccc5F)c5ccc([nH]5)c(-c5c(F)cccc5F)c5nc(c(-c6c(F)cccc6F)c6ccc3[nH]6)C=C5)C=C4)cc2)C1)c1cccs1
REMARK SMILES IDX 19 1 18 2 17 3 16 4 15 5 13 6 14 7 12 8 11 9 7 10 8 11 81 12
REMARK SMILES IDX 9 13 10 14 5 15 4 16 6 18 3 19 2 20 1 21 82 22 83 23 86 24
REMARK SMILES IDX 84 25 85 26 20 27 21 28 22 29 23 30 24 31 25 32 26 33 27 34
REMARK SMILES IDX 28 35 80 36 29 37 79 38 30 39 31 40 32 41 73 42 33 43 78 44
REMARK SMILES IDX 72 45 74 46 34 47 77 48 71 49 70 50 35 52 61 53 44 54 60 55
REMARK SMILES IDX 45 56 48 57 59 58 75 59 46 60 47 61 58 63 76 64 49 65 36 66
REMARK SMILES IDX 37 67 42 68 38 69 39 70 41 71 43 72 40 73 62 74 63 75 68 76
REMARK SMILES IDX 64 77 65 78 67 79 69 80 66 81 50 82 51 83 56 84 52 85 53 86
REMARK SMILES IDX 55 87 57 88 54 89
REMARK H PARENT 4 17 74 51 48 62
REMARK Flexibility Score: inf
ROOT
ATOM      1  C   UNL     1      -4.253  -0.588   5.946  1.00  0.00     0.188 C 
ENDROOT
BRANCH   1   2
ATOM      2  O   UNL     1      -3.677  -1.873   6.153  1.00  0.00    -0.376 OA
BRANCH   2   3
ATOM      3  C   UNL     1      -2.263  -1.993   6.205  1.00  0.00     0.202 C 
BRANCH   3   4
ATOM      4  C   UNL     1      -1.445  -1.468   5.017  1.00  0.00     0.261 C 
BRANCH   4   5
ATOM      5  O   UNL     1      -1.732  -0.111   4.592  1.00  0.00    -0.463 OA
BRANCH   5   6
ATOM      6  C   UNL     1      -2.250   0.035   3.355  1.00  0.00     0.308 C 
ATOM      7  O   UNL     1      -2.368  -0.907   2.570  1.00  0.00    -0.252 OA
BRANCH   6   8
ATOM      8  C   UNL     1      -2.682   1.419   2.901  1.00  0.00     0.156 C 
BRANCH   8   9
ATOM      9  C   UNL     1      -2.837   2.779   3.624  1.00  0.00     0.149 C 
ATOM     10  N   UNL     1      -0.889   3.822   2.618  1.00  0.00    -0.320 N 
ATOM     11  C   UNL     1      -0.288   4.078   3.917  1.00  0.00     0.150 C 
ATOM     12  C   UNL     1      -2.350   3.906   2.679  1.00  0.00     0.154 C 
ATOM     13  C   UNL     1      -0.840   3.088   4.943  1.00  0.00     0.182 C 
ATOM     14  O   UNL     1      -2.269   2.996   4.921  1.00  0.00    -0.374 OA
BRANCH  10  15
ATOM     15  C   UNL     1      -0.268   3.523   1.444  1.00  0.00     0.318 C 
ATOM     16  N   UNL     1       1.005   3.058   1.420  1.00  0.00    -0.330 N 
ATOM     17  H   UNL     1       1.682   3.704   1.114  1.00  0.00     0.166 HD
ATOM     18  O   UNL     1      -0.822   3.702   0.358  1.00  0.00    -0.249 OA
BRANCH  16  19
ATOM     19  C   UNL     1       1.526   1.719   1.787  1.00  0.00     0.124 C 
BRANCH  19  20
ATOM     20  C   UNL     1       0.708   0.540   1.207  1.00  0.00     0.027 C 
ATOM     21  C   UNL     1       0.974   0.278  -0.269  1.00  0.00     0.006 C 
ENDBRANCH  19  20
BRANCH  19  22
ATOM     22  C   UNL     1       1.840   1.578   3.261  1.00  0.00     0.027 A 
ATOM     23  C   UNL     1       1.437   0.608   4.165  1.00  0.00     0.017 A 
ATOM     24  S   UNL     1       3.006   2.609   4.012  1.00  0.00    -0.147 S 
ATOM     25  C   UNL     1       1.835   0.889   5.504  1.00  0.00     0.012 A 
ATOM     26  C   UNL     1       2.634   2.005   5.569  1.00  0.00     0.065 A 
ENDBRANCH  19  22
ENDBRANCH  16  19
ENDBRANCH  10  15
ENDBRANCH   8   9
ENDBRANCH   6   8
ENDBRANCH   5   6
ENDBRANCH   4   5
ENDBRANCH   3   4
ENDBRANCH   2   3
ENDBRANCH   1   2
BRANCH   1  27
ATOM     27  C   UNL     1      -3.556   0.657   6.518  1.00  0.00     0.188 C 
BRANCH  27  28
ATOM     28  O   UNL     1      -2.546   0.387   7.468  1.00  0.00    -0.376 OA
BRANCH  28  29
ATOM     29  C   UNL     1      -2.743   0.925   8.760  1.00  0.00     0.202 C 
BRANCH  29  30
ATOM     30  C   UNL     1      -3.957   0.375   9.524  1.00  0.00     0.261 C 
BRANCH  30  31
ATOM     31  O   UNL     1      -5.205   0.364   8.802  1.00  0.00    -0.460 OA
BRANCH  31  32
ATOM     32  C   UNL     1      -5.803   1.556   8.578  1.00  0.00     0.338 C 
ATOM     33  O   UNL     1      -5.427   2.648   8.980  1.00  0.00    -0.246 OA
BRANCH  32  34
ATOM     34  C   UNL     1      -6.865   1.362   7.560  1.00  0.00     0.060 A 
ATOM     35  C   UNL     1      -6.833   2.131   6.386  1.00  0.00     0.016 A 
ATOM     36  C   UNL     1      -7.883   0.425   7.753  1.00  0.00     0.016 A 
ATOM     37  C   UNL     1      -7.853   2.014   5.438  1.00  0.00     0.010 A 
ATOM     38  C   UNL     1      -8.916   0.323   6.812  1.00  0.00     0.010 A 
ATOM     39  C   UNL     1      -8.934   1.155   5.677  1.00  0.00    -0.014 A 
BRANCH  39  40
ATOM     40  C   UNL     1     -10.191   1.332   4.901  1.00  0.00     0.031 A 
ATOM     41  C   UNL     1     -11.287   2.163   5.521  1.00  0.00     0.074 A 
ATOM     42  C   UNL     1     -10.354   0.825   3.666  1.00  0.00     0.049 A 
ATOM     43  N   UNL     1     -12.479   2.451   5.064  1.00  0.00    -0.248 NA
ATOM     44  C   UNL     1     -10.993   2.749   6.841  1.00  0.00     0.031 C 
ATOM     45  C   UNL     1      -9.364   0.044   2.928  1.00  0.00     0.029 A 
ATOM     46  N   UNL     1     -11.430   0.896   2.813  1.00  0.00    -0.354 N 
ATOM     47  C   UNL     1     -13.073   3.247   6.038  1.00  0.00     0.074 A 
ATOM     48  C   UNL     1     -12.132   3.358   7.129  1.00  0.00     0.031 C 
ATOM     49  C   UNL     1      -9.881  -0.296   1.733  1.00  0.00     0.029 A 
ATOM     50  C   UNL     1     -11.247   0.216   1.633  1.00  0.00     0.049 A 
ATOM     51  H   UNL     1     -12.255   1.388   3.028  1.00  0.00     0.167 HD
ATOM     52  C   UNL     1     -14.284   3.850   6.021  1.00  0.00     0.037 A 
ATOM     53  C   UNL     1     -12.094   0.020   0.601  1.00  0.00     0.037 A 
ATOM     54  C   UNL     1     -15.227   3.743   4.941  1.00  0.00     0.049 A 
ATOM     55  C   UNL     1     -13.477   0.625   0.649  1.00  0.00     0.074 A 
ATOM     56  C   UNL     1     -16.482   4.316   4.831  1.00  0.00     0.029 A 
ATOM     57  N   UNL     1     -15.020   3.009   3.784  1.00  0.00    -0.354 N 
ATOM     58  N   UNL     1     -14.018   1.395   1.563  1.00  0.00    -0.248 NA
ATOM     59  C   UNL     1     -14.366   0.336  -0.487  1.00  0.00     0.031 C 
ATOM     60  C   UNL     1     -17.055   3.887   3.631  1.00  0.00     0.029 A 
ATOM     61  C   UNL     1     -16.134   3.096   2.965  1.00  0.00     0.049 A 
ATOM     62  H   UNL     1     -14.203   2.501   3.575  1.00  0.00     0.167 HD
ATOM     63  C   UNL     1     -15.290   1.709   1.095  1.00  0.00     0.074 A 
ATOM     64  C   UNL     1     -15.432   1.065  -0.193  1.00  0.00     0.031 C 
ATOM     65  C   UNL     1     -16.257   2.461   1.677  1.00  0.00     0.037 A 
BRANCH  52  66
ATOM     66  C   UNL     1     -14.664   4.671   7.219  1.00  0.00     0.057 A 
ATOM     67  C   UNL     1     -14.046   5.897   7.502  1.00  0.00     0.134 A 
ATOM     68  C   UNL     1     -15.683   4.248   8.082  1.00  0.00     0.134 A 
ATOM     69  F   UNL     1     -13.050   6.351   6.726  1.00  0.00    -0.206 F 
ATOM     70  C   UNL     1     -14.412   6.661   8.611  1.00  0.00     0.040 A 
ATOM     71  C   UNL     1     -16.079   5.018   9.177  1.00  0.00     0.040 A 
ATOM     72  F   UNL     1     -16.318   3.086   7.869  1.00  0.00    -0.206 F 
ATOM     73  C   UNL     1     -15.438   6.225   9.448  1.00  0.00     0.006 A 
ENDBRANCH  52  66
BRANCH  53  74
ATOM     74  C   UNL     1     -11.685  -0.798  -0.573  1.00  0.00     0.057 A 
ATOM     75  C   UNL     1     -11.567  -0.232  -1.849  1.00  0.00     0.134 A 
ATOM     76  C   UNL     1     -11.476  -2.179  -0.463  1.00  0.00     0.134 A 
ATOM     77  F   UNL     1     -11.784   1.080  -2.027  1.00  0.00    -0.206 F 
ATOM     78  C   UNL     1     -11.292  -1.010  -2.975  1.00  0.00     0.040 A 
ATOM     79  C   UNL     1     -11.169  -2.964  -1.576  1.00  0.00     0.040 A 
ATOM     80  F   UNL     1     -11.579  -2.787   0.727  1.00  0.00    -0.206 F 
ATOM     81  C   UNL     1     -11.089  -2.382  -2.839  1.00  0.00     0.006 A 
ENDBRANCH  53  74
BRANCH  65  82
ATOM     82  C   UNL     1     -17.532   2.668   0.908  1.00  0.00     0.057 A 
ATOM     83  C   UNL     1     -18.445   1.629   0.684  1.00  0.00     0.134 A 
ATOM     84  C   UNL     1     -17.863   3.934   0.406  1.00  0.00     0.134 A 
ATOM     85  F   UNL     1     -18.187   0.390   1.130  1.00  0.00    -0.206 F 
ATOM     86  C   UNL     1     -19.620   1.832  -0.042  1.00  0.00     0.040 A 
ATOM     87  C   UNL     1     -19.051   4.157  -0.292  1.00  0.00     0.040 A 
ATOM     88  F   UNL     1     -17.044   4.980   0.596  1.00  0.00    -0.206 F 
ATOM     89  C   UNL     1     -19.928   3.101  -0.528  1.00  0.00     0.006 A 
ENDBRANCH  65  82
ENDBRANCH  39  40
ENDBRANCH  32  34
ENDBRANCH  31  32
ENDBRANCH  30  31
ENDBRANCH  29  30
ENDBRANCH  28  29
ENDBRANCH  27  28
ENDBRANCH   1  27
TORSDOF 22
