REMARK SMILES Cc1c(N[C@@H]2CC[C@@H]([NH3+])C2)cccc1C(=O)OCCOCCOCCOC(=O)c1ccc(-c2c3nc(c(-c4c(F)cccc4F)c4ccc([nH]4)c(-c4c(F)cccc4F)c4nc(c(-c5c(F)cccc5F)c5ccc2[nH]5)C=C4)C=C3)cc1
REMARK SMILES IDX 21 1 20 2 19 3 18 4 17 5 15 6 16 7 14 8 1 9 2 10 3 11 11 12
REMARK SMILES IDX 13 13 12 14 4 15 5 17 6 18 10 19 7 20 8 21 9 22 22 26 23 27
REMARK SMILES IDX 24 28 25 29 26 30 27 31 28 32 29 33 30 34 82 35 31 36 81 37
REMARK SMILES IDX 32 38 33 39 34 40 75 41 35 42 80 43 74 44 76 45 36 46 79 47
REMARK SMILES IDX 73 48 72 49 37 51 63 52 46 53 62 54 47 55 50 56 61 57 77 58
REMARK SMILES IDX 48 59 49 60 60 62 78 63 51 64 38 65 39 66 44 67 40 68 41 69
REMARK SMILES IDX 43 70 45 71 42 72 64 73 65 74 70 75 66 76 67 77 69 78 71 79
REMARK SMILES IDX 68 80 52 81 53 82 58 83 54 84 55 85 57 86 59 87 56 88
REMARK H PARENT 4 16 9 23 9 24 9 25 76 50 50 61
REMARK Flexibility Score: inf
ROOT
ATOM      1  C   UNL     1       3.033   5.523  -2.089  1.00  0.00     0.188 C 
ENDROOT
BRANCH   1   2
ATOM      2  O   UNL     1       3.853   4.713  -1.210  1.00  0.00    -0.376 OA
BRANCH   2   3
ATOM      3  C   UNL     1       4.657   3.583  -1.632  1.00  0.00     0.202 C 
BRANCH   3   4
ATOM      4  C   UNL     1       4.417   2.068  -0.983  1.00  0.00     0.261 C 
BRANCH   4   5
ATOM      5  O   UNL     1       3.257   0.987  -1.392  1.00  0.00    -0.460 OA
BRANCH   5   6
ATOM      6  C   UNL     1       2.058   0.561  -0.775  1.00  0.00     0.338 C 
ATOM      7  O   UNL     1       1.599   0.886   0.318  1.00  0.00    -0.246 OA
BRANCH   6   8
ATOM      8  C   UNL     1       1.045  -0.370  -1.298  1.00  0.00     0.065 A 
ATOM      9  C   UNL     1       2.847  -2.066  -1.449  1.00  0.00     0.047 C 
ATOM     10  C   UNL     1       1.398  -1.713  -1.281  1.00  0.00    -0.013 A 
ATOM     11  C   UNL     1       0.422  -2.667  -0.908  1.00  0.00     0.038 A 
ATOM     12  C   UNL     1      -0.923  -2.272  -0.757  1.00  0.00     0.026 A 
ATOM     13  C   UNL     1      -0.317  -0.008  -1.046  1.00  0.00     0.016 A 
ATOM     14  C   UNL     1      -1.304  -0.948  -0.815  1.00  0.00     0.003 A 
BRANCH  11  15
ATOM     15  N   UNL     1       0.835  -3.966  -0.685  1.00  0.00    -0.382 N 
ATOM     16  H   UNL     1       1.808  -4.096  -0.606  1.00  0.00     0.160 HD
BRANCH  15  17
ATOM     17  C   UNL     1       0.031  -5.156  -0.554  1.00  0.00     0.085 C 
ATOM     18  C   UNL     1      -0.960  -5.367  -1.702  1.00  0.00     0.031 C 
ATOM     19  C   UNL     1      -0.755  -5.252   0.753  1.00  0.00     0.089 C 
ATOM     20  C   UNL     1      -2.282  -5.732  -1.029  1.00  0.00     0.067 C 
ATOM     21  C   UNL     1      -1.919  -6.173   0.391  1.00  0.00     0.182 C 
BRANCH  21  22
ATOM     22  N   UNL     1      -1.513  -7.579   0.412  1.00  0.00    -0.355 N 
ATOM     23  H   UNL     1      -0.732  -7.716  -0.229  1.00  0.00     0.344 HD
ATOM     24  H   UNL     1      -2.297  -8.163   0.123  1.00  0.00     0.344 HD
ATOM     25  H   UNL     1      -1.228  -7.836   1.357  1.00  0.00     0.344 HD
ENDBRANCH  21  22
ENDBRANCH  15  17
ENDBRANCH  11  15
ENDBRANCH   6   8
ENDBRANCH   5   6
ENDBRANCH   4   5
ENDBRANCH   3   4
ENDBRANCH   2   3
ENDBRANCH   1   2
BRANCH   1  26
ATOM     26  C   UNL     1       3.157   5.525  -3.623  1.00  0.00     0.188 C 
BRANCH  26  27
ATOM     27  O   UNL     1       3.249   4.206  -4.132  1.00  0.00    -0.376 OA
BRANCH  27  28
ATOM     28  C   UNL     1       3.251   4.076  -5.548  1.00  0.00     0.202 C 
BRANCH  28  29
ATOM     29  C   UNL     1       1.835   4.040  -6.170  1.00  0.00     0.261 C 
BRANCH  29  30
ATOM     30  O   UNL     1       1.016   3.010  -5.560  1.00  0.00    -0.460 OA
BRANCH  30  31
ATOM     31  C   UNL     1      -0.103   3.415  -4.876  1.00  0.00     0.338 C 
ATOM     32  O   UNL     1      -0.982   4.131  -5.340  1.00  0.00    -0.246 OA
BRANCH  31  33
ATOM     33  C   UNL     1       0.016   3.060  -3.423  1.00  0.00     0.060 A 
ATOM     34  C   UNL     1      -0.803   3.481  -2.364  1.00  0.00     0.016 A 
ATOM     35  C   UNL     1       1.214   2.562  -3.051  1.00  0.00     0.016 A 
ATOM     36  C   UNL     1      -0.329   3.503  -0.976  1.00  0.00     0.010 A 
ATOM     37  C   UNL     1       1.659   2.897  -1.776  1.00  0.00     0.010 A 
ATOM     38  C   UNL     1       0.995   3.244  -0.615  1.00  0.00    -0.014 A 
BRANCH  38  39
ATOM     39  C   UNL     1       1.785   3.517   0.745  1.00  0.00     0.031 A 
ATOM     40  C   UNL     1       2.611   2.573   1.841  1.00  0.00     0.074 A 
ATOM     41  C   UNL     1       1.732   4.821   1.099  1.00  0.00     0.049 A 
ATOM     42  N   UNL     1       2.683   2.849   3.134  1.00  0.00    -0.248 NA
ATOM     43  C   UNL     1       3.358   1.273   1.679  1.00  0.00     0.031 C 
ATOM     44  C   UNL     1       2.399   5.497   2.203  1.00  0.00     0.029 A 
ATOM     45  N   UNL     1       0.807   5.769   0.631  1.00  0.00    -0.354 N 
ATOM     46  C   UNL     1       3.521   1.910   3.750  1.00  0.00     0.074 A 
ATOM     47  C   UNL     1       3.610   0.814   2.888  1.00  0.00     0.031 C 
ATOM     48  C   UNL     1       1.638   6.541   2.568  1.00  0.00     0.029 A 
ATOM     49  C   UNL     1       0.428   6.502   1.763  1.00  0.00     0.049 A 
ATOM     50  H   UNL     1       0.492   5.891  -0.294  1.00  0.00     0.167 HD
ATOM     51  C   UNL     1       4.247   2.105   4.881  1.00  0.00     0.037 A 
ATOM     52  C   UNL     1      -0.856   6.464   2.215  1.00  0.00     0.037 A 
ATOM     53  C   UNL     1       3.664   3.193   5.615  1.00  0.00     0.049 A 
ATOM     54  C   UNL     1      -0.963   5.997   3.650  1.00  0.00     0.074 A 
ATOM     55  C   UNL     1       3.955   4.534   5.726  1.00  0.00     0.029 A 
ATOM     56  N   UNL     1       2.351   3.022   6.032  1.00  0.00    -0.354 N 
ATOM     57  N   UNL     1       0.014   5.463   4.334  1.00  0.00    -0.248 NA
ATOM     58  C   UNL     1      -2.198   6.080   4.424  1.00  0.00     0.031 C 
ATOM     59  C   UNL     1       2.724   5.195   6.018  1.00  0.00     0.029 A 
ATOM     60  C   UNL     1       1.724   4.243   6.162  1.00  0.00     0.049 A 
ATOM     61  H   UNL     1       1.927   2.152   6.210  1.00  0.00     0.167 HD
ATOM     62  C   UNL     1      -0.457   5.035   5.548  1.00  0.00     0.074 A 
ATOM     63  C   UNL     1      -1.830   5.500   5.578  1.00  0.00     0.031 C 
ATOM     64  C   UNL     1       0.288   4.284   6.412  1.00  0.00     0.037 A 
BRANCH  51  65
ATOM     65  C   UNL     1       5.496   1.294   5.251  1.00  0.00     0.057 A 
ATOM     66  C   UNL     1       6.060   1.378   6.534  1.00  0.00     0.134 A 
ATOM     67  C   UNL     1       6.253   0.479   4.362  1.00  0.00     0.134 A 
ATOM     68  F   UNL     1       5.524   2.175   7.468  1.00  0.00    -0.206 F 
ATOM     69  C   UNL     1       7.221   0.669   6.912  1.00  0.00     0.040 A 
ATOM     70  C   UNL     1       7.359  -0.297   4.749  1.00  0.00     0.040 A 
ATOM     71  F   UNL     1       6.021   0.437   3.043  1.00  0.00    -0.206 F 
ATOM     72  C   UNL     1       7.856  -0.198   6.032  1.00  0.00     0.006 A 
ENDBRANCH  51  65
BRANCH  52  73
ATOM     73  C   UNL     1      -1.893   6.316   1.141  1.00  0.00     0.057 A 
ATOM     74  C   UNL     1      -1.858   7.210   0.048  1.00  0.00     0.134 A 
ATOM     75  C   UNL     1      -2.730   5.205   0.997  1.00  0.00     0.134 A 
ATOM     76  F   UNL     1      -1.091   8.313   0.103  1.00  0.00    -0.206 F 
ATOM     77  C   UNL     1      -2.521   6.960  -1.159  1.00  0.00     0.040 A 
ATOM     78  C   UNL     1      -3.422   4.953  -0.205  1.00  0.00     0.040 A 
ATOM     79  F   UNL     1      -2.795   4.267   1.951  1.00  0.00    -0.206 F 
ATOM     80  C   UNL     1      -3.294   5.815  -1.295  1.00  0.00     0.006 A 
ENDBRANCH  52  73
BRANCH  64  81
ATOM     81  C   UNL     1      -0.293   3.499   7.569  1.00  0.00     0.057 A 
ATOM     82  C   UNL     1      -1.594   2.969   7.586  1.00  0.00     0.134 A 
ATOM     83  C   UNL     1       0.522   3.109   8.655  1.00  0.00     0.134 A 
ATOM     84  F   UNL     1      -2.439   3.142   6.561  1.00  0.00    -0.206 F 
ATOM     85  C   UNL     1      -2.075   2.179   8.639  1.00  0.00     0.040 A 
ATOM     86  C   UNL     1       0.074   2.265   9.676  1.00  0.00     0.040 A 
ATOM     87  F   UNL     1       1.800   3.506   8.750  1.00  0.00    -0.206 F 
ATOM     88  C   UNL     1      -1.237   1.814   9.683  1.00  0.00     0.006 A 
ENDBRANCH  64  81
ENDBRANCH  38  39
ENDBRANCH  31  33
ENDBRANCH  30  31
ENDBRANCH  29  30
ENDBRANCH  28  29
ENDBRANCH  27  28
ENDBRANCH  26  27
ENDBRANCH   1  26
TORSDOF 20
