REMARK SMILES O=C(OCCOCCOCCOC(=O)c1oc2cccc3c2c1CCC3)c1ccc(-c2c3nc(c(-c4c(F)cccc4F)c4ccc([nH]4)c(-c4c(F)cccc4F)c4nc(c(-c5c(F)cccc5F)c5ccc2[nH]5)C=C4)C=C3)cc1
REMARK SMILES IDX 7 1 6 2 5 3 4 4 3 5 2 6 1 7 27 8 28 9 80 10 29 11 79 12
REMARK SMILES IDX 30 13 31 14 32 15 73 16 33 17 78 18 72 19 74 20 34 21 77 22
REMARK SMILES IDX 71 23 70 24 35 26 61 27 44 28 60 29 45 30 48 31 59 32 75 33
REMARK SMILES IDX 46 34 47 35 58 37 76 38 49 39 36 40 37 41 42 42 38 43 39 44
REMARK SMILES IDX 41 45 43 46 40 47 62 48 63 49 68 50 64 51 65 52 67 53 69 54
REMARK SMILES IDX 66 55 50 56 51 57 56 58 52 59 53 60 55 61 57 62 54 63 8 64
REMARK SMILES IDX 9 65 10 66 11 67 12 68 13 69 14 70 15 71 16 72 23 73 17 74
REMARK SMILES IDX 22 75 24 76 18 77 21 78 25 79 19 80 20 81 26 82
REMARK H PARENT 74 25 48 36
REMARK Flexibility Score: inf
ROOT
ATOM      1  C   UNL     1       3.428  -0.425  -1.653  1.00  0.00     0.188 C 
ENDROOT
BRANCH   1   2
ATOM      2  O   UNL     1       4.732  -0.832  -1.300  1.00  0.00    -0.376 OA
BRANCH   2   3
ATOM      3  C   UNL     1       5.236  -0.688   0.011  1.00  0.00     0.202 C 
BRANCH   3   4
ATOM      4  C   UNL     1       4.417  -1.055   1.258  1.00  0.00     0.261 C 
BRANCH   4   5
ATOM      5  O   UNL     1       2.993  -1.076   1.118  1.00  0.00    -0.460 OA
BRANCH   5   6
ATOM      6  C   UNL     1       2.037  -0.154   1.333  1.00  0.00     0.338 C 
ATOM      7  O   UNL     1       0.868  -0.529   1.411  1.00  0.00    -0.246 OA
BRANCH   6   8
ATOM      8  C   UNL     1       2.292   1.309   1.377  1.00  0.00     0.060 A 
ATOM      9  C   UNL     1       3.542   1.914   1.490  1.00  0.00     0.016 A 
ATOM     10  C   UNL     1       1.144   2.128   1.337  1.00  0.00     0.016 A 
ATOM     11  C   UNL     1       3.639   3.275   1.715  1.00  0.00     0.010 A 
ATOM     12  C   UNL     1       1.233   3.494   1.549  1.00  0.00     0.010 A 
ATOM     13  C   UNL     1       2.480   4.043   1.810  1.00  0.00    -0.014 A 
BRANCH  13  14
ATOM     14  C   UNL     1       2.653   5.419   2.231  1.00  0.00     0.031 A 
ATOM     15  C   UNL     1       3.336   6.314   1.268  1.00  0.00     0.074 A 
ATOM     16  C   UNL     1       2.225   5.842   3.434  1.00  0.00     0.049 A 
ATOM     17  N   UNL     1       4.462   6.931   1.415  1.00  0.00    -0.248 NA
ATOM     18  C   UNL     1       2.726   6.472  -0.059  1.00  0.00     0.031 C 
ATOM     19  C   UNL     1       1.331   5.151   4.367  1.00  0.00     0.029 A 
ATOM     20  N   UNL     1       2.443   7.042   4.037  1.00  0.00    -0.354 N 
ATOM     21  C   UNL     1       4.616   7.713   0.273  1.00  0.00     0.074 A 
ATOM     22  C   UNL     1       3.593   7.295  -0.649  1.00  0.00     0.031 C 
ATOM     23  C   UNL     1       0.917   6.027   5.308  1.00  0.00     0.029 A 
ATOM     24  C   UNL     1       1.608   7.290   5.113  1.00  0.00     0.049 A 
ATOM     25  H   UNL     1       3.133   7.676   3.736  1.00  0.00     0.167 HD
ATOM     26  C   UNL     1       5.428   8.806   0.268  1.00  0.00     0.037 A 
ATOM     27  C   UNL     1       1.439   8.476   5.745  1.00  0.00     0.037 A 
ATOM     28  C   UNL     1       6.441   8.720   1.290  1.00  0.00     0.049 A 
ATOM     29  C   UNL     1       2.611   9.332   5.439  1.00  0.00     0.074 A 
ATOM     30  C   UNL     1       7.441   7.815   1.599  1.00  0.00     0.029 A 
ATOM     31  N   UNL     1       6.334   9.529   2.393  1.00  0.00    -0.354 N 
ATOM     32  N   UNL     1       3.808   9.135   5.913  1.00  0.00    -0.248 NA
ATOM     33  C   UNL     1       2.543  10.185   4.260  1.00  0.00     0.031 C 
ATOM     34  C   UNL     1       7.520   7.818   3.023  1.00  0.00     0.029 A 
ATOM     35  C   UNL     1       6.587   8.745   3.488  1.00  0.00     0.049 A 
ATOM     36  H   UNL     1       6.117  10.489   2.398  1.00  0.00     0.167 HD
ATOM     37  C   UNL     1       4.662   9.468   4.872  1.00  0.00     0.074 A 
ATOM     38  C   UNL     1       3.835  10.209   3.924  1.00  0.00     0.031 C 
ATOM     39  C   UNL     1       5.886   8.875   4.741  1.00  0.00     0.037 A 
BRANCH  26  40
ATOM     40  C   UNL     1       5.050  10.115  -0.390  1.00  0.00     0.057 A 
ATOM     41  C   UNL     1       3.729  10.479  -0.727  1.00  0.00     0.134 A 
ATOM     42  C   UNL     1       5.976  11.175  -0.386  1.00  0.00     0.134 A 
ATOM     43  F   UNL     1       2.718   9.604  -0.737  1.00  0.00    -0.206 F 
ATOM     44  C   UNL     1       3.348  11.799  -0.978  1.00  0.00     0.040 A 
ATOM     45  C   UNL     1       5.593  12.507  -0.587  1.00  0.00     0.040 A 
ATOM     46  F   UNL     1       7.266  10.962  -0.088  1.00  0.00    -0.206 F 
ATOM     47  C   UNL     1       4.271  12.825  -0.868  1.00  0.00     0.006 A 
ENDBRANCH  26  40
BRANCH  27  48
ATOM     48  C   UNL     1       0.208   8.996   6.375  1.00  0.00     0.057 A 
ATOM     49  C   UNL     1      -1.069   8.615   5.922  1.00  0.00     0.134 A 
ATOM     50  C   UNL     1       0.247  10.066   7.278  1.00  0.00     0.134 A 
ATOM     51  F   UNL     1      -1.220   7.667   4.986  1.00  0.00    -0.206 F 
ATOM     52  C   UNL     1      -2.237   9.253   6.345  1.00  0.00     0.040 A 
ATOM     53  C   UNL     1      -0.916  10.724   7.699  1.00  0.00     0.040 A 
ATOM     54  F   UNL     1       1.419  10.535   7.729  1.00  0.00    -0.206 F 
ATOM     55  C   UNL     1      -2.163  10.321   7.228  1.00  0.00     0.006 A 
ENDBRANCH  27  48
BRANCH  39  56
ATOM     56  C   UNL     1       6.398   8.071   5.900  1.00  0.00     0.057 A 
ATOM     57  C   UNL     1       7.634   8.403   6.465  1.00  0.00     0.134 A 
ATOM     58  C   UNL     1       5.765   6.917   6.387  1.00  0.00     0.134 A 
ATOM     59  F   UNL     1       8.328   9.456   6.003  1.00  0.00    -0.206 F 
ATOM     60  C   UNL     1       8.204   7.643   7.488  1.00  0.00     0.040 A 
ATOM     61  C   UNL     1       6.308   6.168   7.434  1.00  0.00     0.040 A 
ATOM     62  F   UNL     1       4.636   6.458   5.830  1.00  0.00    -0.206 F 
ATOM     63  C   UNL     1       7.533   6.529   7.987  1.00  0.00     0.006 A 
ENDBRANCH  39  56
ENDBRANCH  13  14
ENDBRANCH   6   8
ENDBRANCH   5   6
ENDBRANCH   4   5
ENDBRANCH   3   4
ENDBRANCH   2   3
ENDBRANCH   1   2
BRANCH   1  64
ATOM     64  C   UNL     1       2.386  -1.566  -1.724  1.00  0.00     0.188 C 
BRANCH  64  65
ATOM     65  O   UNL     1       2.761  -2.925  -1.933  1.00  0.00    -0.376 OA
BRANCH  65  66
ATOM     66  C   UNL     1       4.034  -3.274  -2.439  1.00  0.00     0.202 C 
BRANCH  66  67
ATOM     67  C   UNL     1       4.247  -3.077  -3.939  1.00  0.00     0.261 C 
BRANCH  67  68
ATOM     68  O   UNL     1       3.933  -1.766  -4.422  1.00  0.00    -0.457 OA
BRANCH  68  69
ATOM     69  C   UNL     1       2.663  -1.603  -4.883  1.00  0.00     0.374 C 
ATOM     70  O   UNL     1       1.800  -2.482  -4.927  1.00  0.00    -0.242 OA
BRANCH  69  71
ATOM     71  C   UNL     1       2.478  -0.243  -5.299  1.00  0.00     0.216 A 
ATOM     72  O   UNL     1       1.554   0.549  -4.636  1.00  0.00    -0.449 OA
ATOM     73  C   UNL     1       3.062   0.483  -6.317  1.00  0.00     0.014 A 
ATOM     74  C   UNL     1       1.530   1.762  -5.270  1.00  0.00     0.135 A 
ATOM     75  C   UNL     1       2.415   1.728  -6.319  1.00  0.00     0.028 A 
ATOM     76  C   UNL     1       4.080   0.196  -7.360  1.00  0.00     0.041 C 
ATOM     77  C   UNL     1       0.758   2.881  -4.989  1.00  0.00     0.048 A 
ATOM     78  C   UNL     1       2.558   2.775  -7.228  1.00  0.00    -0.037 A 
ATOM     79  C   UNL     1       3.775   1.043  -8.631  1.00  0.00     0.010 C 
ATOM     80  C   UNL     1       0.920   3.969  -5.871  1.00  0.00     0.004 A 
ATOM     81  C   UNL     1       1.798   3.920  -6.974  1.00  0.00     0.004 A 
ATOM     82  C   UNL     1       3.525   2.565  -8.363  1.00  0.00     0.036 C 
ENDBRANCH  69  71
ENDBRANCH  68  69
ENDBRANCH  67  68
ENDBRANCH  66  67
ENDBRANCH  65  66
ENDBRANCH  64  65
ENDBRANCH   1  64
TORSDOF 17
