REMARK SMILES CC(C)CCN(C(=O)N[C@H](C(=O)OCCOCCOCCOC(=O)c1ccc(-c2c3nc(c(-c4c(F)cccc4F)c4ccc([nH]4)c(-c4c(F)cccc4F)c4nc(c(-c5c(F)cccc5F)c5ccc2[nH]5)C=C4)C=C3)cc1)[C@H](C)O)C1CCCC1
REMARK SMILES IDX 16 1 15 2 14 3 13 4 11 5 12 6 10 7 9 8 7 9 8 10 6 12 5 13
REMARK SMILES IDX 4 14 2 15 1 16 3 17 82 18 83 19 86 20 84 21 85 22 79 23
REMARK SMILES IDX 80 24 81 25 17 27 18 28 19 29 20 30 21 31 22 32 23 33 24 34
REMARK SMILES IDX 25 35 26 36 78 37 27 38 77 39 28 40 29 41 30 42 71 43 31 44
REMARK SMILES IDX 76 45 70 46 72 47 32 48 75 49 69 50 68 51 33 53 59 54 42 55
REMARK SMILES IDX 58 56 43 57 46 58 57 59 73 60 44 61 45 62 56 64 74 65 47 66
REMARK SMILES IDX 34 67 35 68 40 69 36 70 37 71 39 72 41 73 38 74 60 75 61 76
REMARK SMILES IDX 66 77 62 78 63 79 65 80 67 81 64 82 48 83 49 84 54 85 50 86
REMARK SMILES IDX 51 87 53 88 55 89 52 90
REMARK H PARENT 9 11 81 26 72 52 46 63
REMARK Flexibility Score: inf
ROOT
ATOM      1  O   UNL     1      -5.495   3.703   6.636  1.00  0.00    -0.376 OA
ENDROOT
BRANCH   1   2
ATOM      2  C   UNL     1      -6.308   2.566   6.936  1.00  0.00     0.202 C 
BRANCH   2   3
ATOM      3  C   UNL     1      -6.798   1.673   5.777  1.00  0.00     0.261 C 
BRANCH   3   4
ATOM      4  O   UNL     1      -5.724   1.067   5.028  1.00  0.00    -0.462 OA
BRANCH   4   5
ATOM      5  C   UNL     1      -5.829   1.081   3.658  1.00  0.00     0.331 C 
ATOM      6  O   UNL     1      -6.847   1.381   3.048  1.00  0.00    -0.250 OA
BRANCH   5   7
ATOM      7  C   UNL     1      -4.425   0.922   3.029  1.00  0.00     0.222 C 
BRANCH   7   8
ATOM      8  N   UNL     1      -3.618  -0.153   3.629  1.00  0.00    -0.322 N 
ATOM      9  C   UNL     1      -3.203  -1.405   3.452  1.00  0.00     0.318 C 
ATOM     10  O   UNL     1      -2.352  -1.748   4.282  1.00  0.00    -0.249 OA
ATOM     11  H   UNL     1      -3.246   0.177   4.478  1.00  0.00     0.166 HD
BRANCH   9  12
ATOM     12  N   UNL     1      -3.629  -2.252   2.461  1.00  0.00    -0.322 N 
BRANCH  12  13
ATOM     13  C   UNL     1      -4.949  -2.170   1.800  1.00  0.00     0.122 C 
BRANCH  13  14
ATOM     14  C   UNL     1      -4.995  -1.733   0.315  1.00  0.00     0.024 C 
BRANCH  14  15
ATOM     15  C   UNL     1      -4.899  -2.743  -0.840  1.00  0.00    -0.016 C 
ATOM     16  C   UNL     1      -5.939  -3.857  -0.753  1.00  0.00     0.007 C 
ATOM     17  C   UNL     1      -5.014  -2.023  -2.189  1.00  0.00     0.007 C 
ENDBRANCH  14  15
ENDBRANCH  13  14
ENDBRANCH  12  13
BRANCH  12  18
ATOM     18  C   UNL     1      -2.888  -3.540   2.439  1.00  0.00     0.087 C 
ATOM     19  C   UNL     1      -3.477  -4.609   3.370  1.00  0.00     0.025 C 
ATOM     20  C   UNL     1      -2.822  -4.260   1.111  1.00  0.00     0.025 C 
ATOM     21  C   UNL     1      -2.958  -5.946   2.834  1.00  0.00     0.002 C 
ATOM     22  C   UNL     1      -2.458  -5.697   1.416  1.00  0.00     0.002 C 
ENDBRANCH  12  18
ENDBRANCH   9  12
ENDBRANCH   7   8
BRANCH   7  23
ATOM     23  C   UNL     1      -4.345   1.210   1.527  1.00  0.00     0.145 C 
ATOM     24  C   UNL     1      -2.945   0.998   0.953  1.00  0.00     0.041 C 
BRANCH  23  25
ATOM     25  O   UNL     1      -4.641   2.602   1.296  1.00  0.00    -0.391 OA
ATOM     26  H   UNL     1      -3.979   3.152   1.744  1.00  0.00     0.211 HD
ENDBRANCH  23  25
ENDBRANCH   7  23
ENDBRANCH   5   7
ENDBRANCH   4   5
ENDBRANCH   3   4
ENDBRANCH   2   3
ENDBRANCH   1   2
BRANCH   1  27
ATOM     27  C   UNL     1      -4.387   3.534   5.760  1.00  0.00     0.188 C 
BRANCH  27  28
ATOM     28  C   UNL     1      -3.365   2.436   6.087  1.00  0.00     0.188 C 
BRANCH  28  29
ATOM     29  O   UNL     1      -3.747   1.563   7.115  1.00  0.00    -0.376 OA
BRANCH  29  30
ATOM     30  C   UNL     1      -3.027   1.620   8.336  1.00  0.00     0.202 C 
BRANCH  30  31
ATOM     31  C   UNL     1      -2.537   2.956   8.943  1.00  0.00     0.261 C 
BRANCH  31  32
ATOM     32  O   UNL     1      -2.145   4.014   8.047  1.00  0.00    -0.460 OA
BRANCH  32  33
ATOM     33  C   UNL     1      -0.896   3.957   7.516  1.00  0.00     0.338 C 
ATOM     34  O   UNL     1      -0.045   3.122   7.742  1.00  0.00    -0.246 OA
BRANCH  33  35
ATOM     35  C   UNL     1      -0.827   4.946   6.406  1.00  0.00     0.060 A 
ATOM     36  C   UNL     1      -0.645   4.484   5.091  1.00  0.00     0.016 A 
ATOM     37  C   UNL     1      -0.951   6.313   6.654  1.00  0.00     0.016 A 
ATOM     38  C   UNL     1      -0.567   5.388   4.027  1.00  0.00     0.010 A 
ATOM     39  C   UNL     1      -0.842   7.218   5.591  1.00  0.00     0.010 A 
ATOM     40  C   UNL     1      -0.622   6.765   4.276  1.00  0.00    -0.014 A 
BRANCH  40  41
ATOM     41  C   UNL     1      -0.267   7.735   3.207  1.00  0.00     0.031 A 
ATOM     42  C   UNL     1       1.122   8.313   3.194  1.00  0.00     0.074 A 
ATOM     43  C   UNL     1      -1.151   8.109   2.265  1.00  0.00     0.049 A 
ATOM     44  N   UNL     1       1.635   9.238   2.423  1.00  0.00    -0.248 NA
ATOM     45  C   UNL     1       2.056   7.775   4.195  1.00  0.00     0.031 C 
ATOM     46  C   UNL     1      -2.513   7.600   2.132  1.00  0.00     0.029 A 
ATOM     47  N   UNL     1      -1.032   9.028   1.250  1.00  0.00    -0.354 N 
ATOM     48  C   UNL     1       2.946   9.402   2.853  1.00  0.00     0.074 A 
ATOM     49  C   UNL     1       3.138   8.504   3.973  1.00  0.00     0.031 C 
ATOM     50  C   UNL     1      -3.113   8.230   1.106  1.00  0.00     0.029 A 
ATOM     51  C   UNL     1      -2.190   9.211   0.535  1.00  0.00     0.049 A 
ATOM     52  H   UNL     1      -0.196   9.509   1.053  1.00  0.00     0.167 HD
ATOM     53  C   UNL     1       3.907  10.220   2.360  1.00  0.00     0.037 A 
ATOM     54  C   UNL     1      -2.482  10.089  -0.446  1.00  0.00     0.037 A 
ATOM     55  C   UNL     1       3.715  11.122   1.254  1.00  0.00     0.049 A 
ATOM     56  C   UNL     1      -1.426  11.050  -0.928  1.00  0.00     0.074 A 
ATOM     57  C   UNL     1       4.633  11.976   0.668  1.00  0.00     0.029 A 
ATOM     58  N   UNL     1       2.518  11.298   0.575  1.00  0.00    -0.354 N 
ATOM     59  N   UNL     1      -0.182  11.181  -0.533  1.00  0.00    -0.248 NA
ATOM     60  C   UNL     1      -1.815  11.983  -1.996  1.00  0.00     0.031 C 
ATOM     61  C   UNL     1       3.976  12.714  -0.322  1.00  0.00     0.029 A 
ATOM     62  C   UNL     1       2.665  12.271  -0.401  1.00  0.00     0.049 A 
ATOM     63  H   UNL     1       1.687  10.804   0.759  1.00  0.00     0.167 HD
ATOM     64  C   UNL     1       0.365  12.190  -1.320  1.00  0.00     0.074 A 
ATOM     65  C   UNL     1      -0.678  12.625  -2.224  1.00  0.00     0.031 C 
ATOM     66  C   UNL     1       1.621  12.704  -1.296  1.00  0.00     0.037 A 
BRANCH  53  67
ATOM     67  C   UNL     1       5.243  10.200   3.047  1.00  0.00     0.057 A 
ATOM     68  C   UNL     1       6.099   9.092   2.981  1.00  0.00     0.134 A 
ATOM     69  C   UNL     1       5.681  11.308   3.784  1.00  0.00     0.134 A 
ATOM     70  F   UNL     1       5.737   7.992   2.304  1.00  0.00    -0.206 F 
ATOM     71  C   UNL     1       7.323   9.073   3.654  1.00  0.00     0.040 A 
ATOM     72  C   UNL     1       6.916  11.313   4.434  1.00  0.00     0.040 A 
ATOM     73  F   UNL     1       4.915  12.405   3.885  1.00  0.00    -0.206 F 
ATOM     74  C   UNL     1       7.736  10.188   4.379  1.00  0.00     0.006 A 
ENDBRANCH  53  67
BRANCH  54  75
ATOM     75  C   UNL     1      -3.848  10.113  -1.031  1.00  0.00     0.057 A 
ATOM     76  C   UNL     1      -4.082   9.697  -2.347  1.00  0.00     0.134 A 
ATOM     77  C   UNL     1      -4.950  10.557  -0.289  1.00  0.00     0.134 A 
ATOM     78  F   UNL     1      -3.064   9.289  -3.118  1.00  0.00    -0.206 F 
ATOM     79  C   UNL     1      -5.361   9.729  -2.907  1.00  0.00     0.040 A 
ATOM     80  C   UNL     1      -6.238  10.568  -0.827  1.00  0.00     0.040 A 
ATOM     81  F   UNL     1      -4.791  10.974   0.975  1.00  0.00    -0.206 F 
ATOM     82  C   UNL     1      -6.445  10.157  -2.142  1.00  0.00     0.006 A 
ENDBRANCH  54  75
BRANCH  66  83
ATOM     83  C   UNL     1       1.951  13.776  -2.299  1.00  0.00     0.057 A 
ATOM     84  C   UNL     1       1.416  15.068  -2.212  1.00  0.00     0.134 A 
ATOM     85  C   UNL     1       2.848  13.521  -3.345  1.00  0.00     0.134 A 
ATOM     86  F   UNL     1       0.543  15.379  -1.242  1.00  0.00    -0.206 F 
ATOM     87  C   UNL     1       1.740  16.057  -3.144  1.00  0.00     0.040 A 
ATOM     88  C   UNL     1       3.203  14.510  -4.264  1.00  0.00     0.040 A 
ATOM     89  F   UNL     1       3.408  12.309  -3.483  1.00  0.00    -0.206 F 
ATOM     90  C   UNL     1       2.642  15.781  -4.169  1.00  0.00     0.006 A 
ENDBRANCH  66  83
ENDBRANCH  40  41
ENDBRANCH  33  35
ENDBRANCH  32  33
ENDBRANCH  31  32
ENDBRANCH  30  31
ENDBRANCH  29  30
ENDBRANCH  28  29
ENDBRANCH  27  28
ENDBRANCH   1  27
TORSDOF 25
