REMARK SMILES O=C(OCCOCCOCCOC(=O)c1ccc(C[N@H+]2CC[N@H+]3CCCC[C@@H]3C2)c(F)c1)c1ccc(-c2c3nc(c(-c4c(F)cccc4F)c4ccc([nH]4)c(-c4c(F)cccc4F)c4nc(c(-c5c(F)cccc5F)c5ccc2[nH]5)C=C4)C=C3)cc1
REMARK SMILES IDX 7 1 6 2 5 3 4 4 3 5 2 6 1 7 33 8 34 9 86 10 35 11 85 12
REMARK SMILES IDX 36 13 37 14 38 15 79 16 39 17 84 18 78 19 80 20 40 21 83 22
REMARK SMILES IDX 77 23 76 24 41 26 67 27 50 28 66 29 51 30 54 31 65 32 81 33
REMARK SMILES IDX 52 34 53 35 64 37 82 38 55 39 42 40 43 41 48 42 44 43 45 44
REMARK SMILES IDX 47 45 49 46 46 47 68 48 69 49 74 50 70 51 71 52 73 53 75 54
REMARK SMILES IDX 72 55 56 56 57 57 62 58 58 59 59 60 61 61 63 62 60 63 8 64
REMARK SMILES IDX 9 65 10 66 11 67 12 68 13 69 14 70 15 71 16 72 32 73 17 74
REMARK SMILES IDX 30 75 18 76 31 77 19 78 20 79 21 80 29 81 22 83 28 84 23 85
REMARK SMILES IDX 27 86 24 87 26 89 25 90
REMARK H PARENT 80 25 54 36 20 82 23 88
REMARK Flexibility Score: inf
ROOT
ATOM      1  C   UNL     1       2.705   1.342  -0.899  1.00  0.00     0.188 C 
ENDROOT
BRANCH   1   2
ATOM      2  O   UNL     1       4.099   1.164  -0.641  1.00  0.00    -0.376 OA
BRANCH   2   3
ATOM      3  C   UNL     1       4.743   0.224  -1.497  1.00  0.00     0.202 C 
BRANCH   3   4
ATOM      4  C   UNL     1       4.631  -1.242  -1.051  1.00  0.00     0.261 C 
BRANCH   4   5
ATOM      5  O   UNL     1       3.376  -1.592  -0.445  1.00  0.00    -0.460 OA
BRANCH   5   6
ATOM      6  C   UNL     1       2.917  -1.379   0.812  1.00  0.00     0.338 C 
ATOM      7  O   UNL     1       1.757  -1.717   1.053  1.00  0.00    -0.246 OA
BRANCH   6   8
ATOM      8  C   UNL     1       3.703  -0.763   1.937  1.00  0.00     0.060 A 
ATOM      9  C   UNL     1       5.018  -0.298   1.876  1.00  0.00     0.016 A 
ATOM     10  C   UNL     1       3.046  -0.665   3.179  1.00  0.00     0.016 A 
ATOM     11  C   UNL     1       5.689   0.167   3.011  1.00  0.00     0.010 A 
ATOM     12  C   UNL     1       3.700  -0.168   4.314  1.00  0.00     0.010 A 
ATOM     13  C   UNL     1       5.045   0.219   4.242  1.00  0.00    -0.014 A 
BRANCH  13  14
ATOM     14  C   UNL     1       5.804   0.526   5.477  1.00  0.00     0.031 A 
ATOM     15  C   UNL     1       6.172  -0.595   6.384  1.00  0.00     0.074 A 
ATOM     16  C   UNL     1       6.313   1.741   5.748  1.00  0.00     0.049 A 
ATOM     17  N   UNL     1       6.874  -0.539   7.481  1.00  0.00    -0.248 NA
ATOM     18  C   UNL     1       5.829  -1.954   5.939  1.00  0.00     0.031 C 
ATOM     19  C   UNL     1       6.396   2.829   4.800  1.00  0.00     0.029 A 
ATOM     20  N   UNL     1       6.828   2.284   6.900  1.00  0.00    -0.354 N 
ATOM     21  C   UNL     1       7.179  -1.851   7.779  1.00  0.00     0.074 A 
ATOM     22  C   UNL     1       6.473  -2.688   6.833  1.00  0.00     0.031 C 
ATOM     23  C   UNL     1       6.731   3.958   5.440  1.00  0.00     0.029 A 
ATOM     24  C   UNL     1       6.931   3.658   6.835  1.00  0.00     0.049 A 
ATOM     25  H   UNL     1       7.093   1.752   7.684  1.00  0.00     0.167 HD
ATOM     26  C   UNL     1       8.052  -2.293   8.709  1.00  0.00     0.037 A 
ATOM     27  C   UNL     1       7.157   4.577   7.787  1.00  0.00     0.037 A 
ATOM     28  C   UNL     1       8.697  -1.439   9.670  1.00  0.00     0.049 A 
ATOM     29  C   UNL     1       7.726   4.065   9.059  1.00  0.00     0.074 A 
ATOM     30  C   UNL     1       9.524  -1.792  10.718  1.00  0.00     0.029 A 
ATOM     31  N   UNL     1       8.561  -0.054   9.715  1.00  0.00    -0.354 N 
ATOM     32  N   UNL     1       7.959   2.819   9.384  1.00  0.00    -0.248 NA
ATOM     33  C   UNL     1       8.204   5.059  10.021  1.00  0.00     0.031 C 
ATOM     34  C   UNL     1       9.834  -0.631  11.437  1.00  0.00     0.029 A 
ATOM     35  C   UNL     1       9.242   0.455  10.811  1.00  0.00     0.049 A 
ATOM     36  H   UNL     1       8.056   0.485   9.064  1.00  0.00     0.167 HD
ATOM     37  C   UNL     1       8.712   2.873  10.536  1.00  0.00     0.074 A 
ATOM     38  C   UNL     1       8.835   4.278  10.889  1.00  0.00     0.031 C 
ATOM     39  C   UNL     1       9.306   1.847  11.187  1.00  0.00     0.037 A 
BRANCH  26  40
ATOM     40  C   UNL     1       8.309  -3.764   8.709  1.00  0.00     0.057 A 
ATOM     41  C   UNL     1       7.716  -4.588   9.669  1.00  0.00     0.134 A 
ATOM     42  C   UNL     1       9.081  -4.373   7.709  1.00  0.00     0.134 A 
ATOM     43  F   UNL     1       6.947  -4.063  10.634  1.00  0.00    -0.206 F 
ATOM     44  C   UNL     1       7.879  -5.972   9.634  1.00  0.00     0.040 A 
ATOM     45  C   UNL     1       9.237  -5.759   7.654  1.00  0.00     0.040 A 
ATOM     46  F   UNL     1       9.640  -3.638   6.735  1.00  0.00    -0.206 F 
ATOM     47  C   UNL     1       8.635  -6.562   8.622  1.00  0.00     0.006 A 
ENDBRANCH  26  40
BRANCH  27  48
ATOM     48  C   UNL     1       6.956   6.026   7.550  1.00  0.00     0.057 A 
ATOM     49  C   UNL     1       5.769   6.651   7.955  1.00  0.00     0.134 A 
ATOM     50  C   UNL     1       7.910   6.820   6.909  1.00  0.00     0.134 A 
ATOM     51  F   UNL     1       4.819   5.949   8.591  1.00  0.00    -0.206 F 
ATOM     52  C   UNL     1       5.529   8.007   7.713  1.00  0.00     0.040 A 
ATOM     53  C   UNL     1       7.684   8.177   6.658  1.00  0.00     0.040 A 
ATOM     54  F   UNL     1       9.071   6.285   6.507  1.00  0.00    -0.206 F 
ATOM     55  C   UNL     1       6.488   8.774   7.055  1.00  0.00     0.006 A 
ENDBRANCH  27  48
BRANCH  39  56
ATOM     56  C   UNL     1      10.142   2.227  12.362  1.00  0.00     0.057 A 
ATOM     57  C   UNL     1      11.538   2.170  12.288  1.00  0.00     0.134 A 
ATOM     58  C   UNL     1       9.564   2.664  13.559  1.00  0.00     0.134 A 
ATOM     59  F   UNL     1      12.147   1.769  11.161  1.00  0.00    -0.206 F 
ATOM     60  C   UNL     1      12.334   2.529  13.372  1.00  0.00     0.040 A 
ATOM     61  C   UNL     1      10.350   3.053  14.640  1.00  0.00     0.040 A 
ATOM     62  F   UNL     1       8.231   2.771  13.671  1.00  0.00    -0.206 F 
ATOM     63  C   UNL     1      11.739   2.978  14.551  1.00  0.00     0.006 A 
ENDBRANCH  39  56
ENDBRANCH  13  14
ENDBRANCH   6   8
ENDBRANCH   5   6
ENDBRANCH   4   5
ENDBRANCH   3   4
ENDBRANCH   2   3
ENDBRANCH   1   2
BRANCH   1  64
ATOM     64  C   UNL     1       2.333   2.131  -2.163  1.00  0.00     0.188 C 
BRANCH  64  65
ATOM     65  O   UNL     1       3.458   2.541  -2.929  1.00  0.00    -0.376 OA
BRANCH  65  66
ATOM     66  C   UNL     1       3.751   3.936  -2.854  1.00  0.00     0.202 C 
BRANCH  66  67
ATOM     67  C   UNL     1       4.216   4.394  -1.471  1.00  0.00     0.261 C 
BRANCH  67  68
ATOM     68  O   UNL     1       3.146   4.423  -0.501  1.00  0.00    -0.460 OA
BRANCH  68  69
ATOM     69  C   UNL     1       2.285   5.468  -0.577  1.00  0.00     0.338 C 
ATOM     70  O   UNL     1       2.277   6.336  -1.435  1.00  0.00    -0.246 OA
BRANCH  69  71
ATOM     71  C   UNL     1       1.468   5.512   0.661  1.00  0.00     0.063 A 
ATOM     72  C   UNL     1       1.313   6.749   1.295  1.00  0.00     0.016 A 
ATOM     73  C   UNL     1       0.992   4.355   1.281  1.00  0.00     0.055 A 
ATOM     74  C   UNL     1       0.839   6.804   2.611  1.00  0.00     0.013 A 
ATOM     75  C   UNL     1       0.523   4.424   2.592  1.00  0.00     0.132 A 
ATOM     76  C   UNL     1       0.551   5.620   3.312  1.00  0.00     0.042 A 
ATOM     77  F   UNL     1       0.164   3.284   3.202  1.00  0.00    -0.206 F 
BRANCH  76  78
ATOM     78  C   UNL     1       0.414   5.626   4.820  1.00  0.00     0.302 C 
BRANCH  78  79
ATOM     79  N   UNL     1       1.619   5.394   5.641  1.00  0.00    -0.322 N 
ATOM     80  C   UNL     1       2.125   4.016   5.651  1.00  0.00     0.324 C 
ATOM     81  C   UNL     1       2.753   6.313   5.468  1.00  0.00     0.328 C 
ATOM     82  H   UNL     1       1.209   5.606   6.551  1.00  0.00     0.348 HD
ATOM     83  C   UNL     1       3.074   3.629   4.492  1.00  0.00     0.324 C 
ATOM     84  C   UNL     1       3.620   6.034   4.220  1.00  0.00     0.239 C 
ATOM     85  N   UNL     1       4.042   4.642   4.048  1.00  0.00    -0.323 N 
ATOM     86  C   UNL     1       4.868   6.917   4.132  1.00  0.00     0.071 C 
ATOM     87  C   UNL     1       4.489   4.425   2.668  1.00  0.00     0.262 C 
ATOM     88  H   UNL     1       4.826   4.503   4.685  1.00  0.00     0.348 HD
ATOM     89  C   UNL     1       5.536   6.760   2.761  1.00  0.00     0.012 C 
ATOM     90  C   UNL     1       5.698   5.302   2.325  1.00  0.00     0.062 C 
ENDBRANCH  78  79
ENDBRANCH  76  78
ENDBRANCH  69  71
ENDBRANCH  68  69
ENDBRANCH  67  68
ENDBRANCH  66  67
ENDBRANCH  65  66
ENDBRANCH  64  65
ENDBRANCH   1  64
TORSDOF 19
