REMARK SMILES Cc1cc2n(n1)[C@H](C(F)(F)F)CCN2C(=O)c1cnn([C@@H](C)C(=O)OCCOCCOCCOC(=O)c2ccc(-c3c4nc(c(-c5c(F)cccc5F)c5ccc([nH]5)c(-c5c(F)cccc5F)c5nc(c(-c6c(F)cccc6F)c6ccc3[nH]6)C=C5)C=C4)cc2)c1
REMARK SMILES IDX 29 1 28 2 27 3 26 4 25 5 23 6 24 7 21 8 22 9 20 10 17 11
REMARK SMILES IDX 18 12 91 13 19 14 15 15 16 16 14 17 1 18 2 19 3 20 6 21 4 22
REMARK SMILES IDX 5 23 7 24 13 25 12 26 8 27 9 28 10 29 11 30 30 31 31 32
REMARK SMILES IDX 32 33 33 34 34 35 35 36 36 37 37 38 38 39 90 40 39 41 89 42
REMARK SMILES IDX 40 43 41 44 42 45 83 46 43 47 88 48 82 49 84 50 44 51 87 52
REMARK SMILES IDX 81 53 80 54 45 56 71 57 54 58 70 59 55 60 58 61 69 62 85 63
REMARK SMILES IDX 56 64 57 65 68 67 86 68 59 69 46 70 47 71 52 72 48 73 49 74
REMARK SMILES IDX 51 75 53 76 50 77 72 78 73 79 78 80 74 81 75 82 77 83 79 84
REMARK SMILES IDX 76 85 60 86 61 87 66 88 62 89 63 90 65 91 67 92 64 93
REMARK H PARENT 84 55 58 66
REMARK Flexibility Score: inf
ROOT
ATOM      1  C   UNL     1       2.252 -11.281   0.908  1.00  0.00     0.188 C 
ENDROOT
BRANCH   1   2
ATOM      2  O   UNL     1       1.579 -12.457   0.537  1.00  0.00    -0.376 OA
BRANCH   2   3
ATOM      3  C   UNL     1       0.769 -13.099   1.511  1.00  0.00     0.202 C 
BRANCH   3   4
ATOM      4  C   UNL     1       0.938 -12.843   3.025  1.00  0.00     0.261 C 
BRANCH   4   5
ATOM      5  O   UNL     1       1.017 -11.458   3.445  1.00  0.00    -0.462 OA
BRANCH   5   6
ATOM      6  C   UNL     1       2.001 -11.161   4.332  1.00  0.00     0.330 C 
ATOM      7  O   UNL     1       2.780 -12.013   4.764  1.00  0.00    -0.250 OA
BRANCH   6   8
ATOM      8  C   UNL     1       2.175  -9.714   4.759  1.00  0.00     0.213 C 
ATOM      9  C   UNL     1       2.105  -9.617   6.280  1.00  0.00     0.046 C 
BRANCH   8  10
ATOM     10  N   UNL     1       1.371  -8.661   4.130  1.00  0.00    -0.258 N 
ATOM     11  C   UNL     1       0.807  -6.736   3.161  1.00  0.00     0.078 A 
ATOM     12  C   UNL     1      -0.308  -7.503   3.571  1.00  0.00     0.149 A 
ATOM     13  C   UNL     1       1.883  -7.514   3.556  1.00  0.00     0.123 A 
ATOM     14  N   UNL     1       0.035  -8.578   4.292  1.00  0.00    -0.180 NA
BRANCH  11  15
ATOM     15  C   UNL     1       0.881  -5.505   2.411  1.00  0.00     0.262 C 
ATOM     16  O   UNL     1       1.502  -5.402   1.348  1.00  0.00    -0.269 OA
BRANCH  15  17
ATOM     17  N   UNL     1       0.295  -4.336   3.062  1.00  0.00    -0.293 N 
ATOM     18  C   UNL     1       0.883  -0.328   0.046  1.00  0.00     0.069 C 
ATOM     19  C   UNL     1       0.535  -1.278   1.132  1.00  0.00     0.062 A 
ATOM     20  C   UNL     1       0.756  -2.682   1.182  1.00  0.00     0.072 A 
ATOM     21  N   UNL     1      -0.055  -0.837   2.248  1.00  0.00    -0.176 NA
ATOM     22  C   UNL     1       0.318  -3.080   2.426  1.00  0.00     0.134 A 
ATOM     23  N   UNL     1      -0.133  -1.928   3.017  1.00  0.00    -0.237 N 
ATOM     24  C   UNL     1      -0.694  -1.857   4.347  1.00  0.00     0.216 C 
ATOM     25  C   UNL     1      -0.129  -4.361   4.487  1.00  0.00     0.130 C 
ATOM     26  C   UNL     1      -1.146  -3.254   4.793  1.00  0.00     0.059 C 
BRANCH  24  27
ATOM     27  C   UNL     1       0.304  -1.239   5.302  1.00  0.00     0.410 C 
ATOM     28  F   UNL     1      -0.235  -1.172   6.545  1.00  0.00    -0.169 F 
ATOM     29  F   UNL     1       1.423  -1.993   5.404  1.00  0.00    -0.169 F 
ATOM     30  F   UNL     1       0.669   0.011   4.965  1.00  0.00    -0.169 F 
ENDBRANCH  24  27
ENDBRANCH  15  17
ENDBRANCH  11  15
ENDBRANCH   8  10
ENDBRANCH   6   8
ENDBRANCH   5   6
ENDBRANCH   4   5
ENDBRANCH   3   4
ENDBRANCH   2   3
ENDBRANCH   1   2
BRANCH   1  31
ATOM     31  C   UNL     1       1.447  -9.982   0.978  1.00  0.00     0.188 C 
BRANCH  31  32
ATOM     32  O   UNL     1       0.121  -9.876   1.452  1.00  0.00    -0.376 OA
BRANCH  32  33
ATOM     33  C   UNL     1      -1.052 -10.408   0.859  1.00  0.00     0.202 C 
BRANCH  33  34
ATOM     34  C   UNL     1      -1.296 -10.478  -0.646  1.00  0.00     0.261 C 
BRANCH  34  35
ATOM     35  O   UNL     1      -0.169 -10.172  -1.424  1.00  0.00    -0.460 OA
BRANCH  35  36
ATOM     36  C   UNL     1       0.105  -8.858  -1.506  1.00  0.00     0.338 C 
ATOM     37  O   UNL     1      -0.499  -7.928  -0.980  1.00  0.00    -0.246 OA
BRANCH  36  38
ATOM     38  C   UNL     1       1.315  -8.730  -2.321  1.00  0.00     0.060 A 
ATOM     39  C   UNL     1       1.889  -7.462  -2.421  1.00  0.00     0.016 A 
ATOM     40  C   UNL     1       1.747  -9.816  -3.100  1.00  0.00     0.016 A 
ATOM     41  C   UNL     1       2.690  -7.208  -3.506  1.00  0.00     0.010 A 
ATOM     42  C   UNL     1       2.531  -9.562  -4.191  1.00  0.00     0.010 A 
ATOM     43  C   UNL     1       2.877  -8.236  -4.433  1.00  0.00    -0.014 A 
BRANCH  43  44
ATOM     44  C   UNL     1       3.246  -7.862  -5.775  1.00  0.00     0.031 A 
ATOM     45  C   UNL     1       4.688  -7.766  -6.037  1.00  0.00     0.074 A 
ATOM     46  C   UNL     1       2.285  -7.743  -6.711  1.00  0.00     0.049 A 
ATOM     47  N   UNL     1       5.347  -6.722  -6.410  1.00  0.00    -0.248 NA
ATOM     48  C   UNL     1       5.517  -8.944  -5.749  1.00  0.00     0.031 C 
ATOM     49  C   UNL     1       0.866  -8.106  -6.598  1.00  0.00     0.029 A 
ATOM     50  N   UNL     1       2.408  -7.388  -8.014  1.00  0.00    -0.354 N 
ATOM     51  C   UNL     1       6.653  -7.156  -6.584  1.00  0.00     0.074 A 
ATOM     52  C   UNL     1       6.735  -8.476  -6.014  1.00  0.00     0.031 C 
ATOM     53  C   UNL     1       0.330  -8.170  -7.835  1.00  0.00     0.029 A 
ATOM     54  C   UNL     1       1.333  -7.761  -8.804  1.00  0.00     0.049 A 
ATOM     55  H   UNL     1       3.192  -6.909  -8.367  1.00  0.00     0.167 HD
ATOM     56  C   UNL     1       7.518  -6.494  -7.394  1.00  0.00     0.037 A 
ATOM     57  C   UNL     1       1.323  -7.824 -10.157  1.00  0.00     0.037 A 
ATOM     58  C   UNL     1       7.065  -5.165  -7.701  1.00  0.00     0.049 A 
ATOM     59  C   UNL     1       2.466  -7.005 -10.648  1.00  0.00     0.074 A 
ATOM     60  C   UNL     1       6.763  -4.052  -6.941  1.00  0.00     0.029 A 
ATOM     61  N   UNL     1       6.510  -4.940  -8.938  1.00  0.00    -0.354 N 
ATOM     62  N   UNL     1       2.520  -5.704 -10.570  1.00  0.00    -0.248 NA
ATOM     63  C   UNL     1       3.754  -7.666 -10.822  1.00  0.00     0.031 C 
ATOM     64  C   UNL     1       5.665  -3.433  -7.604  1.00  0.00     0.029 A 
ATOM     65  C   UNL     1       5.381  -4.186  -8.744  1.00  0.00     0.049 A 
ATOM     66  H   UNL     1       6.859  -5.260  -9.801  1.00  0.00     0.167 HD
ATOM     67  C   UNL     1       3.844  -5.418 -10.262  1.00  0.00     0.074 A 
ATOM     68  C   UNL     1       4.575  -6.651 -10.536  1.00  0.00     0.031 C 
ATOM     69  C   UNL     1       4.178  -4.310  -9.536  1.00  0.00     0.037 A 
BRANCH  56  70
ATOM     70  C   UNL     1       8.603  -7.182  -8.164  1.00  0.00     0.057 A 
ATOM     71  C   UNL     1       9.656  -6.430  -8.703  1.00  0.00     0.134 A 
ATOM     72  C   UNL     1       8.511  -8.516  -8.612  1.00  0.00     0.134 A 
ATOM     73  F   UNL     1       9.812  -5.138  -8.378  1.00  0.00    -0.206 F 
ATOM     74  C   UNL     1      10.540  -6.962  -9.647  1.00  0.00     0.040 A 
ATOM     75  C   UNL     1       9.421  -9.074  -9.508  1.00  0.00     0.040 A 
ATOM     76  F   UNL     1       7.484  -9.309  -8.279  1.00  0.00    -0.206 F 
ATOM     77  C   UNL     1      10.426  -8.289 -10.050  1.00  0.00     0.006 A 
ENDBRANCH  56  70
BRANCH  57  78
ATOM     78  C   UNL     1       0.556  -8.751 -11.023  1.00  0.00     0.057 A 
ATOM     79  C   UNL     1       0.442  -8.526 -12.401  1.00  0.00     0.134 A 
ATOM     80  C   UNL     1       0.101 -10.003 -10.568  1.00  0.00     0.134 A 
ATOM     81  F   UNL     1       0.892  -7.386 -12.944  1.00  0.00    -0.206 F 
ATOM     82  C   UNL     1      -0.087  -9.488 -13.273  1.00  0.00     0.040 A 
ATOM     83  C   UNL     1      -0.447 -10.964 -11.424  1.00  0.00     0.040 A 
ATOM     84  F   UNL     1       0.244 -10.379  -9.290  1.00  0.00    -0.206 F 
ATOM     85  C   UNL     1      -0.532 -10.713 -12.785  1.00  0.00     0.006 A 
ENDBRANCH  57  78
BRANCH  69  86
ATOM     86  C   UNL     1       3.113  -3.275  -9.306  1.00  0.00     0.057 A 
ATOM     87  C   UNL     1       1.942  -3.516  -8.571  1.00  0.00     0.134 A 
ATOM     88  C   UNL     1       3.351  -1.953  -9.698  1.00  0.00     0.134 A 
ATOM     89  F   UNL     1       1.686  -4.723  -8.053  1.00  0.00    -0.206 F 
ATOM     90  C   UNL     1       1.026  -2.500  -8.285  1.00  0.00     0.040 A 
ATOM     91  C   UNL     1       2.461  -0.921  -9.388  1.00  0.00     0.040 A 
ATOM     92  F   UNL     1       4.483  -1.633 -10.345  1.00  0.00    -0.206 F 
ATOM     93  C   UNL     1       1.288  -1.195  -8.690  1.00  0.00     0.006 A 
ENDBRANCH  69  86
ENDBRANCH  43  44
ENDBRANCH  36  38
ENDBRANCH  35  36
ENDBRANCH  34  35
ENDBRANCH  33  34
ENDBRANCH  32  33
ENDBRANCH  31  32
ENDBRANCH   1  31
TORSDOF 21
