REMARK SMILES O=C(OCCOCCOCCOC(=O)c1csc(S(=O)(=O)Nc2cccc(S(=O)(=O)N3CCCC3)c2)c1)c1ccc(-c2c3nc(c(-c4c(F)cccc4F)c4ccc([nH]4)c(-c4c(F)cccc4F)c4nc(c(-c5c(F)cccc5F)c5ccc2[nH]5)C=C4)C=C3)cc1
REMARK SMILES IDX 9 1 8 2 7 3 6 4 5 5 4 6 3 7 2 8 1 9 38 10 39 11 91 12 40 13
REMARK SMILES IDX 90 14 41 15 42 16 43 17 84 18 44 19 89 20 83 21 85 22 45 23
REMARK SMILES IDX 88 24 82 25 81 26 46 28 72 29 55 30 71 31 56 32 59 33 70 34
REMARK SMILES IDX 86 35 57 36 58 37 69 39 87 40 60 41 47 42 48 43 53 44 49 45
REMARK SMILES IDX 50 46 52 47 54 48 51 49 73 50 74 51 79 52 75 53 76 54 78 55
REMARK SMILES IDX 80 56 77 57 61 58 62 59 67 60 63 61 64 62 66 63 68 64 65 65
REMARK SMILES IDX 10 66 11 67 12 68 13 69 14 70 15 71 16 72 37 73 17 74 18 75
REMARK SMILES IDX 19 76 20 77 21 78 22 79 23 81 24 82 36 83 25 84 27 85 26 86
REMARK SMILES IDX 28 87 29 88 30 89 31 90 32 91 35 92 33 93 34 94
REMARK H PARENT 85 27 59 38 22 80
REMARK Flexibility Score: inf
ROOT
ATOM      1  O   UNL     1       2.978  -3.091  -3.736  1.00  0.00    -0.376 OA
ENDROOT
BRANCH   1   2
ATOM      2  C   UNL     1       2.475  -2.107  -2.837  1.00  0.00     0.188 C 
BRANCH   2   3
ATOM      3  C   UNL     1       3.219  -1.935  -1.515  1.00  0.00     0.188 C 
BRANCH   3   4
ATOM      4  O   UNL     1       4.580  -1.515  -1.661  1.00  0.00    -0.376 OA
BRANCH   4   5
ATOM      5  C   UNL     1       5.464  -2.200  -0.763  1.00  0.00     0.202 C 
BRANCH   5   6
ATOM      6  C   UNL     1       5.231  -1.955   0.741  1.00  0.00     0.261 C 
BRANCH   6   7
ATOM      7  O   UNL     1       4.138  -1.061   0.956  1.00  0.00    -0.460 OA
BRANCH   7   8
ATOM      8  C   UNL     1       4.348  -0.059   1.832  1.00  0.00     0.338 C 
ATOM      9  O   UNL     1       4.123  -0.132   3.029  1.00  0.00    -0.246 OA
BRANCH   8  10
ATOM     10  C   UNL     1       4.732   1.194   1.137  1.00  0.00     0.060 A 
ATOM     11  C   UNL     1       5.628   1.202   0.060  1.00  0.00     0.016 A 
ATOM     12  C   UNL     1       4.225   2.399   1.610  1.00  0.00     0.016 A 
ATOM     13  C   UNL     1       6.051   2.396  -0.520  1.00  0.00     0.010 A 
ATOM     14  C   UNL     1       4.591   3.589   0.978  1.00  0.00     0.010 A 
ATOM     15  C   UNL     1       5.534   3.609  -0.074  1.00  0.00    -0.014 A 
BRANCH  15  16
ATOM     16  C   UNL     1       6.069   4.905  -0.580  1.00  0.00     0.031 A 
ATOM     17  C   UNL     1       6.576   5.887   0.442  1.00  0.00     0.074 A 
ATOM     18  C   UNL     1       6.084   5.238  -1.888  1.00  0.00     0.049 A 
ATOM     19  N   UNL     1       6.841   7.161   0.324  1.00  0.00    -0.248 NA
ATOM     20  C   UNL     1       6.737   5.365   1.810  1.00  0.00     0.031 C 
ATOM     21  C   UNL     1       5.652   4.397  -3.008  1.00  0.00     0.029 A 
ATOM     22  N   UNL     1       6.440   6.419  -2.494  1.00  0.00    -0.354 N 
ATOM     23  C   UNL     1       7.145   7.583   1.611  1.00  0.00     0.074 A 
ATOM     24  C   UNL     1       6.858   6.482   2.502  1.00  0.00     0.031 C 
ATOM     25  C   UNL     1       5.698   5.110  -4.147  1.00  0.00     0.029 A 
ATOM     26  C   UNL     1       6.192   6.447  -3.847  1.00  0.00     0.049 A 
ATOM     27  H   UNL     1       6.837   7.176  -2.005  1.00  0.00     0.167 HD
ATOM     28  C   UNL     1       7.731   8.732   2.019  1.00  0.00     0.037 A 
ATOM     29  C   UNL     1       6.349   7.444  -4.739  1.00  0.00     0.037 A 
ATOM     30  C   UNL     1       8.168   9.756   1.119  1.00  0.00     0.049 A 
ATOM     31  C   UNL     1       6.982   8.730  -4.281  1.00  0.00     0.074 A 
ATOM     32  C   UNL     1       8.881  10.906   1.393  1.00  0.00     0.029 A 
ATOM     33  N   UNL     1       7.966   9.717  -0.253  1.00  0.00    -0.354 N 
ATOM     34  N   UNL     1       7.331   9.092  -3.070  1.00  0.00    -0.248 NA
ATOM     35  C   UNL     1       7.297   9.721  -5.319  1.00  0.00     0.031 C 
ATOM     36  C   UNL     1       9.117  11.564   0.179  1.00  0.00     0.029 A 
ATOM     37  C   UNL     1       8.559  10.815  -0.846  1.00  0.00     0.049 A 
ATOM     38  H   UNL     1       7.473   9.012  -0.733  1.00  0.00     0.167 HD
ATOM     39  C   UNL     1       7.976  10.315  -3.211  1.00  0.00     0.074 A 
ATOM     40  C   UNL     1       7.944  10.643  -4.621  1.00  0.00     0.031 C 
ATOM     41  C   UNL     1       8.560  11.085  -2.261  1.00  0.00     0.037 A 
BRANCH  28  42
ATOM     42  C   UNL     1       8.000   8.849   3.490  1.00  0.00     0.057 A 
ATOM     43  C   UNL     1       8.927   8.009   4.130  1.00  0.00     0.134 A 
ATOM     44  C   UNL     1       7.247   9.710   4.293  1.00  0.00     0.134 A 
ATOM     45  F   UNL     1       9.664   7.143   3.416  1.00  0.00    -0.206 F 
ATOM     46  C   UNL     1       9.030   7.958   5.519  1.00  0.00     0.040 A 
ATOM     47  C   UNL     1       7.371   9.696   5.684  1.00  0.00     0.040 A 
ATOM     48  F   UNL     1       6.352  10.546   3.747  1.00  0.00    -0.206 F 
ATOM     49  C   UNL     1       8.245   8.801   6.301  1.00  0.00     0.006 A 
ENDBRANCH  28  42
BRANCH  29  50
ATOM     50  C   UNL     1       5.982   7.249  -6.165  1.00  0.00     0.057 A 
ATOM     51  C   UNL     1       6.965   7.061  -7.144  1.00  0.00     0.134 A 
ATOM     52  C   UNL     1       4.649   7.288  -6.590  1.00  0.00     0.134 A 
ATOM     53  F   UNL     1       8.260   7.026  -6.798  1.00  0.00    -0.206 F 
ATOM     54  C   UNL     1       6.641   6.956  -8.498  1.00  0.00     0.040 A 
ATOM     55  C   UNL     1       4.309   7.168  -7.939  1.00  0.00     0.040 A 
ATOM     56  F   UNL     1       3.660   7.454  -5.700  1.00  0.00    -0.206 F 
ATOM     57  C   UNL     1       5.308   7.012  -8.899  1.00  0.00     0.006 A 
ENDBRANCH  29  50
BRANCH  41  58
ATOM     58  C   UNL     1       9.297  12.304  -2.720  1.00  0.00     0.057 A 
ATOM     59  C   UNL     1       8.629  13.468  -3.114  1.00  0.00     0.134 A 
ATOM     60  C   UNL     1      10.697  12.333  -2.687  1.00  0.00     0.134 A 
ATOM     61  F   UNL     1       7.290  13.493  -3.182  1.00  0.00    -0.206 F 
ATOM     62  C   UNL     1       9.330  14.622  -3.462  1.00  0.00     0.040 A 
ATOM     63  C   UNL     1      11.408  13.488  -3.009  1.00  0.00     0.040 A 
ATOM     64  F   UNL     1      11.393  11.248  -2.313  1.00  0.00    -0.206 F 
ATOM     65  C   UNL     1      10.723  14.637  -3.398  1.00  0.00     0.006 A 
ENDBRANCH  41  58
ENDBRANCH  15  16
ENDBRANCH   8  10
ENDBRANCH   7   8
ENDBRANCH   6   7
ENDBRANCH   5   6
ENDBRANCH   4   5
ENDBRANCH   3   4
ENDBRANCH   2   3
ENDBRANCH   1   2
BRANCH   1  66
ATOM     66  C   UNL     1       4.298  -2.908  -4.227  1.00  0.00     0.202 C 
BRANCH  66  67
ATOM     67  C   UNL     1       4.543  -1.811  -5.276  1.00  0.00     0.261 C 
BRANCH  67  68
ATOM     68  O   UNL     1       3.848  -0.568  -5.111  1.00  0.00    -0.460 OA
BRANCH  68  69
ATOM     69  C   UNL     1       2.630  -0.503  -5.729  1.00  0.00     0.339 C 
ATOM     70  O   UNL     1       2.069  -1.437  -6.284  1.00  0.00    -0.246 OA
BRANCH  69  71
ATOM     71  C   UNL     1       2.036   0.828  -5.657  1.00  0.00     0.072 A 
ATOM     72  C   UNL     1       2.708   1.973  -6.038  1.00  0.00     0.082 A 
ATOM     73  C   UNL     1       0.684   1.134  -5.259  1.00  0.00     0.050 A 
ATOM     74  S   UNL     1       1.701   3.352  -6.035  1.00  0.00    -0.130 S 
ATOM     75  C   UNL     1       0.384   2.481  -5.354  1.00  0.00     0.141 A 
BRANCH  75  76
ATOM     76  S   UNL     1      -1.051   3.471  -4.981  1.00  0.00     0.271 S 
ATOM     77  O   UNL     1      -0.571   4.577  -4.181  1.00  0.00    -0.200 OA
ATOM     78  O   UNL     1      -1.686   3.705  -6.259  1.00  0.00    -0.200 OA
BRANCH  76  79
ATOM     79  N   UNL     1      -2.177   2.629  -4.047  1.00  0.00    -0.279 N 
ATOM     80  H   UNL     1      -3.104   2.588  -4.376  1.00  0.00     0.180 HD
BRANCH  79  81
ATOM     81  C   UNL     1      -1.881   1.971  -2.811  1.00  0.00     0.050 A 
ATOM     82  C   UNL     1      -2.854   1.094  -2.324  1.00  0.00     0.027 A 
ATOM     83  C   UNL     1      -0.760   2.221  -2.032  1.00  0.00     0.048 A 
ATOM     84  C   UNL     1      -2.672   0.415  -1.116  1.00  0.00     0.004 A 
ATOM     85  C   UNL     1      -0.574   1.555  -0.817  1.00  0.00     0.084 A 
ATOM     86  C   UNL     1      -1.521   0.633  -0.366  1.00  0.00     0.022 A 
BRANCH  85  87
ATOM     87  S   UNL     1       0.868   1.783   0.197  1.00  0.00     0.243 S 
ATOM     88  O   UNL     1       0.392   2.200   1.507  1.00  0.00    -0.207 OA
ATOM     89  O   UNL     1       1.641   0.585   0.031  1.00  0.00    -0.207 OA
BRANCH  87  90
ATOM     90  N   UNL     1       1.739   3.051  -0.447  1.00  0.00    -0.198 NA
ATOM     91  C   UNL     1       1.370   4.443  -0.158  1.00  0.00     0.102 C 
ATOM     92  C   UNL     1       2.405   2.946  -1.754  1.00  0.00     0.102 C 
ATOM     93  C   UNL     1       1.288   5.099  -1.514  1.00  0.00     0.018 C 
ATOM     94  C   UNL     1       2.325   4.356  -2.333  1.00  0.00     0.018 C 
ENDBRANCH  87  90
ENDBRANCH  85  87
ENDBRANCH  79  81
ENDBRANCH  76  79
ENDBRANCH  75  76
ENDBRANCH  69  71
ENDBRANCH  68  69
ENDBRANCH  67  68
ENDBRANCH  66  67
ENDBRANCH   1  66
TORSDOF 22
