REMARK SMILES CN(CC(=O)OCCOCCOCCOC(=O)c1ccc(-c2c3nc(c(-c4c(F)cccc4F)c4ccc([nH]4)c(-c4c(F)cccc4F)c4nc(c(-c5c(F)cccc5F)c5ccc2[nH]5)C=C4)C=C3)cc1)C(=O)N[C@@H]1C[C@H]1c1ccccc1
REMARK SMILES IDX 10 1 9 2 8 3 7 4 6 5 4 6 5 7 3 8 2 9 1 10 72 11 73 12 74 13
REMARK SMILES IDX 75 15 76 16 77 17 78 18 79 19 83 20 80 21 82 22 81 23 11 24
REMARK SMILES IDX 12 25 13 26 14 27 15 28 16 29 17 30 18 31 19 32 71 33 20 34
REMARK SMILES IDX 70 35 21 36 22 37 23 38 64 39 24 40 69 41 63 42 65 43 25 44
REMARK SMILES IDX 68 45 62 46 61 47 26 49 52 50 35 51 51 52 36 53 39 54 50 55
REMARK SMILES IDX 66 56 37 57 38 58 49 60 67 61 40 62 27 63 28 64 33 65 29 66
REMARK SMILES IDX 30 67 32 68 34 69 31 70 53 71 54 72 59 73 55 74 56 75 58 76
REMARK SMILES IDX 60 77 57 78 41 79 42 80 47 81 43 82 44 83 46 84 48 85 45 86
REMARK H PARENT 74 14 65 48 39 59
REMARK Flexibility Score: inf
ROOT
ATOM      1  C   UNL     1      -2.578   3.833   1.515  1.00  0.00     0.188 C 
ENDROOT
BRANCH   1   2
ATOM      2  O   UNL     1      -3.939   3.481   1.694  1.00  0.00    -0.376 OA
BRANCH   2   3
ATOM      3  C   UNL     1      -4.342   2.158   1.363  1.00  0.00     0.202 C 
BRANCH   3   4
ATOM      4  C   UNL     1      -3.991   1.655  -0.042  1.00  0.00     0.261 C 
BRANCH   4   5
ATOM      5  O   UNL     1      -2.587   1.339  -0.190  1.00  0.00    -0.462 OA
BRANCH   5   6
ATOM      6  C   UNL     1      -2.107   1.427  -1.457  1.00  0.00     0.325 C 
ATOM      7  O   UNL     1      -2.812   1.685  -2.431  1.00  0.00    -0.250 OA
BRANCH   6   8
ATOM      8  C   UNL     1      -0.607   1.124  -1.626  1.00  0.00     0.243 C 
BRANCH   8   9
ATOM      9  N   UNL     1       0.360   1.040  -0.520  1.00  0.00    -0.317 N 
ATOM     10  C   UNL     1       0.651  -0.295  -0.010  1.00  0.00     0.149 C 
BRANCH   9  11
ATOM     11  C   UNL     1       1.126   2.057  -0.004  1.00  0.00     0.317 C 
ATOM     12  O   UNL     1       2.036   1.855   0.805  1.00  0.00    -0.249 OA
ATOM     13  N   UNL     1       0.927   3.354  -0.334  1.00  0.00    -0.335 N 
ATOM     14  H   UNL     1       1.606   3.959   0.043  1.00  0.00     0.165 HD
BRANCH  13  15
ATOM     15  C   UNL     1      -0.054   4.027  -1.108  1.00  0.00     0.092 C 
ATOM     16  C   UNL     1       0.294   4.571  -2.459  1.00  0.00     0.036 C 
ATOM     17  C   UNL     1       0.035   5.515  -1.317  1.00  0.00     0.044 C 
BRANCH  17  18
ATOM     18  C   UNL     1      -1.181   6.423  -1.292  1.00  0.00    -0.043 A 
ATOM     19  C   UNL     1      -1.699   6.999  -2.464  1.00  0.00     0.004 A 
ATOM     20  C   UNL     1      -1.659   6.937  -0.073  1.00  0.00     0.004 A 
ATOM     21  C   UNL     1      -2.569   8.095  -2.419  1.00  0.00     0.000 A 
ATOM     22  C   UNL     1      -2.514   8.044  -0.018  1.00  0.00     0.000 A 
ATOM     23  C   UNL     1      -2.949   8.638  -1.196  1.00  0.00     0.000 A 
ENDBRANCH  17  18
ENDBRANCH  13  15
ENDBRANCH   9  11
ENDBRANCH   8   9
ENDBRANCH   6   8
ENDBRANCH   5   6
ENDBRANCH   4   5
ENDBRANCH   3   4
ENDBRANCH   2   3
ENDBRANCH   1   2
BRANCH   1  24
ATOM     24  C   UNL     1      -1.470   2.916   2.065  1.00  0.00     0.188 C 
BRANCH  24  25
ATOM     25  O   UNL     1      -1.686   2.172   3.251  1.00  0.00    -0.376 OA
BRANCH  25  26
ATOM     26  C   UNL     1      -2.383   2.799   4.308  1.00  0.00     0.202 C 
BRANCH  26  27
ATOM     27  C   UNL     1      -1.700   3.981   5.003  1.00  0.00     0.261 C 
BRANCH  27  28
ATOM     28  O   UNL     1      -1.183   5.000   4.128  1.00  0.00    -0.460 OA
BRANCH  28  29
ATOM     29  C   UNL     1       0.169   5.061   4.031  1.00  0.00     0.338 C 
ATOM     30  O   UNL     1       0.978   4.303   4.549  1.00  0.00    -0.246 OA
BRANCH  29  31
ATOM     31  C   UNL     1       0.575   6.160   3.121  1.00  0.00     0.060 A 
ATOM     32  C   UNL     1       1.631   5.946   2.224  1.00  0.00     0.016 A 
ATOM     33  C   UNL     1      -0.033   7.417   3.186  1.00  0.00     0.016 A 
ATOM     34  C   UNL     1       2.072   6.982   1.387  1.00  0.00     0.010 A 
ATOM     35  C   UNL     1       0.420   8.457   2.359  1.00  0.00     0.010 A 
ATOM     36  C   UNL     1       1.480   8.253   1.454  1.00  0.00    -0.014 A 
BRANCH  36  37
ATOM     37  C   UNL     1       2.096   9.431   0.775  1.00  0.00     0.031 A 
ATOM     38  C   UNL     1       3.166  10.171   1.509  1.00  0.00     0.074 A 
ATOM     39  C   UNL     1       1.737   9.869  -0.447  1.00  0.00     0.049 A 
ATOM     40  N   UNL     1       3.783  11.271   1.172  1.00  0.00    -0.248 NA
ATOM     41  C   UNL     1       3.622   9.575   2.773  1.00  0.00     0.031 C 
ATOM     42  C   UNL     1       0.837   9.167  -1.333  1.00  0.00     0.029 A 
ATOM     43  N   UNL     1       2.062  11.000  -1.161  1.00  0.00    -0.354 N 
ATOM     44  C   UNL     1       4.725  11.481   2.163  1.00  0.00     0.074 A 
ATOM     45  C   UNL     1       4.572  10.420   3.135  1.00  0.00     0.031 C 
ATOM     46  C   UNL     1       0.603   9.892  -2.436  1.00  0.00     0.029 A 
ATOM     47  C   UNL     1       1.339  11.140  -2.328  1.00  0.00     0.049 A 
ATOM     48  H   UNL     1       2.744  11.646  -0.867  1.00  0.00     0.167 HD
ATOM     49  C   UNL     1       5.642  12.470   2.247  1.00  0.00     0.037 A 
ATOM     50  C   UNL     1       1.252  12.163  -3.200  1.00  0.00     0.037 A 
ATOM     51  C   UNL     1       5.742  13.558   1.314  1.00  0.00     0.049 A 
ATOM     52  C   UNL     1       2.135  13.356  -2.978  1.00  0.00     0.074 A 
ATOM     53  C   UNL     1       6.598  14.642   1.348  1.00  0.00     0.029 A 
ATOM     54  N   UNL     1       4.938  13.716   0.193  1.00  0.00    -0.354 N 
ATOM     55  N   UNL     1       3.020  13.551  -2.031  1.00  0.00    -0.248 NA
ATOM     56  C   UNL     1       2.036  14.457  -3.946  1.00  0.00     0.031 C 
ATOM     57  C   UNL     1       6.270  15.489   0.285  1.00  0.00     0.029 A 
ATOM     58  C   UNL     1       5.257  14.898  -0.454  1.00  0.00     0.049 A 
ATOM     59  H   UNL     1       4.244  13.081  -0.099  1.00  0.00     0.167 HD
ATOM     60  C   UNL     1       3.627  14.762  -2.322  1.00  0.00     0.074 A 
ATOM     61  C   UNL     1       2.998  15.267  -3.526  1.00  0.00     0.031 C 
ATOM     62  C   UNL     1       4.633  15.383  -1.660  1.00  0.00     0.037 A 
BRANCH  49  63
ATOM     63  C   UNL     1       6.548  12.432   3.437  1.00  0.00     0.057 A 
ATOM     64  C   UNL     1       7.549  11.460   3.573  1.00  0.00     0.134 A 
ATOM     65  C   UNL     1       6.381  13.345   4.483  1.00  0.00     0.134 A 
ATOM     66  F   UNL     1       7.734  10.535   2.619  1.00  0.00    -0.206 F 
ATOM     67  C   UNL     1       8.332  11.381   4.724  1.00  0.00     0.040 A 
ATOM     68  C   UNL     1       7.177  13.294   5.626  1.00  0.00     0.040 A 
ATOM     69  F   UNL     1       5.431  14.291   4.417  1.00  0.00    -0.206 F 
ATOM     70  C   UNL     1       8.149  12.303   5.753  1.00  0.00     0.006 A 
ENDBRANCH  49  63
BRANCH  50  71
ATOM     71  C   UNL     1       0.296  12.121  -4.343  1.00  0.00     0.057 A 
ATOM     72  C   UNL     1       0.737  12.072  -5.671  1.00  0.00     0.134 A 
ATOM     73  C   UNL     1      -1.089  12.179  -4.133  1.00  0.00     0.134 A 
ATOM     74  F   UNL     1       2.049  12.035  -5.945  1.00  0.00    -0.206 F 
ATOM     75  C   UNL     1      -0.157  12.111  -6.745  1.00  0.00     0.040 A 
ATOM     76  C   UNL     1      -1.995  12.195  -5.198  1.00  0.00     0.040 A 
ATOM     77  F   UNL     1      -1.586  12.228  -2.889  1.00  0.00    -0.206 F 
ATOM     78  C   UNL     1      -1.529  12.172  -6.510  1.00  0.00     0.006 A 
ENDBRANCH  50  71
BRANCH  62  79
ATOM     79  C   UNL     1       5.170  16.648  -2.257  1.00  0.00     0.057 A 
ATOM     80  C   UNL     1       4.454  17.849  -2.236  1.00  0.00     0.134 A 
ATOM     81  C   UNL     1       6.460  16.670  -2.807  1.00  0.00     0.134 A 
ATOM     82  F   UNL     1       3.208  17.890  -1.740  1.00  0.00    -0.206 F 
ATOM     83  C   UNL     1       4.996  19.027  -2.752  1.00  0.00     0.040 A 
ATOM     84  C   UNL     1       7.024  17.846  -3.296  1.00  0.00     0.040 A 
ATOM     85  F   UNL     1       7.199  15.551  -2.853  1.00  0.00    -0.206 F 
ATOM     86  C   UNL     1       6.289  19.030  -3.272  1.00  0.00     0.006 A 
ENDBRANCH  62  79
ENDBRANCH  36  37
ENDBRANCH  29  31
ENDBRANCH  28  29
ENDBRANCH  27  28
ENDBRANCH  26  27
ENDBRANCH  25  26
ENDBRANCH  24  25
ENDBRANCH   1  24
TORSDOF 21
