REMARK SMILES O=C(OCCOCCOCCOC(=O)[C@@H]1[C@H](C(=O)Nc2ccccc2Cc2ccccc2)[C@H]2C=C[C@@H]1O2)c1ccc(-c2c3nc(c(-c4c(F)cccc4F)c4ccc([nH]4)c(-c4c(F)cccc4F)c4nc(c(-c5c(F)cccc5F)c5ccc2[nH]5)C=C4)C=C3)cc1
REMARK SMILES IDX 8 1 7 2 6 3 5 4 4 5 3 6 2 7 1 8 38 9 39 10 91 11 40 12 90 13
REMARK SMILES IDX 41 14 42 15 43 16 84 17 44 18 89 19 83 20 85 21 45 22 88 23
REMARK SMILES IDX 82 24 81 25 46 27 72 28 55 29 71 30 56 31 59 32 70 33 86 34
REMARK SMILES IDX 57 35 58 36 69 38 87 39 60 40 47 41 48 42 53 43 49 44 50 45
REMARK SMILES IDX 52 46 54 47 51 48 73 49 74 50 79 51 75 52 76 53 78 54 80 55
REMARK SMILES IDX 77 56 61 57 62 58 67 59 63 60 64 61 66 62 68 63 65 64 9 65
REMARK SMILES IDX 10 66 11 67 12 68 13 69 14 70 15 71 16 72 36 73 33 74 35 75
REMARK SMILES IDX 37 76 34 77 17 78 18 79 19 80 20 82 21 83 25 84 22 85 24 86
REMARK SMILES IDX 23 87 26 88 27 89 28 90 32 91 29 92 31 93 30 94
REMARK H PARENT 85 26 59 37 19 81
REMARK Flexibility Score: inf
ROOT
ATOM      1  C   UNL     1       3.442  -2.884  -2.102  1.00  0.00     0.188 C 
ENDROOT
BRANCH   1   2
ATOM      2  C   UNL     1       3.805  -3.114  -0.607  1.00  0.00     0.188 C 
BRANCH   2   3
ATOM      3  O   UNL     1       4.757  -2.163  -0.151  1.00  0.00    -0.376 OA
BRANCH   3   4
ATOM      4  C   UNL     1       4.863  -1.942   1.259  1.00  0.00     0.202 C 
BRANCH   4   5
ATOM      5  C   UNL     1       3.757  -1.110   2.011  1.00  0.00     0.261 C 
BRANCH   5   6
ATOM      6  O   UNL     1       3.306   0.094   1.341  1.00  0.00    -0.460 OA
BRANCH   6   7
ATOM      7  C   UNL     1       2.358   0.894   1.913  1.00  0.00     0.338 C 
ATOM      8  O   UNL     1       1.665   0.608   2.878  1.00  0.00    -0.246 OA
BRANCH   7   9
ATOM      9  C   UNL     1       2.482   2.266   1.319  1.00  0.00     0.060 A 
ATOM     10  C   UNL     1       2.609   2.441  -0.044  1.00  0.00     0.016 A 
ATOM     11  C   UNL     1       2.646   3.398   2.096  1.00  0.00     0.016 A 
ATOM     12  C   UNL     1       3.292   3.545  -0.583  1.00  0.00     0.010 A 
ATOM     13  C   UNL     1       3.242   4.551   1.528  1.00  0.00     0.010 A 
ATOM     14  C   UNL     1       3.800   4.553   0.226  1.00  0.00    -0.014 A 
BRANCH  14  15
ATOM     15  C   UNL     1       4.878   5.566  -0.186  1.00  0.00     0.031 A 
ATOM     16  C   UNL     1       5.760   6.166   0.884  1.00  0.00     0.074 A 
ATOM     17  C   UNL     1       5.396   5.836  -1.412  1.00  0.00     0.049 A 
ATOM     18  N   UNL     1       6.427   7.289   0.897  1.00  0.00    -0.248 NA
ATOM     19  C   UNL     1       5.964   5.338   2.083  1.00  0.00     0.031 C 
ATOM     20  C   UNL     1       5.316   4.991  -2.579  1.00  0.00     0.029 A 
ATOM     21  N   UNL     1       6.125   6.914  -1.895  1.00  0.00    -0.354 N 
ATOM     22  C   UNL     1       7.043   7.344   2.137  1.00  0.00     0.074 A 
ATOM     23  C   UNL     1       6.649   6.156   2.862  1.00  0.00     0.031 C 
ATOM     24  C   UNL     1       5.768   5.626  -3.668  1.00  0.00     0.029 A 
ATOM     25  C   UNL     1       6.197   6.944  -3.277  1.00  0.00     0.049 A 
ATOM     26  H   UNL     1       6.548   7.588  -1.315  1.00  0.00     0.167 HD
ATOM     27  C   UNL     1       7.878   8.293   2.619  1.00  0.00     0.037 A 
ATOM     28  C   UNL     1       6.536   7.900  -4.164  1.00  0.00     0.037 A 
ATOM     29  C   UNL     1       8.379   9.392   1.836  1.00  0.00     0.049 A 
ATOM     30  C   UNL     1       7.199   9.117  -3.619  1.00  0.00     0.074 A 
ATOM     31  C   UNL     1       9.139  10.471   2.248  1.00  0.00     0.029 A 
ATOM     32  N   UNL     1       8.209   9.524   0.462  1.00  0.00    -0.354 N 
ATOM     33  N   UNL     1       7.531   9.347  -2.375  1.00  0.00    -0.248 NA
ATOM     34  C   UNL     1       7.599  10.163  -4.564  1.00  0.00     0.031 C 
ATOM     35  C   UNL     1       9.373  11.290   1.137  1.00  0.00     0.029 A 
ATOM     36  C   UNL     1       8.812  10.692   0.021  1.00  0.00     0.049 A 
ATOM     37  H   UNL     1       7.731   8.884  -0.112  1.00  0.00     0.167 HD
ATOM     38  C   UNL     1       8.243  10.528  -2.390  1.00  0.00     0.074 A 
ATOM     39  C   UNL     1       8.277  10.979  -3.768  1.00  0.00     0.031 C 
ATOM     40  C   UNL     1       8.838  11.151  -1.347  1.00  0.00     0.037 A 
BRANCH  27  41
ATOM     41  C   UNL     1       8.164   8.234   4.090  1.00  0.00     0.057 A 
ATOM     42  C   UNL     1       8.963   7.251   4.687  1.00  0.00     0.134 A 
ATOM     43  C   UNL     1       7.524   9.148   4.939  1.00  0.00     0.134 A 
ATOM     44  F   UNL     1       9.569   6.317   3.937  1.00  0.00    -0.206 F 
ATOM     45  C   UNL     1       9.075   7.150   6.076  1.00  0.00     0.040 A 
ATOM     46  C   UNL     1       7.657   9.079   6.324  1.00  0.00     0.040 A 
ATOM     47  F   UNL     1       6.736  10.109   4.433  1.00  0.00    -0.206 F 
ATOM     48  C   UNL     1       8.421   8.067   6.898  1.00  0.00     0.006 A 
ENDBRANCH  27  41
BRANCH  28  49
ATOM     49  C   UNL     1       6.232   7.754  -5.621  1.00  0.00     0.057 A 
ATOM     50  C   UNL     1       7.228   7.675  -6.601  1.00  0.00     0.134 A 
ATOM     51  C   UNL     1       4.901   7.740  -6.072  1.00  0.00     0.134 A 
ATOM     52  F   UNL     1       8.522   7.697  -6.250  1.00  0.00    -0.206 F 
ATOM     53  C   UNL     1       6.918   7.615  -7.965  1.00  0.00     0.040 A 
ATOM     54  C   UNL     1       4.576   7.666  -7.430  1.00  0.00     0.040 A 
ATOM     55  F   UNL     1       3.888   7.805  -5.194  1.00  0.00    -0.206 F 
ATOM     56  C   UNL     1       5.588   7.612  -8.383  1.00  0.00     0.006 A 
ENDBRANCH  28  49
BRANCH  40  57
ATOM     57  C   UNL     1       9.610  12.390  -1.666  1.00  0.00     0.057 A 
ATOM     58  C   UNL     1       8.974  13.579  -2.038  1.00  0.00     0.134 A 
ATOM     59  C   UNL     1      11.007  12.391  -1.585  1.00  0.00     0.134 A 
ATOM     60  F   UNL     1       7.638  13.629  -2.156  1.00  0.00    -0.206 F 
ATOM     61  C   UNL     1       9.705  14.727  -2.341  1.00  0.00     0.040 A 
ATOM     62  C   UNL     1      11.747  13.541  -1.855  1.00  0.00     0.040 A 
ATOM     63  F   UNL     1      11.673  11.279  -1.238  1.00  0.00    -0.206 F 
ATOM     64  C   UNL     1      11.095  14.711  -2.240  1.00  0.00     0.006 A 
ENDBRANCH  40  57
ENDBRANCH  14  15
ENDBRANCH   7   9
ENDBRANCH   6   7
ENDBRANCH   5   6
ENDBRANCH   4   5
ENDBRANCH   3   4
ENDBRANCH   2   3
ENDBRANCH   1   2
BRANCH   1  65
ATOM     65  O   UNL     1       4.302  -3.067  -3.251  1.00  0.00    -0.376 OA
BRANCH  65  66
ATOM     66  C   UNL     1       5.207  -2.011  -3.673  1.00  0.00     0.202 C 
BRANCH  66  67
ATOM     67  C   UNL     1       5.058  -1.161  -5.095  1.00  0.00     0.261 C 
BRANCH  67  68
ATOM     68  O   UNL     1       4.185   0.093  -5.171  1.00  0.00    -0.463 OA
BRANCH  68  69
ATOM     69  C   UNL     1       3.454   0.644  -6.205  1.00  0.00     0.312 C 
ATOM     70  O   UNL     1       3.463   0.136  -7.324  1.00  0.00    -0.252 OA
BRANCH  69  71
ATOM     71  C   UNL     1       2.612   2.027  -5.939  1.00  0.00     0.147 C 
ATOM     72  C   UNL     1       3.489   3.237  -5.606  1.00  0.00     0.129 C 
ATOM     73  C   UNL     1       1.433   2.318  -4.927  1.00  0.00     0.157 C 
ATOM     74  C   UNL     1       2.764   3.978  -4.480  1.00  0.00     0.155 C 
ATOM     75  C   UNL     1       0.662   3.584  -5.216  1.00  0.00     0.004 C 
ATOM     76  O   UNL     1       2.160   2.886  -3.778  1.00  0.00    -0.365 OA
ATOM     77  C   UNL     1       1.490   4.604  -4.949  1.00  0.00     0.004 C 
BRANCH  72  78
ATOM     78  C   UNL     1       4.913   2.861  -5.395  1.00  0.00     0.231 C 
ATOM     79  O   UNL     1       5.721   3.246  -6.261  1.00  0.00    -0.274 OA
ATOM     80  N   UNL     1       5.485   2.179  -4.397  1.00  0.00    -0.325 N 
ATOM     81  H   UNL     1       6.450   2.136  -4.589  1.00  0.00     0.169 HD
BRANCH  80  82
ATOM     82  C   UNL     1       5.270   1.492  -3.177  1.00  0.00     0.044 A 
ATOM     83  C   UNL     1       6.479   1.703  -2.417  1.00  0.00     0.026 A 
ATOM     84  C   UNL     1       4.190   0.721  -2.611  1.00  0.00    -0.020 A 
ATOM     85  C   UNL     1       6.604   1.394  -1.085  1.00  0.00     0.002 A 
ATOM     86  C   UNL     1       4.426   0.367  -1.279  1.00  0.00     0.006 A 
ATOM     87  C   UNL     1       5.548   0.751  -0.512  1.00  0.00     0.000 A 
BRANCH  84  88
ATOM     88  C   UNL     1       2.730   0.338  -3.105  1.00  0.00     0.073 C 
BRANCH  88  89
ATOM     89  C   UNL     1       1.883  -0.905  -3.624  1.00  0.00    -0.044 A 
ATOM     90  C   UNL     1       2.079  -1.683  -4.789  1.00  0.00     0.004 A 
ATOM     91  C   UNL     1       0.686  -1.236  -2.955  1.00  0.00     0.004 A 
ATOM     92  C   UNL     1       1.297  -2.780  -5.183  1.00  0.00     0.000 A 
ATOM     93  C   UNL     1      -0.134  -2.322  -3.353  1.00  0.00     0.000 A 
ATOM     94  C   UNL     1       0.191  -3.118  -4.446  1.00  0.00     0.000 A 
ENDBRANCH  88  89
ENDBRANCH  84  88
ENDBRANCH  80  82
ENDBRANCH  72  78
ENDBRANCH  69  71
ENDBRANCH  68  69
ENDBRANCH  67  68
ENDBRANCH  66  67
ENDBRANCH  65  66
ENDBRANCH   1  65
TORSDOF 21
