REMARK SMILES Cc1cc(C)c2c(OCCCC(=O)OCCOCCOCCOC(=O)c3ccc(-c4c5nc(c(-c6c(F)cccc6F)c6ccc([nH]6)c(-c6c(F)cccc6F)c6nc(c(-c7c(F)cccc7F)c7ccc4[nH]7)C=C6)C=C5)cc3)nsc2n1
REMARK SMILES IDX 18 1 17 2 16 3 15 4 14 5 12 6 13 7 11 8 10 9 9 10 8 11 7 12
REMARK SMILES IDX 1 13 2 14 3 15 83 16 4 17 82 18 5 19 6 20 81 21 80 22 19 23
REMARK SMILES IDX 20 24 21 25 22 26 23 27 24 28 25 29 26 30 27 31 79 32 28 33
REMARK SMILES IDX 78 34 29 35 30 36 31 37 72 38 32 39 77 40 71 41 73 42 33 43
REMARK SMILES IDX 76 44 70 45 69 46 34 48 60 49 43 50 59 51 44 52 47 53 58 54
REMARK SMILES IDX 74 55 45 56 46 57 57 59 75 60 48 61 35 62 36 63 41 64 37 65
REMARK SMILES IDX 38 66 40 67 42 68 39 69 61 70 62 71 67 72 63 73 64 74 66 75
REMARK SMILES IDX 68 76 65 77 49 78 50 79 55 80 51 81 52 82 54 83 56 84 53 85
REMARK H PARENT 73 47 47 58
REMARK Flexibility Score: inf
ROOT
ATOM      1  C   UNL     1      -1.081  -4.227  -3.472  1.00  0.00     0.188 C 
ENDROOT
BRANCH   1   2
ATOM      2  O   UNL     1      -2.077  -4.290  -2.471  1.00  0.00    -0.376 OA
BRANCH   2   3
ATOM      3  C   UNL     1      -2.484  -3.041  -1.929  1.00  0.00     0.202 C 
BRANCH   3   4
ATOM      4  C   UNL     1      -1.460  -1.895  -1.837  1.00  0.00     0.261 C 
BRANCH   4   5
ATOM      5  O   UNL     1      -0.904  -1.402  -3.098  1.00  0.00    -0.463 OA
BRANCH   5   6
ATOM      6  C   UNL     1       0.444  -1.284  -3.191  1.00  0.00     0.305 C 
ATOM      7  O   UNL     1       1.195  -1.634  -2.281  1.00  0.00    -0.252 OA
BRANCH   6   8
ATOM      8  C   UNL     1       1.033  -0.634  -4.455  1.00  0.00     0.126 C 
BRANCH   8   9
ATOM      9  C   UNL     1       0.478  -0.566  -5.889  1.00  0.00     0.053 C 
BRANCH   9  10
ATOM     10  C   UNL     1      -0.655   0.358  -6.379  1.00  0.00     0.232 C 
BRANCH  10  11
ATOM     11  O   UNL     1      -0.540   1.778  -6.442  1.00  0.00    -0.477 OA
BRANCH  11  12
ATOM     12  C   UNL     1      -0.021   2.428  -5.383  1.00  0.00     0.235 A 
ATOM     13  C   UNL     1       0.944   1.182  -0.128  1.00  0.00     0.067 C 
ATOM     14  C   UNL     1       0.377   1.804  -1.373  1.00  0.00     0.039 A 
ATOM     15  C   UNL     1      -0.874   1.408  -1.836  1.00  0.00     0.027 A 
ATOM     16  N   UNL     1       1.170   2.656  -2.042  1.00  0.00    -0.240 NA
ATOM     17  C   UNL     1      -1.246   1.608  -3.180  1.00  0.00    -0.034 A 
ATOM     18  C   UNL     1       0.783   2.868  -3.312  1.00  0.00     0.147 A 
ATOM     19  C   UNL     1      -2.524   1.002  -3.695  1.00  0.00     0.045 C 
ATOM     20  C   UNL     1      -0.291   2.280  -3.981  1.00  0.00     0.078 A 
ATOM     21  S   UNL     1       1.641   3.878  -4.378  1.00  0.00    -0.012 S 
ATOM     22  N   UNL     1       0.871   3.347  -5.747  1.00  0.00    -0.153 NA
ENDBRANCH  11  12
ENDBRANCH  10  11
ENDBRANCH   9  10
ENDBRANCH   8   9
ENDBRANCH   6   8
ENDBRANCH   5   6
ENDBRANCH   4   5
ENDBRANCH   3   4
ENDBRANCH   2   3
ENDBRANCH   1   2
BRANCH   1  23
ATOM     23  C   UNL     1      -1.459  -3.540  -4.802  1.00  0.00     0.188 C 
BRANCH  23  24
ATOM     24  O   UNL     1      -2.529  -2.613  -4.811  1.00  0.00    -0.376 OA
BRANCH  24  25
ATOM     25  C   UNL     1      -3.899  -2.927  -5.030  1.00  0.00     0.202 C 
BRANCH  25  26
ATOM     26  C   UNL     1      -4.534  -4.317  -5.043  1.00  0.00     0.261 C 
BRANCH  26  27
ATOM     27  O   UNL     1      -3.643  -5.367  -4.797  1.00  0.00    -0.460 OA
BRANCH  27  28
ATOM     28  C   UNL     1      -2.977  -5.804  -5.876  1.00  0.00     0.338 C 
ATOM     29  O   UNL     1      -3.071  -5.412  -7.032  1.00  0.00    -0.246 OA
BRANCH  28  30
ATOM     30  C   UNL     1      -2.018  -6.792  -5.394  1.00  0.00     0.060 A 
ATOM     31  C   UNL     1      -1.006  -7.197  -6.263  1.00  0.00     0.016 A 
ATOM     32  C   UNL     1      -2.247  -7.407  -4.152  1.00  0.00     0.016 A 
ATOM     33  C   UNL     1      -0.481  -8.444  -6.060  1.00  0.00     0.010 A 
ATOM     34  C   UNL     1      -1.721  -8.641  -3.945  1.00  0.00     0.010 A 
ATOM     35  C   UNL     1      -0.997  -9.184  -4.994  1.00  0.00    -0.014 A 
BRANCH  35  36
ATOM     36  C   UNL     1      -0.901 -10.614  -5.053  1.00  0.00     0.031 A 
ATOM     37  C   UNL     1       0.380 -11.094  -4.531  1.00  0.00     0.074 A 
ATOM     38  C   UNL     1      -1.953 -11.338  -5.483  1.00  0.00     0.049 A 
ATOM     39  N   UNL     1       1.387 -11.514  -5.218  1.00  0.00    -0.248 NA
ATOM     40  C   UNL     1       0.672 -10.839  -3.111  1.00  0.00     0.031 C 
ATOM     41  C   UNL     1      -3.325 -10.892  -5.765  1.00  0.00     0.029 A 
ATOM     42  N   UNL     1      -2.027 -12.677  -5.686  1.00  0.00    -0.354 N 
ATOM     43  C   UNL     1       2.345 -11.825  -4.269  1.00  0.00     0.074 A 
ATOM     44  C   UNL     1       1.966 -11.149  -3.057  1.00  0.00     0.031 C 
ATOM     45  C   UNL     1      -4.136 -11.970  -5.883  1.00  0.00     0.029 A 
ATOM     46  C   UNL     1      -3.323 -13.169  -5.832  1.00  0.00     0.049 A 
ATOM     47  H   UNL     1      -1.230 -13.254  -5.728  1.00  0.00     0.167 HD
ATOM     48  C   UNL     1       3.167 -12.890  -4.449  1.00  0.00     0.037 A 
ATOM     49  C   UNL     1      -3.648 -14.487  -5.824  1.00  0.00     0.037 A 
ATOM     50  C   UNL     1       3.194 -13.305  -5.829  1.00  0.00     0.049 A 
ATOM     51  C   UNL     1      -2.395 -15.234  -6.112  1.00  0.00     0.074 A 
ATOM     52  C   UNL     1       3.580 -12.706  -7.012  1.00  0.00     0.029 A 
ATOM     53  N   UNL     1       2.374 -14.350  -6.179  1.00  0.00    -0.354 N 
ATOM     54  N   UNL     1      -1.778 -15.198  -7.261  1.00  0.00    -0.248 NA
ATOM     55  C   UNL     1      -1.579 -15.639  -4.978  1.00  0.00     0.031 C 
ATOM     56  C   UNL     1       2.646 -13.159  -7.989  1.00  0.00     0.029 A 
ATOM     57  C   UNL     1       1.772 -14.060  -7.377  1.00  0.00     0.049 A 
ATOM     58  H   UNL     1       2.240 -15.172  -5.655  1.00  0.00     0.167 HD
ATOM     59  C   UNL     1      -0.428 -15.160  -6.939  1.00  0.00     0.074 A 
ATOM     60  C   UNL     1      -0.366 -15.519  -5.524  1.00  0.00     0.031 C 
ATOM     61  C   UNL     1       0.469 -14.553  -7.770  1.00  0.00     0.037 A 
BRANCH  48  62
ATOM     62  C   UNL     1       3.593 -13.771  -3.311  1.00  0.00     0.057 A 
ATOM     63  C   UNL     1       4.658 -14.661  -3.491  1.00  0.00     0.134 A 
ATOM     64  C   UNL     1       2.851 -13.949  -2.121  1.00  0.00     0.134 A 
ATOM     65  F   UNL     1       5.397 -14.627  -4.610  1.00  0.00    -0.206 F 
ATOM     66  C   UNL     1       4.958 -15.660  -2.558  1.00  0.00     0.040 A 
ATOM     67  C   UNL     1       3.180 -14.897  -1.154  1.00  0.00     0.040 A 
ATOM     68  F   UNL     1       1.712 -13.289  -1.877  1.00  0.00    -0.206 F 
ATOM     69  C   UNL     1       4.225 -15.774  -1.381  1.00  0.00     0.006 A 
ENDBRANCH  48  62
BRANCH  49  70
ATOM     70  C   UNL     1      -4.817 -15.163  -5.210  1.00  0.00     0.057 A 
ATOM     71  C   UNL     1      -5.062 -16.522  -5.465  1.00  0.00     0.134 A 
ATOM     72  C   UNL     1      -5.509 -14.607  -4.121  1.00  0.00     0.134 A 
ATOM     73  F   UNL     1      -4.429 -17.150  -6.467  1.00  0.00    -0.206 F 
ATOM     74  C   UNL     1      -5.896 -17.298  -4.650  1.00  0.00     0.040 A 
ATOM     75  C   UNL     1      -6.350 -15.370  -3.302  1.00  0.00     0.040 A 
ATOM     76  F   UNL     1      -5.316 -13.332  -3.754  1.00  0.00    -0.206 F 
ATOM     77  C   UNL     1      -6.528 -16.725  -3.551  1.00  0.00     0.006 A 
ENDBRANCH  49  70
BRANCH  61  78
ATOM     78  C   UNL     1      -0.012 -14.177  -9.149  1.00  0.00     0.057 A 
ATOM     79  C   UNL     1      -0.988 -13.201  -9.412  1.00  0.00     0.134 A 
ATOM     80  C   UNL     1       0.642 -14.725 -10.257  1.00  0.00     0.134 A 
ATOM     81  F   UNL     1      -1.609 -12.557  -8.415  1.00  0.00    -0.206 F 
ATOM     82  C   UNL     1      -1.316 -12.814 -10.717  1.00  0.00     0.040 A 
ATOM     83  C   UNL     1       0.348 -14.325 -11.563  1.00  0.00     0.040 A 
ATOM     84  F   UNL     1       1.619 -15.629 -10.083  1.00  0.00    -0.206 F 
ATOM     85  C   UNL     1      -0.639 -13.372 -11.798  1.00  0.00     0.006 A 
ENDBRANCH  61  78
ENDBRANCH  35  36
ENDBRANCH  28  30
ENDBRANCH  27  28
ENDBRANCH  26  27
ENDBRANCH  25  26
ENDBRANCH  24  25
ENDBRANCH  23  24
ENDBRANCH   1  23
TORSDOF 21
