REMARK SMILES O=C(OCCOCCOCCOC(=O)[C@H]1O[C@@H](Oc2c(-c3cc(O)c(O)c(O)c3)oc3cc(O)cc(O)c3c2=O)[C@H](O)[C@@H](O)[C@@H]1O)c1ccc(-c2c3nc(c(-c4c(F)cccc4F)c4ccc([nH]4)c(-c4c(F)cccc4F)c4nc(c(-c5c(F)cccc5F)c5ccc2[nH]5)C=C4)C=C3)cc1
REMARK SMILES IDX 8 1 7 2 6 3 5 4 4 5 3 6 2 7 1 8 47 9 48 10 100 11 49 12
REMARK SMILES IDX 99 13 50 14 51 15 52 16 93 17 53 18 98 19 92 20 94 21 54 22
REMARK SMILES IDX 97 23 91 24 90 25 55 27 81 28 64 29 80 30 65 31 68 32 79 33
REMARK SMILES IDX 95 34 66 35 67 36 78 38 96 39 69 40 56 41 57 42 62 43 58 44
REMARK SMILES IDX 59 45 61 46 63 47 60 48 82 49 83 50 88 51 84 52 85 53 87 54
REMARK SMILES IDX 89 55 86 56 70 57 71 58 76 59 72 60 73 61 75 62 77 63 74 64
REMARK SMILES IDX 9 65 10 66 11 67 12 68 13 69 14 70 15 71 16 72 45 73 17 74
REMARK SMILES IDX 43 75 41 76 46 77 18 79 19 80 20 81 39 82 30 83 38 84 40 85
REMARK SMILES IDX 31 86 36 87 32 88 35 89 33 90 21 91 22 92 29 93 23 94 27 95
REMARK SMILES IDX 25 96 24 97 28 99 26 101 37 103 34 105 44 107 42 109
REMARK H PARENT 94 26 68 37 46 78 24 98 28 100 26 102 37 104 34 106 44 108
REMARK H PARENT 42 110
REMARK Flexibility Score: inf
ROOT
ATOM      1  C   UNL     1       3.834  -3.310  -2.093  1.00  0.00     0.188 C 
ENDROOT
BRANCH   1   2
ATOM      2  C   UNL     1       2.632  -4.053  -2.685  1.00  0.00     0.188 C 
BRANCH   2   3
ATOM      3  O   UNL     1       2.515  -5.370  -2.165  1.00  0.00    -0.376 OA
BRANCH   3   4
ATOM      4  C   UNL     1       1.836  -6.357  -2.931  1.00  0.00     0.202 C 
BRANCH   4   5
ATOM      5  C   UNL     1       0.454  -6.018  -3.495  1.00  0.00     0.261 C 
BRANCH   5   6
ATOM      6  O   UNL     1      -0.019  -4.696  -3.211  1.00  0.00    -0.460 OA
BRANCH   6   7
ATOM      7  C   UNL     1      -0.656  -4.282  -2.089  1.00  0.00     0.338 C 
ATOM      8  O   UNL     1      -1.169  -3.178  -2.054  1.00  0.00    -0.246 OA
BRANCH   7   9
ATOM      9  C   UNL     1      -0.817  -5.203  -0.941  1.00  0.00     0.060 A 
ATOM     10  C   UNL     1       0.219  -5.885  -0.325  1.00  0.00     0.016 A 
ATOM     11  C   UNL     1      -2.075  -5.326  -0.389  1.00  0.00     0.016 A 
ATOM     12  C   UNL     1      -0.017  -6.837   0.665  1.00  0.00     0.010 A 
ATOM     13  C   UNL     1      -2.249  -6.072   0.782  1.00  0.00     0.010 A 
ATOM     14  C   UNL     1      -1.236  -6.889   1.321  1.00  0.00    -0.014 A 
BRANCH  14  15
ATOM     15  C   UNL     1      -1.506  -7.759   2.527  1.00  0.00     0.031 A 
ATOM     16  C   UNL     1      -2.904  -8.331   2.649  1.00  0.00     0.074 A 
ATOM     17  C   UNL     1      -0.604  -7.973   3.525  1.00  0.00     0.049 A 
ATOM     18  N   UNL     1      -3.593  -8.613   3.719  1.00  0.00    -0.248 NA
ATOM     19  C   UNL     1      -3.660  -8.516   1.390  1.00  0.00     0.031 C 
ATOM     20  C   UNL     1       0.801  -7.564   3.521  1.00  0.00     0.029 A 
ATOM     21  N   UNL     1      -0.726  -8.546   4.781  1.00  0.00    -0.354 N 
ATOM     22  C   UNL     1      -4.860  -8.965   3.260  1.00  0.00     0.074 A 
ATOM     23  C   UNL     1      -4.890  -8.713   1.840  1.00  0.00     0.031 C 
ATOM     24  C   UNL     1       1.394  -7.847   4.690  1.00  0.00     0.029 A 
ATOM     25  C   UNL     1       0.399  -8.385   5.586  1.00  0.00     0.049 A 
ATOM     26  H   UNL     1      -1.535  -9.024   5.077  1.00  0.00     0.167 HD
ATOM     27  C   UNL     1      -5.874  -9.538   3.949  1.00  0.00     0.037 A 
ATOM     28  C   UNL     1       0.557  -8.487   6.926  1.00  0.00     0.037 A 
ATOM     29  C   UNL     1      -5.742  -9.909   5.330  1.00  0.00     0.049 A 
ATOM     30  C   UNL     1      -0.674  -8.869   7.712  1.00  0.00     0.074 A 
ATOM     31  C   UNL     1      -6.598 -10.657   6.113  1.00  0.00     0.029 A 
ATOM     32  N   UNL     1      -4.649  -9.576   6.121  1.00  0.00    -0.354 N 
ATOM     33  N   UNL     1      -1.864  -9.195   7.267  1.00  0.00    -0.248 NA
ATOM     34  C   UNL     1      -0.566  -8.812   9.175  1.00  0.00     0.031 C 
ATOM     35  C   UNL     1      -6.034 -10.757   7.388  1.00  0.00     0.029 A 
ATOM     36  C   UNL     1      -4.809 -10.107   7.385  1.00  0.00     0.049 A 
ATOM     37  H   UNL     1      -3.877  -9.043   5.824  1.00  0.00     0.167 HD
ATOM     38  C   UNL     1      -2.621  -9.468   8.393  1.00  0.00     0.074 A 
ATOM     39  C   UNL     1      -1.774  -9.211   9.540  1.00  0.00     0.031 C 
ATOM     40  C   UNL     1      -3.888  -9.937   8.476  1.00  0.00     0.037 A 
BRANCH  27  41
ATOM     41  C   UNL     1      -7.135  -9.894   3.209  1.00  0.00     0.057 A 
ATOM     42  C   UNL     1      -7.148 -10.866   2.196  1.00  0.00     0.134 A 
ATOM     43  C   UNL     1      -8.360  -9.297   3.532  1.00  0.00     0.134 A 
ATOM     44  F   UNL     1      -6.013 -11.483   1.831  1.00  0.00    -0.206 F 
ATOM     45  C   UNL     1      -8.316 -11.200   1.507  1.00  0.00     0.040 A 
ATOM     46  C   UNL     1      -9.543  -9.645   2.870  1.00  0.00     0.040 A 
ATOM     47  F   UNL     1      -8.434  -8.370   4.499  1.00  0.00    -0.206 F 
ATOM     48  C   UNL     1      -9.521 -10.592   1.849  1.00  0.00     0.006 A 
ENDBRANCH  27  41
BRANCH  28  49
ATOM     49  C   UNL     1       1.747  -7.947   7.677  1.00  0.00     0.057 A 
ATOM     50  C   UNL     1       2.558  -8.777   8.454  1.00  0.00     0.134 A 
ATOM     51  C   UNL     1       1.959  -6.565   7.832  1.00  0.00     0.134 A 
ATOM     52  F   UNL     1       2.373 -10.104   8.426  1.00  0.00    -0.206 F 
ATOM     53  C   UNL     1       3.499  -8.261   9.359  1.00  0.00     0.040 A 
ATOM     54  C   UNL     1       2.915  -6.032   8.704  1.00  0.00     0.040 A 
ATOM     55  F   UNL     1       1.191  -5.690   7.174  1.00  0.00    -0.206 F 
ATOM     56  C   UNL     1       3.680  -6.885   9.487  1.00  0.00     0.006 A 
ENDBRANCH  28  49
BRANCH  40  57
ATOM     57  C   UNL     1      -4.289 -10.486   9.805  1.00  0.00     0.057 A 
ATOM     58  C   UNL     1      -4.669  -9.689  10.885  1.00  0.00     0.134 A 
ATOM     59  C   UNL     1      -4.290 -11.878   9.976  1.00  0.00     0.134 A 
ATOM     60  F   UNL     1      -4.645  -8.352  10.789  1.00  0.00    -0.206 F 
ATOM     61  C   UNL     1      -5.029 -10.263  12.104  1.00  0.00     0.040 A 
ATOM     62  C   UNL     1      -4.681 -12.462  11.175  1.00  0.00     0.040 A 
ATOM     63  F   UNL     1      -3.926 -12.688   8.969  1.00  0.00    -0.206 F 
ATOM     64  C   UNL     1      -5.046 -11.651  12.246  1.00  0.00     0.006 A 
ENDBRANCH  40  57
ENDBRANCH  14  15
ENDBRANCH   7   9
ENDBRANCH   6   7
ENDBRANCH   5   6
ENDBRANCH   4   5
ENDBRANCH   3   4
ENDBRANCH   2   3
ENDBRANCH   1   2
BRANCH   1  65
ATOM     65  O   UNL     1       5.118  -3.911  -2.235  1.00  0.00    -0.376 OA
BRANCH  65  66
ATOM     66  C   UNL     1       5.239  -5.298  -1.944  1.00  0.00     0.202 C 
BRANCH  66  67
ATOM     67  C   UNL     1       5.011  -5.771  -0.494  1.00  0.00     0.261 C 
BRANCH  67  68
ATOM     68  O   UNL     1       3.876  -5.217   0.207  1.00  0.00    -0.461 OA
BRANCH  68  69
ATOM     69  C   UNL     1       4.173  -4.149   0.990  1.00  0.00     0.338 C 
ATOM     70  O   UNL     1       5.286  -3.624   1.053  1.00  0.00    -0.249 OA
BRANCH  69  71
ATOM     71  C   UNL     1       3.077  -3.752   1.998  1.00  0.00     0.263 C 
ATOM     72  O   UNL     1       1.663  -3.551   1.782  1.00  0.00    -0.322 OA
ATOM     73  C   UNL     1       3.254  -4.776   3.120  1.00  0.00     0.186 C 
ATOM     74  C   UNL     1       1.055  -2.866   2.939  1.00  0.00     0.340 C 
ATOM     75  C   UNL     1       2.715  -4.150   4.383  1.00  0.00     0.181 C 
ATOM     76  C   UNL     1       1.259  -3.688   4.242  1.00  0.00     0.214 C 
BRANCH  73  77
ATOM     77  O   UNL     1       4.587  -5.224   3.419  1.00  0.00    -0.387 OA
ATOM     78  H   UNL     1       5.113  -4.477   3.745  1.00  0.00     0.211 HD
ENDBRANCH  73  77
BRANCH  74  79
ATOM     79  O   UNL     1      -0.239  -2.218   2.769  1.00  0.00    -0.454 OA
BRANCH  79  80
ATOM     80  C   UNL     1      -1.509  -2.723   2.578  1.00  0.00     0.214 A 
ATOM     81  C   UNL     1      -2.338  -3.232   3.521  1.00  0.00     0.181 A 
ATOM     82  C   UNL     1      -2.269  -2.212   1.365  1.00  0.00     0.239 A 
ATOM     83  O   UNL     1      -3.630  -3.688   3.309  1.00  0.00    -0.452 OA
ATOM     84  C   UNL     1      -3.624  -2.782   1.092  1.00  0.00     0.111 A 
ATOM     85  O   UNL     1      -1.772  -1.344   0.658  1.00  0.00    -0.285 OA
ATOM     86  C   UNL     1      -4.178  -3.594   2.070  1.00  0.00     0.146 A 
ATOM     87  C   UNL     1      -4.316  -2.661  -0.123  1.00  0.00     0.134 A 
ATOM     88  C   UNL     1      -5.310  -4.381   1.823  1.00  0.00     0.094 A 
ATOM     89  C   UNL     1      -5.438  -3.463  -0.398  1.00  0.00     0.093 A 
ATOM     90  C   UNL     1      -5.894  -4.355   0.567  1.00  0.00     0.123 A 
BRANCH  81  91
ATOM     91  C   UNL     1      -2.015  -3.428   4.929  1.00  0.00     0.029 A 
ATOM     92  C   UNL     1      -1.905  -4.748   5.348  1.00  0.00     0.062 A 
ATOM     93  C   UNL     1      -1.901  -2.378   5.862  1.00  0.00     0.062 A 
ATOM     94  C   UNL     1      -1.566  -4.986   6.658  1.00  0.00     0.162 A 
ATOM     95  C   UNL     1      -1.571  -2.668   7.185  1.00  0.00     0.162 A 
ATOM     96  C   UNL     1      -1.381  -3.975   7.576  1.00  0.00     0.200 A 
BRANCH  94  97
ATOM     97  O   UNL     1      -1.196  -6.227   7.027  1.00  0.00    -0.504 OA
ATOM     98  H   UNL     1      -1.304  -6.944   6.433  1.00  0.00     0.293 HD
ENDBRANCH  94  97
BRANCH  95  99
ATOM     99  O   UNL     1      -1.354  -1.672   8.090  1.00  0.00    -0.504 OA
ATOM    100  H   UNL     1      -1.133  -1.884   8.976  1.00  0.00     0.293 HD
ENDBRANCH  95  99
BRANCH  96 101
ATOM    101  O   UNL     1      -0.907  -4.279   8.823  1.00  0.00    -0.502 OA
ATOM    102  H   UNL     1      -0.783  -5.174   9.072  1.00  0.00     0.293 HD
ENDBRANCH  96 101
ENDBRANCH  81  91
BRANCH  87 103
ATOM    103  O   UNL     1      -3.882  -1.795  -1.080  1.00  0.00    -0.507 OA
ATOM    104  H   UNL     1      -4.349  -1.718  -1.889  1.00  0.00     0.293 HD
ENDBRANCH  87 103
BRANCH  90 105
ATOM    105  O   UNL     1      -6.894  -5.245   0.310  1.00  0.00    -0.508 OA
ATOM    106  H   UNL     1      -7.180  -5.834   0.980  1.00  0.00     0.293 HD
ENDBRANCH  90 105
ENDBRANCH  79  80
ENDBRANCH  74  79
BRANCH  75 107
ATOM    107  O   UNL     1       2.874  -5.089   5.447  1.00  0.00    -0.387 OA
ATOM    108  H   UNL     1       2.368  -5.892   5.247  1.00  0.00     0.211 HD
ENDBRANCH  75 107
BRANCH  76 109
ATOM    109  O   UNL     1       1.011  -2.890   5.402  1.00  0.00    -0.384 OA
ATOM    110  H   UNL     1       1.642  -2.154   5.429  1.00  0.00     0.211 HD
ENDBRANCH  76 109
ENDBRANCH  69  71
ENDBRANCH  68  69
ENDBRANCH  67  68
ENDBRANCH  66  67
ENDBRANCH  65  66
ENDBRANCH   1  65
TORSDOF 28
