REMARK SMILES C[C@H](Oc1cc2oc(=O)cc(-c3ccccc3)c2cc1Cl)C(=O)OCCOCCOCCOC(=O)c1ccc(-c2c3nc(c(-c4c(F)cccc4F)c4ccc([nH]4)c(-c4c(F)cccc4F)c4nc(c(-c5c(F)cccc5F)c5ccc2[nH]5)C=C4)C=C3)cc1
REMARK SMILES IDX 28 1 27 2 26 3 25 4 24 5 22 6 23 7 2 8 1 9 3 10 4 11 5 12
REMARK SMILES IDX 20 13 6 14 19 15 21 16 7 17 18 18 8 19 11 20 9 21 10 22
REMARK SMILES IDX 12 23 13 24 17 25 14 26 16 27 15 28 29 29 30 30 31 31 32 32
REMARK SMILES IDX 33 33 34 34 35 35 36 36 37 37 89 38 38 39 88 40 39 41 40 42
REMARK SMILES IDX 41 43 82 44 42 45 87 46 81 47 83 48 43 49 86 50 80 51 79 52
REMARK SMILES IDX 44 54 70 55 53 56 69 57 54 58 57 59 68 60 84 61 55 62 56 63
REMARK SMILES IDX 67 65 85 66 58 67 45 68 46 69 51 70 47 71 48 72 50 73 52 74
REMARK SMILES IDX 49 75 71 76 72 77 77 78 73 79 74 80 76 81 78 82 75 83 59 84
REMARK SMILES IDX 60 85 65 86 61 87 62 88 64 89 66 90 63 91
REMARK H PARENT 83 53 57 64
REMARK Flexibility Score: inf
ROOT
ATOM      1  C   UNL     1      -2.229  -1.405  -1.248  1.00  0.00     0.188 C 
ENDROOT
BRANCH   1   2
ATOM      2  O   UNL     1      -3.580  -1.562  -0.833  1.00  0.00    -0.376 OA
BRANCH   2   3
ATOM      3  C   UNL     1      -4.018  -0.959   0.378  1.00  0.00     0.202 C 
BRANCH   3   4
ATOM      4  C   UNL     1      -3.226  -1.189   1.675  1.00  0.00     0.261 C 
BRANCH   4   5
ATOM      5  O   UNL     1      -1.817  -0.901   1.617  1.00  0.00    -0.461 OA
BRANCH   5   6
ATOM      6  C   UNL     1      -0.980  -1.971   1.690  1.00  0.00     0.347 C 
ATOM      7  O   UNL     1      -1.351  -3.139   1.769  1.00  0.00    -0.248 OA
BRANCH   6   8
ATOM      8  C   UNL     1       0.509  -1.586   1.743  1.00  0.00     0.279 C 
ATOM      9  C   UNL     1       0.858  -1.613   3.234  1.00  0.00     0.066 C 
BRANCH   8  10
ATOM     10  O   UNL     1       0.856  -0.353   1.107  1.00  0.00    -0.477 OA
BRANCH  10  11
ATOM     11  C   UNL     1       2.183  -0.023   0.949  1.00  0.00     0.142 A 
ATOM     12  C   UNL     1       3.231  -0.824   1.391  1.00  0.00     0.096 A 
ATOM     13  C   UNL     1       2.500   1.239   0.414  1.00  0.00     0.084 A 
ATOM     14  C   UNL     1       4.499  -0.270   1.551  1.00  0.00     0.142 A 
ATOM     15  C   UNL     1       3.810   1.747   0.488  1.00  0.00     0.037 A 
ATOM     16  Cl  UNL     1       1.294   2.241  -0.312  1.00  0.00    -0.080 Cl
ATOM     17  O   UNL     1       5.412  -1.070   2.256  1.00  0.00    -0.423 OA
ATOM     18  C   UNL     1       4.808   1.027   1.153  1.00  0.00     0.027 A 
ATOM     19  C   UNL     1       6.538  -0.496   2.810  1.00  0.00     0.336 A 
ATOM     20  C   UNL     1       6.123   1.584   1.517  1.00  0.00    -0.000 A 
ATOM     21  O   UNL     1       7.237  -1.085   3.625  1.00  0.00    -0.246 OA
ATOM     22  C   UNL     1       6.889   0.852   2.345  1.00  0.00     0.103 A 
BRANCH  20  23
ATOM     23  C   UNL     1       6.658   2.917   1.164  1.00  0.00    -0.017 A 
ATOM     24  C   UNL     1       7.849   3.025   0.430  1.00  0.00     0.009 A 
ATOM     25  C   UNL     1       6.008   4.088   1.577  1.00  0.00     0.009 A 
ATOM     26  C   UNL     1       8.375   4.278   0.111  1.00  0.00     0.001 A 
ATOM     27  C   UNL     1       6.529   5.341   1.246  1.00  0.00     0.001 A 
ATOM     28  C   UNL     1       7.712   5.434   0.515  1.00  0.00     0.000 A 
ENDBRANCH  20  23
ENDBRANCH  10  11
ENDBRANCH   8  10
ENDBRANCH   6   8
ENDBRANCH   5   6
ENDBRANCH   4   5
ENDBRANCH   3   4
ENDBRANCH   2   3
ENDBRANCH   1   2
BRANCH   1  29
ATOM     29  C   UNL     1      -1.551  -0.025  -1.150  1.00  0.00     0.188 C 
BRANCH  29  30
ATOM     30  O   UNL     1      -2.366   0.973  -0.587  1.00  0.00    -0.376 OA
BRANCH  30  31
ATOM     31  C   UNL     1      -2.902   1.963  -1.444  1.00  0.00     0.202 C 
BRANCH  31  32
ATOM     32  C   UNL     1      -3.461   1.619  -2.841  1.00  0.00     0.261 C 
BRANCH  32  33
ATOM     33  O   UNL     1      -2.915   0.478  -3.523  1.00  0.00    -0.460 OA
BRANCH  33  34
ATOM     34  C   UNL     1      -1.846   0.671  -4.329  1.00  0.00     0.338 C 
ATOM     35  O   UNL     1      -1.262   1.722  -4.544  1.00  0.00    -0.246 OA
BRANCH  34  36
ATOM     36  C   UNL     1      -1.377  -0.657  -4.786  1.00  0.00     0.060 A 
ATOM     37  C   UNL     1      -0.184  -1.186  -4.269  1.00  0.00     0.016 A 
ATOM     38  C   UNL     1      -2.132  -1.394  -5.699  1.00  0.00     0.016 A 
ATOM     39  C   UNL     1       0.243  -2.464  -4.649  1.00  0.00     0.010 A 
ATOM     40  C   UNL     1      -1.687  -2.659  -6.100  1.00  0.00     0.010 A 
ATOM     41  C   UNL     1      -0.497  -3.202  -5.582  1.00  0.00    -0.014 A 
BRANCH  41  42
ATOM     42  C   UNL     1       0.000  -4.504  -6.099  1.00  0.00     0.031 A 
ATOM     43  C   UNL     1       0.680  -4.545  -7.440  1.00  0.00     0.074 A 
ATOM     44  C   UNL     1      -0.195  -5.644  -5.410  1.00  0.00     0.049 A 
ATOM     45  N   UNL     1       1.047  -5.579  -8.153  1.00  0.00    -0.248 NA
ATOM     46  C   UNL     1       0.981  -3.246  -8.061  1.00  0.00     0.031 C 
ATOM     47  C   UNL     1      -0.803  -5.739  -4.085  1.00  0.00     0.029 A 
ATOM     48  N   UNL     1       0.073  -6.949  -5.751  1.00  0.00    -0.354 N 
ATOM     49  C   UNL     1       1.603  -5.058  -9.314  1.00  0.00     0.074 A 
ATOM     50  C   UNL     1       1.520  -3.616  -9.214  1.00  0.00     0.031 C 
ATOM     51  C   UNL     1      -0.896  -7.035  -3.739  1.00  0.00     0.029 A 
ATOM     52  C   UNL     1      -0.397  -7.863  -4.837  1.00  0.00     0.049 A 
ATOM     53  H   UNL     1       0.554  -7.205  -6.571  1.00  0.00     0.167 HD
ATOM     54  C   UNL     1       2.131  -5.723 -10.368  1.00  0.00     0.037 A 
ATOM     55  C   UNL     1      -0.463  -9.208  -4.901  1.00  0.00     0.037 A 
ATOM     56  C   UNL     1       2.219  -7.157 -10.463  1.00  0.00     0.049 A 
ATOM     57  C   UNL     1       0.054  -9.921  -6.127  1.00  0.00     0.074 A 
ATOM     58  C   UNL     1       2.783  -7.918 -11.473  1.00  0.00     0.029 A 
ATOM     59  N   UNL     1       1.717  -8.046  -9.526  1.00  0.00    -0.354 N 
ATOM     60  N   UNL     1       0.623  -9.422  -7.198  1.00  0.00    -0.248 NA
ATOM     61  C   UNL     1      -0.088 -11.385  -6.157  1.00  0.00     0.031 C 
ATOM     62  C   UNL     1       2.562  -9.266 -11.181  1.00  0.00     0.029 A 
ATOM     63  C   UNL     1       1.917  -9.347  -9.958  1.00  0.00     0.049 A 
ATOM     64  H   UNL     1       1.284  -7.790  -8.680  1.00  0.00     0.167 HD
ATOM     65  C   UNL     1       0.926 -10.508  -8.011  1.00  0.00     0.074 A 
ATOM     66  C   UNL     1       0.501 -11.695  -7.302  1.00  0.00     0.031 C 
ATOM     67  C   UNL     1       1.498 -10.522  -9.240  1.00  0.00     0.037 A 
BRANCH  54  68
ATOM     68  C   UNL     1       2.632  -4.920 -11.531  1.00  0.00     0.057 A 
ATOM     69  C   UNL     1       3.825  -4.190 -11.471  1.00  0.00     0.134 A 
ATOM     70  C   UNL     1       1.956  -4.955 -12.758  1.00  0.00     0.134 A 
ATOM     71  F   UNL     1       4.515  -4.108 -10.323  1.00  0.00    -0.206 F 
ATOM     72  C   UNL     1       4.325  -3.519 -12.588  1.00  0.00     0.040 A 
ATOM     73  C   UNL     1       2.458  -4.310 -13.888  1.00  0.00     0.040 A 
ATOM     74  F   UNL     1       0.810  -5.642 -12.884  1.00  0.00    -0.206 F 
ATOM     75  C   UNL     1       3.647  -3.588 -13.805  1.00  0.00     0.006 A 
ENDBRANCH  54  68
BRANCH  55  76
ATOM     76  C   UNL     1      -1.099  -9.988  -3.804  1.00  0.00     0.057 A 
ATOM     77  C   UNL     1      -0.362 -10.896  -3.033  1.00  0.00     0.134 A 
ATOM     78  C   UNL     1      -2.474  -9.899  -3.550  1.00  0.00     0.134 A 
ATOM     79  F   UNL     1       0.952 -11.053  -3.248  1.00  0.00    -0.206 F 
ATOM     80  C   UNL     1      -0.973 -11.709  -2.075  1.00  0.00     0.040 A 
ATOM     81  C   UNL     1      -3.091 -10.681  -2.571  1.00  0.00     0.040 A 
ATOM     82  F   UNL     1      -3.241  -9.055  -4.255  1.00  0.00    -0.206 F 
ATOM     83  C   UNL     1      -2.342 -11.599  -1.840  1.00  0.00     0.006 A 
ENDBRANCH  55  76
BRANCH  67  84
ATOM     84  C   UNL     1       1.724 -11.859  -9.888  1.00  0.00     0.057 A 
ATOM     85  C   UNL     1       0.665 -12.629 -10.384  1.00  0.00     0.134 A 
ATOM     86  C   UNL     1       3.022 -12.357 -10.067  1.00  0.00     0.134 A 
ATOM     87  F   UNL     1      -0.603 -12.217 -10.236  1.00  0.00    -0.206 F 
ATOM     88  C   UNL     1       0.886 -13.855 -11.014  1.00  0.00     0.040 A 
ATOM     89  C   UNL     1       3.258 -13.566 -10.723  1.00  0.00     0.040 A 
ATOM     90  F   UNL     1       4.084 -11.665  -9.627  1.00  0.00    -0.206 F 
ATOM     91  C   UNL     1       2.186 -14.322 -11.193  1.00  0.00     0.006 A 
ENDBRANCH  67  84
ENDBRANCH  41  42
ENDBRANCH  34  36
ENDBRANCH  33  34
ENDBRANCH  32  33
ENDBRANCH  31  32
ENDBRANCH  30  31
ENDBRANCH  29  30
ENDBRANCH   1  29
TORSDOF 20
