REMARK SMILES O=C(Cc1c(F)cccc1F)NC[C@H]1CC[C@H](C(=O)OCCOCCOCCOC(=O)c2ccc(-c3c4nc(c(-c5c(F)cccc5F)c5ccc([nH]5)c(-c5c(F)cccc5F)c5nc(c(-c6c(F)cccc6F)c6ccc3[nH]6)C=C5)C=C4)cc2)O1
REMARK SMILES IDX 24 1 23 2 22 3 21 4 20 5 18 6 19 7 17 8 14 9 15 10 86 11
REMARK SMILES IDX 16 12 13 13 12 14 1 15 2 16 3 18 4 19 5 20 10 21 6 22 7 23
REMARK SMILES IDX 9 24 11 25 8 26 25 27 26 28 27 29 28 30 29 31 30 32 31 33
REMARK SMILES IDX 32 34 33 35 85 36 34 37 84 38 35 39 36 40 37 41 78 42 38 43
REMARK SMILES IDX 83 44 77 45 79 46 39 47 82 48 76 49 75 50 40 52 66 53 49 54
REMARK SMILES IDX 65 55 50 56 53 57 64 58 80 59 51 60 52 61 63 63 81 64 54 65
REMARK SMILES IDX 41 66 42 67 47 68 43 69 44 70 46 71 48 72 45 73 67 74 68 75
REMARK SMILES IDX 73 76 69 77 70 78 72 79 74 80 71 81 55 82 56 83 61 84 57 85
REMARK SMILES IDX 58 86 60 87 62 88 59 89
REMARK H PARENT 12 17 79 51 53 62
REMARK Flexibility Score: inf
ROOT
ATOM      1  C   UNL     1      -1.441   3.663  -4.645  1.00  0.00     0.188 C 
ENDROOT
BRANCH   1   2
ATOM      2  O   UNL     1      -2.592   3.666  -3.810  1.00  0.00    -0.376 OA
BRANCH   2   3
ATOM      3  C   UNL     1      -2.442   3.147  -2.485  1.00  0.00     0.202 C 
BRANCH   3   4
ATOM      4  C   UNL     1      -1.783   1.765  -2.331  1.00  0.00     0.261 C 
BRANCH   4   5
ATOM      5  O   UNL     1      -0.425   1.699  -2.821  1.00  0.00    -0.461 OA
BRANCH   5   6
ATOM      6  C   UNL     1      -0.174   0.746  -3.759  1.00  0.00     0.335 C 
ATOM      7  O   UNL     1      -1.009  -0.060  -4.161  1.00  0.00    -0.249 OA
BRANCH   6   8
ATOM      8  C   UNL     1       1.239   0.823  -4.354  1.00  0.00     0.228 C 
ATOM      9  C   UNL     1       2.966  -0.434  -3.369  1.00  0.00     0.138 C 
ATOM     10  C   UNL     1       2.908   0.934  -2.703  1.00  0.00     0.037 C 
ATOM     11  O   UNL     1       1.823  -0.488  -4.252  1.00  0.00    -0.361 OA
ATOM     12  C   UNL     1       2.252   1.782  -3.757  1.00  0.00     0.047 C 
BRANCH   9  13
ATOM     13  C   UNL     1       4.200  -0.720  -4.240  1.00  0.00     0.147 C 
BRANCH  13  14
ATOM     14  N   UNL     1       5.369   0.067  -3.921  1.00  0.00    -0.353 N 
ATOM     15  O   UNL     1       6.149  -1.355  -2.311  1.00  0.00    -0.275 OA
ATOM     16  C   UNL     1       6.304  -0.353  -3.004  1.00  0.00     0.224 C 
ATOM     17  H   UNL     1       5.499   0.932  -4.374  1.00  0.00     0.163 HD
BRANCH  16  18
ATOM     18  C   UNL     1       7.489   0.577  -2.817  1.00  0.00     0.141 C 
BRANCH  18  19
ATOM     19  C   UNL     1       8.106   1.149  -4.069  1.00  0.00     0.033 A 
ATOM     20  C   UNL     1       8.667   2.429  -4.038  1.00  0.00     0.129 A 
ATOM     21  C   UNL     1       8.210   0.434  -5.265  1.00  0.00     0.129 A 
ATOM     22  F   UNL     1       8.631   3.143  -2.904  1.00  0.00    -0.207 F 
ATOM     23  C   UNL     1       9.266   2.996  -5.162  1.00  0.00     0.040 A 
ATOM     24  C   UNL     1       8.788   0.993  -6.404  1.00  0.00     0.040 A 
ATOM     25  F   UNL     1       7.734  -0.815  -5.349  1.00  0.00    -0.207 F 
ATOM     26  C   UNL     1       9.318   2.280  -6.355  1.00  0.00     0.006 A 
ENDBRANCH  18  19
ENDBRANCH  16  18
ENDBRANCH  13  14
ENDBRANCH   9  13
ENDBRANCH   6   8
ENDBRANCH   5   6
ENDBRANCH   4   5
ENDBRANCH   3   4
ENDBRANCH   2   3
ENDBRANCH   1   2
BRANCH   1  27
ATOM     27  C   UNL     1      -0.229   4.454  -4.141  1.00  0.00     0.188 C 
BRANCH  27  28
ATOM     28  O   UNL     1      -0.100   4.478  -2.736  1.00  0.00    -0.376 OA
BRANCH  28  29
ATOM     29  C   UNL     1       0.393   5.645  -2.085  1.00  0.00     0.202 C 
BRANCH  29  30
ATOM     30  C   UNL     1      -0.222   7.027  -2.410  1.00  0.00     0.261 C 
BRANCH  30  31
ATOM     31  O   UNL     1      -0.275   7.428  -3.794  1.00  0.00    -0.460 OA
BRANCH  31  32
ATOM     32  C   UNL     1       0.884   7.448  -4.493  1.00  0.00     0.338 C 
ATOM     33  O   UNL     1       2.011   7.351  -4.033  1.00  0.00    -0.246 OA
BRANCH  32  34
ATOM     34  C   UNL     1       0.550   7.293  -5.937  1.00  0.00     0.060 A 
ATOM     35  C   UNL     1       1.232   6.309  -6.672  1.00  0.00     0.016 A 
ATOM     36  C   UNL     1      -0.484   8.014  -6.542  1.00  0.00     0.016 A 
ATOM     37  C   UNL     1       0.910   6.071  -8.012  1.00  0.00     0.010 A 
ATOM     38  C   UNL     1      -0.791   7.790  -7.891  1.00  0.00     0.010 A 
ATOM     39  C   UNL     1      -0.077   6.839  -8.643  1.00  0.00    -0.014 A 
BRANCH  39  40
ATOM     40  C   UNL     1      -0.226   6.805 -10.123  1.00  0.00     0.031 A 
ATOM     41  C   UNL     1       0.444   7.888 -10.926  1.00  0.00     0.074 A 
ATOM     42  C   UNL     1      -0.928   5.846 -10.756  1.00  0.00     0.049 A 
ATOM     43  N   UNL     1       0.383   8.136 -12.209  1.00  0.00    -0.248 NA
ATOM     44  C   UNL     1       1.301   8.819 -10.173  1.00  0.00     0.031 C 
ATOM     45  C   UNL     1      -1.577   4.706 -10.115  1.00  0.00     0.029 A 
ATOM     46  N   UNL     1      -1.218   5.691 -12.092  1.00  0.00    -0.354 N 
ATOM     47  C   UNL     1       1.181   9.255 -12.414  1.00  0.00     0.074 A 
ATOM     48  C   UNL     1       1.694   9.655 -11.123  1.00  0.00     0.031 C 
ATOM     49  C   UNL     1      -2.201   3.975 -11.056  1.00  0.00     0.029 A 
ATOM     50  C   UNL     1      -2.032   4.617 -12.360  1.00  0.00     0.049 A 
ATOM     51  H   UNL     1      -0.875   6.294 -12.791  1.00  0.00     0.167 HD
ATOM     52  C   UNL     1       1.468   9.888 -13.575  1.00  0.00     0.037 A 
ATOM     53  C   UNL     1      -2.598   4.215 -13.518  1.00  0.00     0.037 A 
ATOM     54  C   UNL     1       0.961   9.493 -14.861  1.00  0.00     0.049 A 
ATOM     55  C   UNL     1      -2.345   4.994 -14.785  1.00  0.00     0.074 A 
ATOM     56  C   UNL     1       1.205  10.071 -16.094  1.00  0.00     0.029 A 
ATOM     57  N   UNL     1       0.103   8.427 -15.081  1.00  0.00    -0.354 N 
ATOM     58  N   UNL     1      -1.585   6.046 -14.971  1.00  0.00    -0.248 NA
ATOM     59  C   UNL     1      -3.031   4.533 -16.003  1.00  0.00     0.031 C 
ATOM     60  C   UNL     1       0.450   9.391 -17.052  1.00  0.00     0.029 A 
ATOM     61  C   UNL     1      -0.215   8.349 -16.426  1.00  0.00     0.049 A 
ATOM     62  H   UNL     1      -0.230   7.816 -14.384  1.00  0.00     0.167 HD
ATOM     63  C   UNL     1      -1.679   6.354 -16.325  1.00  0.00     0.074 A 
ATOM     64  C   UNL     1      -2.561   5.372 -16.917  1.00  0.00     0.031 C 
ATOM     65  C   UNL     1      -1.085   7.361 -17.012  1.00  0.00     0.037 A 
BRANCH  52  66
ATOM     66  C   UNL     1       2.359  11.094 -13.509  1.00  0.00     0.057 A 
ATOM     67  C   UNL     1       1.850  12.371 -13.775  1.00  0.00     0.134 A 
ATOM     68  C   UNL     1       3.730  10.987 -13.243  1.00  0.00     0.134 A 
ATOM     69  F   UNL     1       0.546  12.543 -14.041  1.00  0.00    -0.206 F 
ATOM     70  C   UNL     1       2.675  13.497 -13.796  1.00  0.00     0.040 A 
ATOM     71  C   UNL     1       4.560  12.109 -13.232  1.00  0.00     0.040 A 
ATOM     72  F   UNL     1       4.278   9.795 -12.963  1.00  0.00    -0.206 F 
ATOM     73  C   UNL     1       4.034  13.367 -13.520  1.00  0.00     0.006 A 
ENDBRANCH  52  66
BRANCH  53  74
ATOM     74  C   UNL     1      -3.478   3.015 -13.537  1.00  0.00     0.057 A 
ATOM     75  C   UNL     1      -4.725   3.011 -12.899  1.00  0.00     0.134 A 
ATOM     76  C   UNL     1      -3.094   1.845 -14.202  1.00  0.00     0.134 A 
ATOM     77  F   UNL     1      -5.158   4.103 -12.252  1.00  0.00    -0.206 F 
ATOM     78  C   UNL     1      -5.547   1.882 -12.902  1.00  0.00     0.040 A 
ATOM     79  C   UNL     1      -3.917   0.717 -14.236  1.00  0.00     0.040 A 
ATOM     80  F   UNL     1      -1.927   1.795 -14.860  1.00  0.00    -0.206 F 
ATOM     81  C   UNL     1      -5.144   0.731 -13.576  1.00  0.00     0.006 A 
ENDBRANCH  53  74
BRANCH  65  82
ATOM     82  C   UNL     1      -1.332   7.451 -18.492  1.00  0.00     0.057 A 
ATOM     83  C   UNL     1      -0.296   7.202 -19.403  1.00  0.00     0.134 A 
ATOM     84  C   UNL     1      -2.558   7.879 -19.013  1.00  0.00     0.134 A 
ATOM     85  F   UNL     1       0.910   6.802 -18.971  1.00  0.00    -0.206 F 
ATOM     86  C   UNL     1      -0.465   7.395 -20.775  1.00  0.00     0.040 A 
ATOM     87  C   UNL     1      -2.749   8.050 -20.386  1.00  0.00     0.040 A 
ATOM     88  F   UNL     1      -3.594   8.129 -18.197  1.00  0.00    -0.206 F 
ATOM     89  C   UNL     1      -1.696   7.819 -21.270  1.00  0.00     0.006 A 
ENDBRANCH  65  82
ENDBRANCH  39  40
ENDBRANCH  32  34
ENDBRANCH  31  32
ENDBRANCH  30  31
ENDBRANCH  29  30
ENDBRANCH  28  29
ENDBRANCH  27  28
ENDBRANCH   1  27
TORSDOF 21
