REMARK SMILES O=C(OCCOCCOCCOC(=O)c1cc(-c2ccn(C(F)F)c(=O)c2)ccc1O)c1ccc(-c2c3nc(c(-c4c(F)cccc4F)c4ccc([nH]4)c(-c4c(F)cccc4F)c4nc(c(-c5c(F)cccc5F)c5ccc2[nH]5)C=C4)C=C3)cc1
REMARK SMILES IDX 7 1 6 2 5 3 4 4 3 5 2 6 1 7 32 8 33 9 85 10 34 11 84 12
REMARK SMILES IDX 35 13 36 14 37 15 78 16 38 17 83 18 77 19 79 20 39 21 82 22
REMARK SMILES IDX 76 23 75 24 40 26 66 27 49 28 65 29 50 30 53 31 64 32 80 33
REMARK SMILES IDX 51 34 52 35 63 37 81 38 54 39 41 40 42 41 47 42 43 43 44 44
REMARK SMILES IDX 46 45 48 46 45 47 67 48 68 49 73 50 69 51 70 52 72 53 74 54
REMARK SMILES IDX 71 55 55 56 56 57 61 58 57 59 58 60 60 61 62 62 59 63 8 64
REMARK SMILES IDX 9 65 10 66 11 67 12 68 13 69 14 70 15 71 16 72 30 73 17 74
REMARK SMILES IDX 29 75 28 76 31 77 18 79 19 80 27 81 20 82 25 83 21 84 26 85
REMARK SMILES IDX 22 86 23 87 24 88
REMARK H PARENT 79 25 53 36 31 78
REMARK Flexibility Score: inf
ROOT
ATOM      1  C   UNL     1       2.567  -1.863   0.043  1.00  0.00     0.188 C 
ENDROOT
BRANCH   1   2
ATOM      2  O   UNL     1       3.830  -1.342  -0.399  1.00  0.00    -0.376 OA
BRANCH   2   3
ATOM      3  C   UNL     1       4.815  -1.298   0.640  1.00  0.00     0.202 C 
BRANCH   3   4
ATOM      4  C   UNL     1       4.827   0.013   1.432  1.00  0.00     0.261 C 
BRANCH   4   5
ATOM      5  O   UNL     1       3.511   0.548   1.605  1.00  0.00    -0.460 OA
BRANCH   5   6
ATOM      6  C   UNL     1       2.847   1.407   0.796  1.00  0.00     0.338 C 
ATOM      7  O   UNL     1       1.690   1.693   1.104  1.00  0.00    -0.246 OA
BRANCH   6   8
ATOM      8  C   UNL     1       3.412   2.041  -0.446  1.00  0.00     0.060 A 
ATOM      9  C   UNL     1       2.735   3.178  -0.913  1.00  0.00     0.016 A 
ATOM     10  C   UNL     1       4.470   1.570  -1.229  1.00  0.00     0.016 A 
ATOM     11  C   UNL     1       3.061   3.779  -2.137  1.00  0.00     0.010 A 
ATOM     12  C   UNL     1       4.851   2.213  -2.415  1.00  0.00     0.010 A 
ATOM     13  C   UNL     1       4.128   3.302  -2.904  1.00  0.00    -0.014 A 
BRANCH  13  14
ATOM     14  C   UNL     1       4.548   3.991  -4.150  1.00  0.00     0.031 A 
ATOM     15  C   UNL     1       4.521   3.315  -5.496  1.00  0.00     0.074 A 
ATOM     16  C   UNL     1       5.059   5.232  -4.048  1.00  0.00     0.049 A 
ATOM     17  N   UNL     1       4.769   3.829  -6.677  1.00  0.00    -0.248 NA
ATOM     18  C   UNL     1       4.193   1.882  -5.533  1.00  0.00     0.031 C 
ATOM     19  C   UNL     1       5.232   5.974  -2.797  1.00  0.00     0.029 A 
ATOM     20  N   UNL     1       5.572   6.068  -5.005  1.00  0.00    -0.354 N 
ATOM     21  C   UNL     1       4.554   2.808  -7.593  1.00  0.00     0.074 A 
ATOM     22  C   UNL     1       4.276   1.617  -6.831  1.00  0.00     0.031 C 
ATOM     23  C   UNL     1       5.845   7.137  -3.059  1.00  0.00     0.029 A 
ATOM     24  C   UNL     1       6.129   7.209  -4.487  1.00  0.00     0.049 A 
ATOM     25  H   UNL     1       5.544   5.868  -5.969  1.00  0.00     0.167 HD
ATOM     26  C   UNL     1       4.556   2.867  -8.945  1.00  0.00     0.037 A 
ATOM     27  C   UNL     1       6.824   8.190  -5.089  1.00  0.00     0.037 A 
ATOM     28  C   UNL     1       4.967   4.018  -9.699  1.00  0.00     0.049 A 
ATOM     29  C   UNL     1       7.005   8.158  -6.577  1.00  0.00     0.074 A 
ATOM     30  C   UNL     1       4.954   4.207 -11.069  1.00  0.00     0.029 A 
ATOM     31  N   UNL     1       5.547   5.142  -9.140  1.00  0.00    -0.354 N 
ATOM     32  N   UNL     1       6.551   7.286  -7.443  1.00  0.00    -0.248 NA
ATOM     33  C   UNL     1       7.782   9.252  -7.173  1.00  0.00     0.031 C 
ATOM     34  C   UNL     1       5.610   5.412 -11.344  1.00  0.00     0.029 A 
ATOM     35  C   UNL     1       5.985   5.989 -10.141  1.00  0.00     0.049 A 
ATOM     36  H   UNL     1       5.635   5.314  -8.174  1.00  0.00     0.167 HD
ATOM     37  C   UNL     1       6.955   7.744  -8.689  1.00  0.00     0.074 A 
ATOM     38  C   UNL     1       7.695   8.969  -8.466  1.00  0.00     0.031 C 
ATOM     39  C   UNL     1       6.721   7.203  -9.909  1.00  0.00     0.037 A 
BRANCH  26  40
ATOM     40  C   UNL     1       4.080   1.675  -9.716  1.00  0.00     0.057 A 
ATOM     41  C   UNL     1       4.974   0.772 -10.299  1.00  0.00     0.134 A 
ATOM     42  C   UNL     1       2.716   1.496  -9.978  1.00  0.00     0.134 A 
ATOM     43  F   UNL     1       6.294   0.903 -10.106  1.00  0.00    -0.206 F 
ATOM     44  C   UNL     1       4.526  -0.275 -11.108  1.00  0.00     0.040 A 
ATOM     45  C   UNL     1       2.255   0.450 -10.782  1.00  0.00     0.040 A 
ATOM     46  F   UNL     1       1.805   2.321  -9.439  1.00  0.00    -0.206 F 
ATOM     47  C   UNL     1       3.163  -0.439 -11.351  1.00  0.00     0.006 A 
ENDBRANCH  26  40
BRANCH  27  48
ATOM     48  C   UNL     1       7.417   9.268  -4.261  1.00  0.00     0.057 A 
ATOM     49  C   UNL     1       8.486   9.004  -3.395  1.00  0.00     0.134 A 
ATOM     50  C   UNL     1       6.913  10.571  -4.293  1.00  0.00     0.134 A 
ATOM     51  F   UNL     1       9.005   7.770  -3.315  1.00  0.00    -0.206 F 
ATOM     52  C   UNL     1       9.024   9.997  -2.577  1.00  0.00     0.040 A 
ATOM     53  C   UNL     1       7.458  11.579  -3.498  1.00  0.00     0.040 A 
ATOM     54  F   UNL     1       5.901  10.884  -5.114  1.00  0.00    -0.206 F 
ATOM     55  C   UNL     1       8.512  11.291  -2.631  1.00  0.00     0.006 A 
ENDBRANCH  27  48
BRANCH  39  56
ATOM     56  C   UNL     1       7.251   7.936 -11.100  1.00  0.00     0.057 A 
ATOM     57  C   UNL     1       6.383   8.614 -11.964  1.00  0.00     0.134 A 
ATOM     58  C   UNL     1       8.615   7.932 -11.416  1.00  0.00     0.134 A 
ATOM     59  F   UNL     1       5.064   8.644 -11.721  1.00  0.00    -0.206 F 
ATOM     60  C   UNL     1       6.853   9.259 -13.108  1.00  0.00     0.040 A 
ATOM     61  C   UNL     1       9.100   8.594 -12.544  1.00  0.00     0.040 A 
ATOM     62  F   UNL     1       9.495   7.308 -10.620  1.00  0.00    -0.206 F 
ATOM     63  C   UNL     1       8.216   9.253 -13.397  1.00  0.00     0.006 A 
ENDBRANCH  39  56
ENDBRANCH  13  14
ENDBRANCH   6   8
ENDBRANCH   5   6
ENDBRANCH   4   5
ENDBRANCH   3   4
ENDBRANCH   2   3
ENDBRANCH   1   2
BRANCH   1  64
ATOM     64  C   UNL     1       1.966  -2.837  -0.973  1.00  0.00     0.188 C 
BRANCH  64  65
ATOM     65  O   UNL     1       2.681  -4.053  -1.183  1.00  0.00    -0.376 OA
BRANCH  65  66
ATOM     66  C   UNL     1       4.006  -3.958  -1.693  1.00  0.00     0.202 C 
BRANCH  66  67
ATOM     67  C   UNL     1       4.193  -3.540  -3.159  1.00  0.00     0.261 C 
BRANCH  67  68
ATOM     68  O   UNL     1       3.510  -2.346  -3.576  1.00  0.00    -0.460 OA
BRANCH  68  69
ATOM     69  C   UNL     1       2.380  -2.586  -4.285  1.00  0.00     0.342 C 
ATOM     70  O   UNL     1       1.811  -3.665  -4.430  1.00  0.00    -0.246 OA
BRANCH  69  71
ATOM     71  C   UNL     1       1.903  -1.367  -4.949  1.00  0.00     0.102 A 
ATOM     72  C   UNL     1       1.127  -0.408  -4.268  1.00  0.00     0.028 A 
ATOM     73  C   UNL     1       2.102  -1.268  -6.326  1.00  0.00     0.130 A 
ATOM     74  C   UNL     1       0.541   0.658  -4.976  1.00  0.00    -0.017 A 
ATOM     75  C   UNL     1       1.501  -0.241  -7.035  1.00  0.00     0.048 A 
ATOM     76  C   UNL     1       0.752   0.725  -6.365  1.00  0.00     0.012 A 
BRANCH  73  77
ATOM     77  O   UNL     1       2.910  -2.157  -6.976  1.00  0.00    -0.507 OA
ATOM     78  H   UNL     1       3.318  -2.853  -6.500  1.00  0.00     0.293 HD
ENDBRANCH  73  77
BRANCH  74  79
ATOM     79  C   UNL     1      -0.301   1.719  -4.355  1.00  0.00    -0.011 A 
ATOM     80  C   UNL     1      -1.487   2.253  -5.013  1.00  0.00     0.027 A 
ATOM     81  C   UNL     1       0.074   2.283  -3.194  1.00  0.00     0.080 A 
ATOM     82  C   UNL     1      -2.117   3.336  -4.543  1.00  0.00     0.095 A 
ATOM     83  C   UNL     1      -0.627   3.485  -2.647  1.00  0.00     0.255 A 
ATOM     84  N   UNL     1      -1.690   3.961  -3.391  1.00  0.00    -0.258 N 
ATOM     85  O   UNL     1      -0.211   4.000  -1.614  1.00  0.00    -0.269 OA
BRANCH  84  86
ATOM     86  C   UNL     1      -2.315   5.179  -2.940  1.00  0.00     0.451 C 
ATOM     87  F   UNL     1      -2.749   5.073  -1.661  1.00  0.00    -0.185 F 
ATOM     88  F   UNL     1      -1.444   6.217  -3.002  1.00  0.00    -0.185 F 
ENDBRANCH  84  86
ENDBRANCH  74  79
ENDBRANCH  69  71
ENDBRANCH  68  69
ENDBRANCH  67  68
ENDBRANCH  66  67
ENDBRANCH  65  66
ENDBRANCH  64  65
ENDBRANCH   1  64
TORSDOF 20
