REMARK SMILES COc1cc2cc(C(=O)OCCOCCOCCOC(=O)c3ccc(-c4c5nc(c(-c6c(F)cccc6F)c6ccc([nH]6)c(-c6c(F)cccc6F)c6nc(c(-c7c(F)cccc7F)c7ccc4[nH]7)C=C6)C=C5)cc3)n(Cc3ccccc3)c2c(OC)c1OC
REMARK SMILES IDX 14 1 13 2 12 3 11 4 10 5 8 6 9 7 7 8 3 9 4 10 88 11 5 12
REMARK SMILES IDX 85 13 6 14 84 15 76 16 2 17 1 18 89 19 90 20 86 21 87 22
REMARK SMILES IDX 77 23 78 24 79 25 83 26 80 27 82 28 81 29 15 30 16 31 17 32
REMARK SMILES IDX 18 33 19 34 20 35 21 36 22 37 23 38 75 39 24 40 74 41 25 42
REMARK SMILES IDX 26 43 27 44 68 45 28 46 73 47 67 48 69 49 29 50 72 51 66 52
REMARK SMILES IDX 65 53 30 55 56 56 39 57 55 58 40 59 43 60 54 61 70 62 41 63
REMARK SMILES IDX 42 64 53 66 71 67 44 68 31 69 32 70 37 71 33 72 34 73 36 74
REMARK SMILES IDX 38 75 35 76 57 77 58 78 63 79 59 80 60 81 62 82 64 83 61 84
REMARK SMILES IDX 45 85 46 86 51 87 47 88 48 89 50 90 52 91 49 92
REMARK H PARENT 69 54 43 65
REMARK Flexibility Score: inf
ROOT
ATOM      1  C   UNL     1      -1.094   5.649   8.245  1.00  0.00     0.188 C 
ENDROOT
BRANCH   1   2
ATOM      2  O   UNL     1      -1.200   5.362   9.633  1.00  0.00    -0.376 OA
BRANCH   2   3
ATOM      3  C   UNL     1      -0.040   4.945  10.340  1.00  0.00     0.202 C 
BRANCH   3   4
ATOM      4  C   UNL     1       0.478   3.544   9.999  1.00  0.00     0.261 C 
BRANCH   4   5
ATOM      5  O   UNL     1       1.250   3.547   8.777  1.00  0.00    -0.459 OA
BRANCH   5   6
ATOM      6  C   UNL     1       0.923   2.617   7.850  1.00  0.00     0.355 C 
ATOM      7  O   UNL     1       0.116   1.706   8.042  1.00  0.00    -0.244 OA
BRANCH   6   8
ATOM      8  C   UNL     1       1.492   2.919   6.552  1.00  0.00     0.129 A 
ATOM      9  C   UNL     1       1.907   2.147   2.006  1.00  0.00     0.165 A 
ATOM     10  C   UNL     1       1.054   2.700   2.950  1.00  0.00     0.061 A 
ATOM     11  C   UNL     1       3.215   1.822   2.376  1.00  0.00     0.205 A 
ATOM     12  C   UNL     1       1.452   2.905   4.288  1.00  0.00     0.008 A 
ATOM     13  C   UNL     1       3.659   2.013   3.733  1.00  0.00     0.189 A 
ATOM     14  C   UNL     1       0.783   3.359   5.456  1.00  0.00     0.044 A 
ATOM     15  C   UNL     1       2.730   2.523   4.682  1.00  0.00     0.096 A 
ATOM     16  N   UNL     1       2.779   2.765   6.064  1.00  0.00    -0.327 N 
BRANCH   9  17
ATOM     17  O   UNL     1       1.472   2.073   0.703  1.00  0.00    -0.493 OA
ATOM     18  C   UNL     1       0.346   1.213   0.501  1.00  0.00     0.278 C 
ENDBRANCH   9  17
BRANCH  11  19
ATOM     19  O   UNL     1       4.136   1.372   1.454  1.00  0.00    -0.490 OA
ATOM     20  C   UNL     1       3.663   0.547   0.392  1.00  0.00     0.278 C 
ENDBRANCH  11  19
BRANCH  13  21
ATOM     21  O   UNL     1       4.899   1.729   4.232  1.00  0.00    -0.491 OA
ATOM     22  C   UNL     1       5.795   0.971   3.441  1.00  0.00     0.278 C 
ENDBRANCH  13  21
BRANCH  16  23
ATOM     23  C   UNL     1       3.966   2.896   6.897  1.00  0.00     0.158 C 
BRANCH  23  24
ATOM     24  C   UNL     1       4.459   4.328   6.873  1.00  0.00    -0.028 A 
ATOM     25  C   UNL     1       3.780   5.340   7.569  1.00  0.00     0.005 A 
ATOM     26  C   UNL     1       5.571   4.690   6.107  1.00  0.00     0.005 A 
ATOM     27  C   UNL     1       4.153   6.680   7.459  1.00  0.00     0.000 A 
ATOM     28  C   UNL     1       5.976   6.027   6.032  1.00  0.00     0.000 A 
ATOM     29  C   UNL     1       5.258   7.023   6.692  1.00  0.00     0.000 A 
ENDBRANCH  23  24
ENDBRANCH  16  23
ENDBRANCH   6   8
ENDBRANCH   5   6
ENDBRANCH   4   5
ENDBRANCH   3   4
ENDBRANCH   2   3
ENDBRANCH   1   2
BRANCH   1  30
ATOM     30  C   UNL     1       0.210   6.254   7.707  1.00  0.00     0.188 C 
BRANCH  30  31
ATOM     31  O   UNL     1       0.791   7.316   8.453  1.00  0.00    -0.376 OA
BRANCH  31  32
ATOM     32  C   UNL     1      -0.020   8.473   8.650  1.00  0.00     0.202 C 
BRANCH  32  33
ATOM     33  C   UNL     1      -0.384   9.206   7.354  1.00  0.00     0.261 C 
BRANCH  33  34
ATOM     34  O   UNL     1      -1.401   8.453   6.663  1.00  0.00    -0.460 OA
BRANCH  34  35
ATOM     35  C   UNL     1      -1.272   8.398   5.315  1.00  0.00     0.338 C 
ATOM     36  O   UNL     1      -0.652   9.185   4.613  1.00  0.00    -0.246 OA
BRANCH  35  37
ATOM     37  C   UNL     1      -1.733   7.058   4.863  1.00  0.00     0.060 A 
ATOM     38  C   UNL     1      -2.776   6.359   5.479  1.00  0.00     0.016 A 
ATOM     39  C   UNL     1      -0.983   6.420   3.877  1.00  0.00     0.016 A 
ATOM     40  C   UNL     1      -2.985   4.996   5.194  1.00  0.00     0.010 A 
ATOM     41  C   UNL     1      -1.250   5.087   3.548  1.00  0.00     0.010 A 
ATOM     42  C   UNL     1      -2.190   4.315   4.255  1.00  0.00    -0.014 A 
BRANCH  42  43
ATOM     43  C   UNL     1      -2.601   2.953   3.793  1.00  0.00     0.031 A 
ATOM     44  C   UNL     1      -3.860   3.081   3.045  1.00  0.00     0.074 A 
ATOM     45  C   UNL     1      -2.147   1.667   3.897  1.00  0.00     0.049 A 
ATOM     46  N   UNL     1      -4.995   2.694   3.518  1.00  0.00    -0.248 NA
ATOM     47  C   UNL     1      -3.927   3.842   1.798  1.00  0.00     0.031 C 
ATOM     48  C   UNL     1      -1.023   1.102   4.630  1.00  0.00     0.029 A 
ATOM     49  N   UNL     1      -2.598   0.532   3.239  1.00  0.00    -0.354 N 
ATOM     50  C   UNL     1      -5.907   2.950   2.523  1.00  0.00     0.074 A 
ATOM     51  C   UNL     1      -5.241   3.802   1.565  1.00  0.00     0.031 C 
ATOM     52  C   UNL     1      -0.652  -0.100   4.135  1.00  0.00     0.029 A 
ATOM     53  C   UNL     1      -1.692  -0.540   3.231  1.00  0.00     0.049 A 
ATOM     54  H   UNL     1      -3.483   0.482   2.811  1.00  0.00     0.167 HD
ATOM     55  C   UNL     1      -7.033   2.200   2.447  1.00  0.00     0.037 A 
ATOM     56  C   UNL     1      -1.818  -1.787   2.701  1.00  0.00     0.037 A 
ATOM     57  C   UNL     1      -7.336   1.524   3.691  1.00  0.00     0.049 A 
ATOM     58  C   UNL     1      -3.250  -2.114   2.828  1.00  0.00     0.074 A 
ATOM     59  C   UNL     1      -7.418   1.917   5.018  1.00  0.00     0.029 A 
ATOM     60  N   UNL     1      -7.277   0.153   3.734  1.00  0.00    -0.354 N 
ATOM     61  N   UNL     1      -3.821  -2.421   3.958  1.00  0.00    -0.248 NA
ATOM     62  C   UNL     1      -4.147  -1.786   1.735  1.00  0.00     0.031 C 
ATOM     63  C   UNL     1      -6.915   0.818   5.777  1.00  0.00     0.029 A 
ATOM     64  C   UNL     1      -6.600  -0.196   4.876  1.00  0.00     0.049 A 
ATOM     65  H   UNL     1      -7.653  -0.467   3.068  1.00  0.00     0.167 HD
ATOM     66  C   UNL     1      -5.070  -1.839   3.860  1.00  0.00     0.074 A 
ATOM     67  C   UNL     1      -5.271  -1.618   2.432  1.00  0.00     0.031 C 
ATOM     68  C   UNL     1      -5.686  -1.313   4.958  1.00  0.00     0.037 A 
BRANCH  55  69
ATOM     69  C   UNL     1      -7.591   1.790   1.121  1.00  0.00     0.057 A 
ATOM     70  C   UNL     1      -6.803   1.623  -0.039  1.00  0.00     0.134 A 
ATOM     71  C   UNL     1      -8.896   1.290   1.048  1.00  0.00     0.134 A 
ATOM     72  F   UNL     1      -5.497   1.924  -0.068  1.00  0.00    -0.206 F 
ATOM     73  C   UNL     1      -7.290   1.032  -1.202  1.00  0.00     0.040 A 
ATOM     74  C   UNL     1      -9.375   0.639  -0.092  1.00  0.00     0.040 A 
ATOM     75  F   UNL     1      -9.710   1.344   2.112  1.00  0.00    -0.206 F 
ATOM     76  C   UNL     1      -8.573   0.513  -1.223  1.00  0.00     0.006 A 
ENDBRANCH  55  69
BRANCH  56  77
ATOM     77  C   UNL     1      -0.841  -2.779   2.168  1.00  0.00     0.057 A 
ATOM     78  C   UNL     1       0.449  -2.418   1.750  1.00  0.00     0.134 A 
ATOM     79  C   UNL     1      -1.264  -4.059   1.761  1.00  0.00     0.134 A 
ATOM     80  F   UNL     1       0.987  -1.244   2.100  1.00  0.00    -0.206 F 
ATOM     81  C   UNL     1       1.220  -3.222   0.895  1.00  0.00     0.040 A 
ATOM     82  C   UNL     1      -0.499  -4.879   0.917  1.00  0.00     0.040 A 
ATOM     83  F   UNL     1      -2.472  -4.528   2.105  1.00  0.00    -0.206 F 
ATOM     84  C   UNL     1       0.735  -4.446   0.453  1.00  0.00     0.006 A 
ENDBRANCH  56  77
BRANCH  68  85
ATOM     85  C   UNL     1      -5.186  -1.712   6.324  1.00  0.00     0.057 A 
ATOM     86  C   UNL     1      -6.103  -2.243   7.241  1.00  0.00     0.134 A 
ATOM     87  C   UNL     1      -3.883  -1.496   6.799  1.00  0.00     0.134 A 
ATOM     88  F   UNL     1      -7.381  -2.439   6.881  1.00  0.00    -0.206 F 
ATOM     89  C   UNL     1      -5.743  -2.558   8.555  1.00  0.00     0.040 A 
ATOM     90  C   UNL     1      -3.501  -1.837   8.102  1.00  0.00     0.040 A 
ATOM     91  F   UNL     1      -2.954  -0.908   6.036  1.00  0.00    -0.206 F 
ATOM     92  C   UNL     1      -4.434  -2.366   8.987  1.00  0.00     0.006 A 
ENDBRANCH  68  85
ENDBRANCH  42  43
ENDBRANCH  35  37
ENDBRANCH  34  35
ENDBRANCH  33  34
ENDBRANCH  32  33
ENDBRANCH  31  32
ENDBRANCH  30  31
ENDBRANCH   1  30
TORSDOF 22
