REMARK SMILES O=Cc1ccc2c(c1)C=C(C(=O)OCCOCCOCCOC(=O)c1ccc(-c3c4nc(c(-c5c(F)cccc5F)c5ccc([nH]5)c(-c5c(F)cccc5F)c5nc(c(-c6c(F)cccc6F)c6ccc3[nH]6)C=C5)C=C4)cc1)[C@H](C(F)(F)F)O2
REMARK SMILES IDX 18 1 17 2 16 3 15 4 14 5 13 6 11 7 12 8 10 9 3 10 4 11 8 12
REMARK SMILES IDX 5 13 7 14 6 15 9 16 84 17 79 18 2 19 1 20 80 21 81 22 82 23
REMARK SMILES IDX 83 24 19 25 20 26 21 27 22 28 23 29 24 30 25 31 26 32 78 33
REMARK SMILES IDX 27 34 77 35 28 36 29 37 30 38 71 39 31 40 76 41 70 42 72 43
REMARK SMILES IDX 32 44 75 45 69 46 68 47 33 49 59 50 42 51 58 52 43 53 46 54
REMARK SMILES IDX 57 55 73 56 44 57 45 58 56 60 74 61 47 62 34 63 35 64 40 65
REMARK SMILES IDX 36 66 37 67 39 68 41 69 38 70 60 71 61 72 66 73 62 74 63 75
REMARK SMILES IDX 65 76 67 77 64 78 48 79 49 80 54 81 50 82 51 83 53 84 55 85
REMARK SMILES IDX 52 86
REMARK H PARENT 72 48 46 59
REMARK Flexibility Score: inf
ROOT
ATOM      1  C   UNL     1       7.102   5.740   2.576  1.00  0.00     0.188 C 
ENDROOT
BRANCH   1   2
ATOM      2  C   UNL     1       8.221   5.707   3.638  1.00  0.00     0.188 C 
BRANCH   2   3
ATOM      3  O   UNL     1       9.471   6.192   3.217  1.00  0.00    -0.376 OA
BRANCH   3   4
ATOM      4  C   UNL     1      10.412   5.326   2.606  1.00  0.00     0.202 C 
BRANCH   4   5
ATOM      5  C   UNL     1      10.131   3.895   2.101  1.00  0.00     0.261 C 
BRANCH   5   6
ATOM      6  O   UNL     1       8.791   3.401   2.181  1.00  0.00    -0.460 OA
BRANCH   6   7
ATOM      7  C   UNL     1       8.545   2.487   3.153  1.00  0.00     0.338 C 
ATOM      8  O   UNL     1       9.349   2.060   3.961  1.00  0.00    -0.246 OA
BRANCH   7   9
ATOM      9  C   UNL     1       7.105   2.164   3.198  1.00  0.00     0.087 C 
ATOM     10  C   UNL     1       3.006   0.573   1.230  1.00  0.00     0.015 A 
ATOM     11  C   UNL     1       2.502   0.304   2.507  1.00  0.00     0.015 A 
ATOM     12  C   UNL     1       4.285   1.121   1.065  1.00  0.00     0.023 A 
ATOM     13  C   UNL     1       3.279   0.584   3.628  1.00  0.00     0.048 A 
ATOM     14  C   UNL     1       5.072   1.385   2.191  1.00  0.00     0.018 A 
ATOM     15  C   UNL     1       4.552   1.127   3.468  1.00  0.00     0.128 A 
ATOM     16  C   UNL     1       6.470   1.801   2.071  1.00  0.00     0.027 C 
ATOM     17  O   UNL     1       5.282   1.311   4.611  1.00  0.00    -0.475 OA
ATOM     18  C   UNL     1       6.351   2.288   4.505  1.00  0.00     0.316 C 
BRANCH  10  19
ATOM     19  C   UNL     1       2.201   0.228   0.040  1.00  0.00     0.260 C 
ATOM     20  O   UNL     1       1.068  -0.226   0.131  1.00  0.00    -0.298 OA
ENDBRANCH  10  19
BRANCH  18  21
ATOM     21  C   UNL     1       7.142   2.272   5.824  1.00  0.00     0.430 C 
ATOM     22  F   UNL     1       7.980   3.333   5.909  1.00  0.00    -0.167 F 
ATOM     23  F   UNL     1       6.293   2.394   6.879  1.00  0.00    -0.167 F 
ATOM     24  F   UNL     1       7.849   1.141   6.010  1.00  0.00    -0.167 F 
ENDBRANCH  18  21
ENDBRANCH   7   9
ENDBRANCH   6   7
ENDBRANCH   5   6
ENDBRANCH   4   5
ENDBRANCH   3   4
ENDBRANCH   2   3
ENDBRANCH   1   2
BRANCH   1  25
ATOM     25  O   UNL     1       7.397   6.122   1.246  1.00  0.00    -0.376 OA
BRANCH  25  26
ATOM     26  C   UNL     1       8.069   7.351   1.008  1.00  0.00     0.202 C 
BRANCH  26  27
ATOM     27  C   UNL     1       7.731   8.644   1.778  1.00  0.00     0.261 C 
BRANCH  27  28
ATOM     28  O   UNL     1       7.455   8.514   3.181  1.00  0.00    -0.460 OA
BRANCH  28  29
ATOM     29  C   UNL     1       6.158   8.698   3.540  1.00  0.00     0.338 C 
ATOM     30  O   UNL     1       5.217   8.949   2.813  1.00  0.00    -0.246 OA
BRANCH  29  31
ATOM     31  C   UNL     1       5.994   8.363   4.970  1.00  0.00     0.060 A 
ATOM     32  C   UNL     1       5.215   7.248   5.315  1.00  0.00     0.016 A 
ATOM     33  C   UNL     1       6.544   9.175   5.961  1.00  0.00     0.016 A 
ATOM     34  C   UNL     1       4.972   6.950   6.655  1.00  0.00     0.010 A 
ATOM     35  C   UNL     1       6.276   8.890   7.304  1.00  0.00     0.010 A 
ATOM     36  C   UNL     1       5.467   7.793   7.657  1.00  0.00    -0.014 A 
BRANCH  36  37
ATOM     37  C   UNL     1       4.999   7.633   9.056  1.00  0.00     0.031 A 
ATOM     38  C   UNL     1       3.904   8.534   9.559  1.00  0.00     0.074 A 
ATOM     39  C   UNL     1       5.526   6.698   9.865  1.00  0.00     0.049 A 
ATOM     40  N   UNL     1       3.388   8.628  10.758  1.00  0.00    -0.248 NA
ATOM     41  C   UNL     1       3.313   9.454   8.574  1.00  0.00     0.031 C 
ATOM     42  C   UNL     1       6.552   5.729   9.486  1.00  0.00     0.029 A 
ATOM     43  N   UNL     1       5.271   6.421  11.186  1.00  0.00    -0.354 N 
ATOM     44  C   UNL     1       2.421   9.622  10.674  1.00  0.00     0.074 A 
ATOM     45  C   UNL     1       2.442  10.121   9.316  1.00  0.00     0.031 C 
ATOM     46  C   UNL     1       6.853   4.974  10.557  1.00  0.00     0.029 A 
ATOM     47  C   UNL     1       6.069   5.431  11.704  1.00  0.00     0.049 A 
ATOM     48  H   UNL     1       4.582   6.888  11.711  1.00  0.00     0.167 HD
ATOM     49  C   UNL     1       1.584  10.073  11.639  1.00  0.00     0.037 A 
ATOM     50  C   UNL     1       6.173   4.968  12.965  1.00  0.00     0.037 A 
ATOM     51  C   UNL     1       1.569   9.581  12.992  1.00  0.00     0.049 A 
ATOM     52  C   UNL     1       5.296   5.550  14.045  1.00  0.00     0.074 A 
ATOM     53  C   UNL     1       0.751   9.967  14.040  1.00  0.00     0.029 A 
ATOM     54  N   UNL     1       2.417   8.602  13.487  1.00  0.00    -0.354 N 
ATOM     55  N   UNL     1       4.371   6.475  13.954  1.00  0.00    -0.248 NA
ATOM     56  C   UNL     1       5.479   5.021  15.405  1.00  0.00     0.031 C 
ATOM     57  C   UNL     1       1.145   9.264  15.184  1.00  0.00     0.029 A 
ATOM     58  C   UNL     1       2.163   8.392  14.833  1.00  0.00     0.049 A 
ATOM     59  H   UNL     1       3.100   8.126  12.960  1.00  0.00     0.167 HD
ATOM     60  C   UNL     1       3.838   6.611  15.231  1.00  0.00     0.074 A 
ATOM     61  C   UNL     1       4.536   5.666  16.077  1.00  0.00     0.031 C 
ATOM     62  C   UNL     1       2.856   7.441  15.664  1.00  0.00     0.037 A 
BRANCH  49  63
ATOM     63  C   UNL     1       0.637  11.178  11.273  1.00  0.00     0.057 A 
ATOM     64  C   UNL     1      -0.449  10.971  10.412  1.00  0.00     0.134 A 
ATOM     65  C   UNL     1       0.796  12.461  11.812  1.00  0.00     0.134 A 
ATOM     66  F   UNL     1      -0.652   9.771   9.849  1.00  0.00    -0.206 F 
ATOM     67  C   UNL     1      -1.327  12.006  10.081  1.00  0.00     0.040 A 
ATOM     68  C   UNL     1      -0.091  13.496  11.513  1.00  0.00     0.040 A 
ATOM     69  F   UNL     1       1.812  12.728  12.648  1.00  0.00    -0.206 F 
ATOM     70  C   UNL     1      -1.153  13.271  10.639  1.00  0.00     0.006 A 
ENDBRANCH  49  63
BRANCH  50  71
ATOM     71  C   UNL     1       7.158   3.904  13.292  1.00  0.00     0.057 A 
ATOM     72  C   UNL     1       6.744   2.628  13.691  1.00  0.00     0.134 A 
ATOM     73  C   UNL     1       8.537   4.149  13.251  1.00  0.00     0.134 A 
ATOM     74  F   UNL     1       5.437   2.340  13.778  1.00  0.00    -0.206 F 
ATOM     75  C   UNL     1       7.661   1.641  14.057  1.00  0.00     0.040 A 
ATOM     76  C   UNL     1       9.466   3.163  13.586  1.00  0.00     0.040 A 
ATOM     77  F   UNL     1       9.001   5.352  12.881  1.00  0.00    -0.206 F 
ATOM     78  C   UNL     1       9.028   1.907  14.000  1.00  0.00     0.006 A 
ENDBRANCH  50  71
BRANCH  62  79
ATOM     79  C   UNL     1       2.440   7.333  17.104  1.00  0.00     0.057 A 
ATOM     80  C   UNL     1       3.262   7.764  18.153  1.00  0.00     0.134 A 
ATOM     81  C   UNL     1       1.176   6.829  17.442  1.00  0.00     0.134 A 
ATOM     82  F   UNL     1       4.488   8.247  17.902  1.00  0.00    -0.206 F 
ATOM     83  C   UNL     1       2.853   7.673  19.486  1.00  0.00     0.040 A 
ATOM     84  C   UNL     1       0.744   6.762  18.768  1.00  0.00     0.040 A 
ATOM     85  F   UNL     1       0.332   6.409  16.488  1.00  0.00    -0.206 F 
ATOM     86  C   UNL     1       1.588   7.178  19.795  1.00  0.00     0.006 A 
ENDBRANCH  62  79
ENDBRANCH  36  37
ENDBRANCH  29  31
ENDBRANCH  28  29
ENDBRANCH  27  28
ENDBRANCH  26  27
ENDBRANCH  25  26
ENDBRANCH   1  25
TORSDOF 19
