REMARK SMILES Nc1ccc(-c2cc(Cl)cc3c2O[C@H](C(F)(F)F)C(C(=O)OCCOCCOCCOC(=O)c2ccc(-c4c5nc(c(-c6c(F)cccc6F)c6ccc([nH]6)c(-c6c(F)cccc6F)c6nc(c(-c7c(F)cccc7F)c7ccc4[nH]7)C=C6)C=C5)cc2)=C3)cc1
REMARK SMILES IDX 26 1 25 2 24 3 23 4 22 5 20 6 21 7 19 8 6 9 7 10 12 11 8 12
REMARK SMILES IDX 11 13 13 14 9 15 10 16 88 17 14 18 5 19 2 20 3 21 90 22 4 23
REMARK SMILES IDX 89 24 1 25 15 28 16 29 17 30 18 31 27 32 28 33 29 34 30 35
REMARK SMILES IDX 31 36 32 37 33 38 34 39 35 40 87 41 36 42 86 43 37 44 38 45
REMARK SMILES IDX 39 46 80 47 40 48 85 49 79 50 81 51 41 52 84 53 78 54 77 55
REMARK SMILES IDX 42 57 68 58 51 59 67 60 52 61 55 62 66 63 82 64 53 65 54 66
REMARK SMILES IDX 65 68 83 69 56 70 43 71 44 72 49 73 45 74 46 75 48 76 50 77
REMARK SMILES IDX 47 78 69 79 70 80 75 81 71 82 72 83 74 84 76 85 73 86 57 87
REMARK SMILES IDX 58 88 63 89 59 90 60 91 62 92 64 93 61 94
REMARK H PARENT 1 26 1 27 81 56 55 67
REMARK Flexibility Score: inf
ROOT
ATOM      1  C   UNL     1      -7.664  -1.443   5.447  1.00  0.00     0.188 C 
ENDROOT
BRANCH   1   2
ATOM      2  O   UNL     1      -8.133  -2.395   6.378  1.00  0.00    -0.376 OA
BRANCH   2   3
ATOM      3  C   UNL     1      -7.373  -3.547   6.704  1.00  0.00     0.202 C 
BRANCH   3   4
ATOM      4  C   UNL     1      -6.599  -4.339   5.647  1.00  0.00     0.261 C 
BRANCH   4   5
ATOM      5  O   UNL     1      -5.820  -3.534   4.754  1.00  0.00    -0.460 OA
BRANCH   5   6
ATOM      6  C   UNL     1      -6.173  -3.627   3.450  1.00  0.00     0.338 C 
ATOM      7  O   UNL     1      -7.049  -4.330   2.975  1.00  0.00    -0.246 OA
BRANCH   6   8
ATOM      8  C   UNL     1      -5.432  -2.623   2.666  1.00  0.00     0.087 C 
ATOM      9  C   UNL     1      -3.336  -0.050   0.112  1.00  0.00     0.026 A 
ATOM     10  C   UNL     1      -4.067   0.668  -0.853  1.00  0.00     0.033 A 
ATOM     11  C   UNL     1      -4.054  -0.846   1.034  1.00  0.00     0.135 A 
ATOM     12  C   UNL     1      -5.457   0.586  -0.903  1.00  0.00     0.042 A 
ATOM     13  C   UNL     1      -5.446  -0.964   0.943  1.00  0.00     0.019 A 
ATOM     14  O   UNL     1      -3.330  -1.469   2.016  1.00  0.00    -0.475 OA
ATOM     15  Cl  UNL     1      -6.323   1.471  -2.098  1.00  0.00    -0.084 Cl
ATOM     16  C   UNL     1      -6.150  -0.232  -0.017  1.00  0.00     0.032 A 
ATOM     17  C   UNL     1      -6.152  -1.903   1.797  1.00  0.00     0.027 C 
ATOM     18  C   UNL     1      -3.952  -2.464   2.867  1.00  0.00     0.316 C 
BRANCH   9  19
ATOM     19  C   UNL     1      -1.860  -0.012   0.088  1.00  0.00    -0.014 A 
ATOM     20  C   UNL     1       0.978   0.028   0.011  1.00  0.00     0.031 A 
ATOM     21  C   UNL     1       0.284  -1.179  -0.020  1.00  0.00     0.026 A 
ATOM     22  C   UNL     1       0.247   1.216   0.029  1.00  0.00     0.026 A 
ATOM     23  C   UNL     1      -1.113  -1.200   0.023  1.00  0.00     0.011 A 
ATOM     24  C   UNL     1      -1.153   1.199   0.081  1.00  0.00     0.011 A 
BRANCH  20  25
ATOM     25  N   UNL     1       2.358   0.047  -0.109  1.00  0.00    -0.399 N 
ATOM     26  H   UNL     1       2.863  -0.798  -0.121  1.00  0.00     0.156 HD
ATOM     27  H   UNL     1       2.834   0.906  -0.183  1.00  0.00     0.156 HD
ENDBRANCH  20  25
ENDBRANCH   9  19
BRANCH  18  28
ATOM     28  C   UNL     1      -3.189  -3.785   2.698  1.00  0.00     0.430 C 
ATOM     29  F   UNL     1      -1.855  -3.610   2.858  1.00  0.00    -0.167 F 
ATOM     30  F   UNL     1      -3.571  -4.708   3.611  1.00  0.00    -0.167 F 
ATOM     31  F   UNL     1      -3.382  -4.323   1.472  1.00  0.00    -0.167 F 
ENDBRANCH  18  28
ENDBRANCH   6   8
ENDBRANCH   5   6
ENDBRANCH   4   5
ENDBRANCH   3   4
ENDBRANCH   2   3
ENDBRANCH   1   2
BRANCH   1  32
ATOM     32  C   UNL     1      -6.323  -0.706   5.651  1.00  0.00     0.188 C 
BRANCH  32  33
ATOM     33  O   UNL     1      -5.541  -0.921   6.808  1.00  0.00    -0.376 OA
BRANCH  33  34
ATOM     34  C   UNL     1      -6.104  -0.677   8.089  1.00  0.00     0.202 C 
BRANCH  34  35
ATOM     35  C   UNL     1      -6.869   0.617   8.385  1.00  0.00     0.261 C 
BRANCH  35  36
ATOM     36  O   UNL     1      -7.940   0.886   7.469  1.00  0.00    -0.460 OA
BRANCH  36  37
ATOM     37  C   UNL     1      -7.811   2.033   6.749  1.00  0.00     0.338 C 
ATOM     38  O   UNL     1      -6.920   2.848   6.807  1.00  0.00    -0.246 OA
BRANCH  37  39
ATOM     39  C   UNL     1      -8.853   2.042   5.700  1.00  0.00     0.060 A 
ATOM     40  C   UNL     1     -10.205   1.977   6.034  1.00  0.00     0.016 A 
ATOM     41  C   UNL     1      -8.449   2.111   4.360  1.00  0.00     0.016 A 
ATOM     42  C   UNL     1     -11.161   2.001   5.016  1.00  0.00     0.010 A 
ATOM     43  C   UNL     1      -9.405   2.118   3.344  1.00  0.00     0.010 A 
ATOM     44  C   UNL     1     -10.768   2.081   3.667  1.00  0.00    -0.014 A 
BRANCH  44  45
ATOM     45  C   UNL     1     -11.794   2.283   2.617  1.00  0.00     0.031 A 
ATOM     46  C   UNL     1     -12.296   1.152   1.773  1.00  0.00     0.074 A 
ATOM     47  C   UNL     1     -12.275   3.526   2.437  1.00  0.00     0.049 A 
ATOM     48  N   UNL     1     -13.267   1.154   0.894  1.00  0.00    -0.248 NA
ATOM     49  C   UNL     1     -11.620  -0.142   1.926  1.00  0.00     0.031 C 
ATOM     50  C   UNL     1     -11.834   4.711   3.174  1.00  0.00     0.029 A 
ATOM     51  N   UNL     1     -13.243   3.998   1.589  1.00  0.00    -0.354 N 
ATOM     52  C   UNL     1     -13.343  -0.144   0.408  1.00  0.00     0.074 A 
ATOM     53  C   UNL     1     -12.281  -0.892   1.052  1.00  0.00     0.031 C 
ATOM     54  C   UNL     1     -12.546   5.771   2.761  1.00  0.00     0.029 A 
ATOM     55  C   UNL     1     -13.478   5.343   1.724  1.00  0.00     0.049 A 
ATOM     56  H   UNL     1     -13.722   3.427   0.946  1.00  0.00     0.167 HD
ATOM     57  C   UNL     1     -14.230  -0.663  -0.476  1.00  0.00     0.037 A 
ATOM     58  C   UNL     1     -14.355   6.141   1.088  1.00  0.00     0.037 A 
ATOM     59  C   UNL     1     -15.266   0.095  -1.136  1.00  0.00     0.049 A 
ATOM     60  C   UNL     1     -15.288   5.548   0.072  1.00  0.00     0.074 A 
ATOM     61  C   UNL     1     -16.239  -0.353  -2.014  1.00  0.00     0.029 A 
ATOM     62  N   UNL     1     -15.450   1.465  -1.009  1.00  0.00    -0.354 N 
ATOM     63  N   UNL     1     -15.419   4.300  -0.304  1.00  0.00    -0.248 NA
ATOM     64  C   UNL     1     -16.205   6.479  -0.600  1.00  0.00     0.031 C 
ATOM     65  C   UNL     1     -16.976   0.752  -2.458  1.00  0.00     0.029 A 
ATOM     66  C   UNL     1     -16.497   1.882  -1.818  1.00  0.00     0.049 A 
ATOM     67  H   UNL     1     -14.915   2.054  -0.429  1.00  0.00     0.167 HD
ATOM     68  C   UNL     1     -16.447   4.290  -1.237  1.00  0.00     0.074 A 
ATOM     69  C   UNL     1     -16.919   5.654  -1.353  1.00  0.00     0.031 C 
ATOM     70  C   UNL     1     -16.954   3.244  -1.935  1.00  0.00     0.037 A 
BRANCH  57  71
ATOM     71  C   UNL     1     -14.121  -2.129  -0.785  1.00  0.00     0.057 A 
ATOM     72  C   UNL     1     -13.714  -2.571  -2.050  1.00  0.00     0.134 A 
ATOM     73  C   UNL     1     -14.473  -3.105   0.157  1.00  0.00     0.134 A 
ATOM     74  F   UNL     1     -13.375  -1.691  -3.004  1.00  0.00    -0.206 F 
ATOM     75  C   UNL     1     -13.659  -3.930  -2.366  1.00  0.00     0.040 A 
ATOM     76  C   UNL     1     -14.398  -4.468  -0.139  1.00  0.00     0.040 A 
ATOM     77  F   UNL     1     -14.869  -2.750   1.389  1.00  0.00    -0.206 F 
ATOM     78  C   UNL     1     -13.995  -4.883  -1.406  1.00  0.00     0.006 A 
ENDBRANCH  57  71
BRANCH  58  79
ATOM     79  C   UNL     1     -14.411   7.587   1.414  1.00  0.00     0.057 A 
ATOM     80  C   UNL     1     -13.377   8.456   1.049  1.00  0.00     0.134 A 
ATOM     81  C   UNL     1     -15.513   8.134   2.079  1.00  0.00     0.134 A 
ATOM     82  F   UNL     1     -12.290   7.988   0.417  1.00  0.00    -0.206 F 
ATOM     83  C   UNL     1     -13.435   9.819   1.336  1.00  0.00     0.040 A 
ATOM     84  C   UNL     1     -15.597   9.501   2.349  1.00  0.00     0.040 A 
ATOM     85  F   UNL     1     -16.542   7.353   2.439  1.00  0.00    -0.206 F 
ATOM     86  C   UNL     1     -14.553  10.347   1.979  1.00  0.00     0.006 A 
ENDBRANCH  58  79
BRANCH  70  87
ATOM     87  C   UNL     1     -18.092   3.541  -2.870  1.00  0.00     0.057 A 
ATOM     88  C   UNL     1     -19.390   3.101  -2.580  1.00  0.00     0.134 A 
ATOM     89  C   UNL     1     -17.906   4.263  -4.057  1.00  0.00     0.134 A 
ATOM     90  F   UNL     1     -19.639   2.400  -1.464  1.00  0.00    -0.206 F 
ATOM     91  C   UNL     1     -20.461   3.372  -3.434  1.00  0.00     0.040 A 
ATOM     92  C   UNL     1     -18.974   4.564  -4.904  1.00  0.00     0.040 A 
ATOM     93  F   UNL     1     -16.692   4.729  -4.385  1.00  0.00    -0.206 F 
ATOM     94  C   UNL     1     -20.256   4.114  -4.595  1.00  0.00     0.006 A 
ENDBRANCH  70  87
ENDBRANCH  44  45
ENDBRANCH  37  39
ENDBRANCH  36  37
ENDBRANCH  35  36
ENDBRANCH  34  35
ENDBRANCH  33  34
ENDBRANCH  32  33
ENDBRANCH   1  32
TORSDOF 20
