REMARK SMILES O=C(CCCN1C(=O)C(=O)/C(=C(\[O-])c2ccccc2)[C@H]1c1ccc([N+](=O)[O-])cc1)OCCOCCOCCOC(=O)c1ccc(-c2c3nc(c(-c4c(F)cccc4F)c4ccc([nH]4)c(-c4c(F)cccc4F)c4nc(c(-c5c(F)cccc5F)c5ccc2[nH]5)C=C4)C=C3)cc1
REMARK SMILES IDX 33 1 32 2 31 3 30 4 2 5 1 6 3 7 4 8 5 9 6 10 7 11 20 12 8 13
REMARK SMILES IDX 9 14 11 15 10 16 12 17 13 18 21 19 22 20 29 21 23 22 28 23
REMARK SMILES IDX 24 24 25 25 26 26 27 27 14 28 15 29 19 30 16 31 18 32 17 33
REMARK SMILES IDX 34 34 35 35 36 36 37 37 38 38 39 39 40 40 41 41 42 42 43 43
REMARK SMILES IDX 95 44 44 45 94 46 45 47 46 48 47 49 88 50 48 51 93 52 87 53
REMARK SMILES IDX 89 54 49 55 92 56 86 57 85 58 50 60 76 61 59 62 75 63 60 64
REMARK SMILES IDX 63 65 74 66 90 67 61 68 62 69 73 71 91 72 64 73 51 74 52 75
REMARK SMILES IDX 57 76 53 77 54 78 56 79 58 80 55 81 77 82 78 83 83 84 79 85
REMARK SMILES IDX 80 86 82 87 84 88 81 89 65 90 66 91 71 92 67 93 68 94 70 95
REMARK SMILES IDX 72 96 69 97
REMARK H PARENT 89 59 63 70
REMARK Flexibility Score: inf
ROOT
ATOM      1  O   UNL     1       2.440  -0.131  -1.749  1.00  0.00    -0.376 OA
ENDROOT
BRANCH   1   2
ATOM      2  C   UNL     1       3.511  -0.667  -0.995  1.00  0.00     0.202 C 
BRANCH   2   3
ATOM      3  C   UNL     1       3.213  -1.207   0.409  1.00  0.00     0.261 C 
BRANCH   3   4
ATOM      4  O   UNL     1       3.189  -0.209   1.445  1.00  0.00    -0.463 OA
BRANCH   4   5
ATOM      5  C   UNL     1       2.574   0.961   1.161  1.00  0.00     0.305 C 
ATOM      6  O   UNL     1       1.370   1.123   1.307  1.00  0.00    -0.252 OA
BRANCH   5   7
ATOM      7  C   UNL     1       3.527   2.031   0.660  1.00  0.00     0.124 C 
BRANCH   7   8
ATOM      8  C   UNL     1       4.892   2.145   1.357  1.00  0.00     0.033 C 
BRANCH   8   9
ATOM      9  C   UNL     1       5.912   0.976   1.365  1.00  0.00     0.121 C 
BRANCH   9  10
ATOM     10  N   UNL     1       6.492   0.506   0.104  1.00  0.00    -0.325 N 
ATOM     11  C   UNL     1       6.783   1.323  -0.968  1.00  0.00     0.295 C 
ATOM     12  C   UNL     1       6.868  -0.898  -0.135  1.00  0.00     0.150 C 
ATOM     13  O   UNL     1       6.696   2.529  -1.063  1.00  0.00    -0.265 OA
ATOM     14  C   UNL     1       7.156   0.400  -2.127  1.00  0.00     0.248 C 
ATOM     15  C   UNL     1       7.092  -0.990  -1.626  1.00  0.00     0.025 C 
ATOM     16  O   UNL     1       7.407   0.728  -3.270  1.00  0.00    -0.283 OA
ATOM     17  C   UNL     1       7.209  -2.041  -2.462  1.00  0.00    -0.092 C 
ATOM     18  O   UNL     1       7.400  -1.884  -3.827  1.00  0.00    -0.872 OA
BRANCH  12  19
ATOM     19  C   UNL     1       7.992  -1.468   0.732  1.00  0.00    -0.020 A 
ATOM     20  C   UNL     1       9.246  -1.837   0.203  1.00  0.00     0.013 A 
ATOM     21  C   UNL     1       7.712  -1.829   2.065  1.00  0.00     0.013 A 
ATOM     22  C   UNL     1      10.131  -2.642   0.930  1.00  0.00     0.086 A 
ATOM     23  C   UNL     1       8.606  -2.603   2.812  1.00  0.00     0.086 A 
ATOM     24  C   UNL     1       9.796  -3.042   2.225  1.00  0.00     0.269 A 
BRANCH  24  25
ATOM     25  N   UNL     1      10.667  -3.973   2.952  1.00  0.00     0.062 N 
ATOM     26  O   UNL     1      11.588  -4.512   2.322  1.00  0.00    -0.258 OA
ATOM     27  O   UNL     1      10.418  -4.177   4.149  1.00  0.00    -0.258 OA
ENDBRANCH  24  25
ENDBRANCH  12  19
BRANCH  17  28
ATOM     28  C   UNL     1       7.216  -3.466  -2.060  1.00  0.00    -0.033 A 
ATOM     29  C   UNL     1       8.229  -4.303  -2.558  1.00  0.00     0.007 A 
ATOM     30  C   UNL     1       6.227  -4.045  -1.255  1.00  0.00     0.007 A 
ATOM     31  C   UNL     1       8.246  -5.671  -2.271  1.00  0.00     0.001 A 
ATOM     32  C   UNL     1       6.229  -5.417  -0.983  1.00  0.00     0.001 A 
ATOM     33  C   UNL     1       7.238  -6.230  -1.491  1.00  0.00     0.000 A 
ENDBRANCH  17  28
ENDBRANCH   9  10
ENDBRANCH   8   9
ENDBRANCH   7   8
ENDBRANCH   5   7
ENDBRANCH   4   5
ENDBRANCH   3   4
ENDBRANCH   2   3
ENDBRANCH   1   2
BRANCH   1  34
ATOM     34  C   UNL     1       1.196  -0.814  -1.711  1.00  0.00     0.188 C 
BRANCH  34  35
ATOM     35  C   UNL     1       1.025  -2.037  -2.627  1.00  0.00     0.188 C 
BRANCH  35  36
ATOM     36  O   UNL     1       1.823  -3.177  -2.355  1.00  0.00    -0.376 OA
BRANCH  36  37
ATOM     37  C   UNL     1       3.093  -3.342  -2.981  1.00  0.00     0.202 C 
BRANCH  37  38
ATOM     38  C   UNL     1       3.427  -2.768  -4.365  1.00  0.00     0.261 C 
BRANCH  38  39
ATOM     39  O   UNL     1       3.255  -1.343  -4.460  1.00  0.00    -0.460 OA
BRANCH  39  40
ATOM     40  C   UNL     1       2.500  -0.944  -5.514  1.00  0.00     0.338 C 
ATOM     41  O   UNL     1       1.989  -1.647  -6.371  1.00  0.00    -0.246 OA
BRANCH  40  42
ATOM     42  C   UNL     1       2.224   0.495  -5.436  1.00  0.00     0.060 A 
ATOM     43  C   UNL     1       0.977   0.910  -4.953  1.00  0.00     0.016 A 
ATOM     44  C   UNL     1       3.112   1.408  -6.003  1.00  0.00     0.016 A 
ATOM     45  C   UNL     1       0.609   2.249  -5.040  1.00  0.00     0.010 A 
ATOM     46  C   UNL     1       2.733   2.748  -6.111  1.00  0.00     0.010 A 
ATOM     47  C   UNL     1       1.471   3.166  -5.654  1.00  0.00    -0.014 A 
BRANCH  47  48
ATOM     48  C   UNL     1       0.985   4.531  -5.943  1.00  0.00     0.031 A 
ATOM     49  C   UNL     1       0.349   4.808  -7.276  1.00  0.00     0.074 A 
ATOM     50  C   UNL     1       1.093   5.497  -5.016  1.00  0.00     0.049 A 
ATOM     51  N   UNL     1      -0.113   5.933  -7.756  1.00  0.00    -0.248 NA
ATOM     52  C   UNL     1       0.209   3.661  -8.189  1.00  0.00     0.031 C 
ATOM     53  C   UNL     1       1.650   5.321  -3.676  1.00  0.00     0.029 A 
ATOM     54  N   UNL     1       0.748   6.823  -5.068  1.00  0.00    -0.354 N 
ATOM     55  C   UNL     1      -0.597   5.632  -9.022  1.00  0.00     0.074 A 
ATOM     56  C   UNL     1      -0.358   4.223  -9.246  1.00  0.00     0.031 C 
ATOM     57  C   UNL     1       1.635   6.505  -3.040  1.00  0.00     0.029 A 
ATOM     58  C   UNL     1       1.095   7.523  -3.939  1.00  0.00     0.049 A 
ATOM     59  H   UNL     1       0.296   7.234  -5.840  1.00  0.00     0.167 HD
ATOM     60  C   UNL     1      -1.187   6.461  -9.915  1.00  0.00     0.037 A 
ATOM     61  C   UNL     1       1.013   8.842  -3.681  1.00  0.00     0.037 A 
ATOM     62  C   UNL     1      -1.405   7.864  -9.686  1.00  0.00     0.049 A 
ATOM     63  C   UNL     1       0.432   9.755  -4.728  1.00  0.00     0.074 A 
ATOM     64  C   UNL     1      -2.010   8.790 -10.517  1.00  0.00     0.029 A 
ATOM     65  N   UNL     1      -1.008   8.546  -8.545  1.00  0.00    -0.354 N 
ATOM     66  N   UNL     1      -0.059   9.457  -5.907  1.00  0.00    -0.248 NA
ATOM     67  C   UNL     1       0.395  11.190  -4.410  1.00  0.00     0.031 C 
ATOM     68  C   UNL     1      -1.931  10.044  -9.902  1.00  0.00     0.029 A 
ATOM     69  C   UNL     1      -1.324   9.889  -8.665  1.00  0.00     0.049 A 
ATOM     70  H   UNL     1      -0.568   8.136  -7.766  1.00  0.00     0.167 HD
ATOM     71  C   UNL     1      -0.482  10.659  -6.460  1.00  0.00     0.074 A 
ATOM     72  C   UNL     1      -0.209  11.688  -5.479  1.00  0.00     0.031 C 
ATOM     73  C   UNL     1      -1.044  10.894  -7.672  1.00  0.00     0.037 A 
BRANCH  60  74
ATOM     74  C   UNL     1      -1.610   5.882 -11.232  1.00  0.00     0.057 A 
ATOM     75  C   UNL     1      -2.726   5.044 -11.348  1.00  0.00     0.134 A 
ATOM     76  C   UNL     1      -0.921   6.209 -12.407  1.00  0.00     0.134 A 
ATOM     77  F   UNL     1      -3.420   4.681 -10.260  1.00  0.00    -0.206 F 
ATOM     78  C   UNL     1      -3.136   4.544 -12.586  1.00  0.00     0.040 A 
ATOM     79  C   UNL     1      -1.335   5.734 -13.652  1.00  0.00     0.040 A 
ATOM     80  F   UNL     1       0.156   7.008 -12.365  1.00  0.00    -0.206 F 
ATOM     81  C   UNL     1      -2.444   4.896 -13.744  1.00  0.00     0.006 A 
ENDBRANCH  60  74
BRANCH  61  82
ATOM     82  C   UNL     1       1.528   9.389  -2.400  1.00  0.00     0.057 A 
ATOM     83  C   UNL     1       0.670   9.961  -1.453  1.00  0.00     0.134 A 
ATOM     84  C   UNL     1       2.898   9.394  -2.111  1.00  0.00     0.134 A 
ATOM     85  F   UNL     1      -0.651  10.010  -1.682  1.00  0.00    -0.206 F 
ATOM     86  C   UNL     1       1.157  10.538  -0.279  1.00  0.00     0.040 A 
ATOM     87  C   UNL     1       3.397   9.942  -0.928  1.00  0.00     0.040 A 
ATOM     88  F   UNL     1       3.775   8.865  -2.977  1.00  0.00    -0.206 F 
ATOM     89  C   UNL     1       2.525  10.527  -0.012  1.00  0.00     0.006 A 
ENDBRANCH  61  82
BRANCH  73  90
ATOM     90  C   UNL     1      -1.418  12.311  -7.990  1.00  0.00     0.057 A 
ATOM     91  C   UNL     1      -0.451  13.283  -8.273  1.00  0.00     0.134 A 
ATOM     92  C   UNL     1      -2.763  12.697  -8.054  1.00  0.00     0.134 A 
ATOM     93  F   UNL     1       0.855  12.980  -8.216  1.00  0.00    -0.206 F 
ATOM     94  C   UNL     1      -0.807  14.595  -8.587  1.00  0.00     0.040 A 
ATOM     95  C   UNL     1      -3.132  13.999  -8.394  1.00  0.00     0.040 A 
ATOM     96  F   UNL     1      -3.739  11.812  -7.804  1.00  0.00    -0.206 F 
ATOM     97  C   UNL     1      -2.152  14.954  -8.656  1.00  0.00     0.006 A 
ENDBRANCH  73  90
ENDBRANCH  47  48
ENDBRANCH  40  42
ENDBRANCH  39  40
ENDBRANCH  38  39
ENDBRANCH  37  38
ENDBRANCH  36  37
ENDBRANCH  35  36
ENDBRANCH  34  35
ENDBRANCH   1  34
TORSDOF 23
