REMARK SMILES O=C(OCCOCCOCCOC(=O)c1cccc(Nc2ccc([N+](=O)[O-])cc2)c1)c1ccc(-c2c3nc(c(-c4c(F)cccc4F)c4ccc([nH]4)c(-c4c(F)cccc4F)c4nc(c(-c5c(F)cccc5F)c5ccc2[nH]5)C=C4)C=C3)cc1
REMARK SMILES IDX 8 1 7 2 6 3 5 4 4 5 3 6 2 7 1 8 31 9 32 10 84 11 33 12 83 13
REMARK SMILES IDX 34 14 35 15 36 16 77 17 37 18 82 19 76 20 78 21 38 22 81 23
REMARK SMILES IDX 75 24 74 25 39 27 65 28 48 29 64 30 49 31 52 32 63 33 79 34
REMARK SMILES IDX 50 35 51 36 62 38 80 39 53 40 40 41 41 42 46 43 42 44 43 45
REMARK SMILES IDX 45 46 47 47 44 48 66 49 67 50 72 51 68 52 69 53 71 54 73 55
REMARK SMILES IDX 70 56 54 57 55 58 60 59 56 60 57 61 59 62 61 63 58 64 9 65
REMARK SMILES IDX 10 66 11 67 12 68 13 69 14 70 15 71 16 72 30 73 17 74 19 75
REMARK SMILES IDX 18 76 20 77 21 79 22 80 29 81 23 82 28 83 24 84 25 85 26 86
REMARK SMILES IDX 27 87
REMARK H PARENT 78 26 52 37 20 78
REMARK Flexibility Score: inf
ROOT
ATOM      1  C   UNL     1       2.048  -1.625   2.872  1.00  0.00     0.188 C 
ENDROOT
BRANCH   1   2
ATOM      2  C   UNL     1       2.578  -0.373   2.159  1.00  0.00     0.188 C 
BRANCH   2   3
ATOM      3  O   UNL     1       3.802  -0.644   1.462  1.00  0.00    -0.376 OA
BRANCH   3   4
ATOM      4  C   UNL     1       4.714   0.460   1.457  1.00  0.00     0.202 C 
BRANCH   4   5
ATOM      5  C   UNL     1       4.501   1.449   0.304  1.00  0.00     0.261 C 
BRANCH   5   6
ATOM      6  O   UNL     1       3.123   1.532  -0.091  1.00  0.00    -0.460 OA
BRANCH   6   7
ATOM      7  C   UNL     1       2.517   0.892  -1.121  1.00  0.00     0.338 C 
ATOM      8  O   UNL     1       1.337   1.144  -1.360  1.00  0.00    -0.246 OA
BRANCH   7   9
ATOM      9  C   UNL     1       3.213  -0.080  -2.021  1.00  0.00     0.060 A 
ATOM     10  C   UNL     1       4.274  -0.907  -1.647  1.00  0.00     0.016 A 
ATOM     11  C   UNL     1       2.705  -0.218  -3.325  1.00  0.00     0.016 A 
ATOM     12  C   UNL     1       4.885  -1.764  -2.561  1.00  0.00     0.010 A 
ATOM     13  C   UNL     1       3.275  -1.121  -4.231  1.00  0.00     0.010 A 
ATOM     14  C   UNL     1       4.395  -1.877  -3.861  1.00  0.00    -0.014 A 
BRANCH  14  15
ATOM     15  C   UNL     1       5.134  -2.688  -4.856  1.00  0.00     0.031 A 
ATOM     16  C   UNL     1       5.886  -1.973  -5.944  1.00  0.00     0.074 A 
ATOM     17  C   UNL     1       5.225  -4.026  -4.732  1.00  0.00     0.049 A 
ATOM     18  N   UNL     1       6.498  -2.462  -6.990  1.00  0.00    -0.248 NA
ATOM     19  C   UNL     1       5.978  -0.506  -5.827  1.00  0.00     0.031 C 
ATOM     20  C   UNL     1       4.681  -4.824  -3.632  1.00  0.00     0.029 A 
ATOM     21  N   UNL     1       5.838  -4.954  -5.533  1.00  0.00    -0.354 N 
ATOM     22  C   UNL     1       7.035  -1.369  -7.658  1.00  0.00     0.074 A 
ATOM     23  C   UNL     1       6.664  -0.186  -6.914  1.00  0.00     0.031 C 
ATOM     24  C   UNL     1       5.013  -6.115  -3.810  1.00  0.00     0.029 A 
ATOM     25  C   UNL     1       5.729  -6.245  -5.071  1.00  0.00     0.049 A 
ATOM     26  H   UNL     1       6.313  -4.719  -6.363  1.00  0.00     0.167 HD
ATOM     27  C   UNL     1       7.779  -1.360  -8.788  1.00  0.00     0.037 A 
ATOM     28  C   UNL     1       6.119  -7.399  -5.641  1.00  0.00     0.037 A 
ATOM     29  C   UNL     1       8.157  -2.547  -9.503  1.00  0.00     0.049 A 
ATOM     30  C   UNL     1       6.666  -7.350  -7.035  1.00  0.00     0.074 A 
ATOM     31  C   UNL     1       8.929  -2.668 -10.645  1.00  0.00     0.029 A 
ATOM     32  N   UNL     1       7.775  -3.828  -9.138  1.00  0.00    -0.354 N 
ATOM     33  N   UNL     1       7.057  -6.313  -7.731  1.00  0.00    -0.248 NA
ATOM     34  C   UNL     1       6.757  -8.632  -7.748  1.00  0.00     0.031 C 
ATOM     35  C   UNL     1       8.972  -4.022 -10.998  1.00  0.00     0.029 A 
ATOM     36  C   UNL     1       8.256  -4.743 -10.056  1.00  0.00     0.049 A 
ATOM     37  H   UNL     1       7.240  -4.053  -8.343  1.00  0.00     0.167 HD
ATOM     38  C   UNL     1       7.464  -6.816  -8.955  1.00  0.00     0.074 A 
ATOM     39  C   UNL     1       7.240  -8.248  -8.920  1.00  0.00     0.031 C 
ATOM     40  C   UNL     1       8.003  -6.156 -10.006  1.00  0.00     0.037 A 
BRANCH  27  41
ATOM     41  C   UNL     1       8.197  -0.030  -9.335  1.00  0.00     0.057 A 
ATOM     42  C   UNL     1       9.225   0.723  -8.755  1.00  0.00     0.134 A 
ATOM     43  C   UNL     1       7.576   0.491 -10.476  1.00  0.00     0.134 A 
ATOM     44  F   UNL     1       9.845   0.288  -7.647  1.00  0.00    -0.206 F 
ATOM     45  C   UNL     1       9.613   1.955  -9.285  1.00  0.00     0.040 A 
ATOM     46  C   UNL     1       7.966   1.712 -11.026  1.00  0.00     0.040 A 
ATOM     47  F   UNL     1       6.581  -0.180 -11.075  1.00  0.00    -0.206 F 
ATOM     48  C   UNL     1       8.986   2.450 -10.428  1.00  0.00     0.006 A 
ENDBRANCH  27  41
BRANCH  28  49
ATOM     49  C   UNL     1       5.882  -8.709  -4.994  1.00  0.00     0.057 A 
ATOM     50  C   UNL     1       6.866  -9.353  -4.242  1.00  0.00     0.134 A 
ATOM     51  C   UNL     1       4.690  -9.399  -5.224  1.00  0.00     0.134 A 
ATOM     52  F   UNL     1       8.056  -8.770  -4.043  1.00  0.00    -0.206 F 
ATOM     53  C   UNL     1       6.660 -10.636  -3.727  1.00  0.00     0.040 A 
ATOM     54  C   UNL     1       4.460 -10.671  -4.700  1.00  0.00     0.040 A 
ATOM     55  F   UNL     1       3.774  -8.877  -6.047  1.00  0.00    -0.206 F 
ATOM     56  C   UNL     1       5.450 -11.295  -3.948  1.00  0.00     0.006 A 
ENDBRANCH  28  49
BRANCH  40  57
ATOM     57  C   UNL     1       8.441  -6.993 -11.162  1.00  0.00     0.057 A 
ATOM     58  C   UNL     1       7.534  -7.476 -12.110  1.00  0.00     0.134 A 
ATOM     59  C   UNL     1       9.793  -7.322 -11.316  1.00  0.00     0.134 A 
ATOM     60  F   UNL     1       6.223  -7.216 -11.992  1.00  0.00    -0.206 F 
ATOM     61  C   UNL     1       7.959  -8.271 -13.174  1.00  0.00     0.040 A 
ATOM     62  C   UNL     1      10.232  -8.099 -12.385  1.00  0.00     0.040 A 
ATOM     63  F   UNL     1      10.703  -6.891 -10.429  1.00  0.00    -0.206 F 
ATOM     64  C   UNL     1       9.312  -8.579 -13.316  1.00  0.00     0.006 A 
ENDBRANCH  40  57
ENDBRANCH  14  15
ENDBRANCH   7   9
ENDBRANCH   6   7
ENDBRANCH   5   6
ENDBRANCH   4   5
ENDBRANCH   3   4
ENDBRANCH   2   3
ENDBRANCH   1   2
BRANCH   1  65
ATOM     65  O   UNL     1       2.811  -2.052   4.003  1.00  0.00    -0.376 OA
BRANCH  65  66
ATOM     66  C   UNL     1       4.178  -2.385   3.771  1.00  0.00     0.202 C 
BRANCH  66  67
ATOM     67  C   UNL     1       4.438  -3.678   2.991  1.00  0.00     0.261 C 
BRANCH  67  68
ATOM     68  O   UNL     1       3.788  -3.721   1.708  1.00  0.00    -0.460 OA
BRANCH  68  69
ATOM     69  C   UNL     1       3.211  -4.909   1.418  1.00  0.00     0.338 C 
ATOM     70  O   UNL     1       3.243  -5.921   2.118  1.00  0.00    -0.246 OA
BRANCH  69  71
ATOM     71  C   UNL     1       2.552  -4.919   0.095  1.00  0.00     0.062 A 
ATOM     72  C   UNL     1       1.919  -3.809  -0.468  1.00  0.00     0.016 A 
ATOM     73  C   UNL     1       2.499  -6.154  -0.566  1.00  0.00     0.041 A 
ATOM     74  C   UNL     1       1.210  -3.958  -1.662  1.00  0.00     0.003 A 
ATOM     75  C   UNL     1       1.795  -6.318  -1.764  1.00  0.00     0.039 A 
ATOM     76  C   UNL     1       1.147  -5.204  -2.299  1.00  0.00     0.026 A 
BRANCH  75  77
ATOM     77  N   UNL     1       1.789  -7.594  -2.348  1.00  0.00    -0.355 N 
ATOM     78  H   UNL     1       2.097  -8.301  -1.735  1.00  0.00     0.167 HD
BRANCH  77  79
ATOM     79  C   UNL     1       1.439  -8.080  -3.615  1.00  0.00     0.039 A 
ATOM     80  C   UNL     1       0.980  -9.405  -3.704  1.00  0.00     0.033 A 
ATOM     81  C   UNL     1       1.496  -7.315  -4.786  1.00  0.00     0.033 A 
ATOM     82  C   UNL     1       0.636  -9.974  -4.931  1.00  0.00     0.088 A 
ATOM     83  C   UNL     1       1.150  -7.869  -6.026  1.00  0.00     0.088 A 
ATOM     84  C   UNL     1       0.746  -9.206  -6.095  1.00  0.00     0.269 A 
BRANCH  84  85
ATOM     85  N   UNL     1       0.499  -9.833  -7.398  1.00  0.00     0.062 N 
ATOM     86  O   UNL     1       0.255 -11.049  -7.411  1.00  0.00    -0.258 OA
ATOM     87  O   UNL     1       0.561  -9.119  -8.407  1.00  0.00    -0.258 OA
ENDBRANCH  84  85
ENDBRANCH  77  79
ENDBRANCH  75  77
ENDBRANCH  69  71
ENDBRANCH  68  69
ENDBRANCH  67  68
ENDBRANCH  66  67
ENDBRANCH  65  66
ENDBRANCH   1  65
TORSDOF 20
