REMARK SMILES O=C(OCCOCCOCCOC(=O)c1cccc(OS(=O)(=O)c2cccc([N+](=O)[O-])c2)c1)c1ccc(-c2c3nc(c(-c4c(F)cccc4F)c4ccc([nH]4)c(-c4c(F)cccc4F)c4nc(c(-c5c(F)cccc5F)c5ccc2[nH]5)C=C4)C=C3)cc1
REMARK SMILES IDX 8 1 7 2 6 3 5 4 4 5 3 6 2 7 1 8 34 9 35 10 87 11 36 12 86 13
REMARK SMILES IDX 37 14 38 15 39 16 80 17 40 18 85 19 79 20 81 21 41 22 84 23
REMARK SMILES IDX 78 24 77 25 42 27 68 28 51 29 67 30 52 31 55 32 66 33 82 34
REMARK SMILES IDX 53 35 54 36 65 38 83 39 56 40 43 41 44 42 49 43 45 44 46 45
REMARK SMILES IDX 48 46 50 47 47 48 69 49 70 50 75 51 71 52 72 53 74 54 76 55
REMARK SMILES IDX 73 56 57 57 58 58 63 59 59 60 60 61 62 62 64 63 61 64 9 65
REMARK SMILES IDX 10 66 11 67 12 68 13 69 14 70 15 71 16 72 33 73 17 74 19 75
REMARK SMILES IDX 18 76 20 77 21 78 22 79 23 80 24 81 25 82 32 83 26 84 28 85
REMARK SMILES IDX 27 86 29 87 30 88 31 89
REMARK H PARENT 81 26 55 37
REMARK Flexibility Score: inf
ROOT
ATOM      1  C   UNL     1       1.903   2.635  -2.099  1.00  0.00     0.188 C 
ENDROOT
BRANCH   1   2
ATOM      2  C   UNL     1       2.445   1.218  -1.921  1.00  0.00     0.188 C 
BRANCH   2   3
ATOM      3  O   UNL     1       3.689   1.224  -1.209  1.00  0.00    -0.376 OA
BRANCH   3   4
ATOM      4  C   UNL     1       4.597   0.209  -1.647  1.00  0.00     0.202 C 
BRANCH   4   5
ATOM      5  C   UNL     1       4.372  -1.163  -0.998  1.00  0.00     0.261 C 
BRANCH   5   6
ATOM      6  O   UNL     1       2.989  -1.404  -0.689  1.00  0.00    -0.460 OA
BRANCH   6   7
ATOM      7  C   UNL     1       2.349  -1.194   0.489  1.00  0.00     0.338 C 
ATOM      8  O   UNL     1       1.155  -1.475   0.575  1.00  0.00    -0.246 OA
BRANCH   7   9
ATOM      9  C   UNL     1       3.035  -0.698   1.721  1.00  0.00     0.060 A 
ATOM     10  C   UNL     1       4.125   0.173   1.731  1.00  0.00     0.016 A 
ATOM     11  C   UNL     1       2.506  -1.103   2.958  1.00  0.00     0.016 A 
ATOM     12  C   UNL     1       4.769   0.508   2.918  1.00  0.00     0.010 A 
ATOM     13  C   UNL     1       3.106  -0.713   4.162  1.00  0.00     0.010 A 
ATOM     14  C   UNL     1       4.277   0.054   4.142  1.00  0.00    -0.014 A 
BRANCH  14  15
ATOM     15  C   UNL     1       5.083   0.291   5.359  1.00  0.00     0.031 A 
ATOM     16  C   UNL     1       5.806  -0.867   5.991  1.00  0.00     0.074 A 
ATOM     17  C   UNL     1       5.272   1.542   5.819  1.00  0.00     0.049 A 
ATOM     18  N   UNL     1       6.551  -0.893   7.065  1.00  0.00    -0.248 NA
ATOM     19  C   UNL     1       5.678  -2.169   5.316  1.00  0.00     0.031 C 
ATOM     20  C   UNL     1       4.689   2.760   5.250  1.00  0.00     0.029 A 
ATOM     21  N   UNL     1       6.037   1.996   6.860  1.00  0.00    -0.354 N 
ATOM     22  C   UNL     1       6.960  -2.213   7.207  1.00  0.00     0.074 A 
ATOM     23  C   UNL     1       6.371  -2.961   6.118  1.00  0.00     0.031 C 
ATOM     24  C   UNL     1       5.131   3.823   5.945  1.00  0.00     0.029 A 
ATOM     25  C   UNL     1       5.987   3.357   7.024  1.00  0.00     0.049 A 
ATOM     26  H   UNL     1       6.571   1.402   7.436  1.00  0.00     0.167 HD
ATOM     27  C   UNL     1       7.754  -2.755   8.160  1.00  0.00     0.037 A 
ATOM     28  C   UNL     1       6.550   4.130   7.966  1.00  0.00     0.037 A 
ATOM     29  C   UNL     1       8.350  -2.010   9.235  1.00  0.00     0.049 A 
ATOM     30  C   UNL     1       7.372   3.490   9.047  1.00  0.00     0.074 A 
ATOM     31  C   UNL     1       9.147  -2.467  10.270  1.00  0.00     0.029 A 
ATOM     32  N   UNL     1       8.213  -0.643   9.407  1.00  0.00    -0.354 N 
ATOM     33  N   UNL     1       7.685   2.230   9.216  1.00  0.00    -0.248 NA
ATOM     34  C   UNL     1       7.900   4.390  10.085  1.00  0.00     0.031 C 
ATOM     35  C   UNL     1       9.464  -1.378  11.090  1.00  0.00     0.029 A 
ATOM     36  C   UNL     1       8.897  -0.240  10.542  1.00  0.00     0.049 A 
ATOM     37  H   UNL     1       7.706  -0.045   8.812  1.00  0.00     0.167 HD
ATOM     38  C   UNL     1       8.435   2.186  10.382  1.00  0.00     0.074 A 
ATOM     39  C   UNL     1       8.557   3.545  10.862  1.00  0.00     0.031 C 
ATOM     40  C   UNL     1       8.973   1.115  11.010  1.00  0.00     0.037 A 
BRANCH  27  41
ATOM     41  C   UNL     1       7.973  -4.236   8.102  1.00  0.00     0.057 A 
ATOM     42  C   UNL     1       8.811  -4.828   7.150  1.00  0.00     0.134 A 
ATOM     43  C   UNL     1       7.322  -5.080   9.010  1.00  0.00     0.134 A 
ATOM     44  F   UNL     1       9.443  -4.075   6.237  1.00  0.00    -0.206 F 
ATOM     45  C   UNL     1       8.975  -6.213   7.087  1.00  0.00     0.040 A 
ATOM     46  C   UNL     1       7.495  -6.463   8.971  1.00  0.00     0.040 A 
ATOM     47  F   UNL     1       6.503  -4.573   9.944  1.00  0.00    -0.206 F 
ATOM     48  C   UNL     1       8.318  -7.034   8.003  1.00  0.00     0.006 A 
ENDBRANCH  27  41
BRANCH  28  49
ATOM     49  C   UNL     1       6.279   5.581   8.061  1.00  0.00     0.057 A 
ATOM     50  C   UNL     1       7.255   6.527   7.730  1.00  0.00     0.134 A 
ATOM     51  C   UNL     1       5.136   6.022   8.735  1.00  0.00     0.134 A 
ATOM     52  F   UNL     1       8.387   6.146   7.120  1.00  0.00    -0.206 F 
ATOM     53  C   UNL     1       7.134   7.857   8.132  1.00  0.00     0.040 A 
ATOM     54  C   UNL     1       5.009   7.345   9.152  1.00  0.00     0.040 A 
ATOM     55  F   UNL     1       4.166   5.157   9.064  1.00  0.00    -0.206 F 
ATOM     56  C   UNL     1       6.023   8.260   8.872  1.00  0.00     0.006 A 
ENDBRANCH  28  49
BRANCH  40  57
ATOM     57  C   UNL     1       9.731   1.397  12.267  1.00  0.00     0.057 A 
ATOM     58  C   UNL     1       9.074   1.718  13.462  1.00  0.00     0.134 A 
ATOM     59  C   UNL     1      11.130   1.377  12.274  1.00  0.00     0.134 A 
ATOM     60  F   UNL     1       7.735   1.785  13.505  1.00  0.00    -0.206 F 
ATOM     61  C   UNL     1       9.787   2.033  14.618  1.00  0.00     0.040 A 
ATOM     62  C   UNL     1      11.852   1.668  13.430  1.00  0.00     0.040 A 
ATOM     63  F   UNL     1      11.812   1.085  11.156  1.00  0.00    -0.206 F 
ATOM     64  C   UNL     1      11.181   2.004  14.604  1.00  0.00     0.006 A 
ENDBRANCH  40  57
ENDBRANCH  14  15
ENDBRANCH   7   9
ENDBRANCH   6   7
ENDBRANCH   5   6
ENDBRANCH   4   5
ENDBRANCH   3   4
ENDBRANCH   2   3
ENDBRANCH   1   2
BRANCH   1  65
ATOM     65  O   UNL     1       2.623   3.465  -3.008  1.00  0.00    -0.376 OA
BRANCH  65  66
ATOM     66  C   UNL     1       3.997   3.720  -2.734  1.00  0.00     0.202 C 
BRANCH  66  67
ATOM     67  C   UNL     1       4.318   4.705  -1.605  1.00  0.00     0.261 C 
BRANCH  67  68
ATOM     68  O   UNL     1       3.878   4.308  -0.297  1.00  0.00    -0.460 OA
BRANCH  68  69
ATOM     69  C   UNL     1       2.735   4.912   0.102  1.00  0.00     0.338 C 
ATOM     70  O   UNL     1       1.977   5.599  -0.563  1.00  0.00    -0.246 OA
BRANCH  69  71
ATOM     71  C   UNL     1       2.531   4.723   1.541  1.00  0.00     0.063 A 
ATOM     72  C   UNL     1       1.456   3.982   2.029  1.00  0.00     0.016 A 
ATOM     73  C   UNL     1       3.268   5.560   2.376  1.00  0.00     0.064 A 
ATOM     74  C   UNL     1       1.113   4.095   3.377  1.00  0.00     0.005 A 
ATOM     75  C   UNL     1       2.850   5.764   3.687  1.00  0.00     0.143 A 
ATOM     76  C   UNL     1       1.794   5.003   4.198  1.00  0.00     0.048 A 
BRANCH  75  77
ATOM     77  O   UNL     1       3.364   6.736   4.514  1.00  0.00    -0.379 OA
BRANCH  77  78
ATOM     78  S   UNL     1       4.420   7.856   3.959  1.00  0.00     0.339 S 
ATOM     79  O   UNL     1       5.758   7.339   4.109  1.00  0.00    -0.181 OA
ATOM     80  O   UNL     1       3.944   8.383   2.686  1.00  0.00    -0.181 OA
BRANCH  78  81
ATOM     81  C   UNL     1       4.294   9.227   5.076  1.00  0.00     0.112 A 
ATOM     82  C   UNL     1       3.774   9.061   6.359  1.00  0.00     0.024 A 
ATOM     83  C   UNL     1       4.693  10.485   4.610  1.00  0.00     0.109 A 
ATOM     84  C   UNL     1       3.691  10.167   7.208  1.00  0.00     0.009 A 
ATOM     85  C   UNL     1       4.596  11.582   5.467  1.00  0.00     0.270 A 
ATOM     86  C   UNL     1       4.111  11.427   6.772  1.00  0.00     0.086 A 
BRANCH  85  87
ATOM     87  N   UNL     1       4.998  12.910   4.991  1.00  0.00     0.062 N 
ATOM     88  O   UNL     1       5.142  13.802   5.837  1.00  0.00    -0.258 OA
ATOM     89  O   UNL     1       5.170  13.055   3.773  1.00  0.00    -0.258 OA
ENDBRANCH  85  87
ENDBRANCH  78  81
ENDBRANCH  77  78
ENDBRANCH  75  77
ENDBRANCH  69  71
ENDBRANCH  68  69
ENDBRANCH  67  68
ENDBRANCH  66  67
ENDBRANCH  65  66
ENDBRANCH   1  65
TORSDOF 21
