REMARK SMILES Cc1ccc([C@@H]2[C@H](C(=O)OCCOCCOCCOC(=O)c3ccc(-c4c5nc(c(-c6c(F)cccc6F)c6ccc([nH]6)c(-c6c(F)cccc6F)c6nc(c(-c7c(F)cccc7F)c7ccc4[nH]7)C=C6)C=C5)cc3)c3ccccc3C(=O)N2c2ccccc2)cc1
REMARK SMILES IDX 15 1 14 2 13 3 12 4 11 5 10 6 8 7 9 8 7 9 6 10 84 11 76 12
REMARK SMILES IDX 82 13 77 14 81 15 83 16 78 17 80 18 79 19 5 20 1 21 2 22
REMARK SMILES IDX 3 23 92 24 4 25 91 26 85 27 86 28 90 29 87 30 89 31 88 32
REMARK SMILES IDX 16 33 17 34 18 35 19 36 20 37 21 38 22 39 23 40 75 41 24 42
REMARK SMILES IDX 74 43 25 44 26 45 27 46 68 47 28 48 73 49 67 50 69 51 29 52
REMARK SMILES IDX 72 53 66 54 65 55 30 57 56 58 39 59 55 60 40 61 43 62 54 63
REMARK SMILES IDX 70 64 41 65 42 66 53 68 71 69 44 70 31 71 32 72 37 73 33 74
REMARK SMILES IDX 34 75 36 76 38 77 35 78 57 79 58 80 63 81 59 82 60 83 62 84
REMARK SMILES IDX 64 85 61 86 45 87 46 88 51 89 47 90 48 91 50 92 52 93 49 94
REMARK H PARENT 69 56 43 67
REMARK Flexibility Score: inf
ROOT
ATOM      1  C   UNL     1      -6.811  -6.504   1.724  1.00  0.00     0.188 C 
ENDROOT
BRANCH   1   2
ATOM      2  C   UNL     1      -5.654  -6.217   0.768  1.00  0.00     0.188 C 
BRANCH   2   3
ATOM      3  O   UNL     1      -4.487  -6.953   1.085  1.00  0.00    -0.376 OA
BRANCH   3   4
ATOM      4  C   UNL     1      -3.362  -6.128   1.429  1.00  0.00     0.202 C 
BRANCH   4   5
ATOM      5  C   UNL     1      -3.712  -4.840   2.229  1.00  0.00     0.261 C 
BRANCH   5   6
ATOM      6  O   UNL     1      -3.477  -3.300   1.844  1.00  0.00    -0.463 OA
BRANCH   6   7
ATOM      7  C   UNL     1      -2.517  -2.292   2.065  1.00  0.00     0.316 C 
ATOM      8  O   UNL     1      -1.341  -2.494   1.745  1.00  0.00    -0.251 OA
BRANCH   7   9
ATOM      9  C   UNL     1      -2.846  -0.798   2.468  1.00  0.00     0.157 C 
ATOM     10  C   UNL     1      -2.913   0.106   1.218  1.00  0.00     0.140 C 
ATOM     11  N   UNL     1      -4.174  -0.173   0.502  1.00  0.00    -0.300 N 
ATOM     12  C   UNL     1      -4.040  -0.324   3.330  1.00  0.00    -0.019 A 
ATOM     13  C   UNL     1      -5.292   0.319   1.216  1.00  0.00     0.259 C 
ATOM     14  C   UNL     1      -3.977  -0.296   4.743  1.00  0.00     0.005 A 
ATOM     15  C   UNL     1      -5.221   0.146   2.710  1.00  0.00     0.044 A 
ATOM     16  O   UNL     1      -6.303   0.806   0.703  1.00  0.00    -0.269 OA
ATOM     17  C   UNL     1      -5.119  -0.005   5.502  1.00  0.00     0.000 A 
ATOM     18  C   UNL     1      -6.351   0.455   3.481  1.00  0.00     0.014 A 
ATOM     19  C   UNL     1      -6.311   0.342   4.870  1.00  0.00     0.001 A 
BRANCH  10  20
ATOM     20  C   UNL     1      -1.573   0.554   0.632  1.00  0.00    -0.024 A 
ATOM     21  C   UNL     1       2.665   1.185  -0.016  1.00  0.00     0.044 C 
ATOM     22  C   UNL     1       1.173   1.110   0.103  1.00  0.00    -0.051 A 
ATOM     23  C   UNL     1       0.426   0.271  -0.723  1.00  0.00     0.004 A 
ATOM     24  C   UNL     1       0.508   1.802   1.108  1.00  0.00     0.004 A 
ATOM     25  C   UNL     1      -0.938   0.029  -0.485  1.00  0.00     0.006 A 
ATOM     26  C   UNL     1      -0.835   1.516   1.375  1.00  0.00     0.006 A 
ENDBRANCH  10  20
BRANCH  11  27
ATOM     27  C   UNL     1      -4.425  -1.347  -0.311  1.00  0.00     0.045 A 
ATOM     28  C   UNL     1      -5.738  -1.761  -0.615  1.00  0.00     0.026 A 
ATOM     29  C   UNL     1      -3.425  -2.250  -0.632  1.00  0.00     0.026 A 
ATOM     30  C   UNL     1      -6.025  -3.016  -1.173  1.00  0.00     0.002 A 
ATOM     31  C   UNL     1      -3.726  -3.539  -1.070  1.00  0.00     0.002 A 
ATOM     32  C   UNL     1      -5.005  -3.912  -1.411  1.00  0.00     0.000 A 
ENDBRANCH  11  27
ENDBRANCH   7   9
ENDBRANCH   6   7
ENDBRANCH   5   6
ENDBRANCH   4   5
ENDBRANCH   3   4
ENDBRANCH   2   3
ENDBRANCH   1   2
BRANCH   1  33
ATOM     33  O   UNL     1      -6.412  -6.580   3.097  1.00  0.00    -0.376 OA
BRANCH  33  34
ATOM     34  C   UNL     1      -7.369  -7.283   3.905  1.00  0.00     0.202 C 
BRANCH  34  35
ATOM     35  C   UNL     1      -8.621  -6.452   4.206  1.00  0.00     0.261 C 
BRANCH  35  36
ATOM     36  O   UNL     1      -8.288  -5.550   5.277  1.00  0.00    -0.460 OA
BRANCH  36  37
ATOM     37  C   UNL     1      -7.956  -4.322   4.829  1.00  0.00     0.338 C 
ATOM     38  O   UNL     1      -8.649  -3.631   4.096  1.00  0.00    -0.246 OA
BRANCH  37  39
ATOM     39  C   UNL     1      -6.517  -4.074   5.109  1.00  0.00     0.060 A 
ATOM     40  C   UNL     1      -5.912  -3.204   4.254  1.00  0.00     0.016 A 
ATOM     41  C   UNL     1      -5.690  -4.765   6.006  1.00  0.00     0.016 A 
ATOM     42  C   UNL     1      -4.516  -3.124   4.267  1.00  0.00     0.010 A 
ATOM     43  C   UNL     1      -4.258  -4.681   5.935  1.00  0.00     0.010 A 
ATOM     44  C   UNL     1      -3.604  -3.892   4.984  1.00  0.00    -0.014 A 
BRANCH  44  45
ATOM     45  C   UNL     1      -2.046  -3.966   4.755  1.00  0.00     0.031 A 
ATOM     46  C   UNL     1      -1.258  -3.298   5.832  1.00  0.00     0.074 A 
ATOM     47  C   UNL     1      -1.206  -4.596   3.812  1.00  0.00     0.049 A 
ATOM     48  N   UNL     1       0.026  -3.127   5.818  1.00  0.00    -0.248 NA
ATOM     49  C   UNL     1      -1.886  -2.664   7.001  1.00  0.00     0.031 C 
ATOM     50  C   UNL     1      -0.071  -5.450   4.186  1.00  0.00     0.029 A 
ATOM     51  N   UNL     1      -1.172  -4.802   2.394  1.00  0.00    -0.354 N 
ATOM     52  C   UNL     1       0.346  -3.002   7.148  1.00  0.00     0.074 A 
ATOM     53  C   UNL     1      -0.802  -2.361   7.720  1.00  0.00     0.031 C 
ATOM     54  C   UNL     1       0.561  -5.931   3.095  1.00  0.00     0.029 A 
ATOM     55  C   UNL     1      -0.007  -5.372   1.879  1.00  0.00     0.049 A 
ATOM     56  H   UNL     1      -1.928  -4.553   1.815  1.00  0.00     0.167 HD
ATOM     57  C   UNL     1       1.314  -3.823   7.654  1.00  0.00     0.037 A 
ATOM     58  C   UNL     1       0.626  -5.055   0.691  1.00  0.00     0.037 A 
ATOM     59  C   UNL     1       2.202  -4.373   6.605  1.00  0.00     0.049 A 
ATOM     60  C   UNL     1       1.979  -4.433   1.017  1.00  0.00     0.074 A 
ATOM     61  C   UNL     1       2.684  -5.627   6.257  1.00  0.00     0.029 A 
ATOM     62  N   UNL     1       2.608  -3.546   5.566  1.00  0.00    -0.354 N 
ATOM     63  N   UNL     1       2.548  -4.595   2.175  1.00  0.00    -0.248 NA
ATOM     64  C   UNL     1       2.723  -3.471   0.192  1.00  0.00     0.031 C 
ATOM     65  C   UNL     1       3.454  -5.507   5.060  1.00  0.00     0.029 A 
ATOM     66  C   UNL     1       3.453  -4.180   4.682  1.00  0.00     0.049 A 
ATOM     67  H   UNL     1       2.323  -2.608   5.471  1.00  0.00     0.167 HD
ATOM     68  C   UNL     1       3.485  -3.624   2.361  1.00  0.00     0.074 A 
ATOM     69  C   UNL     1       3.596  -2.965   1.078  1.00  0.00     0.031 C 
ATOM     70  C   UNL     1       4.022  -3.401   3.591  1.00  0.00     0.037 A 
BRANCH  57  71
ATOM     71  C   UNL     1       1.315  -4.327   9.099  1.00  0.00     0.057 A 
ATOM     72  C   UNL     1       2.368  -5.143   9.557  1.00  0.00     0.134 A 
ATOM     73  C   UNL     1       0.287  -4.155  10.057  1.00  0.00     0.134 A 
ATOM     74  F   UNL     1       3.445  -5.394   8.802  1.00  0.00    -0.206 F 
ATOM     75  C   UNL     1       2.378  -5.757  10.820  1.00  0.00     0.040 A 
ATOM     76  C   UNL     1       0.318  -4.709  11.345  1.00  0.00     0.040 A 
ATOM     77  F   UNL     1      -0.844  -3.488   9.818  1.00  0.00    -0.206 F 
ATOM     78  C   UNL     1       1.357  -5.532  11.727  1.00  0.00     0.006 A 
ENDBRANCH  57  71
BRANCH  58  79
ATOM     79  C   UNL     1      -0.076  -4.834  -0.639  1.00  0.00     0.057 A 
ATOM     80  C   UNL     1      -0.740  -5.902  -1.279  1.00  0.00     0.134 A 
ATOM     81  C   UNL     1      -0.117  -3.631  -1.363  1.00  0.00     0.134 A 
ATOM     82  F   UNL     1      -0.751  -7.118  -0.715  1.00  0.00    -0.206 F 
ATOM     83  C   UNL     1      -1.451  -5.761  -2.496  1.00  0.00     0.040 A 
ATOM     84  C   UNL     1      -0.799  -3.472  -2.591  1.00  0.00     0.040 A 
ATOM     85  F   UNL     1       0.464  -2.535  -0.875  1.00  0.00    -0.206 F 
ATOM     86  C   UNL     1      -1.494  -4.535  -3.153  1.00  0.00     0.006 A 
ENDBRANCH  58  79
BRANCH  70  87
ATOM     87  C   UNL     1       5.120  -2.417   3.871  1.00  0.00     0.057 A 
ATOM     88  C   UNL     1       6.188  -2.211   2.988  1.00  0.00     0.134 A 
ATOM     89  C   UNL     1       5.236  -1.775   5.122  1.00  0.00     0.134 A 
ATOM     90  F   UNL     1       6.239  -2.824   1.797  1.00  0.00    -0.206 F 
ATOM     91  C   UNL     1       7.282  -1.404   3.318  1.00  0.00     0.040 A 
ATOM     92  C   UNL     1       6.349  -1.018   5.483  1.00  0.00     0.040 A 
ATOM     93  F   UNL     1       4.276  -1.846   6.054  1.00  0.00    -0.206 F 
ATOM     94  C   UNL     1       7.376  -0.822   4.576  1.00  0.00     0.006 A 
ENDBRANCH  70  87
ENDBRANCH  44  45
ENDBRANCH  37  39
ENDBRANCH  36  37
ENDBRANCH  35  36
ENDBRANCH  34  35
ENDBRANCH  33  34
ENDBRANCH   1  33
TORSDOF 19
