REMARK SMILES O=C(CN1C(=O)CN(C(=O)OCC2c3ccccc3-c3ccccc32)c2ccccc21)OCCOCCOCCOC(=O)c1ccc(-c2c3nc(c(-c4c(F)cccc4F)c4ccc([nH]4)c(-c4c(F)cccc4F)c4nc(c(-c5c(F)cccc5F)c5ccc2[nH]5)C=C4)C=C3)cc1
REMARK SMILES IDX 35 1 34 2 33 3 32 4 2 5 1 6 3 7 4 8 5 9 31 10 6 11 7 12
REMARK SMILES IDX 26 13 30 14 8 15 27 16 29 17 28 18 9 19 10 20 11 21 12 22
REMARK SMILES IDX 13 23 14 24 25 25 15 26 19 27 20 28 24 29 16 30 18 31 21 32
REMARK SMILES IDX 23 33 17 34 22 35 36 36 37 37 38 38 39 39 40 40 41 41 42 42
REMARK SMILES IDX 43 43 44 44 45 45 97 46 46 47 96 48 47 49 48 50 49 51 90 52
REMARK SMILES IDX 50 53 95 54 89 55 91 56 51 57 94 58 88 59 87 60 52 62 78 63
REMARK SMILES IDX 61 64 77 65 62 66 65 67 76 68 92 69 63 70 64 71 75 73 93 74
REMARK SMILES IDX 66 75 53 76 54 77 59 78 55 79 56 80 58 81 60 82 57 83 79 84
REMARK SMILES IDX 80 85 85 86 81 87 82 88 84 89 86 90 83 91 67 92 68 93 73 94
REMARK SMILES IDX 69 95 70 96 72 97 74 98 71 99
REMARK H PARENT 91 61 65 72
REMARK Flexibility Score: inf
ROOT
ATOM      1  O   UNL     1       4.486  -0.133  -1.693  1.00  0.00    -0.376 OA
ENDROOT
BRANCH   1   2
ATOM      2  C   UNL     1       4.895   0.042  -0.349  1.00  0.00     0.202 C 
BRANCH   2   3
ATOM      3  C   UNL     1       4.348  -1.017   0.600  1.00  0.00     0.261 C 
BRANCH   3   4
ATOM      4  O   UNL     1       2.913  -1.053   0.771  1.00  0.00    -0.462 OA
BRANCH   4   5
ATOM      5  C   UNL     1       1.993  -0.174   1.197  1.00  0.00     0.326 C 
ATOM      6  O   UNL     1       0.803  -0.490   1.080  1.00  0.00    -0.250 OA
BRANCH   5   7
ATOM      7  C   UNL     1       2.302   1.274   1.587  1.00  0.00     0.248 C 
BRANCH   7   8
ATOM      8  N   UNL     1       3.568   1.762   2.116  1.00  0.00    -0.298 N 
ATOM      9  C   UNL     1       4.172   0.995   3.098  1.00  0.00     0.247 C 
ATOM     10  C   UNL     1       3.911   3.159   2.041  1.00  0.00     0.068 A 
ATOM     11  O   UNL     1       3.663  -0.038   3.535  1.00  0.00    -0.272 OA
ATOM     12  C   UNL     1       5.613   1.337   3.396  1.00  0.00     0.229 C 
ATOM     13  C   UNL     1       5.083   3.641   2.675  1.00  0.00     0.071 A 
ATOM     14  C   UNL     1       3.065   4.086   1.396  1.00  0.00     0.028 A 
ATOM     15  N   UNL     1       6.024   2.711   3.207  1.00  0.00    -0.266 N 
ATOM     16  C   UNL     1       5.324   5.026   2.692  1.00  0.00     0.029 A 
ATOM     17  C   UNL     1       3.331   5.456   1.425  1.00  0.00     0.002 A 
ATOM     18  C   UNL     1       4.450   5.928   2.087  1.00  0.00     0.002 A 
BRANCH  15  19
ATOM     19  C   UNL     1       7.346   3.029   3.511  1.00  0.00     0.414 C 
ATOM     20  O   UNL     1       7.755   4.090   3.939  1.00  0.00    -0.224 OA
BRANCH  19  21
ATOM     21  O   UNL     1       8.171   1.995   3.161  1.00  0.00    -0.448 OA
BRANCH  21  22
ATOM     22  C   UNL     1       9.592   2.249   3.167  1.00  0.00     0.248 C 
BRANCH  22  23
ATOM     23  C   UNL     1      10.115   2.635   1.766  1.00  0.00     0.088 C 
ATOM     24  C   UNL     1      10.099   4.142   1.507  1.00  0.00    -0.029 A 
ATOM     25  C   UNL     1      11.611   2.334   1.646  1.00  0.00    -0.029 A 
ATOM     26  C   UNL     1       9.014   4.988   1.346  1.00  0.00     0.005 A 
ATOM     27  C   UNL     1      11.417   4.640   1.421  1.00  0.00    -0.014 A 
ATOM     28  C   UNL     1      12.341   3.530   1.477  1.00  0.00    -0.014 A 
ATOM     29  C   UNL     1      12.248   1.102   1.669  1.00  0.00     0.005 A 
ATOM     30  C   UNL     1       9.248   6.357   1.206  1.00  0.00     0.000 A 
ATOM     31  C   UNL     1      11.653   5.998   1.274  1.00  0.00     0.009 A 
ATOM     32  C   UNL     1      13.719   3.503   1.341  1.00  0.00     0.009 A 
ATOM     33  C   UNL     1      13.638   1.076   1.532  1.00  0.00     0.000 A 
ATOM     34  C   UNL     1      10.557   6.860   1.187  1.00  0.00     0.001 A 
ATOM     35  C   UNL     1      14.367   2.265   1.371  1.00  0.00     0.001 A 
ENDBRANCH  22  23
ENDBRANCH  21  22
ENDBRANCH  19  21
ENDBRANCH  15  19
ENDBRANCH   7   8
ENDBRANCH   5   7
ENDBRANCH   4   5
ENDBRANCH   3   4
ENDBRANCH   2   3
ENDBRANCH   1   2
BRANCH   1  36
ATOM     36  C   UNL     1       3.117   0.108  -1.960  1.00  0.00     0.188 C 
BRANCH  36  37
ATOM     37  C   UNL     1       2.316  -1.119  -2.437  1.00  0.00     0.188 C 
BRANCH  37  38
ATOM     38  O   UNL     1       2.977  -2.339  -2.737  1.00  0.00    -0.376 OA
BRANCH  38  39
ATOM     39  C   UNL     1       4.228  -2.321  -3.409  1.00  0.00     0.202 C 
BRANCH  39  40
ATOM     40  C   UNL     1       4.330  -1.605  -4.765  1.00  0.00     0.261 C 
BRANCH  40  41
ATOM     41  O   UNL     1       3.960  -0.212  -4.753  1.00  0.00    -0.460 OA
BRANCH  41  42
ATOM     42  C   UNL     1       2.858   0.112  -5.474  1.00  0.00     0.338 C 
ATOM     43  O   UNL     1       2.161  -0.637  -6.136  1.00  0.00    -0.246 OA
BRANCH  42  44
ATOM     44  C   UNL     1       2.491   1.527  -5.247  1.00  0.00     0.060 A 
ATOM     45  C   UNL     1       1.259   1.808  -4.639  1.00  0.00     0.016 A 
ATOM     46  C   UNL     1       3.301   2.567  -5.705  1.00  0.00     0.016 A 
ATOM     47  C   UNL     1       0.819   3.129  -4.512  1.00  0.00     0.010 A 
ATOM     48  C   UNL     1       2.847   3.889  -5.599  1.00  0.00     0.010 A 
ATOM     49  C   UNL     1       1.591   4.176  -5.031  1.00  0.00    -0.014 A 
BRANCH  49  50
ATOM     50  C   UNL     1       1.018   5.545  -5.130  1.00  0.00     0.031 A 
ATOM     51  C   UNL     1       0.421   5.990  -6.439  1.00  0.00     0.074 A 
ATOM     52  C   UNL     1       1.014   6.385  -4.079  1.00  0.00     0.049 A 
ATOM     53  N   UNL     1      -0.062   7.159  -6.778  1.00  0.00    -0.248 NA
ATOM     54  C   UNL     1       0.362   4.981  -7.508  1.00  0.00     0.031 C 
ATOM     55  C   UNL     1       1.513   6.070  -2.742  1.00  0.00     0.029 A 
ATOM     56  N   UNL     1       0.585   7.687  -3.981  1.00  0.00    -0.354 N 
ATOM     57  C   UNL     1      -0.472   7.029  -8.099  1.00  0.00     0.074 A 
ATOM     58  C   UNL     1      -0.162   5.676  -8.507  1.00  0.00     0.031 C 
ATOM     59  C   UNL     1       1.381   7.158  -1.964  1.00  0.00     0.029 A 
ATOM     60  C   UNL     1       0.824   8.255  -2.753  1.00  0.00     0.049 A 
ATOM     61  H   UNL     1       0.147   8.167  -4.720  1.00  0.00     0.167 HD
ATOM     62  C   UNL     1      -1.058   7.952  -8.900  1.00  0.00     0.037 A 
ATOM     63  C   UNL     1       0.645   9.520  -2.322  1.00  0.00     0.037 A 
ATOM     64  C   UNL     1      -1.370   9.299  -8.499  1.00  0.00     0.049 A 
ATOM     65  C   UNL     1       0.068  10.551  -3.259  1.00  0.00     0.074 A 
ATOM     66  C   UNL     1      -1.984  10.296  -9.239  1.00  0.00     0.029 A 
ATOM     67  N   UNL     1      -1.084   9.842  -7.257  1.00  0.00    -0.354 N 
ATOM     68  N   UNL     1      -0.340  10.411  -4.497  1.00  0.00    -0.248 NA
ATOM     69  C   UNL     1      -0.073  11.920  -2.737  1.00  0.00     0.031 C 
ATOM     70  C   UNL     1      -2.020  11.458  -8.462  1.00  0.00     0.029 A 
ATOM     71  C   UNL     1      -1.482  11.168  -7.219  1.00  0.00     0.049 A 
ATOM     72  H   UNL     1      -0.661   9.357  -6.512  1.00  0.00     0.167 HD
ATOM     73  C   UNL     1      -0.814  11.658  -4.888  1.00  0.00     0.074 A 
ATOM     74  C   UNL     1      -0.657  12.540  -3.752  1.00  0.00     0.031 C 
ATOM     75  C   UNL     1      -1.334  12.038  -6.081  1.00  0.00     0.037 A 
BRANCH  62  76
ATOM     76  C   UNL     1      -1.380   7.546 -10.308  1.00  0.00     0.057 A 
ATOM     77  C   UNL     1      -2.430   6.669 -10.605  1.00  0.00     0.134 A 
ATOM     78  C   UNL     1      -0.665   8.089 -11.384  1.00  0.00     0.134 A 
ATOM     79  F   UNL     1      -3.145   6.105  -9.620  1.00  0.00    -0.206 F 
ATOM     80  C   UNL     1      -2.749   6.333 -11.922  1.00  0.00     0.040 A 
ATOM     81  C   UNL     1      -0.991   7.781 -12.706  1.00  0.00     0.040 A 
ATOM     82  F   UNL     1       0.349   8.940 -11.169  1.00  0.00    -0.206 F 
ATOM     83  C   UNL     1      -2.034   6.898 -12.978  1.00  0.00     0.006 A 
ENDBRANCH  62  76
BRANCH  63  84
ATOM     84  C   UNL     1       1.042   9.908  -0.943  1.00  0.00     0.057 A 
ATOM     85  C   UNL     1       0.090  10.296   0.007  1.00  0.00     0.134 A 
ATOM     86  C   UNL     1       2.388   9.952  -0.557  1.00  0.00     0.134 A 
ATOM     87  F   UNL     1      -1.214  10.301  -0.307  1.00  0.00    -0.206 F 
ATOM     88  C   UNL     1       0.461  10.738   1.279  1.00  0.00     0.040 A 
ATOM     89  C   UNL     1       2.772  10.365   0.720  1.00  0.00     0.040 A 
ATOM     90  F   UNL     1       3.352   9.592  -1.417  1.00  0.00    -0.206 F 
ATOM     91  C   UNL     1       1.807  10.770   1.639  1.00  0.00     0.006 A 
ENDBRANCH  63  84
BRANCH  75  92
ATOM     92  C   UNL     1      -1.814  13.456  -6.210  1.00  0.00     0.057 A 
ATOM     93  C   UNL     1      -0.927  14.539  -6.266  1.00  0.00     0.134 A 
ATOM     94  C   UNL     1      -3.182  13.737  -6.322  1.00  0.00     0.134 A 
ATOM     95  F   UNL     1       0.395  14.342  -6.153  1.00  0.00    -0.206 F 
ATOM     96  C   UNL     1      -1.385  15.851  -6.403  1.00  0.00     0.040 A 
ATOM     97  C   UNL     1      -3.651  15.041  -6.488  1.00  0.00     0.040 A 
ATOM     98  F   UNL     1      -4.087  12.746  -6.287  1.00  0.00    -0.206 F 
ATOM     99  C   UNL     1      -2.751  16.104  -6.522  1.00  0.00     0.006 A 
ENDBRANCH  75  92
ENDBRANCH  49  50
ENDBRANCH  42  44
ENDBRANCH  41  42
ENDBRANCH  40  41
ENDBRANCH  39  40
ENDBRANCH  38  39
ENDBRANCH  37  38
ENDBRANCH  36  37
ENDBRANCH   1  36
TORSDOF 22
