REMARK SMILES Cc1ccc(-c2nn(CCC(=O)OCCOCCOCCOC(=O)c3ccc(-c4c5nc(c(-c6c(F)cccc6F)c6ccc([nH]6)c(-c6c(F)cccc6F)c6nc(c(-c7c(F)cccc7F)c7ccc4[nH]7)C=C6)C=C5)cc3)c(=O)c3noc(C)c23)cc1C
REMARK SMILES IDX 17 1 16 2 15 3 14 4 13 5 11 6 12 7 10 8 9 9 8 10 6 11 7 12
REMARK SMILES IDX 86 13 81 14 84 15 79 16 82 17 83 18 85 19 80 20 5 21 1 22
REMARK SMILES IDX 2 23 3 24 88 25 4 26 87 27 89 28 18 29 19 30 20 31 21 32
REMARK SMILES IDX 22 33 23 34 24 35 25 36 26 37 78 38 27 39 77 40 28 41 29 42
REMARK SMILES IDX 30 43 71 44 31 45 76 46 70 47 72 48 32 49 75 50 69 51 68 52
REMARK SMILES IDX 33 54 59 55 42 56 58 57 43 58 46 59 57 60 73 61 44 62 45 63
REMARK SMILES IDX 56 65 74 66 47 67 34 68 35 69 40 70 36 71 37 72 39 73 41 74
REMARK SMILES IDX 38 75 60 76 61 77 66 78 62 79 63 80 65 81 67 82 64 83 48 84
REMARK SMILES IDX 49 85 54 86 50 87 51 88 53 89 55 90 52 91
REMARK H PARENT 72 53 46 64
REMARK Flexibility Score: inf
ROOT
ATOM      1  C   UNL     1      -8.651  -4.183  -1.616  1.00  0.00     0.188 C 
ENDROOT
BRANCH   1   2
ATOM      2  O   UNL     1      -8.952  -5.413  -0.980  1.00  0.00    -0.376 OA
BRANCH   2   3
ATOM      3  C   UNL     1      -7.865  -6.021  -0.273  1.00  0.00     0.202 C 
BRANCH   3   4
ATOM      4  C   UNL     1      -6.645  -6.503  -1.102  1.00  0.00     0.261 C 
BRANCH   4   5
ATOM      5  O   UNL     1      -5.784  -5.454  -1.616  1.00  0.00    -0.463 OA
BRANCH   5   6
ATOM      6  C   UNL     1      -5.959  -5.054  -2.897  1.00  0.00     0.307 C 
ATOM      7  O   UNL     1      -6.642  -5.651  -3.722  1.00  0.00    -0.252 OA
BRANCH   6   8
ATOM      8  C   UNL     1      -5.229  -3.762  -3.228  1.00  0.00     0.146 C 
BRANCH   8   9
ATOM      9  C   UNL     1      -5.407  -2.544  -2.307  1.00  0.00     0.160 C 
BRANCH   9  10
ATOM     10  N   UNL     1      -4.619  -2.541  -1.072  1.00  0.00    -0.227 N 
ATOM     11  C   UNL     1      -2.713  -1.652  -0.023  1.00  0.00     0.104 A 
ATOM     12  N   UNL     1      -3.463  -1.743  -1.087  1.00  0.00    -0.169 NA
ATOM     13  C   UNL     1      -3.022  -2.415   1.154  1.00  0.00     0.078 A 
ATOM     14  C   UNL     1      -4.205  -3.151   1.198  1.00  0.00     0.183 A 
ATOM     15  C   UNL     1      -2.426  -2.667   2.367  1.00  0.00     0.143 A 
ATOM     16  C   UNL     1      -5.114  -3.166   0.088  1.00  0.00     0.296 A 
ATOM     17  N   UNL     1      -4.355  -3.820   2.346  1.00  0.00    -0.074 NA
ATOM     18  O   UNL     1      -3.225  -3.513   3.083  1.00  0.00    -0.360 OA
ATOM     19  C   UNL     1      -1.177  -2.281   3.045  1.00  0.00     0.091 C 
ATOM     20  O   UNL     1      -6.208  -3.701   0.181  1.00  0.00    -0.265 OA
BRANCH  11  21
ATOM     21  C   UNL     1      -1.533  -0.792  -0.035  1.00  0.00     0.003 A 
ATOM     22  C   UNL     1       1.991   1.653   0.009  1.00  0.00     0.044 C 
ATOM     23  C   UNL     1       0.772   0.773  -0.008  1.00  0.00    -0.048 A 
ATOM     24  C   UNL     1      -0.502   1.373   0.006  1.00  0.00     0.004 A 
ATOM     25  C   UNL     1       0.880  -0.632  -0.044  1.00  0.00    -0.048 A 
ATOM     26  C   UNL     1      -1.659   0.595  -0.008  1.00  0.00     0.011 A 
ATOM     27  C   UNL     1      -0.284  -1.403  -0.078  1.00  0.00     0.014 A 
ATOM     28  C   UNL     1       2.183  -1.379  -0.035  1.00  0.00     0.044 C 
ENDBRANCH  11  21
ENDBRANCH   9  10
ENDBRANCH   8   9
ENDBRANCH   6   8
ENDBRANCH   5   6
ENDBRANCH   4   5
ENDBRANCH   3   4
ENDBRANCH   2   3
ENDBRANCH   1   2
BRANCH   1  29
ATOM     29  C   UNL     1      -9.246  -2.938  -0.985  1.00  0.00     0.188 C 
BRANCH  29  30
ATOM     30  O   UNL     1      -8.480  -2.352   0.064  1.00  0.00    -0.376 OA
BRANCH  30  31
ATOM     31  C   UNL     1      -8.855  -2.712   1.391  1.00  0.00     0.202 C 
BRANCH  31  32
ATOM     32  C   UNL     1     -10.206  -2.150   1.876  1.00  0.00     0.261 C 
BRANCH  32  33
ATOM     33  O   UNL     1     -11.015  -1.567   0.845  1.00  0.00    -0.460 OA
BRANCH  33  34
ATOM     34  C   UNL     1     -10.519  -0.402   0.361  1.00  0.00     0.338 C 
ATOM     35  O   UNL     1      -9.590   0.250   0.808  1.00  0.00    -0.246 OA
BRANCH  34  36
ATOM     36  C   UNL     1     -11.216  -0.031  -0.880  1.00  0.00     0.060 A 
ATOM     37  C   UNL     1     -10.464   0.249  -2.030  1.00  0.00     0.016 A 
ATOM     38  C   UNL     1     -12.582   0.214  -0.847  1.00  0.00     0.016 A 
ATOM     39  C   UNL     1     -11.069   0.846  -3.135  1.00  0.00     0.010 A 
ATOM     40  C   UNL     1     -13.164   0.872  -1.926  1.00  0.00     0.010 A 
ATOM     41  C   UNL     1     -12.413   1.221  -3.067  1.00  0.00    -0.014 A 
BRANCH  41  42
ATOM     42  C   UNL     1     -13.022   1.964  -4.205  1.00  0.00     0.031 A 
ATOM     43  C   UNL     1     -14.399   1.491  -4.538  1.00  0.00     0.074 A 
ATOM     44  C   UNL     1     -12.677   3.249  -4.483  1.00  0.00     0.049 A 
ATOM     45  N   UNL     1     -15.406   1.825  -3.786  1.00  0.00    -0.248 NA
ATOM     46  C   UNL     1     -14.694   0.379  -5.441  1.00  0.00     0.031 C 
ATOM     47  C   UNL     1     -12.029   4.135  -3.502  1.00  0.00     0.029 A 
ATOM     48  N   UNL     1     -12.979   4.097  -5.535  1.00  0.00    -0.354 N 
ATOM     49  C   UNL     1     -16.418   0.919  -4.010  1.00  0.00     0.074 A 
ATOM     50  C   UNL     1     -15.961   0.079  -5.097  1.00  0.00     0.031 C 
ATOM     51  C   UNL     1     -12.152   5.412  -3.914  1.00  0.00     0.029 A 
ATOM     52  C   UNL     1     -12.777   5.453  -5.239  1.00  0.00     0.049 A 
ATOM     53  H   UNL     1     -13.305   3.778  -6.407  1.00  0.00     0.167 HD
ATOM     54  C   UNL     1     -17.534   0.896  -3.236  1.00  0.00     0.037 A 
ATOM     55  C   UNL     1     -13.605   6.477  -5.608  1.00  0.00     0.037 A 
ATOM     56  C   UNL     1     -17.529   1.786  -2.109  1.00  0.00     0.049 A 
ATOM     57  C   UNL     1     -14.856   6.155  -4.830  1.00  0.00     0.074 A 
ATOM     58  C   UNL     1     -17.311   1.706  -0.750  1.00  0.00     0.029 A 
ATOM     59  N   UNL     1     -17.730   3.123  -2.349  1.00  0.00    -0.354 N 
ATOM     60  N   UNL     1     -15.061   6.357  -3.557  1.00  0.00    -0.248 NA
ATOM     61  C   UNL     1     -15.804   5.245  -5.473  1.00  0.00     0.031 C 
ATOM     62  C   UNL     1     -16.920   3.025  -0.350  1.00  0.00     0.029 A 
ATOM     63  C   UNL     1     -16.909   3.816  -1.497  1.00  0.00     0.049 A 
ATOM     64  H   UNL     1     -18.349   3.512  -3.008  1.00  0.00     0.167 HD
ATOM     65  C   UNL     1     -15.991   5.387  -3.179  1.00  0.00     0.074 A 
ATOM     66  C   UNL     1     -16.421   4.753  -4.409  1.00  0.00     0.031 C 
ATOM     67  C   UNL     1     -16.231   5.032  -1.885  1.00  0.00     0.037 A 
BRANCH  54  68
ATOM     68  C   UNL     1     -18.783   0.205  -3.587  1.00  0.00     0.057 A 
ATOM     69  C   UNL     1     -19.762   0.976  -4.230  1.00  0.00     0.134 A 
ATOM     70  C   UNL     1     -19.146  -1.051  -3.107  1.00  0.00     0.134 A 
ATOM     71  F   UNL     1     -19.460   2.208  -4.676  1.00  0.00    -0.206 F 
ATOM     72  C   UNL     1     -21.074   0.536  -4.356  1.00  0.00     0.040 A 
ATOM     73  C   UNL     1     -20.460  -1.511  -3.240  1.00  0.00     0.040 A 
ATOM     74  F   UNL     1     -18.260  -1.820  -2.459  1.00  0.00    -0.206 F 
ATOM     75  C   UNL     1     -21.430  -0.710  -3.849  1.00  0.00     0.006 A 
ENDBRANCH  54  68
BRANCH  55  76
ATOM     76  C   UNL     1     -13.673   6.890  -7.048  1.00  0.00     0.057 A 
ATOM     77  C   UNL     1     -12.494   6.992  -7.804  1.00  0.00     0.134 A 
ATOM     78  C   UNL     1     -14.853   7.251  -7.722  1.00  0.00     0.134 A 
ATOM     79  F   UNL     1     -11.296   6.814  -7.225  1.00  0.00    -0.206 F 
ATOM     80  C   UNL     1     -12.502   7.290  -9.172  1.00  0.00     0.040 A 
ATOM     81  C   UNL     1     -14.882   7.518  -9.096  1.00  0.00     0.040 A 
ATOM     82  F   UNL     1     -16.022   7.353  -7.074  1.00  0.00    -0.206 F 
ATOM     83  C   UNL     1     -13.704   7.516  -9.832  1.00  0.00     0.006 A 
ENDBRANCH  55  76
BRANCH  67  84
ATOM     84  C   UNL     1     -15.565   5.862  -0.843  1.00  0.00     0.057 A 
ATOM     85  C   UNL     1     -16.034   7.150  -0.569  1.00  0.00     0.134 A 
ATOM     86  C   UNL     1     -14.516   5.371  -0.053  1.00  0.00     0.134 A 
ATOM     87  F   UNL     1     -17.042   7.674  -1.284  1.00  0.00    -0.206 F 
ATOM     88  C   UNL     1     -15.504   7.912   0.473  1.00  0.00     0.040 A 
ATOM     89  C   UNL     1     -13.991   6.117   1.005  1.00  0.00     0.040 A 
ATOM     90  F   UNL     1     -14.005   4.148  -0.268  1.00  0.00    -0.206 F 
ATOM     91  C   UNL     1     -14.491   7.389   1.274  1.00  0.00     0.006 A 
ENDBRANCH  67  84
ENDBRANCH  41  42
ENDBRANCH  34  36
ENDBRANCH  33  34
ENDBRANCH  32  33
ENDBRANCH  31  32
ENDBRANCH  30  31
ENDBRANCH  29  30
ENDBRANCH   1  29
TORSDOF 20
