REMARK SMILES COc1cc(NC(=O)C2CCN(S(=O)(=O)c3cccs3)CC2)c(Cl)cc1C(=O)OCCOCCOCCOC(=O)c1ccc(-c2c3nc(c(-c4c(F)cccc4F)c4ccc([nH]4)c(-c4c(F)cccc4F)c4nc(c(-c5c(F)cccc5F)c5ccc2[nH]5)C=C4)C=C3)cc1
REMARK SMILES IDX 33 1 32 2 31 3 30 4 29 5 27 6 28 7 26 8 3 9 4 10 5 11 25 12
REMARK SMILES IDX 23 13 24 14 2 15 1 16 6 17 7 18 8 20 9 21 10 22 22 23 11 24
REMARK SMILES IDX 21 25 12 26 13 27 14 28 15 29 16 30 17 31 20 32 18 33 19 34
REMARK SMILES IDX 34 35 35 36 36 37 37 38 38 39 39 40 40 41 41 42 42 43 94 44
REMARK SMILES IDX 43 45 93 46 44 47 45 48 46 49 87 50 47 51 92 52 86 53 88 54
REMARK SMILES IDX 48 55 91 56 85 57 84 58 49 60 75 61 58 62 74 63 59 64 62 65
REMARK SMILES IDX 73 66 89 67 60 68 61 69 72 71 90 72 63 73 50 74 51 75 56 76
REMARK SMILES IDX 52 77 53 78 55 79 57 80 54 81 76 82 77 83 82 84 78 85 79 86
REMARK SMILES IDX 81 87 83 88 80 89 64 90 65 91 70 92 66 93 67 94 69 95 71 96
REMARK SMILES IDX 68 97
REMARK H PARENT 6 19 88 59 62 70
REMARK Flexibility Score: inf
ROOT
ATOM      1  C   UNL     1      -3.038  -3.253  -2.120  1.00  0.00     0.188 C 
ENDROOT
BRANCH   1   2
ATOM      2  O   UNL     1      -4.210  -2.826  -1.449  1.00  0.00    -0.376 OA
BRANCH   2   3
ATOM      3  C   UNL     1      -4.313  -3.154  -0.072  1.00  0.00     0.202 C 
BRANCH   3   4
ATOM      4  C   UNL     1      -3.172  -2.806   0.903  1.00  0.00     0.261 C 
BRANCH   4   5
ATOM      5  O   UNL     1      -1.823  -2.947   0.433  1.00  0.00    -0.460 OA
BRANCH   5   6
ATOM      6  C   UNL     1      -1.248  -4.169   0.483  1.00  0.00     0.342 C 
ATOM      7  O   UNL     1      -1.795  -5.222   0.756  1.00  0.00    -0.246 OA
BRANCH   6   8
ATOM      8  C   UNL     1       0.131  -4.068  -0.051  1.00  0.00     0.103 A 
ATOM      9  C   UNL     1       1.056  -3.148   0.447  1.00  0.00     0.135 A 
ATOM     10  C   UNL     1       2.366  -3.125  -0.044  1.00  0.00     0.075 A 
ATOM     11  C   UNL     1       2.703  -3.841  -1.193  1.00  0.00     0.063 A 
ATOM     12  C   UNL     1       0.498  -4.896  -1.119  1.00  0.00     0.042 A 
ATOM     13  C   UNL     1       1.766  -4.762  -1.701  1.00  0.00     0.065 A 
ATOM     14  Cl  UNL     1       2.098  -5.670  -3.136  1.00  0.00    -0.082 Cl
BRANCH   9  15
ATOM     15  O   UNL     1       0.697  -2.228   1.398  1.00  0.00    -0.496 OA
ATOM     16  C   UNL     1       0.625  -0.915   0.815  1.00  0.00     0.278 C 
ENDBRANCH   9  15
BRANCH  11  17
ATOM     17  N   UNL     1       3.909  -3.624  -1.898  1.00  0.00    -0.324 N 
ATOM     18  C   UNL     1       4.726  -2.532  -2.035  1.00  0.00     0.227 C 
ATOM     19  H   UNL     1       4.226  -4.417  -2.388  1.00  0.00     0.169 HD
ATOM     20  O   UNL     1       5.775  -2.690  -2.667  1.00  0.00    -0.274 OA
BRANCH  18  21
ATOM     21  C   UNL     1       4.351  -1.147  -1.483  1.00  0.00     0.081 C 
ATOM     22  C   UNL     1       2.945  -0.687  -1.877  1.00  0.00     0.030 C 
ATOM     23  C   UNL     1       5.339  -0.049  -1.939  1.00  0.00     0.030 C 
ATOM     24  C   UNL     1       2.848  -0.450  -3.366  1.00  0.00     0.103 C 
ATOM     25  C   UNL     1       5.142   0.406  -3.395  1.00  0.00     0.103 C 
ATOM     26  N   UNL     1       3.706   0.706  -3.674  1.00  0.00    -0.197 NA
BRANCH  26  27
ATOM     27  S   UNL     1       3.354   1.349  -5.223  1.00  0.00     0.252 S 
ATOM     28  O   UNL     1       4.108   0.593  -6.193  1.00  0.00    -0.206 OA
ATOM     29  O   UNL     1       1.911   1.478  -5.325  1.00  0.00    -0.206 OA
BRANCH  27  30
ATOM     30  C   UNL     1       4.023   2.994  -5.279  1.00  0.00     0.135 A 
ATOM     31  C   UNL     1       5.328   3.445  -5.333  1.00  0.00     0.033 A 
ATOM     32  S   UNL     1       2.914   4.297  -5.266  1.00  0.00    -0.131 S 
ATOM     33  C   UNL     1       5.414   4.865  -5.346  1.00  0.00     0.013 A 
ATOM     34  C   UNL     1       4.170   5.454  -5.332  1.00  0.00     0.066 A 
ENDBRANCH  27  30
ENDBRANCH  26  27
ENDBRANCH  18  21
ENDBRANCH  11  17
ENDBRANCH   6   8
ENDBRANCH   5   6
ENDBRANCH   4   5
ENDBRANCH   3   4
ENDBRANCH   2   3
ENDBRANCH   1   2
BRANCH   1  35
ATOM     35  C   UNL     1      -2.077  -2.079  -2.377  1.00  0.00     0.188 C 
BRANCH  35  36
ATOM     36  O   UNL     1      -2.425  -0.834  -1.805  1.00  0.00    -0.376 OA
BRANCH  36  37
ATOM     37  C   UNL     1      -3.609  -0.164  -2.223  1.00  0.00     0.202 C 
BRANCH  37  38
ATOM     38  C   UNL     1      -4.463  -0.492  -3.477  1.00  0.00     0.261 C 
BRANCH  38  39
ATOM     39  O   UNL     1      -4.219  -1.706  -4.194  1.00  0.00    -0.460 OA
BRANCH  39  40
ATOM     40  C   UNL     1      -3.457  -1.623  -5.308  1.00  0.00     0.338 C 
ATOM     41  O   UNL     1      -2.923  -0.629  -5.769  1.00  0.00    -0.246 OA
BRANCH  40  42
ATOM     42  C   UNL     1      -3.221  -2.999  -5.798  1.00  0.00     0.060 A 
ATOM     43  C   UNL     1      -1.943  -3.560  -5.672  1.00  0.00     0.016 A 
ATOM     44  C   UNL     1      -4.263  -3.739  -6.358  1.00  0.00     0.016 A 
ATOM     45  C   UNL     1      -1.705  -4.870  -6.097  1.00  0.00     0.010 A 
ATOM     46  C   UNL     1      -4.015  -5.039  -6.811  1.00  0.00     0.010 A 
ATOM     47  C   UNL     1      -2.734  -5.609  -6.694  1.00  0.00    -0.014 A 
BRANCH  47  48
ATOM     48  C   UNL     1      -2.456  -6.931  -7.311  1.00  0.00     0.031 A 
ATOM     49  C   UNL     1      -2.260  -7.011  -8.800  1.00  0.00     0.074 A 
ATOM     50  C   UNL     1      -2.402  -8.051  -6.567  1.00  0.00     0.049 A 
ATOM     51  N   UNL     1      -2.128  -8.063  -9.566  1.00  0.00    -0.248 NA
ATOM     52  C   UNL     1      -2.208  -5.729  -9.521  1.00  0.00     0.031 C 
ATOM     53  C   UNL     1      -2.526  -8.109  -5.112  1.00  0.00     0.029 A 
ATOM     54  N   UNL     1      -2.249  -9.364  -6.944  1.00  0.00    -0.354 N 
ATOM     55  C   UNL     1      -1.995  -7.574 -10.860  1.00  0.00     0.074 A 
ATOM     56  C   UNL     1      -2.077  -6.131 -10.777  1.00  0.00     0.031 C 
ATOM     57  C   UNL     1      -2.464  -9.394  -4.721  1.00  0.00     0.029 A 
ATOM     58  C   UNL     1      -2.342 -10.251  -5.899  1.00  0.00     0.049 A 
ATOM     59  H   UNL     1      -2.088  -9.642  -7.875  1.00  0.00     0.167 HD
ATOM     60  C   UNL     1      -1.823  -8.265 -12.011  1.00  0.00     0.037 A 
ATOM     61  C   UNL     1      -2.365 -11.600  -5.899  1.00  0.00     0.037 A 
ATOM     62  C   UNL     1      -1.739  -9.701 -12.093  1.00  0.00     0.049 A 
ATOM     63  C   UNL     1      -2.267 -12.345  -7.208  1.00  0.00     0.074 A 
ATOM     64  C   UNL     1      -1.530 -10.487 -13.213  1.00  0.00     0.029 A 
ATOM     65  N   UNL     1      -1.873 -10.565 -11.018  1.00  0.00    -0.354 N 
ATOM     66  N   UNL     1      -2.108 -11.875  -8.422  1.00  0.00    -0.248 NA
ATOM     67  C   UNL     1      -2.358 -13.812  -7.145  1.00  0.00     0.031 C 
ATOM     68  C   UNL     1      -1.605 -11.828 -12.826  1.00  0.00     0.029 A 
ATOM     69  C   UNL     1      -1.793 -11.877 -11.455  1.00  0.00     0.049 A 
ATOM     70  H   UNL     1      -2.006 -10.287 -10.083  1.00  0.00     0.167 HD
ATOM     71  C   UNL     1      -2.046 -12.986  -9.257  1.00  0.00     0.074 A 
ATOM     72  C   UNL     1      -2.168 -14.153  -8.411  1.00  0.00     0.031 C 
ATOM     73  C   UNL     1      -1.903 -13.034 -10.604  1.00  0.00     0.037 A 
BRANCH  60  74
ATOM     74  C   UNL     1      -1.747  -7.486 -13.291  1.00  0.00     0.057 A 
ATOM     75  C   UNL     1      -0.631  -6.708 -13.624  1.00  0.00     0.134 A 
ATOM     76  C   UNL     1      -2.782  -7.569 -14.232  1.00  0.00     0.134 A 
ATOM     77  F   UNL     1       0.389  -6.577 -12.763  1.00  0.00    -0.206 F 
ATOM     78  C   UNL     1      -0.553  -6.030 -14.842  1.00  0.00     0.040 A 
ATOM     79  C   UNL     1      -2.703  -6.919 -15.464  1.00  0.00     0.040 A 
ATOM     80  F   UNL     1      -3.877  -8.302 -13.978  1.00  0.00    -0.206 F 
ATOM     81  C   UNL     1      -1.587  -6.143 -15.771  1.00  0.00     0.006 A 
ENDBRANCH  60  74
BRANCH  61  82
ATOM     82  C   UNL     1      -2.521 -12.354  -4.627  1.00  0.00     0.057 A 
ATOM     83  C   UNL     1      -1.502 -13.187  -4.148  1.00  0.00     0.134 A 
ATOM     84  C   UNL     1      -3.715 -12.314  -3.895  1.00  0.00     0.134 A 
ATOM     85  F   UNL     1      -0.346 -13.293  -4.820  1.00  0.00    -0.206 F 
ATOM     86  C   UNL     1      -1.673 -13.973  -3.007  1.00  0.00     0.040 A 
ATOM     87  C   UNL     1      -3.887 -13.070  -2.734  1.00  0.00     0.040 A 
ATOM     88  F   UNL     1      -4.734 -11.543  -4.300  1.00  0.00    -0.206 F 
ATOM     89  C   UNL     1      -2.868 -13.912  -2.294  1.00  0.00     0.006 A 
ENDBRANCH  61  82
BRANCH  73  90
ATOM     90  C   UNL     1      -1.825 -14.391 -11.247  1.00  0.00     0.057 A 
ATOM     91  C   UNL     1      -2.936 -15.239 -11.333  1.00  0.00     0.134 A 
ATOM     92  C   UNL     1      -0.629 -14.837 -11.826  1.00  0.00     0.134 A 
ATOM     93  F   UNL     1      -4.109 -14.880 -10.790  1.00  0.00    -0.206 F 
ATOM     94  C   UNL     1      -2.854 -16.491 -11.947  1.00  0.00     0.040 A 
ATOM     95  C   UNL     1      -0.543 -16.073 -12.471  1.00  0.00     0.040 A 
ATOM     96  F   UNL     1       0.473 -14.072 -11.792  1.00  0.00    -0.206 F 
ATOM     97  C   UNL     1      -1.656 -16.907 -12.525  1.00  0.00     0.006 A 
ENDBRANCH  73  90
ENDBRANCH  47  48
ENDBRANCH  40  42
ENDBRANCH  39  40
ENDBRANCH  38  39
ENDBRANCH  37  38
ENDBRANCH  36  37
ENDBRANCH  35  36
ENDBRANCH   1  35
TORSDOF 22
