REMARK SMILES Cc1nccn1C1(C(=O)OCCOCCOCCOC(=O)c2ccc(-c3c4nc(c(-c5c(F)cccc5F)c5ccc([nH]5)c(-c5c(F)cccc5F)c5nc(c(-c6c(F)cccc6F)c6ccc3[nH]6)C=C5)C=C4)cc2)CCN(C(=O)[C@@H]2C[C@H]2c2ccccc2)CC1
REMARK SMILES IDX 14 1 13 2 12 3 11 4 10 5 8 6 9 7 7 8 76 9 91 10 77 11 90 12
REMARK SMILES IDX 78 13 79 14 80 15 6 16 1 17 2 18 3 19 4 20 5 21 81 22 82 23
REMARK SMILES IDX 83 24 84 25 85 26 89 27 86 28 88 29 87 30 15 31 16 32 17 33
REMARK SMILES IDX 18 34 19 35 20 36 21 37 22 38 23 39 75 40 24 41 74 42 25 43
REMARK SMILES IDX 26 44 27 45 68 46 28 47 73 48 67 49 69 50 29 51 72 52 66 53
REMARK SMILES IDX 65 54 30 56 56 57 39 58 55 59 40 60 43 61 54 62 70 63 41 64
REMARK SMILES IDX 42 65 53 67 71 68 44 69 31 70 32 71 37 72 33 73 34 74 36 75
REMARK SMILES IDX 38 76 35 77 57 78 58 79 63 80 59 81 60 82 62 83 64 84 61 85
REMARK SMILES IDX 45 86 46 87 51 88 47 89 48 90 50 91 52 92 49 93
REMARK H PARENT 69 55 43 66
REMARK Flexibility Score: inf
ROOT
ATOM      1  C   UNL     1       1.204   3.678  -4.885  1.00  0.00     0.188 C 
ENDROOT
BRANCH   1   2
ATOM      2  O   UNL     1       0.422   4.792  -5.317  1.00  0.00    -0.376 OA
BRANCH   2   3
ATOM      3  C   UNL     1       0.348   5.891  -4.406  1.00  0.00     0.202 C 
BRANCH   3   4
ATOM      4  C   UNL     1      -0.310   5.595  -3.042  1.00  0.00     0.261 C 
BRANCH   4   5
ATOM      5  O   UNL     1       0.314   4.511  -2.308  1.00  0.00    -0.461 OA
BRANCH   5   6
ATOM      6  C   UNL     1      -0.484   3.533  -1.798  1.00  0.00     0.332 C 
ATOM      7  O   UNL     1      -1.711   3.594  -1.848  1.00  0.00    -0.249 OA
BRANCH   6   8
ATOM      8  C   UNL     1       0.298   2.304  -1.172  1.00  0.00     0.146 C 
ATOM      9  C   UNL     1       1.724   2.781  -0.736  1.00  0.00     0.062 C 
ATOM     10  C   UNL     1      -0.581   1.955   0.059  1.00  0.00     0.062 C 
ATOM     11  C   UNL     1       2.300   2.263   0.593  1.00  0.00     0.122 C 
ATOM     12  C   UNL     1       0.187   1.109   1.036  1.00  0.00     0.122 C 
ATOM     13  N   UNL     1       1.276   1.897   1.565  1.00  0.00    -0.342 N 
ATOM     14  C   UNL     1       1.480   2.227   2.904  1.00  0.00     0.226 C 
ATOM     15  O   UNL     1       2.603   2.511   3.318  1.00  0.00    -0.275 OA
BRANCH   8  16
ATOM     16  N   UNL     1       0.298   1.141  -2.126  1.00  0.00    -0.318 N 
ATOM     17  C   UNL     1       1.896  -0.734  -1.172  1.00  0.00     0.087 C 
ATOM     18  C   UNL     1       0.979  -0.086  -2.146  1.00  0.00     0.106 A 
ATOM     19  N   UNL     1       0.648  -0.790  -3.215  1.00  0.00    -0.242 NA
ATOM     20  C   UNL     1      -0.319  -0.107  -3.859  1.00  0.00     0.131 A 
ATOM     21  C   UNL     1      -0.578   1.061  -3.202  1.00  0.00     0.108 A 
ENDBRANCH   8  16
BRANCH  14  22
ATOM     22  C   UNL     1       0.351   2.397   3.873  1.00  0.00     0.087 C 
ATOM     23  C   UNL     1      -0.229   1.217   4.612  1.00  0.00     0.023 C 
ATOM     24  C   UNL     1      -1.102   2.037   3.704  1.00  0.00     0.032 C 
BRANCH  24  25
ATOM     25  C   UNL     1      -2.224   2.921   4.147  1.00  0.00    -0.044 A 
ATOM     26  C   UNL     1      -3.365   2.341   4.724  1.00  0.00     0.004 A 
ATOM     27  C   UNL     1      -2.308   4.252   3.709  1.00  0.00     0.004 A 
ATOM     28  C   UNL     1      -4.576   3.029   4.770  1.00  0.00     0.000 A 
ATOM     29  C   UNL     1      -3.518   4.946   3.760  1.00  0.00     0.000 A 
ATOM     30  C   UNL     1      -4.657   4.323   4.265  1.00  0.00     0.000 A 
ENDBRANCH  24  25
ENDBRANCH  14  22
ENDBRANCH   6   8
ENDBRANCH   5   6
ENDBRANCH   4   5
ENDBRANCH   3   4
ENDBRANCH   2   3
ENDBRANCH   1   2
BRANCH   1  31
ATOM     31  C   UNL     1       2.632   4.016  -4.446  1.00  0.00     0.188 C 
BRANCH  31  32
ATOM     32  O   UNL     1       2.673   4.925  -3.351  1.00  0.00    -0.376 OA
BRANCH  32  33
ATOM     33  C   UNL     1       3.901   5.512  -2.930  1.00  0.00     0.202 C 
BRANCH  33  34
ATOM     34  C   UNL     1       4.920   5.929  -3.989  1.00  0.00     0.261 C 
BRANCH  34  35
ATOM     35  O   UNL     1       5.393   4.880  -4.827  1.00  0.00    -0.460 OA
BRANCH  35  36
ATOM     36  C   UNL     1       5.576   3.637  -4.334  1.00  0.00     0.338 C 
ATOM     37  O   UNL     1       5.689   3.289  -3.179  1.00  0.00    -0.246 OA
BRANCH  36  38
ATOM     38  C   UNL     1       5.562   2.746  -5.507  1.00  0.00     0.060 A 
ATOM     39  C   UNL     1       6.129   1.482  -5.369  1.00  0.00     0.016 A 
ATOM     40  C   UNL     1       5.133   3.239  -6.755  1.00  0.00     0.016 A 
ATOM     41  C   UNL     1       6.537   0.840  -6.516  1.00  0.00     0.010 A 
ATOM     42  C   UNL     1       5.536   2.604  -7.894  1.00  0.00     0.010 A 
ATOM     43  C   UNL     1       6.341   1.485  -7.741  1.00  0.00    -0.014 A 
BRANCH  43  44
ATOM     44  C   UNL     1       7.156   1.084  -8.859  1.00  0.00     0.031 A 
ATOM     45  C   UNL     1       6.598   0.012  -9.694  1.00  0.00     0.074 A 
ATOM     46  C   UNL     1       8.275   1.772  -9.154  1.00  0.00     0.049 A 
ATOM     47  N   UNL     1       7.049  -1.187  -9.833  1.00  0.00    -0.248 NA
ATOM     48  C   UNL     1       5.314   0.266 -10.364  1.00  0.00     0.031 C 
ATOM     49  C   UNL     1       8.730   3.053  -8.600  1.00  0.00     0.029 A 
ATOM     50  N   UNL     1       9.199   1.506 -10.109  1.00  0.00    -0.354 N 
ATOM     51  C   UNL     1       6.214  -1.786 -10.766  1.00  0.00     0.074 A 
ATOM     52  C   UNL     1       5.070  -0.924 -10.911  1.00  0.00     0.031 C 
ATOM     53  C   UNL     1       9.719   3.545  -9.381  1.00  0.00     0.029 A 
ATOM     54  C   UNL     1      10.036   2.569 -10.410  1.00  0.00     0.049 A 
ATOM     55  H   UNL     1       9.269   0.631 -10.553  1.00  0.00     0.167 HD
ATOM     56  C   UNL     1       6.649  -2.812 -11.542  1.00  0.00     0.037 A 
ATOM     57  C   UNL     1      10.853   2.646 -11.489  1.00  0.00     0.037 A 
ATOM     58  C   UNL     1       7.837  -3.423 -11.002  1.00  0.00     0.049 A 
ATOM     59  C   UNL     1      11.017   1.264 -12.019  1.00  0.00     0.074 A 
ATOM     60  C   UNL     1       8.155  -4.012  -9.792  1.00  0.00     0.029 A 
ATOM     61  N   UNL     1       9.040  -3.152 -11.609  1.00  0.00    -0.354 N 
ATOM     62  N   UNL     1      11.691   0.323 -11.418  1.00  0.00    -0.248 NA
ATOM     63  C   UNL     1      10.048   0.798 -13.004  1.00  0.00     0.031 C 
ATOM     64  C   UNL     1       9.500  -3.619  -9.529  1.00  0.00     0.029 A 
ATOM     65  C   UNL     1       9.933  -2.853 -10.611  1.00  0.00     0.049 A 
ATOM     66  H   UNL     1       9.226  -3.170 -12.576  1.00  0.00     0.167 HD
ATOM     67  C   UNL     1      10.959  -0.837 -11.633  1.00  0.00     0.074 A 
ATOM     68  C   UNL     1      10.011  -0.500 -12.691  1.00  0.00     0.031 C 
ATOM     69  C   UNL     1      10.982  -1.869 -10.738  1.00  0.00     0.037 A 
BRANCH  56  70
ATOM     70  C   UNL     1       6.198  -3.020 -12.961  1.00  0.00     0.057 A 
ATOM     71  C   UNL     1       6.506  -4.225 -13.610  1.00  0.00     0.134 A 
ATOM     72  C   UNL     1       5.712  -1.991 -13.796  1.00  0.00     0.134 A 
ATOM     73  F   UNL     1       7.008  -5.265 -12.926  1.00  0.00    -0.206 F 
ATOM     74  C   UNL     1       6.385  -4.379 -14.995  1.00  0.00     0.040 A 
ATOM     75  C   UNL     1       5.530  -2.153 -15.170  1.00  0.00     0.040 A 
ATOM     76  F   UNL     1       5.488  -0.748 -13.350  1.00  0.00    -0.206 F 
ATOM     77  C   UNL     1       5.895  -3.341 -15.780  1.00  0.00     0.006 A 
ENDBRANCH  56  70
BRANCH  57  78
ATOM     78  C   UNL     1      11.268   3.844 -12.255  1.00  0.00     0.057 A 
ATOM     79  C   UNL     1      12.306   3.769 -13.195  1.00  0.00     0.134 A 
ATOM     80  C   UNL     1      10.503   5.024 -12.281  1.00  0.00     0.134 A 
ATOM     81  F   UNL     1      13.072   2.671 -13.279  1.00  0.00    -0.206 F 
ATOM     82  C   UNL     1      12.550   4.791 -14.122  1.00  0.00     0.040 A 
ATOM     83  C   UNL     1      10.745   6.058 -13.191  1.00  0.00     0.040 A 
ATOM     84  F   UNL     1       9.436   5.183 -11.485  1.00  0.00    -0.206 F 
ATOM     85  C   UNL     1      11.762   5.937 -14.127  1.00  0.00     0.006 A 
ENDBRANCH  57  78
BRANCH  69  86
ATOM     86  C   UNL     1      12.006  -1.824  -9.638  1.00  0.00     0.057 A 
ATOM     87  C   UNL     1      12.047  -0.826  -8.652  1.00  0.00     0.134 A 
ATOM     88  C   UNL     1      12.878  -2.906  -9.477  1.00  0.00     0.134 A 
ATOM     89  F   UNL     1      11.177   0.191  -8.660  1.00  0.00    -0.206 F 
ATOM     90  C   UNL     1      12.950  -0.877  -7.586  1.00  0.00     0.040 A 
ATOM     91  C   UNL     1      13.760  -2.988  -8.397  1.00  0.00     0.040 A 
ATOM     92  F   UNL     1      12.853  -3.931 -10.345  1.00  0.00    -0.206 F 
ATOM     93  C   UNL     1      13.806  -1.965  -7.453  1.00  0.00     0.006 A 
ENDBRANCH  69  86
ENDBRANCH  43  44
ENDBRANCH  36  38
ENDBRANCH  35  36
ENDBRANCH  34  35
ENDBRANCH  33  34
ENDBRANCH  32  33
ENDBRANCH  31  32
ENDBRANCH   1  31
TORSDOF 20
