REMARK SMILES CO[C@H]1C[C@@H](C(=O)OCCOCCOCCOC(=O)c2ccc(-c3c4nc(c(-c5c(F)cccc5F)c5ccc([nH]5)c(-c5c(F)cccc5F)c5nc(c(-c6c(F)cccc6F)c6ccc3[nH]6)C=C5)C=C4)cc2)N(C(=O)Nc2cc(C)cc(F)c2)C1
REMARK SMILES IDX 12 1 11 2 10 3 9 4 8 5 6 6 7 7 5 8 3 9 4 10 86 11 74 12 2 13
REMARK SMILES IDX 1 14 75 15 76 16 77 17 78 19 79 20 85 21 80 22 83 23 81 24
REMARK SMILES IDX 82 25 84 26 13 27 14 28 15 29 16 30 17 31 18 32 19 33 20 34
REMARK SMILES IDX 21 35 73 36 22 37 72 38 23 39 24 40 25 41 66 42 26 43 71 44
REMARK SMILES IDX 65 45 67 46 27 47 70 48 64 49 63 50 28 52 54 53 37 54 53 55
REMARK SMILES IDX 38 56 41 57 52 58 68 59 39 60 40 61 51 63 69 64 42 65 29 66
REMARK SMILES IDX 30 67 35 68 31 69 32 70 34 71 36 72 33 73 55 74 56 75 61 76
REMARK SMILES IDX 57 77 58 78 60 79 62 80 59 81 43 82 44 83 49 84 45 85 46 86
REMARK SMILES IDX 48 87 50 88 47 89
REMARK H PARENT 77 18 67 51 41 62
REMARK Flexibility Score: inf
ROOT
ATOM      1  C   UNL     1       1.374   4.879   2.601  1.00  0.00     0.188 C 
ENDROOT
BRANCH   1   2
ATOM      2  O   UNL     1       3.375   4.860   2.426  1.00  0.00    -0.376 OA
BRANCH   2   3
ATOM      3  C   UNL     1       4.642   5.081   1.506  1.00  0.00     0.202 C 
BRANCH   3   4
ATOM      4  C   UNL     1       4.939   4.402   0.083  1.00  0.00     0.261 C 
BRANCH   4   5
ATOM      5  O   UNL     1       5.012   2.957   0.040  1.00  0.00    -0.462 OA
BRANCH   5   6
ATOM      6  C   UNL     1       4.309   2.015  -0.644  1.00  0.00     0.329 C 
ATOM      7  O   UNL     1       4.809   0.881  -0.643  1.00  0.00    -0.250 OA
BRANCH   6   8
ATOM      8  C   UNL     1       2.760   2.176  -1.087  1.00  0.00     0.199 C 
ATOM      9  C   UNL     1       1.169   1.158  -2.629  1.00  0.00     0.140 C 
ATOM     10  C   UNL     1       2.467   0.903  -1.899  1.00  0.00     0.071 C 
ATOM     11  C   UNL     1       1.006   2.679  -2.630  1.00  0.00     0.154 C 
ATOM     12  N   UNL     1       2.020   3.293  -1.751  1.00  0.00    -0.308 N 
BRANCH   9  13
ATOM     13  O   UNL     1       1.056   0.611  -3.941  1.00  0.00    -0.380 OA
ATOM     14  C   UNL     1       2.234   0.047  -4.498  1.00  0.00     0.195 C 
ENDBRANCH   9  13
BRANCH  12  15
ATOM     15  C   UNL     1       1.798   4.646  -1.592  1.00  0.00     0.322 C 
ATOM     16  O   UNL     1       1.179   5.255  -2.482  1.00  0.00    -0.248 OA
ATOM     17  N   UNL     1       2.157   5.451  -0.561  1.00  0.00    -0.308 N 
ATOM     18  H   UNL     1       2.260   6.394  -0.827  1.00  0.00     0.171 HD
BRANCH  17  19
ATOM     19  C   UNL     1       2.414   5.233   0.805  1.00  0.00     0.046 A 
ATOM     20  C   UNL     1       2.562   6.561   2.080  1.00  0.00     0.029 A 
ATOM     21  C   UNL     1       2.516   3.534   1.382  1.00  0.00     0.065 A 
ATOM     22  C   UNL     1       2.826   6.083   3.817  1.00  0.00    -0.046 A 
ATOM     23  C   UNL     1       2.834   3.110   3.063  1.00  0.00     0.125 A 
ATOM     24  C   UNL     1       2.618   6.949   5.021  1.00  0.00     0.044 C 
ATOM     25  C   UNL     1       2.947   4.352   4.269  1.00  0.00     0.042 A 
ATOM     26  F   UNL     1       3.229   1.855   3.315  1.00  0.00    -0.207 F 
ENDBRANCH  17  19
ENDBRANCH  12  15
ENDBRANCH   6   8
ENDBRANCH   5   6
ENDBRANCH   4   5
ENDBRANCH   3   4
ENDBRANCH   2   3
ENDBRANCH   1   2
BRANCH   1  27
ATOM     27  C   UNL     1       0.129   5.452   1.554  1.00  0.00     0.188 C 
BRANCH  27  28
ATOM     28  O   UNL     1       0.185   6.645   0.785  1.00  0.00    -0.376 OA
BRANCH  28  29
ATOM     29  C   UNL     1      -0.074   7.974   1.193  1.00  0.00     0.202 C 
BRANCH  29  30
ATOM     30  C   UNL     1      -0.289   8.454   2.633  1.00  0.00     0.261 C 
BRANCH  30  31
ATOM     31  O   UNL     1      -0.574   7.449   3.591  1.00  0.00    -0.460 OA
BRANCH  31  32
ATOM     32  C   UNL     1      -1.860   7.015   3.570  1.00  0.00     0.338 C 
ATOM     33  O   UNL     1      -2.758   7.389   2.865  1.00  0.00    -0.246 OA
BRANCH  32  34
ATOM     34  C   UNL     1      -1.894   5.811   4.423  1.00  0.00     0.060 A 
ATOM     35  C   UNL     1      -2.330   4.616   3.836  1.00  0.00     0.016 A 
ATOM     36  C   UNL     1      -1.489   5.863   5.757  1.00  0.00     0.016 A 
ATOM     37  C   UNL     1      -2.392   3.461   4.594  1.00  0.00     0.010 A 
ATOM     38  C   UNL     1      -1.619   4.720   6.540  1.00  0.00     0.010 A 
ATOM     39  C   UNL     1      -2.125   3.540   5.964  1.00  0.00    -0.014 A 
BRANCH  39  40
ATOM     40  C   UNL     1      -2.761   2.523   6.819  1.00  0.00     0.031 A 
ATOM     41  C   UNL     1      -4.151   2.827   7.306  1.00  0.00     0.074 A 
ATOM     42  C   UNL     1      -2.178   1.340   7.057  1.00  0.00     0.049 A 
ATOM     43  N   UNL     1      -4.928   2.135   8.094  1.00  0.00    -0.248 NA
ATOM     44  C   UNL     1      -4.750   4.089   6.830  1.00  0.00     0.031 C 
ATOM     45  C   UNL     1      -0.882   0.910   6.537  1.00  0.00     0.029 A 
ATOM     46  N   UNL     1      -2.619   0.280   7.802  1.00  0.00    -0.354 N 
ATOM     47  C   UNL     1      -6.093   2.882   8.216  1.00  0.00     0.074 A 
ATOM     48  C   UNL     1      -5.919   4.089   7.444  1.00  0.00     0.031 C 
ATOM     49  C   UNL     1      -0.623  -0.327   6.997  1.00  0.00     0.029 A 
ATOM     50  C   UNL     1      -1.716  -0.749   7.872  1.00  0.00     0.049 A 
ATOM     51  H   UNL     1      -3.498   0.259   8.244  1.00  0.00     0.167 HD
ATOM     52  C   UNL     1      -7.212   2.583   8.911  1.00  0.00     0.037 A 
ATOM     53  C   UNL     1      -1.766  -1.883   8.595  1.00  0.00     0.037 A 
ATOM     54  C   UNL     1      -7.369   1.378   9.675  1.00  0.00     0.049 A 
ATOM     55  C   UNL     1      -2.981  -2.147   9.448  1.00  0.00     0.074 A 
ATOM     56  C   UNL     1      -8.447   0.975  10.438  1.00  0.00     0.029 A 
ATOM     57  N   UNL     1      -6.407   0.382   9.773  1.00  0.00    -0.354 N 
ATOM     58  N   UNL     1      -4.071  -1.428   9.587  1.00  0.00    -0.248 NA
ATOM     59  C   UNL     1      -2.974  -3.381  10.244  1.00  0.00     0.031 C 
ATOM     60  C   UNL     1      -8.115  -0.239  11.046  1.00  0.00     0.029 A 
ATOM     61  C   UNL     1      -6.859  -0.626  10.604  1.00  0.00     0.049 A 
ATOM     62  H   UNL     1      -5.534   0.392   9.318  1.00  0.00     0.167 HD
ATOM     63  C   UNL     1      -4.892  -2.140  10.453  1.00  0.00     0.074 A 
ATOM     64  C   UNL     1      -4.176  -3.351  10.800  1.00  0.00     0.031 C 
ATOM     65  C   UNL     1      -6.128  -1.828  10.918  1.00  0.00     0.037 A 
BRANCH  52  66
ATOM     66  C   UNL     1      -8.312   3.602   8.917  1.00  0.00     0.057 A 
ATOM     67  C   UNL     1      -9.081   3.883   7.779  1.00  0.00     0.134 A 
ATOM     68  C   UNL     1      -8.601   4.320  10.084  1.00  0.00     0.134 A 
ATOM     69  F   UNL     1      -8.835   3.254   6.620  1.00  0.00    -0.206 F 
ATOM     70  C   UNL     1     -10.081   4.857   7.797  1.00  0.00     0.040 A 
ATOM     71  C   UNL     1      -9.619   5.273  10.123  1.00  0.00     0.040 A 
ATOM     72  F   UNL     1      -7.897   4.107  11.206  1.00  0.00    -0.206 F 
ATOM     73  C   UNL     1     -10.357   5.549   8.975  1.00  0.00     0.006 A 
ENDBRANCH  52  66
BRANCH  53  74
ATOM     74  C   UNL     1      -0.625  -2.833   8.574  1.00  0.00     0.057 A 
ATOM     75  C   UNL     1      -0.756  -4.119   8.039  1.00  0.00     0.134 A 
ATOM     76  C   UNL     1       0.618  -2.485   9.119  1.00  0.00     0.134 A 
ATOM     77  F   UNL     1      -1.927  -4.520   7.523  1.00  0.00    -0.206 F 
ATOM     78  C   UNL     1       0.299  -5.033   8.068  1.00  0.00     0.040 A 
ATOM     79  C   UNL     1       1.690  -3.378   9.127  1.00  0.00     0.040 A 
ATOM     80  F   UNL     1       0.810  -1.268   9.647  1.00  0.00    -0.206 F 
ATOM     81  C   UNL     1       1.529  -4.661   8.609  1.00  0.00     0.006 A 
ENDBRANCH  53  74
BRANCH  65  82
ATOM     82  C   UNL     1      -6.808  -2.836  11.800  1.00  0.00     0.057 A 
ATOM     83  C   UNL     1      -6.384  -3.090  13.110  1.00  0.00     0.134 A 
ATOM     84  C   UNL     1      -7.938  -3.526  11.341  1.00  0.00     0.134 A 
ATOM     85  F   UNL     1      -5.304  -2.468  13.608  1.00  0.00    -0.206 F 
ATOM     86  C   UNL     1      -7.041  -4.016  13.921  1.00  0.00     0.040 A 
ATOM     87  C   UNL     1      -8.624  -4.428  12.153  1.00  0.00     0.040 A 
ATOM     88  F   UNL     1      -8.407  -3.318  10.101  1.00  0.00    -0.206 F 
ATOM     89  C   UNL     1      -8.170  -4.682  13.445  1.00  0.00     0.006 A 
ENDBRANCH  65  82
ENDBRANCH  39  40
ENDBRANCH  32  34
ENDBRANCH  31  32
ENDBRANCH  30  31
ENDBRANCH  29  30
ENDBRANCH  28  29
ENDBRANCH  27  28
ENDBRANCH   1  27
TORSDOF 20
