REMARK SMILES CC1(C)[C@H](C(=O)N(Cc2ccccc2)Cc2ccccc2)CC[C@@]1(C)C(=O)OCCOCCOCCOC(=O)c1ccc(-c2c3nc(c(-c4c(F)cccc4F)c4ccc([nH]4)c(-c4c(F)cccc4F)c4nc(c(-c5c(F)cccc5F)c5ccc2[nH]5)C=C4)C=C3)cc1
REMARK SMILES IDX 32 1 31 2 30 3 29 4 28 5 26 6 27 7 24 8 1 9 2 10 3 11 4 12
REMARK SMILES IDX 22 13 23 14 25 15 5 16 6 17 7 18 8 19 9 20 10 21 14 22 11 23
REMARK SMILES IDX 13 24 12 25 15 26 16 27 17 28 21 29 18 30 20 31 19 32 33 33
REMARK SMILES IDX 34 34 35 35 36 36 37 37 38 38 39 39 40 40 41 41 93 42 42 43
REMARK SMILES IDX 92 44 43 45 44 46 45 47 86 48 46 49 91 50 85 51 87 52 47 53
REMARK SMILES IDX 90 54 84 55 83 56 48 58 74 59 57 60 73 61 58 62 61 63 72 64
REMARK SMILES IDX 88 65 59 66 60 67 71 69 89 70 62 71 49 72 50 73 55 74 51 75
REMARK SMILES IDX 52 76 54 77 56 78 53 79 75 80 76 81 81 82 77 83 78 84 80 85
REMARK SMILES IDX 82 86 79 87 63 88 64 89 69 90 65 91 66 92 68 93 70 94 67 95
REMARK H PARENT 87 57 61 68
REMARK Flexibility Score: inf
ROOT
ATOM      1  C   UNL     1       4.569   3.798   1.749  1.00  0.00     0.188 C 
ENDROOT
BRANCH   1   2
ATOM      2  O   UNL     1       4.813   3.166   2.997  1.00  0.00    -0.376 OA
BRANCH   2   3
ATOM      3  C   UNL     1       4.889   1.743   2.990  1.00  0.00     0.202 C 
BRANCH   3   4
ATOM      4  C   UNL     1       3.605   0.972   2.655  1.00  0.00     0.261 C 
BRANCH   4   5
ATOM      5  O   UNL     1       3.002   1.331   1.401  1.00  0.00    -0.463 OA
BRANCH   5   6
ATOM      6  C   UNL     1       1.818   2.007   1.468  1.00  0.00     0.312 C 
ATOM      7  O   UNL     1       1.254   2.320   2.509  1.00  0.00    -0.252 OA
BRANCH   6   8
ATOM      8  C   UNL     1       1.231   2.271   0.068  1.00  0.00     0.071 C 
ATOM      9  C   UNL     1       0.481  -0.223   0.440  1.00  0.00     0.013 C 
ATOM     10  C   UNL     1       0.218   1.114  -0.303  1.00  0.00    -0.008 C 
ATOM     11  C   UNL     1       0.327   0.749  -1.777  1.00  0.00     0.013 C 
ATOM     12  C   UNL     1      -1.143   1.700   0.170  1.00  0.00     0.085 C 
ATOM     13  C   UNL     1      -1.080   3.214   0.053  1.00  0.00     0.015 C 
ATOM     14  C   UNL     1       0.391   3.583   0.113  1.00  0.00     0.020 C 
ATOM     15  C   UNL     1       2.354   2.527  -0.963  1.00  0.00     0.024 C 
BRANCH  12  16
ATOM     16  C   UNL     1      -2.522   1.127  -0.192  1.00  0.00     0.226 C 
ATOM     17  O   UNL     1      -3.305   0.983   0.761  1.00  0.00    -0.275 OA
ATOM     18  N   UNL     1      -2.942   0.805  -1.477  1.00  0.00    -0.334 N 
BRANCH  18  19
ATOM     19  C   UNL     1      -2.592   1.586  -2.676  1.00  0.00     0.155 C 
BRANCH  19  20
ATOM     20  C   UNL     1      -1.983   0.878  -3.877  1.00  0.00    -0.029 A 
ATOM     21  C   UNL     1      -1.904  -0.512  -4.020  1.00  0.00     0.005 A 
ATOM     22  C   UNL     1      -1.379   1.664  -4.878  1.00  0.00     0.005 A 
ATOM     23  C   UNL     1      -1.246  -1.103  -5.101  1.00  0.00     0.000 A 
ATOM     24  C   UNL     1      -0.700   1.077  -5.951  1.00  0.00     0.000 A 
ATOM     25  C   UNL     1      -0.636  -0.309  -6.063  1.00  0.00     0.000 A 
ENDBRANCH  19  20
ENDBRANCH  18  19
BRANCH  18  26
ATOM     26  C   UNL     1      -4.183   0.008  -1.557  1.00  0.00     0.155 C 
BRANCH  26  27
ATOM     27  C   UNL     1      -3.971  -1.483  -1.346  1.00  0.00    -0.029 A 
ATOM     28  C   UNL     1      -4.371  -2.394  -2.336  1.00  0.00     0.005 A 
ATOM     29  C   UNL     1      -3.371  -1.994  -0.184  1.00  0.00     0.005 A 
ATOM     30  C   UNL     1      -4.102  -3.759  -2.203  1.00  0.00     0.000 A 
ATOM     31  C   UNL     1      -3.105  -3.357  -0.049  1.00  0.00     0.000 A 
ATOM     32  C   UNL     1      -3.458  -4.238  -1.065  1.00  0.00     0.000 A 
ENDBRANCH  26  27
ENDBRANCH  18  26
ENDBRANCH  12  16
ENDBRANCH   6   8
ENDBRANCH   5   6
ENDBRANCH   4   5
ENDBRANCH   3   4
ENDBRANCH   2   3
ENDBRANCH   1   2
BRANCH   1  33
ATOM     33  C   UNL     1       5.554   3.512   0.614  1.00  0.00     0.188 C 
BRANCH  33  34
ATOM     34  O   UNL     1       5.797   2.143   0.308  1.00  0.00    -0.376 OA
BRANCH  34  35
ATOM     35  C   UNL     1       6.539   1.909  -0.899  1.00  0.00     0.202 C 
BRANCH  35  36
ATOM     36  C   UNL     1       7.826   2.742  -1.082  1.00  0.00     0.261 C 
BRANCH  36  37
ATOM     37  O   UNL     1       7.600   4.168  -1.172  1.00  0.00    -0.460 OA
BRANCH  37  38
ATOM     38  C   UNL     1       6.781   4.601  -2.159  1.00  0.00     0.338 C 
ATOM     39  O   UNL     1       6.426   3.959  -3.135  1.00  0.00    -0.246 OA
BRANCH  38  40
ATOM     40  C   UNL     1       6.157   5.888  -1.738  1.00  0.00     0.060 A 
ATOM     41  C   UNL     1       4.817   6.113  -2.089  1.00  0.00     0.016 A 
ATOM     42  C   UNL     1       6.825   6.822  -0.938  1.00  0.00     0.016 A 
ATOM     43  C   UNL     1       4.168   7.288  -1.694  1.00  0.00     0.010 A 
ATOM     44  C   UNL     1       6.176   8.002  -0.549  1.00  0.00     0.010 A 
ATOM     45  C   UNL     1       4.855   8.260  -0.956  1.00  0.00    -0.014 A 
BRANCH  45  46
ATOM     46  C   UNL     1       4.263   9.616  -0.791  1.00  0.00     0.031 A 
ATOM     47  C   UNL     1       4.680  10.699  -1.752  1.00  0.00     0.074 A 
ATOM     48  C   UNL     1       3.345   9.894   0.154  1.00  0.00     0.049 A 
ATOM     49  N   UNL     1       4.307  11.953  -1.811  1.00  0.00    -0.248 NA
ATOM     50  C   UNL     1       5.649  10.311  -2.790  1.00  0.00     0.031 C 
ATOM     51  C   UNL     1       2.815   8.947   1.130  1.00  0.00     0.029 A 
ATOM     52  N   UNL     1       2.698  11.073   0.442  1.00  0.00    -0.354 N 
ATOM     53  C   UNL     1       4.992  12.500  -2.888  1.00  0.00     0.074 A 
ATOM     54  C   UNL     1       5.827  11.453  -3.435  1.00  0.00     0.031 C 
ATOM     55  C   UNL     1       1.929   9.584   1.917  1.00  0.00     0.029 A 
ATOM     56  C   UNL     1       1.847  10.989   1.518  1.00  0.00     0.049 A 
ATOM     57  H   UNL     1       2.833  11.901  -0.074  1.00  0.00     0.167 HD
ATOM     58  C   UNL     1       4.928  13.757  -3.389  1.00  0.00     0.037 A 
ATOM     59  C   UNL     1       1.102  11.939   2.120  1.00  0.00     0.037 A 
ATOM     60  C   UNL     1       4.106  14.811  -2.858  1.00  0.00     0.049 A 
ATOM     61  C   UNL     1       1.109  13.353   1.593  1.00  0.00     0.074 A 
ATOM     62  C   UNL     1       3.968  16.109  -3.319  1.00  0.00     0.029 A 
ATOM     63  N   UNL     1       3.295  14.696  -1.741  1.00  0.00    -0.354 N 
ATOM     64  N   UNL     1       1.734  13.849   0.554  1.00  0.00    -0.248 NA
ATOM     65  C   UNL     1       0.301  14.341   2.329  1.00  0.00     0.031 C 
ATOM     66  C   UNL     1       3.111  16.794  -2.451  1.00  0.00     0.029 A 
ATOM     67  C   UNL     1       2.676  15.908  -1.481  1.00  0.00     0.049 A 
ATOM     68  H   UNL     1       3.176  13.874  -1.212  1.00  0.00     0.167 HD
ATOM     69  C   UNL     1       1.376  15.193   0.497  1.00  0.00     0.074 A 
ATOM     70  C   UNL     1       0.466  15.432   1.595  1.00  0.00     0.031 C 
ATOM     71  C   UNL     1       1.768  16.143  -0.388  1.00  0.00     0.037 A 
BRANCH  58  72
ATOM     72  C   UNL     1       5.798  14.068  -4.570  1.00  0.00     0.057 A 
ATOM     73  C   UNL     1       5.513  13.573  -5.849  1.00  0.00     0.134 A 
ATOM     74  C   UNL     1       6.917  14.898  -4.429  1.00  0.00     0.134 A 
ATOM     75  F   UNL     1       4.466  12.759  -6.046  1.00  0.00    -0.206 F 
ATOM     76  C   UNL     1       6.324  13.878  -6.944  1.00  0.00     0.040 A 
ATOM     77  C   UNL     1       7.720  15.229  -5.521  1.00  0.00     0.040 A 
ATOM     78  F   UNL     1       7.242  15.405  -3.231  1.00  0.00    -0.206 F 
ATOM     79  C   UNL     1       7.427  14.714  -6.782  1.00  0.00     0.006 A 
ENDBRANCH  58  72
BRANCH  59  80
ATOM     80  C   UNL     1       0.291  11.604   3.320  1.00  0.00     0.057 A 
ATOM     81  C   UNL     1      -1.109  11.624   3.283  1.00  0.00     0.134 A 
ATOM     82  C   UNL     1       0.899  11.317   4.548  1.00  0.00     0.134 A 
ATOM     83  F   UNL     1      -1.749  11.928   2.145  1.00  0.00    -0.206 F 
ATOM     84  C   UNL     1      -1.874  11.389   4.427  1.00  0.00     0.040 A 
ATOM     85  C   UNL     1       0.146  11.054   5.694  1.00  0.00     0.040 A 
ATOM     86  F   UNL     1       2.236  11.294   4.653  1.00  0.00    -0.206 F 
ATOM     87  C   UNL     1      -1.246  11.098   5.636  1.00  0.00     0.006 A 
ENDBRANCH  59  80
BRANCH  71  88
ATOM     88  C   UNL     1       1.195  17.523  -0.228  1.00  0.00     0.057 A 
ATOM     89  C   UNL     1       1.576  18.366   0.824  1.00  0.00     0.134 A 
ATOM     90  C   UNL     1       0.276  18.028  -1.158  1.00  0.00     0.134 A 
ATOM     91  F   UNL     1       2.444  17.943   1.755  1.00  0.00    -0.206 F 
ATOM     92  C   UNL     1       1.045  19.651   0.959  1.00  0.00     0.040 A 
ATOM     93  C   UNL     1      -0.241  19.321  -1.048  1.00  0.00     0.040 A 
ATOM     94  F   UNL     1      -0.124  17.280  -2.196  1.00  0.00    -0.206 F 
ATOM     95  C   UNL     1       0.138  20.134   0.018  1.00  0.00     0.006 A 
ENDBRANCH  71  88
ENDBRANCH  45  46
ENDBRANCH  38  40
ENDBRANCH  37  38
ENDBRANCH  36  37
ENDBRANCH  35  36
ENDBRANCH  34  35
ENDBRANCH  33  34
ENDBRANCH   1  33
TORSDOF 22
