REMARK SMILES CCc1ccc2[nH]c(C(=O)c3cc(C)ccn3)c(CC(=O)OCCOCCOCCOC(=O)c3ccc(-c4c5nc(c(-c6c(F)cccc6F)c6ccc([nH]6)c(-c6c(F)cccc6F)c6nc(c(-c7c(F)cccc7F)c7ccc4[nH]7)C=C6)C=C5)cc3)c2c1
REMARK SMILES IDX 26 1 25 2 24 3 23 4 22 5 20 6 21 7 19 8 18 9 3 10 4 11 89 12
REMARK SMILES IDX 5 13 88 14 6 15 7 16 8 17 2 19 1 20 9 21 10 22 11 23 12 24
REMARK SMILES IDX 17 25 13 26 16 27 14 28 15 29 27 30 28 31 29 32 30 33 31 34
REMARK SMILES IDX 32 35 33 36 34 37 35 38 87 39 36 40 86 41 37 42 38 43 39 44
REMARK SMILES IDX 80 45 40 46 85 47 79 48 81 49 41 50 84 51 78 52 77 53 42 55
REMARK SMILES IDX 68 56 51 57 67 58 52 59 55 60 66 61 82 62 53 63 54 64 65 66
REMARK SMILES IDX 83 67 56 68 43 69 44 70 49 71 45 72 46 73 48 74 50 75 47 76
REMARK SMILES IDX 69 77 70 78 75 79 71 80 72 81 74 82 76 83 73 84 57 85 58 86
REMARK SMILES IDX 63 87 59 88 60 89 62 90 64 91 61 92
REMARK H PARENT 7 18 81 54 55 65
REMARK Flexibility Score: inf
ROOT
ATOM      1  C   UNL     1       1.487   9.669   1.674  1.00  0.00     0.188 C 
ENDROOT
BRANCH   1   2
ATOM      2  O   UNL     1       1.790   9.843   3.057  1.00  0.00    -0.376 OA
BRANCH   2   3
ATOM      3  C   UNL     1       2.453   8.786   3.737  1.00  0.00     0.202 C 
BRANCH   3   4
ATOM      4  C   UNL     1       1.668   7.472   3.845  1.00  0.00     0.261 C 
BRANCH   4   5
ATOM      5  O   UNL     1       1.300   6.948   2.550  1.00  0.00    -0.463 OA
BRANCH   5   6
ATOM      6  C   UNL     1       0.029   6.489   2.406  1.00  0.00     0.310 C 
ATOM      7  O   UNL     1      -0.734   6.306   3.351  1.00  0.00    -0.252 OA
BRANCH   6   8
ATOM      8  C   UNL     1      -0.446   6.403   0.959  1.00  0.00     0.161 C 
BRANCH   8   9
ATOM      9  C   UNL     1       0.497   5.860  -0.089  1.00  0.00     0.000 A 
ATOM     10  C   UNL     1       1.160   2.088   0.135  1.00  0.00    -0.048 A 
ATOM     11  C   UNL     1       1.934   2.021  -1.030  1.00  0.00     0.006 A 
ATOM     12  C   UNL     1       0.729   3.346   0.605  1.00  0.00     0.014 A 
ATOM     13  C   UNL     1       2.261   3.167  -1.760  1.00  0.00     0.027 A 
ATOM     14  C   UNL     1       0.975   4.506  -0.157  1.00  0.00     0.004 A 
ATOM     15  C   UNL     1       1.736   4.380  -1.314  1.00  0.00     0.046 A 
ATOM     16  N   UNL     1       1.798   5.625  -1.883  1.00  0.00    -0.352 N 
ATOM     17  C   UNL     1       0.822   6.427  -1.332  1.00  0.00     0.093 A 
ATOM     18  H   UNL     1       2.439   5.903  -2.577  1.00  0.00     0.167 HD
BRANCH  10  19
ATOM     19  C   UNL     1       0.704   0.864   0.899  1.00  0.00     0.032 C 
ATOM     20  C   UNL     1       1.033  -0.490   0.285  1.00  0.00     0.009 C 
ENDBRANCH  10  19
BRANCH  17  21
ATOM     21  C   UNL     1       0.229   7.555  -2.034  1.00  0.00     0.227 C 
ATOM     22  O   UNL     1      -0.832   8.075  -1.698  1.00  0.00    -0.285 OA
BRANCH  21  23
ATOM     23  C   UNL     1       0.898   8.065  -3.268  1.00  0.00     0.113 A 
ATOM     24  C   UNL     1       0.397   7.746  -4.527  1.00  0.00     0.036 A 
ATOM     25  N   UNL     1       1.983   8.854  -3.060  1.00  0.00    -0.253 NA
ATOM     26  C   UNL     1       1.030   8.295  -5.648  1.00  0.00    -0.047 A 
ATOM     27  C   UNL     1       2.533   9.417  -4.158  1.00  0.00     0.112 A 
ATOM     28  C   UNL     1       0.602   7.961  -7.047  1.00  0.00     0.044 C 
ATOM     29  C   UNL     1       2.097   9.175  -5.450  1.00  0.00     0.023 A 
ENDBRANCH  21  23
ENDBRANCH  17  21
ENDBRANCH   8   9
ENDBRANCH   6   8
ENDBRANCH   5   6
ENDBRANCH   4   5
ENDBRANCH   3   4
ENDBRANCH   2   3
ENDBRANCH   1   2
BRANCH   1  30
ATOM     30  C   UNL     1       2.478   8.898   0.776  1.00  0.00     0.188 C 
BRANCH  30  31
ATOM     31  O   UNL     1       3.837   9.066   1.158  1.00  0.00    -0.376 OA
BRANCH  31  32
ATOM     32  C   UNL     1       4.641   9.714   0.184  1.00  0.00     0.202 C 
BRANCH  32  33
ATOM     33  C   UNL     1       4.353  11.213   0.132  1.00  0.00     0.261 C 
BRANCH  33  34
ATOM     34  O   UNL     1       3.002  11.471  -0.309  1.00  0.00    -0.460 OA
BRANCH  34  35
ATOM     35  C   UNL     1       2.822  11.885  -1.575  1.00  0.00     0.338 C 
ATOM     36  O   UNL     1       3.704  12.108  -2.401  1.00  0.00    -0.246 OA
BRANCH  35  37
ATOM     37  C   UNL     1       1.382  12.103  -1.850  1.00  0.00     0.060 A 
ATOM     38  C   UNL     1       0.405  11.154  -1.534  1.00  0.00     0.016 A 
ATOM     39  C   UNL     1       1.005  13.259  -2.530  1.00  0.00     0.016 A 
ATOM     40  C   UNL     1      -0.923  11.328  -1.939  1.00  0.00     0.010 A 
ATOM     41  C   UNL     1      -0.337  13.465  -2.875  1.00  0.00     0.010 A 
ATOM     42  C   UNL     1      -1.317  12.494  -2.602  1.00  0.00    -0.014 A 
BRANCH  42  43
ATOM     43  C   UNL     1      -2.724  12.720  -3.037  1.00  0.00     0.031 A 
ATOM     44  C   UNL     1      -3.032  12.949  -4.492  1.00  0.00     0.074 A 
ATOM     45  C   UNL     1      -3.731  12.779  -2.142  1.00  0.00     0.049 A 
ATOM     46  N   UNL     1      -4.101  13.461  -5.047  1.00  0.00    -0.248 NA
ATOM     47  C   UNL     1      -1.987  12.553  -5.450  1.00  0.00     0.031 C 
ATOM     48  C   UNL     1      -3.620  12.493  -0.713  1.00  0.00     0.029 A 
ATOM     49  N   UNL     1      -5.051  13.131  -2.309  1.00  0.00    -0.354 N 
ATOM     50  C   UNL     1      -3.840  13.502  -6.411  1.00  0.00     0.074 A 
ATOM     51  C   UNL     1      -2.511  12.956  -6.600  1.00  0.00     0.031 C 
ATOM     52  C   UNL     1      -4.814  12.689  -0.132  1.00  0.00     0.029 A 
ATOM     53  C   UNL     1      -5.750  13.199  -1.129  1.00  0.00     0.049 A 
ATOM     54  H   UNL     1      -5.454  13.316  -3.188  1.00  0.00     0.167 HD
ATOM     55  C   UNL     1      -4.632  13.962  -7.410  1.00  0.00     0.037 A 
ATOM     56  C   UNL     1      -6.980  13.679  -0.859  1.00  0.00     0.037 A 
ATOM     57  C   UNL     1      -5.968  14.472  -7.224  1.00  0.00     0.049 A 
ATOM     58  C   UNL     1      -7.808  14.271  -1.966  1.00  0.00     0.074 A 
ATOM     59  C   UNL     1      -6.847  14.957  -8.178  1.00  0.00     0.029 A 
ATOM     60  N   UNL     1      -6.621  14.555  -6.004  1.00  0.00    -0.354 N 
ATOM     61  N   UNL     1      -7.532  14.372  -3.244  1.00  0.00    -0.248 NA
ATOM     62  C   UNL     1      -9.112  14.837  -1.588  1.00  0.00     0.031 C 
ATOM     63  C   UNL     1      -8.014  15.375  -7.530  1.00  0.00     0.029 A 
ATOM     64  C   UNL     1      -7.882  15.104  -6.178  1.00  0.00     0.049 A 
ATOM     65  H   UNL     1      -6.245  14.267  -5.141  1.00  0.00     0.167 HD
ATOM     66  C   UNL     1      -8.633  14.992  -3.823  1.00  0.00     0.074 A 
ATOM     67  C   UNL     1      -9.587  15.230  -2.761  1.00  0.00     0.031 C 
ATOM     68  C   UNL     1      -8.830  15.335  -5.119  1.00  0.00     0.037 A 
BRANCH  55  69
ATOM     69  C   UNL     1      -4.061  13.982  -8.798  1.00  0.00     0.057 A 
ATOM     70  C   UNL     1      -3.878  12.815  -9.549  1.00  0.00     0.134 A 
ATOM     71  C   UNL     1      -3.735  15.201  -9.408  1.00  0.00     0.134 A 
ATOM     72  F   UNL     1      -4.157  11.614  -9.020  1.00  0.00    -0.206 F 
ATOM     73  C   UNL     1      -3.375  12.858 -10.851  1.00  0.00     0.040 A 
ATOM     74  C   UNL     1      -3.255  15.259 -10.717  1.00  0.00     0.040 A 
ATOM     75  F   UNL     1      -3.892  16.358  -8.747  1.00  0.00    -0.206 F 
ATOM     76  C   UNL     1      -3.069  14.084 -11.441  1.00  0.00     0.006 A 
ENDBRANCH  55  69
BRANCH  56  77
ATOM     77  C   UNL     1      -7.485  13.681   0.538  1.00  0.00     0.057 A 
ATOM     78  C   UNL     1      -8.557  12.868   0.920  1.00  0.00     0.134 A 
ATOM     79  C   UNL     1      -6.918  14.505   1.519  1.00  0.00     0.134 A 
ATOM     80  F   UNL     1      -9.163  12.082   0.018  1.00  0.00    -0.206 F 
ATOM     81  C   UNL     1      -9.054  12.880   2.225  1.00  0.00     0.040 A 
ATOM     82  C   UNL     1      -7.384  14.504   2.834  1.00  0.00     0.040 A 
ATOM     83  F   UNL     1      -5.891  15.313   1.216  1.00  0.00    -0.206 F 
ATOM     84  C   UNL     1      -8.460  13.693   3.188  1.00  0.00     0.006 A 
ENDBRANCH  56  77
BRANCH  68  85
ATOM     85  C   UNL     1     -10.145  15.969  -5.470  1.00  0.00     0.057 A 
ATOM     86  C   UNL     1     -10.453  17.286  -5.106  1.00  0.00     0.134 A 
ATOM     87  C   UNL     1     -11.106  15.260  -6.202  1.00  0.00     0.134 A 
ATOM     88  F   UNL     1      -9.582  18.015  -4.392  1.00  0.00    -0.206 F 
ATOM     89  C   UNL     1     -11.678  17.868  -5.439  1.00  0.00     0.040 A 
ATOM     90  C   UNL     1     -12.324  15.839  -6.562  1.00  0.00     0.040 A 
ATOM     91  F   UNL     1     -10.873  13.996  -6.588  1.00  0.00    -0.206 F 
ATOM     92  C   UNL     1     -12.615  17.145  -6.175  1.00  0.00     0.006 A 
ENDBRANCH  68  85
ENDBRANCH  42  43
ENDBRANCH  35  37
ENDBRANCH  34  35
ENDBRANCH  33  34
ENDBRANCH  32  33
ENDBRANCH  31  32
ENDBRANCH  30  31
ENDBRANCH   1  30
TORSDOF 21
