REMARK SMILES O=C(OCCOCCOCCOC(=O)[C@H]1CC2(CC[NH+](C(=O)c3cccc(O)c3)CC2)CN1C(=O)C1CC1)c1ccc(-c2c3nc(c(-c4c(F)cccc4F)c4ccc([nH]4)c(-c4c(F)cccc4F)c4nc(c(-c5c(F)cccc5F)c5ccc2[nH]5)C=C4)C=C3)cc1
REMARK SMILES IDX 8 1 7 2 6 3 5 4 4 5 3 6 2 7 1 8 39 9 40 10 92 11 41 12 91 13
REMARK SMILES IDX 42 14 43 15 44 16 85 17 45 18 90 19 84 20 86 21 46 22 89 23
REMARK SMILES IDX 83 24 82 25 47 27 73 28 56 29 72 30 57 31 60 32 71 33 87 34
REMARK SMILES IDX 58 35 59 36 70 38 88 39 61 40 48 41 49 42 54 43 50 44 51 45
REMARK SMILES IDX 53 46 55 47 52 48 74 49 75 50 80 51 76 52 77 53 79 54 81 55
REMARK SMILES IDX 78 56 62 57 63 58 68 59 64 60 65 61 67 62 69 63 66 64 9 65
REMARK SMILES IDX 10 66 11 67 12 68 13 69 14 70 15 71 16 72 33 73 17 74 32 75
REMARK SMILES IDX 18 76 31 77 19 78 30 79 20 80 34 82 35 83 36 84 37 85 38 86
REMARK SMILES IDX 21 87 22 88 23 89 24 90 29 91 25 92 27 93 26 94 28 95
REMARK H PARENT 86 26 60 37 20 81 28 96
REMARK Flexibility Score: inf
ROOT
ATOM      1  C   UNL     1       0.092   3.832   2.994  1.00  0.00     0.188 C 
ENDROOT
BRANCH   1   2
ATOM      2  C   UNL     1       0.862   3.283   4.192  1.00  0.00     0.188 C 
BRANCH   2   3
ATOM      3  O   UNL     1       1.316   1.952   3.920  1.00  0.00    -0.376 OA
BRANCH   3   4
ATOM      4  C   UNL     1       0.642   0.967   4.687  1.00  0.00     0.202 C 
BRANCH   4   5
ATOM      5  C   UNL     1       1.496   0.496   5.859  1.00  0.00     0.261 C 
BRANCH   5   6
ATOM      6  O   UNL     1       2.260   1.542   6.490  1.00  0.00    -0.460 OA
BRANCH   6   7
ATOM      7  C   UNL     1       3.383   2.199   6.106  1.00  0.00     0.338 C 
ATOM      8  O   UNL     1       3.700   3.191   6.766  1.00  0.00    -0.246 OA
BRANCH   7   9
ATOM      9  C   UNL     1       4.296   1.823   4.966  1.00  0.00     0.060 A 
ATOM     10  C   UNL     1       4.332   0.598   4.304  1.00  0.00     0.016 A 
ATOM     11  C   UNL     1       5.274   2.775   4.598  1.00  0.00     0.016 A 
ATOM     12  C   UNL     1       5.296   0.339   3.309  1.00  0.00     0.010 A 
ATOM     13  C   UNL     1       6.252   2.514   3.617  1.00  0.00     0.010 A 
ATOM     14  C   UNL     1       6.270   1.289   2.955  1.00  0.00    -0.014 A 
BRANCH  14  15
ATOM     15  C   UNL     1       7.408   0.851   2.094  1.00  0.00     0.031 A 
ATOM     16  C   UNL     1       8.424  -0.038   2.739  1.00  0.00     0.074 A 
ATOM     17  C   UNL     1       7.529   1.134   0.781  1.00  0.00     0.049 A 
ATOM     18  N   UNL     1       9.330  -0.802   2.193  1.00  0.00    -0.248 NA
ATOM     19  C   UNL     1       8.413  -0.055   4.211  1.00  0.00     0.031 C 
ATOM     20  C   UNL     1       6.709   2.077   0.047  1.00  0.00     0.029 A 
ATOM     21  N   UNL     1       8.353   0.610  -0.191  1.00  0.00    -0.354 N 
ATOM     22  C   UNL     1       9.985  -1.405   3.254  1.00  0.00     0.074 A 
ATOM     23  C   UNL     1       9.380  -0.916   4.474  1.00  0.00     0.031 C 
ATOM     24  C   UNL     1       6.935   1.956  -1.271  1.00  0.00     0.029 A 
ATOM     25  C   UNL     1       8.003   0.989  -1.473  1.00  0.00     0.049 A 
ATOM     26  H   UNL     1       9.117   0.022   0.008  1.00  0.00     0.167 HD
ATOM     27  C   UNL     1      11.023  -2.271   3.218  1.00  0.00     0.037 A 
ATOM     28  C   UNL     1       8.484   0.596  -2.670  1.00  0.00     0.037 A 
ATOM     29  C   UNL     1      11.704  -2.657   2.015  1.00  0.00     0.049 A 
ATOM     30  C   UNL     1       9.654  -0.350  -2.684  1.00  0.00     0.074 A 
ATOM     31  C   UNL     1      12.816  -3.465   1.873  1.00  0.00     0.029 A 
ATOM     32  N   UNL     1      11.358  -2.217   0.745  1.00  0.00    -0.354 N 
ATOM     33  N   UNL     1      10.218  -0.980  -1.683  1.00  0.00    -0.248 NA
ATOM     34  C   UNL     1      10.286  -0.603  -3.987  1.00  0.00     0.031 C 
ATOM     35  C   UNL     1      13.175  -3.473   0.521  1.00  0.00     0.029 A 
ATOM     36  C   UNL     1      12.253  -2.716  -0.186  1.00  0.00     0.049 A 
ATOM     37  H   UNL     1      10.591  -1.637   0.536  1.00  0.00     0.167 HD
ATOM     38  C   UNL     1      11.272  -1.698  -2.230  1.00  0.00     0.074 A 
ATOM     39  C   UNL     1      11.242  -1.460  -3.659  1.00  0.00     0.031 C 
ATOM     40  C   UNL     1      12.195  -2.468  -1.605  1.00  0.00     0.037 A 
BRANCH  27  41
ATOM     41  C   UNL     1      11.509  -2.759   4.545  1.00  0.00     0.057 A 
ATOM     42  C   UNL     1      10.770  -3.675   5.306  1.00  0.00     0.134 A 
ATOM     43  C   UNL     1      12.673  -2.229   5.113  1.00  0.00     0.134 A 
ATOM     44  F   UNL     1       9.623  -4.185   4.830  1.00  0.00    -0.206 F 
ATOM     45  C   UNL     1      11.155  -4.021   6.601  1.00  0.00     0.040 A 
ATOM     46  C   UNL     1      13.079  -2.584   6.400  1.00  0.00     0.040 A 
ATOM     47  F   UNL     1      13.411  -1.332   4.443  1.00  0.00    -0.206 F 
ATOM     48  C   UNL     1      12.312  -3.474   7.151  1.00  0.00     0.006 A 
ENDBRANCH  27  41
BRANCH  28  49
ATOM     49  C   UNL     1       7.901   1.090  -3.953  1.00  0.00     0.057 A 
ATOM     50  C   UNL     1       7.318   0.204  -4.872  1.00  0.00     0.134 A 
ATOM     51  C   UNL     1       7.957   2.439  -4.325  1.00  0.00     0.134 A 
ATOM     52  F   UNL     1       7.253  -1.107  -4.597  1.00  0.00    -0.206 F 
ATOM     53  C   UNL     1       6.836   0.635  -6.112  1.00  0.00     0.040 A 
ATOM     54  C   UNL     1       7.450   2.889  -5.548  1.00  0.00     0.040 A 
ATOM     55  F   UNL     1       8.506   3.346  -3.505  1.00  0.00    -0.206 F 
ATOM     56  C   UNL     1       6.897   1.984  -6.450  1.00  0.00     0.006 A 
ENDBRANCH  28  49
BRANCH  40  57
ATOM     57  C   UNL     1      13.230  -3.124  -2.468  1.00  0.00     0.057 A 
ATOM     58  C   UNL     1      14.271  -2.396  -3.057  1.00  0.00     0.134 A 
ATOM     59  C   UNL     1      13.205  -4.508  -2.674  1.00  0.00     0.134 A 
ATOM     60  F   UNL     1      14.341  -1.064  -2.908  1.00  0.00    -0.206 F 
ATOM     61  C   UNL     1      15.243  -3.021  -3.838  1.00  0.00     0.040 A 
ATOM     62  C   UNL     1      14.186  -5.148  -3.430  1.00  0.00     0.040 A 
ATOM     63  F   UNL     1      12.236  -5.261  -2.131  1.00  0.00    -0.206 F 
ATOM     64  C   UNL     1      15.206  -4.403  -4.019  1.00  0.00     0.006 A 
ENDBRANCH  40  57
ENDBRANCH  14  15
ENDBRANCH   7   9
ENDBRANCH   6   7
ENDBRANCH   5   6
ENDBRANCH   4   5
ENDBRANCH   3   4
ENDBRANCH   2   3
ENDBRANCH   1   2
BRANCH   1  65
ATOM     65  O   UNL     1      -1.077   3.079   2.666  1.00  0.00    -0.376 OA
BRANCH  65  66
ATOM     66  C   UNL     1      -0.892   2.045   1.694  1.00  0.00     0.202 C 
BRANCH  66  67
ATOM     67  C   UNL     1      -1.018   2.519   0.239  1.00  0.00     0.261 C 
BRANCH  67  68
ATOM     68  O   UNL     1       0.224   3.057  -0.250  1.00  0.00    -0.462 OA
BRANCH  68  69
ATOM     69  C   UNL     1       0.386   4.395  -0.150  1.00  0.00     0.328 C 
ATOM     70  O   UNL     1      -0.499   5.153   0.231  1.00  0.00    -0.250 OA
BRANCH  69  71
ATOM     71  C   UNL     1       1.813   4.828  -0.560  1.00  0.00     0.195 C 
ATOM     72  C   UNL     1       1.697   6.358  -0.672  1.00  0.00     0.046 C 
ATOM     73  N   UNL     1       2.974   4.702   0.331  1.00  0.00    -0.328 N 
ATOM     74  C   UNL     1       3.108   6.937  -0.558  1.00  0.00     0.001 C 
ATOM     75  C   UNL     1       3.816   5.901   0.312  1.00  0.00     0.128 C 
ATOM     76  C   UNL     1       3.073   8.306   0.148  1.00  0.00     0.071 C 
ATOM     77  C   UNL     1       3.762   7.124  -1.940  1.00  0.00     0.071 C 
ATOM     78  C   UNL     1       2.259   9.292  -0.674  1.00  0.00     0.271 C 
ATOM     79  C   UNL     1       3.061   8.212  -2.768  1.00  0.00     0.271 C 
ATOM     80  N   UNL     1       2.850   9.443  -2.005  1.00  0.00    -0.267 N 
ATOM     81  H   UNL     1       2.374   9.577  -1.154  1.00  0.00     0.357 HD
BRANCH  73  82
ATOM     82  C   UNL     1       3.508   3.609   0.983  1.00  0.00     0.226 C 
ATOM     83  O   UNL     1       4.494   3.762   1.700  1.00  0.00    -0.275 OA
BRANCH  82  84
ATOM     84  C   UNL     1       2.857   2.279   0.975  1.00  0.00     0.079 C 
ATOM     85  C   UNL     1       2.403   1.504  -0.230  1.00  0.00     0.014 C 
ATOM     86  C   UNL     1       3.595   1.035   0.515  1.00  0.00     0.014 C 
ENDBRANCH  82  84
ENDBRANCH  73  82
BRANCH  80  87
ATOM     87  C   UNL     1       2.982  10.666  -2.660  1.00  0.00     0.344 C 
ATOM     88  O   UNL     1       3.255  10.784  -3.850  1.00  0.00    -0.226 OA
BRANCH  87  89
ATOM     89  C   UNL     1       2.767  11.894  -1.868  1.00  0.00     0.083 A 
ATOM     90  C   UNL     1       3.622  12.199  -0.801  1.00  0.00     0.018 A 
ATOM     91  C   UNL     1       1.668  12.701  -2.161  1.00  0.00     0.064 A 
ATOM     92  C   UNL     1       3.339  13.295   0.013  1.00  0.00     0.005 A 
ATOM     93  C   UNL     1       1.407  13.796  -1.347  1.00  0.00     0.116 A 
ATOM     94  C   UNL     1       2.226  14.094  -0.257  1.00  0.00     0.046 A 
BRANCH  93  95
ATOM     95  O   UNL     1       0.315  14.556  -1.640  1.00  0.00    -0.508 OA
ATOM     96  H   UNL     1       0.108  15.302  -1.112  1.00  0.00     0.293 HD
ENDBRANCH  93  95
ENDBRANCH  87  89
ENDBRANCH  80  87
ENDBRANCH  69  71
ENDBRANCH  68  69
ENDBRANCH  67  68
ENDBRANCH  66  67
ENDBRANCH  65  66
ENDBRANCH   1  65
TORSDOF 22
