REMARK SMILES CCC(CC)(NC(=O)Nc1cc(Cl)cc(Cl)c1)C(=O)OCCOCCOCCOC(=O)c1ccc(-c2c3nc(c(-c4c(F)cccc4F)c4ccc([nH]4)c(-c4c(F)cccc4F)c4nc(c(-c5c(F)cccc5F)c5ccc2[nH]5)C=C4)C=C3)cc1
REMARK SMILES IDX 24 1 23 2 22 3 21 4 20 5 18 6 19 7 3 8 2 9 1 10 4 11 5 12
REMARK SMILES IDX 6 13 7 14 8 16 9 17 10 19 11 20 17 21 12 22 15 23 13 24
REMARK SMILES IDX 14 25 16 26 25 27 26 28 27 29 28 30 29 31 30 32 31 33 32 34
REMARK SMILES IDX 33 35 85 36 34 37 84 38 35 39 36 40 37 41 78 42 38 43 83 44
REMARK SMILES IDX 77 45 79 46 39 47 82 48 76 49 75 50 40 52 66 53 49 54 65 55
REMARK SMILES IDX 50 56 53 57 64 58 80 59 51 60 52 61 63 63 81 64 54 65 41 66
REMARK SMILES IDX 42 67 47 68 43 69 44 70 46 71 48 72 45 73 67 74 68 75 73 76
REMARK SMILES IDX 69 77 70 78 72 79 74 80 71 81 55 82 56 83 61 84 57 85 58 86
REMARK SMILES IDX 60 87 62 88 59 89
REMARK H PARENT 6 15 9 18 79 51 53 62
REMARK Flexibility Score: inf
ROOT
ATOM      1  C   UNL     1       5.049  -2.670  -3.519  1.00  0.00     0.188 C 
ENDROOT
BRANCH   1   2
ATOM      2  O   UNL     1       4.338  -3.762  -2.910  1.00  0.00    -0.376 OA
BRANCH   2   3
ATOM      3  C   UNL     1       4.854  -4.172  -1.633  1.00  0.00     0.202 C 
BRANCH   3   4
ATOM      4  C   UNL     1       3.839  -5.038  -0.794  1.00  0.00     0.261 C 
BRANCH   4   5
ATOM      5  O   UNL     1       2.501  -4.443  -0.725  1.00  0.00    -0.461 OA
BRANCH   5   6
ATOM      6  C   UNL     1       1.696  -4.101   0.354  1.00  0.00     0.331 C 
ATOM      7  O   UNL     1       1.892  -4.503   1.496  1.00  0.00    -0.249 OA
BRANCH   6   8
ATOM      8  C   UNL     1       0.508  -3.057  -0.074  1.00  0.00     0.139 C 
BRANCH   8   9
ATOM      9  C   UNL     1       0.338  -1.496   0.095  1.00  0.00     0.037 C 
ATOM     10  C   UNL     1       0.538  -0.736   1.376  1.00  0.00     0.007 C 
ENDBRANCH   8   9
BRANCH   8  11
ATOM     11  C   UNL     1      -0.789  -3.735   0.461  1.00  0.00     0.037 C 
ATOM     12  C   UNL     1      -2.125  -3.282  -0.125  1.00  0.00     0.007 C 
ENDBRANCH   8  11
BRANCH   8  13
ATOM     13  N   UNL     1       0.683  -3.148  -1.501  1.00  0.00    -0.322 N 
ATOM     14  C   UNL     1       1.684  -2.567  -2.192  1.00  0.00     0.320 C 
ATOM     15  H   UNL     1       0.023  -3.673  -2.009  1.00  0.00     0.166 HD
ATOM     16  O   UNL     1       1.585  -2.681  -3.416  1.00  0.00    -0.248 OA
ATOM     17  N   UNL     1       2.675  -1.776  -1.663  1.00  0.00    -0.308 N 
ATOM     18  H   UNL     1       3.019  -1.244  -2.416  1.00  0.00     0.171 HD
BRANCH  17  19
ATOM     19  C   UNL     1       3.443  -1.364  -0.513  1.00  0.00     0.045 A 
ATOM     20  C   UNL     1       3.677  -1.986   0.719  1.00  0.00     0.046 A 
ATOM     21  C   UNL     1       4.185  -0.189  -0.708  1.00  0.00     0.046 A 
ATOM     22  C   UNL     1       4.515  -1.456   1.718  1.00  0.00     0.044 A 
ATOM     23  C   UNL     1       5.048   0.332   0.273  1.00  0.00     0.044 A 
ATOM     24  Cl  UNL     1       4.729  -2.310   3.204  1.00  0.00    -0.084 Cl
ATOM     25  C   UNL     1       5.204  -0.285   1.502  1.00  0.00     0.041 A 
ATOM     26  Cl  UNL     1       5.962   1.746  -0.077  1.00  0.00    -0.084 Cl
ENDBRANCH  17  19
ENDBRANCH   8  13
ENDBRANCH   6   8
ENDBRANCH   5   6
ENDBRANCH   4   5
ENDBRANCH   3   4
ENDBRANCH   2   3
ENDBRANCH   1   2
BRANCH   1  27
ATOM     27  C   UNL     1       4.224  -1.936  -4.595  1.00  0.00     0.188 C 
BRANCH  27  28
ATOM     28  O   UNL     1       3.741  -2.745  -5.653  1.00  0.00    -0.376 OA
BRANCH  28  29
ATOM     29  C   UNL     1       4.710  -3.171  -6.587  1.00  0.00     0.202 C 
BRANCH  29  30
ATOM     30  C   UNL     1       5.282  -2.060  -7.486  1.00  0.00     0.261 C 
BRANCH  30  31
ATOM     31  O   UNL     1       4.823  -0.732  -7.182  1.00  0.00    -0.460 OA
BRANCH  31  32
ATOM     32  C   UNL     1       3.522  -0.477  -7.467  1.00  0.00     0.338 C 
ATOM     33  O   UNL     1       2.777  -1.152  -8.159  1.00  0.00    -0.246 OA
BRANCH  32  34
ATOM     34  C   UNL     1       3.099   0.729  -6.711  1.00  0.00     0.060 A 
ATOM     35  C   UNL     1       1.854   0.730  -6.066  1.00  0.00     0.016 A 
ATOM     36  C   UNL     1       3.901   1.875  -6.676  1.00  0.00     0.016 A 
ATOM     37  C   UNL     1       1.376   1.897  -5.455  1.00  0.00     0.010 A 
ATOM     38  C   UNL     1       3.421   3.043  -6.074  1.00  0.00     0.010 A 
ATOM     39  C   UNL     1       2.133   3.077  -5.511  1.00  0.00    -0.014 A 
BRANCH  39  40
ATOM     40  C   UNL     1       1.493   4.403  -5.294  1.00  0.00     0.031 A 
ATOM     41  C   UNL     1       0.919   5.095  -6.505  1.00  0.00     0.074 A 
ATOM     42  C   UNL     1       1.459   5.014  -4.096  1.00  0.00     0.049 A 
ATOM     43  N   UNL     1       0.450   6.309  -6.634  1.00  0.00    -0.248 NA
ATOM     44  C   UNL     1       0.888   4.303  -7.748  1.00  0.00     0.031 C 
ATOM     45  C   UNL     1       1.935   4.449  -2.837  1.00  0.00     0.029 A 
ATOM     46  N   UNL     1       1.016   6.271  -3.756  1.00  0.00    -0.354 N 
ATOM     47  C   UNL     1       0.082   6.428  -7.969  1.00  0.00     0.074 A 
ATOM     48  C   UNL     1       0.403   5.175  -8.615  1.00  0.00     0.031 C 
ATOM     49  C   UNL     1       1.780   5.365  -1.863  1.00  0.00     0.029 A 
ATOM     50  C   UNL     1       1.229   6.594  -2.437  1.00  0.00     0.049 A 
ATOM     51  H   UNL     1       0.587   6.882  -4.397  1.00  0.00     0.167 HD
ATOM     52  C   UNL     1      -0.476   7.483  -8.607  1.00  0.00     0.037 A 
ATOM     53  C   UNL     1       1.029   7.756  -1.782  1.00  0.00     0.037 A 
ATOM     54  C   UNL     1      -0.784   8.736  -7.976  1.00  0.00     0.049 A 
ATOM     55  C   UNL     1       0.479   8.949  -2.529  1.00  0.00     0.074 A 
ATOM     56  C   UNL     1      -1.349   9.868  -8.534  1.00  0.00     0.029 A 
ATOM     57  N   UNL     1      -0.543   9.022  -6.641  1.00  0.00    -0.354 N 
ATOM     58  N   UNL     1       0.122   9.048  -3.787  1.00  0.00    -0.248 NA
ATOM     59  C   UNL     1       0.310  10.194  -1.763  1.00  0.00     0.031 C 
ATOM     60  C   UNL     1      -1.408  10.857  -7.547  1.00  0.00     0.029 A 
ATOM     61  C   UNL     1      -0.929  10.321  -6.362  1.00  0.00     0.049 A 
ATOM     62  H   UNL     1      -0.155   8.395  -5.989  1.00  0.00     0.167 HD
ATOM     63  C   UNL     1      -0.345  10.348  -3.953  1.00  0.00     0.074 A 
ATOM     64  C   UNL     1      -0.231  11.000  -2.666  1.00  0.00     0.031 C 
ATOM     65  C   UNL     1      -0.827  10.948  -5.069  1.00  0.00     0.037 A 
BRANCH  52  66
ATOM     66  C   UNL     1      -0.751   7.329 -10.073  1.00  0.00     0.057 A 
ATOM     67  C   UNL     1      -1.777   6.502 -10.550  1.00  0.00     0.134 A 
ATOM     68  C   UNL     1       0.019   8.015 -11.020  1.00  0.00     0.134 A 
ATOM     69  F   UNL     1      -2.537   5.801  -9.696  1.00  0.00    -0.206 F 
ATOM     70  C   UNL     1      -2.008   6.342 -11.917  1.00  0.00     0.040 A 
ATOM     71  C   UNL     1      -0.220   7.885 -12.388  1.00  0.00     0.040 A 
ATOM     72  F   UNL     1       1.018   8.822 -10.630  1.00  0.00    -0.206 F 
ATOM     73  C   UNL     1      -1.232   7.040 -12.840  1.00  0.00     0.006 A 
ENDBRANCH  52  66
BRANCH  53  74
ATOM     74  C   UNL     1       1.368   7.876  -0.339  1.00  0.00     0.057 A 
ATOM     75  C   UNL     1       0.372   8.051   0.630  1.00  0.00     0.134 A 
ATOM     76  C   UNL     1       2.697   7.868   0.103  1.00  0.00     0.134 A 
ATOM     77  F   UNL     1      -0.919   8.101   0.268  1.00  0.00    -0.206 F 
ATOM     78  C   UNL     1       0.683   8.232   1.979  1.00  0.00     0.040 A 
ATOM     79  C   UNL     1       3.022   8.022   1.453  1.00  0.00     0.040 A 
ATOM     80  F   UNL     1       3.701   7.713  -0.772  1.00  0.00    -0.206 F 
ATOM     81  C   UNL     1       2.013   8.212   2.395  1.00  0.00     0.006 A 
ENDBRANCH  53  74
BRANCH  65  82
ATOM     82  C   UNL     1      -1.319  12.361  -4.945  1.00  0.00     0.057 A 
ATOM     83  C   UNL     1      -0.443  13.444  -4.804  1.00  0.00     0.134 A 
ATOM     84  C   UNL     1      -2.689  12.645  -5.035  1.00  0.00     0.134 A 
ATOM     85  F   UNL     1       0.879  13.240  -4.703  1.00  0.00    -0.206 F 
ATOM     86  C   UNL     1      -0.913  14.757  -4.739  1.00  0.00     0.040 A 
ATOM     87  C   UNL     1      -3.168  13.954  -4.998  1.00  0.00     0.040 A 
ATOM     88  F   UNL     1      -3.581  11.654  -5.184  1.00  0.00    -0.206 F 
ATOM     89  C   UNL     1      -2.278  15.015  -4.845  1.00  0.00     0.006 A 
ENDBRANCH  65  82
ENDBRANCH  39  40
ENDBRANCH  32  34
ENDBRANCH  31  32
ENDBRANCH  30  31
ENDBRANCH  29  30
ENDBRANCH  28  29
ENDBRANCH  27  28
ENDBRANCH   1  27
TORSDOF 21
