REMARK SMILES Cc1ccc(C(=O)N2C[C@@H](C(=O)OCCOCCOCCOC(=O)c3ccc(-c4c5nc(c(-c6c(F)cccc6F)c6ccc([nH]6)c(-c6c(F)cccc6F)c6nc(c(-c7c(F)cccc7F)c7ccc4[nH]7)C=C6)C=C5)cc3)C[C@H](C(=O)N3CCOCC3)C2)cc1F
REMARK SMILES IDX 17 1 16 2 15 3 14 4 13 5 11 6 12 7 10 8 8 9 9 10 89 11 80 12
REMARK SMILES IDX 79 13 6 14 7 15 5 16 1 17 2 18 3 19 91 20 4 21 90 22 92 23
REMARK SMILES IDX 81 24 82 25 83 26 84 27 88 28 85 29 87 30 86 31 18 32 19 33
REMARK SMILES IDX 20 34 21 35 22 36 23 37 24 38 25 39 26 40 78 41 27 42 77 43
REMARK SMILES IDX 28 44 29 45 30 46 71 47 31 48 76 49 70 50 72 51 32 52 75 53
REMARK SMILES IDX 69 54 68 55 33 57 59 58 42 59 58 60 43 61 46 62 57 63 73 64
REMARK SMILES IDX 44 65 45 66 56 68 74 69 47 70 34 71 35 72 40 73 36 74 37 75
REMARK SMILES IDX 39 76 41 77 38 78 60 79 61 80 66 81 62 82 63 83 65 84 67 85
REMARK SMILES IDX 64 86 48 87 49 88 54 89 50 90 51 91 53 92 55 93 52 94
REMARK H PARENT 72 56 46 67
REMARK Flexibility Score: inf
ROOT
ATOM      1  C   UNL     1      -9.237  -3.398   1.845  1.00  0.00     0.188 C 
ENDROOT
BRANCH   1   2
ATOM      2  O   UNL     1      -9.527  -3.358   3.239  1.00  0.00    -0.376 OA
BRANCH   2   3
ATOM      3  C   UNL     1      -9.957  -2.103   3.762  1.00  0.00     0.202 C 
BRANCH   3   4
ATOM      4  C   UNL     1      -8.893  -0.990   3.850  1.00  0.00     0.261 C 
BRANCH   4   5
ATOM      5  O   UNL     1      -8.090  -0.809   2.662  1.00  0.00    -0.463 OA
BRANCH   5   6
ATOM      6  C   UNL     1      -6.900  -1.444   2.682  1.00  0.00     0.310 C 
ATOM      7  O   UNL     1      -6.439  -2.009   3.670  1.00  0.00    -0.252 OA
BRANCH   6   8
ATOM      8  C   UNL     1      -6.145  -1.443   1.366  1.00  0.00     0.119 C 
ATOM      9  N   UNL     1      -4.028  -0.692   0.476  1.00  0.00    -0.337 N 
ATOM     10  C   UNL     1      -4.963  -0.532   1.565  1.00  0.00     0.135 C 
ATOM     11  C   UNL     1      -4.509  -0.401  -0.871  1.00  0.00     0.133 C 
ATOM     12  C   UNL     1      -5.846  -1.110  -1.188  1.00  0.00     0.099 C 
ATOM     13  C   UNL     1      -6.826  -1.161   0.015  1.00  0.00     0.032 C 
BRANCH   9  14
ATOM     14  C   UNL     1      -2.767  -1.170   0.780  1.00  0.00     0.254 C 
ATOM     15  O   UNL     1      -2.571  -2.050   1.614  1.00  0.00    -0.269 OA
BRANCH  14  16
ATOM     16  C   UNL     1      -1.605  -0.430   0.245  1.00  0.00     0.042 A 
ATOM     17  C   UNL     1       1.980   1.865  -0.240  1.00  0.00     0.047 C 
ATOM     18  C   UNL     1       0.714   1.070  -0.163  1.00  0.00    -0.015 A 
ATOM     19  C   UNL     1      -0.527   1.710  -0.102  1.00  0.00     0.007 A 
ATOM     20  C   UNL     1       0.768  -0.326  -0.070  1.00  0.00     0.126 A 
ATOM     21  C   UNL     1      -1.683   0.963   0.107  1.00  0.00     0.014 A 
ATOM     22  C   UNL     1      -0.377  -1.083   0.139  1.00  0.00     0.053 A 
ATOM     23  F   UNL     1       1.954  -0.949  -0.122  1.00  0.00    -0.207 F 
ENDBRANCH  14  16
ENDBRANCH   9  14
BRANCH  12  24
ATOM     24  C   UNL     1      -5.532  -2.366  -2.032  1.00  0.00     0.227 C 
ATOM     25  O   UNL     1      -5.490  -2.248  -3.263  1.00  0.00    -0.275 OA
ATOM     26  N   UNL     1      -5.032  -3.497  -1.434  1.00  0.00    -0.338 N 
ATOM     27  C   UNL     1      -5.726  -4.327  -0.454  1.00  0.00     0.148 C 
ATOM     28  C   UNL     1      -3.895  -4.195  -2.042  1.00  0.00     0.148 C 
ATOM     29  C   UNL     1      -4.738  -4.814   0.614  1.00  0.00     0.181 C 
ATOM     30  C   UNL     1      -2.949  -4.667  -0.931  1.00  0.00     0.181 C 
ATOM     31  O   UNL     1      -3.643  -5.518   0.000  1.00  0.00    -0.378 OA
ENDBRANCH  12  24
ENDBRANCH   6   8
ENDBRANCH   5   6
ENDBRANCH   4   5
ENDBRANCH   3   4
ENDBRANCH   2   3
ENDBRANCH   1   2
BRANCH   1  32
ATOM     32  C   UNL     1     -10.180  -2.591   0.951  1.00  0.00     0.188 C 
BRANCH  32  33
ATOM     33  O   UNL     1     -10.182  -1.195   1.202  1.00  0.00    -0.376 OA
BRANCH  33  34
ATOM     34  C   UNL     1     -11.246  -0.343   0.776  1.00  0.00     0.202 C 
BRANCH  34  35
ATOM     35  C   UNL     1     -12.685  -0.844   0.541  1.00  0.00     0.261 C 
BRANCH  35  36
ATOM     36  O   UNL     1     -12.790  -2.131  -0.043  1.00  0.00    -0.460 OA
BRANCH  36  37
ATOM     37  C   UNL     1     -12.100  -2.291  -1.177  1.00  0.00     0.338 C 
ATOM     38  O   UNL     1     -11.597  -1.410  -1.883  1.00  0.00    -0.246 OA
BRANCH  37  39
ATOM     39  C   UNL     1     -11.877  -3.719  -1.375  1.00  0.00     0.060 A 
ATOM     40  C   UNL     1     -10.789  -4.098  -2.178  1.00  0.00     0.016 A 
ATOM     41  C   UNL     1     -12.838  -4.624  -0.926  1.00  0.00     0.016 A 
ATOM     42  C   UNL     1     -10.867  -5.281  -2.859  1.00  0.00     0.010 A 
ATOM     43  C   UNL     1     -12.931  -5.793  -1.616  1.00  0.00     0.010 A 
ATOM     44  C   UNL     1     -12.039  -5.993  -2.682  1.00  0.00    -0.014 A 
BRANCH  44  45
ATOM     45  C   UNL     1     -12.610  -6.766  -3.751  1.00  0.00     0.031 A 
ATOM     46  C   UNL     1     -12.510  -8.212  -3.660  1.00  0.00     0.074 A 
ATOM     47  C   UNL     1     -13.458  -6.082  -4.551  1.00  0.00     0.049 A 
ATOM     48  N   UNL     1     -12.908  -9.007  -4.577  1.00  0.00    -0.248 NA
ATOM     49  C   UNL     1     -11.903  -8.882  -2.515  1.00  0.00     0.031 C 
ATOM     50  C   UNL     1     -14.603  -6.570  -5.300  1.00  0.00     0.029 A 
ATOM     51  N   UNL     1     -13.332  -4.741  -4.952  1.00  0.00    -0.354 N 
ATOM     52  C   UNL     1     -12.930 -10.263  -4.027  1.00  0.00     0.074 A 
ATOM     53  C   UNL     1     -12.190 -10.156  -2.792  1.00  0.00     0.031 C 
ATOM     54  C   UNL     1     -14.915  -5.670  -6.250  1.00  0.00     0.029 A 
ATOM     55  C   UNL     1     -13.851  -4.679  -6.264  1.00  0.00     0.049 A 
ATOM     56  H   UNL     1     -12.959  -3.998  -4.426  1.00  0.00     0.167 HD
ATOM     57  C   UNL     1     -13.717 -11.194  -4.628  1.00  0.00     0.037 A 
ATOM     58  C   UNL     1     -12.998  -4.468  -7.316  1.00  0.00     0.037 A 
ATOM     59  C   UNL     1     -14.329 -10.635  -5.834  1.00  0.00     0.049 A 
ATOM     60  C   UNL     1     -12.882  -5.656  -8.254  1.00  0.00     0.074 A 
ATOM     61  C   UNL     1     -15.532 -10.002  -6.106  1.00  0.00     0.029 A 
ATOM     62  N   UNL     1     -13.497 -10.331  -6.888  1.00  0.00    -0.354 N 
ATOM     63  N   UNL     1     -13.364  -6.841  -7.997  1.00  0.00    -0.248 NA
ATOM     64  C   UNL     1     -12.150  -5.622  -9.520  1.00  0.00     0.031 C 
ATOM     65  C   UNL     1     -15.386  -9.294  -7.340  1.00  0.00     0.029 A 
ATOM     66  C   UNL     1     -14.102  -9.509  -7.811  1.00  0.00     0.049 A 
ATOM     67  H   UNL     1     -12.574 -10.664  -6.971  1.00  0.00     0.167 HD
ATOM     68  C   UNL     1     -12.994  -7.715  -8.979  1.00  0.00     0.074 A 
ATOM     69  C   UNL     1     -12.228  -6.907  -9.911  1.00  0.00     0.031 C 
ATOM     70  C   UNL     1     -13.306  -9.044  -8.936  1.00  0.00     0.037 A 
BRANCH  57  71
ATOM     71  C   UNL     1     -14.102 -12.519  -4.041  1.00  0.00     0.057 A 
ATOM     72  C   UNL     1     -15.285 -13.150  -4.467  1.00  0.00     0.134 A 
ATOM     73  C   UNL     1     -13.376 -13.228  -3.069  1.00  0.00     0.134 A 
ATOM     74  F   UNL     1     -16.060 -12.624  -5.425  1.00  0.00    -0.206 F 
ATOM     75  C   UNL     1     -15.738 -14.359  -3.932  1.00  0.00     0.040 A 
ATOM     76  C   UNL     1     -13.841 -14.416  -2.490  1.00  0.00     0.040 A 
ATOM     77  F   UNL     1     -12.158 -12.845  -2.672  1.00  0.00    -0.206 F 
ATOM     78  C   UNL     1     -15.027 -14.987  -2.923  1.00  0.00     0.006 A 
ENDBRANCH  57  71
BRANCH  58  79
ATOM     79  C   UNL     1     -11.865  -3.567  -6.942  1.00  0.00     0.057 A 
ATOM     80  C   UNL     1     -12.167  -2.262  -6.504  1.00  0.00     0.134 A 
ATOM     81  C   UNL     1     -10.616  -4.085  -6.585  1.00  0.00     0.134 A 
ATOM     82  F   UNL     1     -13.341  -1.696  -6.827  1.00  0.00    -0.206 F 
ATOM     83  C   UNL     1     -11.338  -1.576  -5.613  1.00  0.00     0.040 A 
ATOM     84  C   UNL     1      -9.767  -3.394  -5.713  1.00  0.00     0.040 A 
ATOM     85  F   UNL     1     -10.252  -5.316  -6.969  1.00  0.00    -0.206 F 
ATOM     86  C   UNL     1     -10.151  -2.161  -5.186  1.00  0.00     0.006 A 
ENDBRANCH  58  79
BRANCH  70  87
ATOM     87  C   UNL     1     -12.843 -10.033  -9.965  1.00  0.00     0.057 A 
ATOM     88  C   UNL     1     -12.984  -9.802 -11.337  1.00  0.00     0.134 A 
ATOM     89  C   UNL     1     -12.344 -11.303  -9.607  1.00  0.00     0.134 A 
ATOM     90  F   UNL     1     -13.507  -8.654 -11.793  1.00  0.00    -0.206 F 
ATOM     91  C   UNL     1     -12.607 -10.754 -12.291  1.00  0.00     0.040 A 
ATOM     92  C   UNL     1     -12.028 -12.285 -10.545  1.00  0.00     0.040 A 
ATOM     93  F   UNL     1     -12.108 -11.642  -8.331  1.00  0.00    -0.206 F 
ATOM     94  C   UNL     1     -12.141 -12.005 -11.896  1.00  0.00     0.006 A 
ENDBRANCH  70  87
ENDBRANCH  44  45
ENDBRANCH  37  39
ENDBRANCH  36  37
ENDBRANCH  35  36
ENDBRANCH  34  35
ENDBRANCH  33  34
ENDBRANCH  32  33
ENDBRANCH   1  32
TORSDOF 20
