REMARK SMILES CCC(=O)N1CCC[C@](C[C@H]2CC(c3ccc(C)cc3)=NO2)(C(=O)OCCOCCOCCOC(=O)c2ccc(-c3c4nc(c(-c5c(F)cccc5F)c5ccc([nH]5)c(-c5c(F)cccc5F)c5nc(c(-c6c(F)cccc6F)c6ccc3[nH]6)C=C5)C=C4)cc2)C1
REMARK SMILES IDX 29 1 28 2 27 3 26 4 25 5 23 6 24 7 9 8 5 9 6 10 91 11 7 12
REMARK SMILES IDX 8 13 3 14 4 15 2 16 1 17 10 18 11 19 12 20 22 21 13 22 21 23
REMARK SMILES IDX 14 24 15 25 20 26 16 27 19 28 17 29 18 30 30 31 31 32 32 33
REMARK SMILES IDX 33 34 34 35 35 36 36 37 37 38 38 39 90 40 39 41 89 42 40 43
REMARK SMILES IDX 41 44 42 45 83 46 43 47 88 48 82 49 84 50 44 51 87 52 81 53
REMARK SMILES IDX 80 54 45 56 71 57 54 58 70 59 55 60 58 61 69 62 85 63 56 64
REMARK SMILES IDX 57 65 68 67 86 68 59 69 46 70 47 71 52 72 48 73 49 74 51 75
REMARK SMILES IDX 53 76 50 77 72 78 73 79 78 80 74 81 75 82 77 83 79 84 76 85
REMARK SMILES IDX 60 86 61 87 66 88 62 89 63 90 65 91 67 92 64 93
REMARK H PARENT 84 55 58 66
REMARK Flexibility Score: inf
ROOT
ATOM      1  C   UNL     1       1.184   4.107   4.966  1.00  0.00     0.188 C 
ENDROOT
BRANCH   1   2
ATOM      2  O   UNL     1       1.985   3.315   5.860  1.00  0.00    -0.376 OA
BRANCH   2   3
ATOM      3  C   UNL     1       3.414   3.343   5.936  1.00  0.00     0.202 C 
BRANCH   3   4
ATOM      4  C   UNL     1       4.610   2.193   5.577  1.00  0.00     0.261 C 
BRANCH   4   5
ATOM      5  O   UNL     1       4.934   0.962   4.310  1.00  0.00    -0.463 OA
BRANCH   5   6
ATOM      6  C   UNL     1       4.361  -0.145   3.557  1.00  0.00     0.314 C 
ATOM      7  O   UNL     1       3.225  -0.608   3.653  1.00  0.00    -0.252 OA
BRANCH   6   8
ATOM      8  C   UNL     1       5.156  -0.980   2.567  1.00  0.00     0.089 C 
ATOM      9  N   UNL     1       3.268  -2.508   1.370  1.00  0.00    -0.342 N 
ATOM     10  C   UNL     1       3.651  -3.619   2.235  1.00  0.00     0.119 C 
ATOM     11  C   UNL     1       4.176  -1.312   1.315  1.00  0.00     0.138 C 
ATOM     12  C   UNL     1       4.273  -3.225   3.555  1.00  0.00     0.023 C 
ATOM     13  C   UNL     1       5.457  -2.287   3.333  1.00  0.00     0.022 C 
BRANCH   9  14
ATOM     14  C   UNL     1       2.244  -2.856   0.484  1.00  0.00     0.222 C 
ATOM     15  O   UNL     1       1.662  -3.952   0.597  1.00  0.00    -0.275 OA
BRANCH  14  16
ATOM     16  C   UNL     1       1.711  -2.011  -0.665  1.00  0.00     0.097 C 
ATOM     17  C   UNL     1       2.444  -0.866  -1.310  1.00  0.00     0.014 C 
ENDBRANCH  14  16
ENDBRANCH   9  14
BRANCH   8  18
ATOM     18  C   UNL     1       6.388  -0.145   2.172  1.00  0.00     0.069 C 
BRANCH  18  19
ATOM     19  C   UNL     1       7.524  -0.720   1.316  1.00  0.00     0.212 C 
ATOM     20  C   UNL     1       8.273  -1.913   1.869  1.00  0.00     0.108 C 
ATOM     21  O   UNL     1       7.085  -1.097   0.011  1.00  0.00    -0.392 OA
ATOM     22  C   UNL     1       7.734  -2.961   0.958  1.00  0.00     0.091 C 
ATOM     23  N   UNL     1       7.126  -2.506  -0.091  1.00  0.00    -0.090 NA
BRANCH  22  24
ATOM     24  C   UNL     1       7.878  -4.407   1.233  1.00  0.00    -0.001 A 
ATOM     25  C   UNL     1       7.784  -4.918   2.533  1.00  0.00     0.010 A 
ATOM     26  C   UNL     1       8.011  -5.283   0.154  1.00  0.00     0.010 A 
ATOM     27  C   UNL     1       7.778  -6.298   2.745  1.00  0.00     0.004 A 
ATOM     28  C   UNL     1       8.050  -6.662   0.374  1.00  0.00     0.004 A 
ATOM     29  C   UNL     1       7.906  -7.180   1.667  1.00  0.00    -0.051 A 
ATOM     30  C   UNL     1       7.935  -8.661   1.901  1.00  0.00     0.044 C 
ENDBRANCH  22  24
ENDBRANCH  18  19
ENDBRANCH   8  18
ENDBRANCH   6   8
ENDBRANCH   5   6
ENDBRANCH   4   5
ENDBRANCH   3   4
ENDBRANCH   2   3
ENDBRANCH   1   2
BRANCH   1  31
ATOM     31  C   UNL     1       1.660   5.448   4.413  1.00  0.00     0.188 C 
BRANCH  31  32
ATOM     32  O   UNL     1       3.030   5.381   4.072  1.00  0.00    -0.376 OA
BRANCH  32  33
ATOM     33  C   UNL     1       3.623   6.613   3.700  1.00  0.00     0.202 C 
BRANCH  33  34
ATOM     34  C   UNL     1       3.367   6.952   2.225  1.00  0.00     0.261 C 
BRANCH  34  35
ATOM     35  O   UNL     1       3.713   5.830   1.379  1.00  0.00    -0.460 OA
BRANCH  35  36
ATOM     36  C   UNL     1       2.670   5.113   0.846  1.00  0.00     0.338 C 
ATOM     37  O   UNL     1       1.721   5.597   0.250  1.00  0.00    -0.246 OA
BRANCH  36  38
ATOM     38  C   UNL     1       2.729   3.698   1.336  1.00  0.00     0.060 A 
ATOM     39  C   UNL     1       1.627   2.847   1.489  1.00  0.00     0.016 A 
ATOM     40  C   UNL     1       3.841   3.356   2.021  1.00  0.00     0.016 A 
ATOM     41  C   UNL     1       1.567   1.846   2.544  1.00  0.00     0.010 A 
ATOM     42  C   UNL     1       3.642   2.558   3.145  1.00  0.00     0.010 A 
ATOM     43  C   UNL     1       2.517   1.753   3.574  1.00  0.00    -0.014 A 
BRANCH  43  44
ATOM     44  C   UNL     1       2.244   0.836   5.087  1.00  0.00     0.031 A 
ATOM     45  C   UNL     1       3.270  -0.255   6.083  1.00  0.00     0.074 A 
ATOM     46  C   UNL     1       0.954   0.682   5.482  1.00  0.00     0.049 A 
ATOM     47  N   UNL     1       2.826  -1.330   6.728  1.00  0.00    -0.248 NA
ATOM     48  C   UNL     1       4.763  -0.274   6.356  1.00  0.00     0.031 C 
ATOM     49  C   UNL     1       0.476   0.062   6.716  1.00  0.00     0.029 A 
ATOM     50  N   UNL     1      -0.221   0.907   4.753  1.00  0.00    -0.354 N 
ATOM     51  C   UNL     1       3.850  -1.921   7.490  1.00  0.00     0.074 A 
ATOM     52  C   UNL     1       5.024  -1.193   7.258  1.00  0.00     0.031 C 
ATOM     53  C   UNL     1      -0.777  -0.368   6.525  1.00  0.00     0.029 A 
ATOM     54  C   UNL     1      -1.138  -0.080   5.155  1.00  0.00     0.049 A 
ATOM     55  H   UNL     1      -0.374   1.617   4.090  1.00  0.00     0.167 HD
ATOM     56  C   UNL     1       3.744  -2.977   8.337  1.00  0.00     0.037 A 
ATOM     57  C   UNL     1      -1.771  -0.910   4.286  1.00  0.00     0.037 A 
ATOM     58  C   UNL     1       2.409  -3.468   8.362  1.00  0.00     0.049 A 
ATOM     59  C   UNL     1      -1.661  -2.379   4.618  1.00  0.00     0.074 A 
ATOM     60  C   UNL     1       1.311  -3.107   9.115  1.00  0.00     0.029 A 
ATOM     61  N   UNL     1       1.957  -4.183   7.275  1.00  0.00    -0.354 N 
ATOM     62  N   UNL     1      -0.913  -2.868   5.567  1.00  0.00    -0.248 NA
ATOM     63  C   UNL     1      -2.355  -3.425   3.870  1.00  0.00     0.031 C 
ATOM     64  C   UNL     1       0.165  -3.580   8.440  1.00  0.00     0.029 A 
ATOM     65  C   UNL     1       0.585  -4.266   7.314  1.00  0.00     0.049 A 
ATOM     66  H   UNL     1       2.529  -4.575   6.576  1.00  0.00     0.167 HD
ATOM     67  C   UNL     1      -0.926  -4.242   5.499  1.00  0.00     0.074 A 
ATOM     68  C   UNL     1      -1.891  -4.539   4.462  1.00  0.00     0.031 C 
ATOM     69  C   UNL     1      -0.109  -5.006   6.282  1.00  0.00     0.037 A 
BRANCH  56  70
ATOM     70  C   UNL     1       4.842  -3.315   9.329  1.00  0.00     0.057 A 
ATOM     71  C   UNL     1       4.552  -3.401  10.700  1.00  0.00     0.134 A 
ATOM     72  C   UNL     1       6.213  -3.415   9.008  1.00  0.00     0.134 A 
ATOM     73  F   UNL     1       3.288  -3.403  11.142  1.00  0.00    -0.206 F 
ATOM     74  C   UNL     1       5.550  -3.442  11.685  1.00  0.00     0.040 A 
ATOM     75  C   UNL     1       7.224  -3.398   9.985  1.00  0.00     0.040 A 
ATOM     76  F   UNL     1       6.620  -3.473   7.729  1.00  0.00    -0.206 F 
ATOM     77  C   UNL     1       6.892  -3.389  11.332  1.00  0.00     0.006 A 
ENDBRANCH  56  70
BRANCH  57  78
ATOM     78  C   UNL     1      -1.964  -0.334   2.932  1.00  0.00     0.057 A 
ATOM     79  C   UNL     1      -2.825   0.768   2.781  1.00  0.00     0.134 A 
ATOM     80  C   UNL     1      -1.078  -0.590   1.886  1.00  0.00     0.134 A 
ATOM     81  F   UNL     1      -3.694   1.082   3.755  1.00  0.00    -0.206 F 
ATOM     82  C   UNL     1      -2.743   1.634   1.686  1.00  0.00     0.040 A 
ATOM     83  C   UNL     1      -0.992   0.273   0.782  1.00  0.00     0.040 A 
ATOM     84  F   UNL     1      -0.185  -1.582   1.982  1.00  0.00    -0.206 F 
ATOM     85  C   UNL     1      -1.802   1.402   0.693  1.00  0.00     0.006 A 
ENDBRANCH  57  78
BRANCH  69  86
ATOM     86  C   UNL     1       0.131  -6.501   6.215  1.00  0.00     0.057 A 
ATOM     87  C   UNL     1      -0.044  -7.292   5.074  1.00  0.00     0.134 A 
ATOM     88  C   UNL     1       0.705  -7.179   7.323  1.00  0.00     0.134 A 
ATOM     89  F   UNL     1      -0.471  -6.775   3.917  1.00  0.00    -0.206 F 
ATOM     90  C   UNL     1       0.273  -8.660   5.052  1.00  0.00     0.040 A 
ATOM     91  C   UNL     1       1.079  -8.525   7.292  1.00  0.00     0.040 A 
ATOM     92  F   UNL     1       0.954  -6.556   8.485  1.00  0.00    -0.206 F 
ATOM     93  C   UNL     1       0.846  -9.278   6.156  1.00  0.00     0.006 A 
ENDBRANCH  69  86
ENDBRANCH  43  44
ENDBRANCH  36  38
ENDBRANCH  35  36
ENDBRANCH  34  35
ENDBRANCH  33  34
ENDBRANCH  32  33
ENDBRANCH  31  32
ENDBRANCH   1  31
TORSDOF 22
