REMARK SMILES [NH3+][C@@H](CC1=C[C@H](S)c2ccccc2C1)C(=O)OCCOCCOCCOC(=O)c1ccc(-c2c3nc(c(-c4c(F)cccc4F)c4ccc([nH]4)c(-c4c(F)cccc4F)c4nc(c(-c5c(F)cccc5F)c5ccc2[nH]5)C=C4)C=C3)cc1
REMARK SMILES IDX 21 1 20 2 19 3 18 4 17 5 15 6 16 7 2 8 1 9 3 13 4 14 5 15
REMARK SMILES IDX 14 16 6 17 13 18 8 19 12 20 9 21 11 22 10 23 7 24 22 26
REMARK SMILES IDX 23 27 24 28 25 29 26 30 27 31 28 32 29 33 30 34 82 35 31 36
REMARK SMILES IDX 81 37 32 38 33 39 34 40 75 41 35 42 80 43 74 44 76 45 36 46
REMARK SMILES IDX 79 47 73 48 72 49 37 51 63 52 46 53 62 54 47 55 50 56 61 57
REMARK SMILES IDX 77 58 48 59 49 60 60 62 78 63 51 64 38 65 39 66 44 67 40 68
REMARK SMILES IDX 41 69 43 70 45 71 42 72 64 73 65 74 70 75 66 76 67 77 69 78
REMARK SMILES IDX 71 79 68 80 52 81 53 82 58 83 54 84 55 85 57 86 59 87 56 88
REMARK H PARENT 1 10 1 11 1 12 7 25 76 50 50 61
REMARK Flexibility Score: inf
ROOT
ATOM      1  C   UNL     1      -2.064   1.158   1.512  1.00  0.00     0.188 C 
ENDROOT
BRANCH   1   2
ATOM      2  O   UNL     1      -3.390   1.376   1.043  1.00  0.00    -0.376 OA
BRANCH   2   3
ATOM      3  C   UNL     1      -3.755   0.879  -0.237  1.00  0.00     0.202 C 
BRANCH   3   4
ATOM      4  C   UNL     1      -2.866   1.170  -1.459  1.00  0.00     0.261 C 
BRANCH   4   5
ATOM      5  O   UNL     1      -1.443   1.067  -1.259  1.00  0.00    -0.459 OA
BRANCH   5   6
ATOM      6  C   UNL     1      -0.727   2.213  -1.457  1.00  0.00     0.365 C 
ATOM      7  O   UNL     1      -1.215   3.295  -1.771  1.00  0.00    -0.245 OA
BRANCH   6   8
ATOM      8  C   UNL     1       0.795   2.019  -1.320  1.00  0.00     0.295 C 
BRANCH   8   9
ATOM      9  N   UNL     1       1.205   1.073  -0.259  1.00  0.00    -0.346 N 
ATOM     10  H   UNL     1       2.222   1.005  -0.239  1.00  0.00     0.345 HD
ATOM     11  H   UNL     1       0.806   0.154  -0.451  1.00  0.00     0.345 HD
ATOM     12  H   UNL     1       0.868   1.409   0.643  1.00  0.00     0.345 HD
ENDBRANCH   8   9
BRANCH   8  13
ATOM     13  C   UNL     1       1.427   1.684  -2.681  1.00  0.00     0.108 C 
BRANCH  13  14
ATOM     14  C   UNL     1       0.870   0.477  -3.415  1.00  0.00    -0.062 C 
ATOM     15  C   UNL     1       0.165   0.639  -4.551  1.00  0.00    -0.009 C 
ATOM     16  C   UNL     1       1.148  -0.898  -2.856  1.00  0.00     0.066 C 
ATOM     17  C   UNL     1      -0.413  -0.488  -5.362  1.00  0.00     0.096 C 
ATOM     18  C   UNL     1       0.807  -2.054  -3.768  1.00  0.00    -0.039 A 
ATOM     19  C   UNL     1       0.066  -1.866  -4.948  1.00  0.00    -0.028 A 
ATOM     20  C   UNL     1       1.195  -3.350  -3.389  1.00  0.00     0.004 A 
ATOM     21  C   UNL     1      -0.243  -2.984  -5.742  1.00  0.00     0.005 A 
ATOM     22  C   UNL     1       0.867  -4.449  -4.180  1.00  0.00     0.000 A 
ATOM     23  C   UNL     1       0.152  -4.265  -5.359  1.00  0.00     0.000 A 
BRANCH  17  24
ATOM     24  S   UNL     1      -2.232  -0.362  -5.233  1.00  0.00    -0.167 SA
ATOM     25  H   UNL     1      -2.605  -0.500  -3.932  1.00  0.00     0.103 HD
ENDBRANCH  17  24
ENDBRANCH  13  14
ENDBRANCH   8  13
ENDBRANCH   6   8
ENDBRANCH   5   6
ENDBRANCH   4   5
ENDBRANCH   3   4
ENDBRANCH   2   3
ENDBRANCH   1   2
BRANCH   1  26
ATOM     26  C   UNL     1      -1.431  -0.240   1.380  1.00  0.00     0.188 C 
BRANCH  26  27
ATOM     27  O   UNL     1      -2.186  -1.163   0.636  1.00  0.00    -0.376 OA
BRANCH  27  28
ATOM     28  C   UNL     1      -2.785  -2.258   1.303  1.00  0.00     0.202 C 
BRANCH  28  29
ATOM     29  C   UNL     1      -3.394  -2.157   2.718  1.00  0.00     0.261 C 
BRANCH  29  30
ATOM     30  O   UNL     1      -2.982  -1.072   3.558  1.00  0.00    -0.460 OA
BRANCH  30  31
ATOM     31  C   UNL     1      -1.910  -1.279   4.362  1.00  0.00     0.338 C 
ATOM     32  O   UNL     1      -1.233  -2.291   4.440  1.00  0.00    -0.246 OA
BRANCH  31  33
ATOM     33  C   UNL     1      -1.546   0.024   4.965  1.00  0.00     0.060 A 
ATOM     34  C   UNL     1      -2.486   0.739   5.707  1.00  0.00     0.016 A 
ATOM     35  C   UNL     1      -0.265   0.555   4.748  1.00  0.00     0.016 A 
ATOM     36  C   UNL     1      -2.130   1.971   6.259  1.00  0.00     0.010 A 
ATOM     37  C   UNL     1       0.087   1.794   5.297  1.00  0.00     0.010 A 
ATOM     38  C   UNL     1      -0.836   2.498   6.082  1.00  0.00    -0.014 A 
BRANCH  38  39
ATOM     39  C   UNL     1      -0.431   3.669   6.899  1.00  0.00     0.031 A 
ATOM     40  C   UNL     1      -0.340   5.057   6.344  1.00  0.00     0.074 A 
ATOM     41  C   UNL     1      -0.199   3.457   8.209  1.00  0.00     0.049 A 
ATOM     42  N   UNL     1      -0.225   6.191   6.991  1.00  0.00    -0.248 NA
ATOM     43  C   UNL     1      -0.365   5.193   4.883  1.00  0.00     0.031 C 
ATOM     44  C   UNL     1      -0.194   2.142   8.854  1.00  0.00     0.029 A 
ATOM     45  N   UNL     1       0.040   4.334   9.234  1.00  0.00    -0.354 N 
ATOM     46  C   UNL     1      -0.211   7.184   6.021  1.00  0.00     0.074 A 
ATOM     47  C   UNL     1      -0.254   6.509   4.737  1.00  0.00     0.031 C 
ATOM     48  C   UNL     1      -0.020   2.303  10.174  1.00  0.00     0.029 A 
ATOM     49  C   UNL     1       0.117   3.727  10.463  1.00  0.00     0.049 A 
ATOM     50  H   UNL     1       0.145   5.304   9.102  1.00  0.00     0.167 HD
ATOM     51  C   UNL     1      -0.191   8.530   6.189  1.00  0.00     0.037 A 
ATOM     52  C   UNL     1       0.258   4.256  11.691  1.00  0.00     0.037 A 
ATOM     53  C   UNL     1      -0.103   9.194   7.469  1.00  0.00     0.049 A 
ATOM     54  C   UNL     1       0.313   5.749  11.845  1.00  0.00     0.074 A 
ATOM     55  C   UNL     1      -0.105  10.553   7.742  1.00  0.00     0.029 A 
ATOM     56  N   UNL     1       0.025   8.548   8.691  1.00  0.00    -0.354 N 
ATOM     57  N   UNL     1       0.210   6.682  10.930  1.00  0.00    -0.248 NA
ATOM     58  C   UNL     1       0.489   6.262  13.210  1.00  0.00     0.031 C 
ATOM     59  C   UNL     1       0.075  10.727   9.120  1.00  0.00     0.029 A 
ATOM     60  C   UNL     1       0.134   9.478   9.715  1.00  0.00     0.049 A 
ATOM     61  H   UNL     1       0.037   7.571   8.813  1.00  0.00     0.167 HD
ATOM     62  C   UNL     1       0.294   7.890  11.609  1.00  0.00     0.074 A 
ATOM     63  C   UNL     1       0.417   7.570  13.016  1.00  0.00     0.031 C 
ATOM     64  C   UNL     1       0.278   9.152  11.112  1.00  0.00     0.037 A 
BRANCH  51  65
ATOM     65  C   UNL     1      -0.279   9.380   4.952  1.00  0.00     0.057 A 
ATOM     66  C   UNL     1       0.797  10.174   4.536  1.00  0.00     0.134 A 
ATOM     67  C   UNL     1      -1.456   9.444   4.192  1.00  0.00     0.134 A 
ATOM     68  F   UNL     1       1.949  10.177   5.223  1.00  0.00    -0.206 F 
ATOM     69  C   UNL     1       0.708  10.993   3.408  1.00  0.00     0.040 A 
ATOM     70  C   UNL     1      -1.548  10.238   3.047  1.00  0.00     0.040 A 
ATOM     71  F   UNL     1      -2.527   8.713   4.536  1.00  0.00    -0.206 F 
ATOM     72  C   UNL     1      -0.464  11.019   2.655  1.00  0.00     0.006 A 
ENDBRANCH  51  65
BRANCH  52  73
ATOM     73  C   UNL     1       0.335   3.370  12.879  1.00  0.00     0.057 A 
ATOM     74  C   UNL     1       1.441   2.540  13.092  1.00  0.00     0.134 A 
ATOM     75  C   UNL     1      -0.678   3.358  13.845  1.00  0.00     0.134 A 
ATOM     76  F   UNL     1       2.439   2.498  12.198  1.00  0.00    -0.206 F 
ATOM     77  C   UNL     1       1.541   1.733  14.225  1.00  0.00     0.040 A 
ATOM     78  C   UNL     1      -0.577   2.579  14.998  1.00  0.00     0.040 A 
ATOM     79  F   UNL     1      -1.757   4.142  13.703  1.00  0.00    -0.206 F 
ATOM     80  C   UNL     1       0.535   1.761  15.189  1.00  0.00     0.006 A 
ENDBRANCH  52  73
BRANCH  64  81
ATOM     81  C   UNL     1       0.394  10.272  12.109  1.00  0.00     0.057 A 
ATOM     82  C   UNL     1      -0.694  11.114  12.374  1.00  0.00     0.134 A 
ATOM     83  C   UNL     1       1.578  10.508  12.822  1.00  0.00     0.134 A 
ATOM     84  F   UNL     1      -1.857  10.951  11.726  1.00  0.00    -0.206 F 
ATOM     85  C   UNL     1      -0.611  12.141  13.316  1.00  0.00     0.040 A 
ATOM     86  C   UNL     1       1.663  11.512  13.789  1.00  0.00     0.040 A 
ATOM     87  F   UNL     1       2.654   9.729  12.630  1.00  0.00    -0.206 F 
ATOM     88  C   UNL     1       0.566  12.334  14.036  1.00  0.00     0.006 A 
ENDBRANCH  64  81
ENDBRANCH  38  39
ENDBRANCH  31  33
ENDBRANCH  30  31
ENDBRANCH  29  30
ENDBRANCH  28  29
ENDBRANCH  27  28
ENDBRANCH  26  27
ENDBRANCH   1  26
TORSDOF 21
