REMARK SMILES NS(=O)(=O)c1ccc(-n2nc(C(=O)OCCOCCOCCOC(=O)c3ccc(-c4c5nc(c(-c6c(F)cccc6F)c6ccc([nH]6)c(-c6c(F)cccc6F)c6nc(c(-c7c(F)cccc7F)c7ccc4[nH]7)C=C6)C=C5)cc3)c(Cl)c2-c2ccc(Cl)cc2)cc1
REMARK SMILES IDX 18 1 17 2 16 3 15 4 14 5 12 6 13 7 11 8 9 9 10 10 82 11
REMARK SMILES IDX 80 12 81 13 8 14 5 15 6 16 91 17 7 18 90 19 2 20 3 21 4 22
REMARK SMILES IDX 1 23 83 26 84 27 89 28 85 29 88 30 86 31 87 32 19 33 20 34
REMARK SMILES IDX 21 35 22 36 23 37 24 38 25 39 26 40 27 41 79 42 28 43 78 44
REMARK SMILES IDX 29 45 30 46 31 47 72 48 32 49 77 50 71 51 73 52 33 53 76 54
REMARK SMILES IDX 70 55 69 56 34 58 60 59 43 60 59 61 44 62 47 63 58 64 74 65
REMARK SMILES IDX 45 66 46 67 57 69 75 70 48 71 35 72 36 73 41 74 37 75 38 76
REMARK SMILES IDX 40 77 42 78 39 79 61 80 62 81 67 82 63 83 64 84 66 85 68 86
REMARK SMILES IDX 65 87 49 88 50 89 55 90 51 91 52 92 54 93 56 94 53 95
REMARK H PARENT 1 24 1 25 73 57 47 68
REMARK Flexibility Score: inf
ROOT
ATOM      1  C   UNL     1       4.948   3.229  10.087  1.00  0.00     0.188 C 
ENDROOT
BRANCH   1   2
ATOM      2  O   UNL     1       5.886   3.937  10.889  1.00  0.00    -0.376 OA
BRANCH   2   3
ATOM      3  C   UNL     1       5.606   5.272  11.295  1.00  0.00     0.202 C 
BRANCH   3   4
ATOM      4  C   UNL     1       5.226   6.318  10.234  1.00  0.00     0.261 C 
BRANCH   4   5
ATOM      5  O   UNL     1       4.082   5.974   9.437  1.00  0.00    -0.458 OA
BRANCH   5   6
ATOM      6  C   UNL     1       4.291   5.702   8.115  1.00  0.00     0.360 C 
ATOM      7  O   UNL     1       5.383   5.794   7.564  1.00  0.00    -0.244 OA
BRANCH   6   8
ATOM      8  C   UNL     1       3.079   5.216   7.432  1.00  0.00     0.190 A 
ATOM      9  N   UNL     1       1.886   4.254   5.931  1.00  0.00    -0.231 N 
ATOM     10  N   UNL     1       3.147   4.326   6.417  1.00  0.00    -0.159 NA
ATOM     11  C   UNL     1       0.976   4.960   6.700  1.00  0.00     0.094 A 
ATOM     12  C   UNL     1       1.726   5.535   7.711  1.00  0.00     0.102 A 
ATOM     13  Cl  UNL     1       1.138   6.495   8.990  1.00  0.00    -0.079 Cl
BRANCH   9  14
ATOM     14  C   UNL     1       1.655   3.660   4.669  1.00  0.00     0.065 A 
ATOM     15  C   UNL     1       1.068   2.510   2.208  1.00  0.00     0.082 A 
ATOM     16  C   UNL     1       1.573   1.710   3.241  1.00  0.00     0.024 A 
ATOM     17  C   UNL     1       0.892   3.886   2.390  1.00  0.00     0.024 A 
ATOM     18  C   UNL     1       1.895   2.293   4.474  1.00  0.00     0.030 A 
ATOM     19  C   UNL     1       1.164   4.460   3.630  1.00  0.00     0.030 A 
BRANCH  15  20
ATOM     20  S   UNL     1       0.631   1.839   0.630  1.00  0.00     0.238 S 
ATOM     21  O   UNL     1       1.259   2.642  -0.396  1.00  0.00    -0.207 OA
ATOM     22  O   UNL     1      -0.781   1.552   0.641  1.00  0.00    -0.207 OA
BRANCH  20  23
ATOM     23  N   UNL     1       1.403   0.350   0.555  1.00  0.00    -0.225 NA
ATOM     24  H   UNL     1       1.193  -0.098  -0.337  1.00  0.00     0.137 HD
ATOM     25  H   UNL     1       1.075  -0.243   1.318  1.00  0.00     0.137 HD
ENDBRANCH  20  23
ENDBRANCH  15  20
ENDBRANCH   9  14
BRANCH  11  26
ATOM     26  C   UNL     1      -0.460   5.067   6.439  1.00  0.00     0.002 A 
ATOM     27  C   UNL     1      -1.026   6.343   6.304  1.00  0.00     0.012 A 
ATOM     28  C   UNL     1      -1.290   3.941   6.363  1.00  0.00     0.012 A 
ATOM     29  C   UNL     1      -2.399   6.498   6.120  1.00  0.00     0.021 A 
ATOM     30  C   UNL     1      -2.668   4.097   6.173  1.00  0.00     0.021 A 
ATOM     31  C   UNL     1      -3.217   5.374   6.061  1.00  0.00     0.041 A 
ATOM     32  Cl  UNL     1      -4.914   5.569   5.864  1.00  0.00    -0.084 Cl
ENDBRANCH  11  26
ENDBRANCH   6   8
ENDBRANCH   5   6
ENDBRANCH   4   5
ENDBRANCH   3   4
ENDBRANCH   2   3
ENDBRANCH   1   2
BRANCH   1  33
ATOM     33  C   UNL     1       3.440   3.288  10.419  1.00  0.00     0.188 C 
BRANCH  33  34
ATOM     34  O   UNL     1       3.098   4.211  11.438  1.00  0.00    -0.376 OA
BRANCH  34  35
ATOM     35  C   UNL     1       2.553   3.691  12.643  1.00  0.00     0.202 C 
BRANCH  35  36
ATOM     36  C   UNL     1       3.463   2.810  13.498  1.00  0.00     0.261 C 
BRANCH  36  37
ATOM     37  O   UNL     1       4.196   1.829  12.778  1.00  0.00    -0.460 OA
BRANCH  37  38
ATOM     38  C   UNL     1       3.480   0.791  12.306  1.00  0.00     0.338 C 
ATOM     39  O   UNL     1       2.268   0.681  12.265  1.00  0.00    -0.246 OA
BRANCH  38  40
ATOM     40  C   UNL     1       4.422  -0.243  11.873  1.00  0.00     0.060 A 
ATOM     41  C   UNL     1       3.962  -1.223  10.990  1.00  0.00     0.016 A 
ATOM     42  C   UNL     1       5.645  -0.357  12.549  1.00  0.00     0.016 A 
ATOM     43  C   UNL     1       4.637  -2.424  10.943  1.00  0.00     0.010 A 
ATOM     44  C   UNL     1       6.303  -1.561  12.519  1.00  0.00     0.010 A 
ATOM     45  C   UNL     1       5.735  -2.603  11.788  1.00  0.00    -0.014 A 
BRANCH  45  46
ATOM     46  C   UNL     1       6.236  -3.946  11.975  1.00  0.00     0.031 A 
ATOM     47  C   UNL     1       7.193  -4.416  10.955  1.00  0.00     0.074 A 
ATOM     48  C   UNL     1       5.934  -4.632  13.094  1.00  0.00     0.049 A 
ATOM     49  N   UNL     1       7.092  -5.443  10.178  1.00  0.00    -0.248 NA
ATOM     50  C   UNL     1       8.378  -3.581  10.706  1.00  0.00     0.031 C 
ATOM     51  C   UNL     1       5.269  -4.129  14.303  1.00  0.00     0.029 A 
ATOM     52  N   UNL     1       6.276  -5.902  13.435  1.00  0.00    -0.354 N 
ATOM     53  C   UNL     1       8.289  -5.492   9.472  1.00  0.00     0.074 A 
ATOM     54  C   UNL     1       8.967  -4.247   9.715  1.00  0.00     0.031 C 
ATOM     55  C   UNL     1       5.457  -5.011  15.309  1.00  0.00     0.029 A 
ATOM     56  C   UNL     1       6.149  -6.178  14.788  1.00  0.00     0.049 A 
ATOM     57  H   UNL     1       6.587  -6.567  12.780  1.00  0.00     0.167 HD
ATOM     58  C   UNL     1       8.749  -6.652   8.935  1.00  0.00     0.037 A 
ATOM     59  C   UNL     1       6.663  -7.250  15.437  1.00  0.00     0.037 A 
ATOM     60  C   UNL     1       7.699  -7.621   8.772  1.00  0.00     0.049 A 
ATOM     61  C   UNL     1       7.008  -8.275  14.420  1.00  0.00     0.074 A 
ATOM     62  C   UNL     1       6.500  -7.645   8.086  1.00  0.00     0.029 A 
ATOM     63  N   UNL     1       7.644  -8.673   9.652  1.00  0.00    -0.354 N 
ATOM     64  N   UNL     1       6.134  -8.957  13.734  1.00  0.00    -0.248 NA
ATOM     65  C   UNL     1       8.352  -8.247  13.859  1.00  0.00     0.031 C 
ATOM     66  C   UNL     1       5.614  -8.401   8.907  1.00  0.00     0.029 A 
ATOM     67  C   UNL     1       6.334  -8.816  10.028  1.00  0.00     0.049 A 
ATOM     68  H   UNL     1       8.403  -9.222   9.955  1.00  0.00     0.167 HD
ATOM     69  C   UNL     1       6.695  -9.086  12.471  1.00  0.00     0.074 A 
ATOM     70  C   UNL     1       8.100  -8.727  12.639  1.00  0.00     0.031 C 
ATOM     71  C   UNL     1       5.913  -9.194  11.357  1.00  0.00     0.037 A 
BRANCH  58  72
ATOM     72  C   UNL     1      10.210  -7.017   8.895  1.00  0.00     0.057 A 
ATOM     73  C   UNL     1      10.621  -8.135   8.151  1.00  0.00     0.134 A 
ATOM     74  C   UNL     1      11.179  -6.491   9.776  1.00  0.00     0.134 A 
ATOM     75  F   UNL     1       9.779  -8.743   7.302  1.00  0.00    -0.206 F 
ATOM     76  C   UNL     1      11.883  -8.718   8.313  1.00  0.00     0.040 A 
ATOM     77  C   UNL     1      12.460  -7.030   9.903  1.00  0.00     0.040 A 
ATOM     78  F   UNL     1      10.909  -5.497  10.632  1.00  0.00    -0.206 F 
ATOM     79  C   UNL     1      12.807  -8.168   9.193  1.00  0.00     0.006 A 
ENDBRANCH  58  72
BRANCH  59  80
ATOM     80  C   UNL     1       7.142  -7.329  16.835  1.00  0.00     0.057 A 
ATOM     81  C   UNL     1       7.332  -8.566  17.466  1.00  0.00     0.134 A 
ATOM     82  C   UNL     1       7.662  -6.208  17.507  1.00  0.00     0.134 A 
ATOM     83  F   UNL     1       6.913  -9.698  16.884  1.00  0.00    -0.206 F 
ATOM     84  C   UNL     1       8.013  -8.682  18.685  1.00  0.00     0.040 A 
ATOM     85  C   UNL     1       8.331  -6.308  18.730  1.00  0.00     0.040 A 
ATOM     86  F   UNL     1       7.617  -4.985  16.958  1.00  0.00    -0.206 F 
ATOM     87  C   UNL     1       8.521  -7.551  19.318  1.00  0.00     0.006 A 
ENDBRANCH  59  80
BRANCH  71  88
ATOM     88  C   UNL     1       4.445  -9.448  11.555  1.00  0.00     0.057 A 
ATOM     89  C   UNL     1       3.577  -8.547  12.190  1.00  0.00     0.134 A 
ATOM     90  C   UNL     1       3.864 -10.569  10.951  1.00  0.00     0.134 A 
ATOM     91  F   UNL     1       4.027  -7.394  12.701  1.00  0.00    -0.206 F 
ATOM     92  C   UNL     1       2.201  -8.778  12.264  1.00  0.00     0.040 A 
ATOM     93  C   UNL     1       2.486 -10.794  10.989  1.00  0.00     0.040 A 
ATOM     94  F   UNL     1       4.625 -11.442  10.272  1.00  0.00    -0.206 F 
ATOM     95  C   UNL     1       1.650  -9.903  11.657  1.00  0.00     0.006 A 
ENDBRANCH  71  88
ENDBRANCH  45  46
ENDBRANCH  38  40
ENDBRANCH  37  38
ENDBRANCH  36  37
ENDBRANCH  35  36
ENDBRANCH  34  35
ENDBRANCH  33  34
ENDBRANCH   1  33
TORSDOF 21
