REMARK SMILES COc1ccc(-c2ccc(S(=O)(=O)NC(C)(C)C)cc2)c(C(=O)OCCOCCOCCOC(=O)c2ccc(-c3c4nc(c(-c5c(F)cccc5F)c5ccc([nH]5)c(-c5c(F)cccc5F)c5nc(c(-c6c(F)cccc6F)c6ccc3[nH]6)C=C5)C=C4)cc2)c1
REMARK SMILES IDX 28 1 27 2 26 3 25 4 24 5 22 6 23 7 21 8 3 9 4 10 90 11 5 12
REMARK SMILES IDX 6 13 2 14 1 15 7 16 8 17 20 18 9 19 19 20 10 21 11 22 12 23
REMARK SMILES IDX 13 24 14 25 15 27 16 28 17 29 18 30 29 31 30 32 31 33 32 34
REMARK SMILES IDX 33 35 34 36 35 37 36 38 37 39 89 40 38 41 88 42 39 43 40 44
REMARK SMILES IDX 41 45 82 46 42 47 87 48 81 49 83 50 43 51 86 52 80 53 79 54
REMARK SMILES IDX 44 56 70 57 53 58 69 59 54 60 57 61 68 62 84 63 55 64 56 65
REMARK SMILES IDX 67 67 85 68 58 69 45 70 46 71 51 72 47 73 48 74 50 75 52 76
REMARK SMILES IDX 49 77 71 78 72 79 77 80 73 81 74 82 76 83 78 84 75 85 59 86
REMARK SMILES IDX 60 87 65 88 61 89 62 90 64 91 66 92 63 93
REMARK H PARENT 14 26 83 55 57 66
REMARK Flexibility Score: inf
ROOT
ATOM      1  C   UNL     1       5.939  -2.365   4.512  1.00  0.00     0.188 C 
ENDROOT
BRANCH   1   2
ATOM      2  O   UNL     1       6.974  -2.508   3.548  1.00  0.00    -0.376 OA
BRANCH   2   3
ATOM      3  C   UNL     1       6.848  -3.686   2.751  1.00  0.00     0.202 C 
BRANCH   3   4
ATOM      4  C   UNL     1       5.940  -3.460   1.542  1.00  0.00     0.261 C 
BRANCH   4   5
ATOM      5  O   UNL     1       4.597  -3.056   1.874  1.00  0.00    -0.460 OA
BRANCH   5   6
ATOM      6  C   UNL     1       3.704  -3.994   2.288  1.00  0.00     0.338 C 
ATOM      7  O   UNL     1       3.936  -5.171   2.427  1.00  0.00    -0.246 OA
BRANCH   6   8
ATOM      8  C   UNL     1       2.406  -3.294   2.602  1.00  0.00     0.071 A 
ATOM      9  C   UNL     1       0.864  -1.492   2.023  1.00  0.00     0.119 A 
ATOM     10  C   UNL     1       0.054  -1.867   3.093  1.00  0.00     0.047 A 
ATOM     11  C   UNL     1       2.027  -2.213   1.770  1.00  0.00     0.062 A 
ATOM     12  C   UNL     1       0.406  -2.942   3.916  1.00  0.00     0.013 A 
ATOM     13  C   UNL     1       1.594  -3.666   3.707  1.00  0.00    -0.004 A 
BRANCH   9  14
ATOM     14  O   UNL     1       0.423  -0.400   1.329  1.00  0.00    -0.497 OA
ATOM     15  C   UNL     1       1.094  -0.081   0.116  1.00  0.00     0.278 C 
ENDBRANCH   9  14
BRANCH  13  16
ATOM     16  C   UNL     1       1.994  -4.670   4.714  1.00  0.00    -0.017 A 
ATOM     17  C   UNL     1       1.266  -5.836   4.979  1.00  0.00     0.010 A 
ATOM     18  C   UNL     1       3.149  -4.449   5.472  1.00  0.00     0.010 A 
ATOM     19  C   UNL     1       1.727  -6.763   5.931  1.00  0.00     0.022 A 
ATOM     20  C   UNL     1       3.685  -5.420   6.315  1.00  0.00     0.022 A 
ATOM     21  C   UNL     1       2.954  -6.563   6.581  1.00  0.00     0.082 A 
BRANCH  21  22
ATOM     22  S   UNL     1       3.508  -7.765   7.766  1.00  0.00     0.241 S 
ATOM     23  O   UNL     1       2.396  -8.041   8.641  1.00  0.00    -0.207 OA
ATOM     24  O   UNL     1       4.110  -8.828   6.988  1.00  0.00    -0.207 OA
BRANCH  22  25
ATOM     25  N   UNL     1       4.788  -7.128   8.654  1.00  0.00    -0.206 NA
ATOM     26  H   UNL     1       5.370  -6.658   7.960  1.00  0.00     0.141 HD
BRANCH  25  27
ATOM     27  C   UNL     1       4.750  -6.188   9.800  1.00  0.00     0.025 C 
ATOM     28  C   UNL     1       3.761  -6.566  10.897  1.00  0.00     0.028 C 
ATOM     29  C   UNL     1       6.157  -6.163  10.433  1.00  0.00     0.028 C 
ATOM     30  C   UNL     1       4.484  -4.777   9.325  1.00  0.00     0.028 C 
ENDBRANCH  25  27
ENDBRANCH  22  25
ENDBRANCH  21  22
ENDBRANCH  13  16
ENDBRANCH   6   8
ENDBRANCH   5   6
ENDBRANCH   4   5
ENDBRANCH   3   4
ENDBRANCH   2   3
ENDBRANCH   1   2
BRANCH   1  31
ATOM     31  C   UNL     1       4.992  -1.179   4.255  1.00  0.00     0.188 C 
BRANCH  31  32
ATOM     32  O   UNL     1       5.509   0.110   3.955  1.00  0.00    -0.376 OA
BRANCH  32  33
ATOM     33  C   UNL     1       6.853   0.391   4.292  1.00  0.00     0.202 C 
BRANCH  33  34
ATOM     34  C   UNL     1       7.182   0.511   5.787  1.00  0.00     0.261 C 
BRANCH  34  35
ATOM     35  O   UNL     1       6.307  -0.203   6.677  1.00  0.00    -0.460 OA
BRANCH  35  36
ATOM     36  C   UNL     1       5.193   0.469   7.063  1.00  0.00     0.338 C 
ATOM     37  O   UNL     1       4.869   1.602   6.758  1.00  0.00    -0.246 OA
BRANCH  36  38
ATOM     38  C   UNL     1       4.354  -0.421   7.899  1.00  0.00     0.060 A 
ATOM     39  C   UNL     1       3.010  -0.646   7.562  1.00  0.00     0.016 A 
ATOM     40  C   UNL     1       4.872  -0.964   9.069  1.00  0.00     0.016 A 
ATOM     41  C   UNL     1       2.172  -1.398   8.406  1.00  0.00     0.010 A 
ATOM     42  C   UNL     1       4.026  -1.688   9.914  1.00  0.00     0.010 A 
ATOM     43  C   UNL     1       2.658  -1.910   9.613  1.00  0.00    -0.014 A 
BRANCH  43  44
ATOM     44  C   UNL     1       1.775  -2.551  10.652  1.00  0.00     0.031 A 
ATOM     45  C   UNL     1       1.724  -1.916  12.024  1.00  0.00     0.074 A 
ATOM     46  C   UNL     1       1.083  -3.699  10.471  1.00  0.00     0.049 A 
ATOM     47  N   UNL     1       1.208  -2.371  13.140  1.00  0.00    -0.248 NA
ATOM     48  C   UNL     1       2.362  -0.596  12.155  1.00  0.00     0.031 C 
ATOM     49  C   UNL     1       0.964  -4.459   9.228  1.00  0.00     0.029 A 
ATOM     50  N   UNL     1       0.412  -4.484  11.393  1.00  0.00    -0.354 N 
ATOM     51  C   UNL     1       1.421  -1.373  14.080  1.00  0.00     0.074 A 
ATOM     52  C   UNL     1       2.261  -0.376  13.454  1.00  0.00     0.031 C 
ATOM     53  C   UNL     1       0.397  -5.652   9.492  1.00  0.00     0.029 A 
ATOM     54  C   UNL     1       0.097  -5.741  10.918  1.00  0.00     0.049 A 
ATOM     55  H   UNL     1       0.182  -4.176  12.299  1.00  0.00     0.167 HD
ATOM     56  C   UNL     1       0.889  -1.228  15.318  1.00  0.00     0.037 A 
ATOM     57  C   UNL     1      -0.324  -6.851  11.562  1.00  0.00     0.037 A 
ATOM     58  C   UNL     1       0.039  -2.190  15.961  1.00  0.00     0.049 A 
ATOM     59  C   UNL     1      -0.729  -6.781  13.006  1.00  0.00     0.074 A 
ATOM     60  C   UNL     1      -0.629  -2.084  17.169  1.00  0.00     0.029 A 
ATOM     61  N   UNL     1      -0.246  -3.447  15.456  1.00  0.00    -0.354 N 
ATOM     62  N   UNL     1      -0.620  -5.787  13.850  1.00  0.00    -0.248 NA
ATOM     63  C   UNL     1      -1.395  -7.972  13.561  1.00  0.00     0.031 C 
ATOM     64  C   UNL     1      -1.283  -3.297  17.416  1.00  0.00     0.029 A 
ATOM     65  C   UNL     1      -1.060  -4.138  16.339  1.00  0.00     0.049 A 
ATOM     66  H   UNL     1       0.082  -3.798  14.597  1.00  0.00     0.167 HD
ATOM     67  C   UNL     1      -1.285  -6.196  15.000  1.00  0.00     0.074 A 
ATOM     68  C   UNL     1      -1.741  -7.549  14.768  1.00  0.00     0.031 C 
ATOM     69  C   UNL     1      -1.538  -5.478  16.120  1.00  0.00     0.037 A 
BRANCH  56  70
ATOM     70  C   UNL     1       1.173   0.071  16.013  1.00  0.00     0.057 A 
ATOM     71  C   UNL     1       0.664   1.283  15.518  1.00  0.00     0.134 A 
ATOM     72  C   UNL     1       1.977   0.126  17.155  1.00  0.00     0.134 A 
ATOM     73  F   UNL     1      -0.105   1.299  14.418  1.00  0.00    -0.206 F 
ATOM     74  C   UNL     1       0.996   2.507  16.097  1.00  0.00     0.040 A 
ATOM     75  C   UNL     1       2.286   1.343  17.765  1.00  0.00     0.040 A 
ATOM     76  F   UNL     1       2.486  -0.995  17.686  1.00  0.00    -0.206 F 
ATOM     77  C   UNL     1       1.810   2.538  17.226  1.00  0.00     0.006 A 
ENDBRANCH  56  70
BRANCH  57  78
ATOM     78  C   UNL     1      -0.382  -8.168  10.875  1.00  0.00     0.057 A 
ATOM     79  C   UNL     1      -1.546  -8.635  10.259  1.00  0.00     0.134 A 
ATOM     80  C   UNL     1       0.713  -9.040  10.925  1.00  0.00     0.134 A 
ATOM     81  F   UNL     1      -2.655  -7.882  10.259  1.00  0.00    -0.206 F 
ATOM     82  C   UNL     1      -1.610  -9.911   9.691  1.00  0.00     0.040 A 
ATOM     83  C   UNL     1       0.675 -10.304  10.331  1.00  0.00     0.040 A 
ATOM     84  F   UNL     1       1.823  -8.694  11.593  1.00  0.00    -0.206 F 
ATOM     85  C   UNL     1      -0.491 -10.743   9.710  1.00  0.00     0.006 A 
ENDBRANCH  57  78
BRANCH  69  86
ATOM     86  C   UNL     1      -2.449  -6.087  17.146  1.00  0.00     0.057 A 
ATOM     87  C   UNL     1      -2.059  -7.149  17.969  1.00  0.00     0.134 A 
ATOM     88  C   UNL     1      -3.743  -5.577  17.319  1.00  0.00     0.134 A 
ATOM     89  F   UNL     1      -0.842  -7.699  17.842  1.00  0.00    -0.206 F 
ATOM     90  C   UNL     1      -2.931  -7.694  18.916  1.00  0.00     0.040 A 
ATOM     91  C   UNL     1      -4.613  -6.093  18.280  1.00  0.00     0.040 A 
ATOM     92  F   UNL     1      -4.181  -4.558  16.563  1.00  0.00    -0.206 F 
ATOM     93  C   UNL     1      -4.209  -7.160  19.078  1.00  0.00     0.006 A 
ENDBRANCH  69  86
ENDBRANCH  43  44
ENDBRANCH  36  38
ENDBRANCH  35  36
ENDBRANCH  34  35
ENDBRANCH  33  34
ENDBRANCH  32  33
ENDBRANCH  31  32
ENDBRANCH   1  31
TORSDOF 22
