REMARK SMILES O=C(OCCOCCOCCOC(=O)[C@H]1CCCN(C(=O)c2cccc3[nH]ccc23)C1)c1ccc(-c2c3nc(c(-c4c(F)cccc4F)c4ccc([nH]4)c(-c4c(F)cccc4F)c4nc(c(-c5c(F)cccc5F)c5ccc2[nH]5)C=C4)C=C3)cc1
REMARK SMILES IDX 7 1 6 2 5 3 4 4 3 5 2 6 1 7 32 8 33 9 85 10 34 11 84 12
REMARK SMILES IDX 35 13 36 14 37 15 78 16 38 17 83 18 77 19 79 20 39 21 82 22
REMARK SMILES IDX 76 23 75 24 40 26 66 27 49 28 65 29 50 30 53 31 64 32 80 33
REMARK SMILES IDX 51 34 52 35 63 37 81 38 54 39 41 40 42 41 47 42 43 43 44 44
REMARK SMILES IDX 46 45 48 46 45 47 67 48 68 49 73 50 69 51 70 52 72 53 74 54
REMARK SMILES IDX 71 55 55 56 56 57 61 58 57 59 58 60 60 61 62 62 59 63 8 64
REMARK SMILES IDX 9 65 10 66 11 67 12 68 13 69 14 70 15 71 16 72 31 73 17 74
REMARK SMILES IDX 19 75 18 76 20 77 21 78 22 79 23 80 30 81 24 82 26 83 29 84
REMARK SMILES IDX 25 85 27 86 28 87
REMARK H PARENT 79 25 53 36 27 88
REMARK Flexibility Score: inf
ROOT
ATOM      1  C   UNL     1       5.864  -0.270  -5.694  1.00  0.00     0.188 C 
ENDROOT
BRANCH   1   2
ATOM      2  O   UNL     1       5.906   1.160  -5.729  1.00  0.00    -0.376 OA
BRANCH   2   3
ATOM      3  C   UNL     1       7.051   1.747  -6.349  1.00  0.00     0.202 C 
BRANCH   3   4
ATOM      4  C   UNL     1       8.355   1.773  -5.536  1.00  0.00     0.261 C 
BRANCH   4   5
ATOM      5  O   UNL     1       8.641   0.580  -4.794  1.00  0.00    -0.460 OA
BRANCH   5   6
ATOM      6  C   UNL     1       8.286   0.246  -3.530  1.00  0.00     0.338 C 
ATOM      7  O   UNL     1       8.830  -0.737  -3.026  1.00  0.00    -0.246 OA
BRANCH   6   8
ATOM      8  C   UNL     1       7.212   0.930  -2.729  1.00  0.00     0.060 A 
ATOM      9  C   UNL     1       6.564   2.123  -3.057  1.00  0.00     0.016 A 
ATOM     10  C   UNL     1       6.830   0.298  -1.528  1.00  0.00     0.016 A 
ATOM     11  C   UNL     1       5.603   2.692  -2.225  1.00  0.00     0.010 A 
ATOM     12  C   UNL     1       5.879   0.869  -0.675  1.00  0.00     0.010 A 
ATOM     13  C   UNL     1       5.291   2.092  -1.009  1.00  0.00    -0.014 A 
BRANCH  13  14
ATOM     14  C   UNL     1       4.558   2.879   0.001  1.00  0.00     0.031 A 
ATOM     15  C   UNL     1       5.358   3.659   0.982  1.00  0.00     0.074 A 
ATOM     16  C   UNL     1       3.225   3.019  -0.027  1.00  0.00     0.049 A 
ATOM     17  N   UNL     1       4.941   4.409   1.962  1.00  0.00    -0.248 NA
ATOM     18  C   UNL     1       6.817   3.639   0.794  1.00  0.00     0.031 C 
ATOM     19  C   UNL     1       2.386   2.518  -1.096  1.00  0.00     0.029 A 
ATOM     20  N   UNL     1       2.345   3.623   0.831  1.00  0.00    -0.354 N 
ATOM     21  C   UNL     1       6.085   4.968   2.501  1.00  0.00     0.074 A 
ATOM     22  C   UNL     1       7.214   4.452   1.759  1.00  0.00     0.031 C 
ATOM     23  C   UNL     1       1.101   2.777  -0.806  1.00  0.00     0.029 A 
ATOM     24  C   UNL     1       1.031   3.432   0.481  1.00  0.00     0.049 A 
ATOM     25  H   UNL     1       2.626   4.143   1.619  1.00  0.00     0.167 HD
ATOM     26  C   UNL     1       6.169   5.841   3.528  1.00  0.00     0.037 A 
ATOM     27  C   UNL     1      -0.113   3.720   1.125  1.00  0.00     0.037 A 
ATOM     28  C   UNL     1       5.029   6.286   4.280  1.00  0.00     0.049 A 
ATOM     29  C   UNL     1       0.008   4.463   2.411  1.00  0.00     0.074 A 
ATOM     30  C   UNL     1       4.994   7.094   5.398  1.00  0.00     0.029 A 
ATOM     31  N   UNL     1       3.713   5.930   3.998  1.00  0.00    -0.354 N 
ATOM     32  N   UNL     1       1.097   4.925   2.974  1.00  0.00    -0.248 NA
ATOM     33  C   UNL     1      -1.229   4.747   3.142  1.00  0.00     0.031 C 
ATOM     34  C   UNL     1       3.666   7.172   5.833  1.00  0.00     0.029 A 
ATOM     35  C   UNL     1       2.862   6.469   4.947  1.00  0.00     0.049 A 
ATOM     36  H   UNL     1       3.429   5.375   3.236  1.00  0.00     0.167 HD
ATOM     37  C   UNL     1       0.678   5.611   4.096  1.00  0.00     0.074 A 
ATOM     38  C   UNL     1      -0.767   5.476   4.149  1.00  0.00     0.031 C 
ATOM     39  C   UNL     1       1.426   6.315   4.978  1.00  0.00     0.037 A 
BRANCH  26  40
ATOM     40  C   UNL     1       7.556   6.236   3.928  1.00  0.00     0.057 A 
ATOM     41  C   UNL     1       8.366   7.047   3.121  1.00  0.00     0.134 A 
ATOM     42  C   UNL     1       8.131   5.683   5.078  1.00  0.00     0.134 A 
ATOM     43  F   UNL     1       7.887   7.568   1.980  1.00  0.00    -0.206 F 
ATOM     44  C   UNL     1       9.714   7.255   3.420  1.00  0.00     0.040 A 
ATOM     45  C   UNL     1       9.469   5.906   5.401  1.00  0.00     0.040 A 
ATOM     46  F   UNL     1       7.414   4.882   5.880  1.00  0.00    -0.206 F 
ATOM     47  C   UNL     1      10.268   6.681   4.562  1.00  0.00     0.006 A 
ENDBRANCH  26  40
BRANCH  27  48
ATOM     48  C   UNL     1      -1.425   3.294   0.576  1.00  0.00     0.057 A 
ATOM     49  C   UNL     1      -2.341   4.212   0.052  1.00  0.00     0.134 A 
ATOM     50  C   UNL     1      -1.787   1.940   0.543  1.00  0.00     0.134 A 
ATOM     51  F   UNL     1      -2.061   5.523   0.063  1.00  0.00    -0.206 F 
ATOM     52  C   UNL     1      -3.569   3.804  -0.479  1.00  0.00     0.040 A 
ATOM     53  C   UNL     1      -3.005   1.521   0.005  1.00  0.00     0.040 A 
ATOM     54  F   UNL     1      -0.954   1.004   1.019  1.00  0.00    -0.206 F 
ATOM     55  C   UNL     1      -3.902   2.452  -0.508  1.00  0.00     0.006 A 
ENDBRANCH  27  48
BRANCH  39  56
ATOM     56  C   UNL     1       0.677   7.050   6.040  1.00  0.00     0.057 A 
ATOM     57  C   UNL     1       0.094   6.395   7.129  1.00  0.00     0.134 A 
ATOM     58  C   UNL     1       0.577   8.445   5.981  1.00  0.00     0.134 A 
ATOM     59  F   UNL     1       0.134   5.057   7.221  1.00  0.00    -0.206 F 
ATOM     60  C   UNL     1      -0.574   7.106   8.125  1.00  0.00     0.040 A 
ATOM     61  C   UNL     1      -0.062   9.168   6.984  1.00  0.00     0.040 A 
ATOM     62  F   UNL     1       1.113   9.124   4.955  1.00  0.00    -0.206 F 
ATOM     63  C   UNL     1      -0.642   8.498   8.059  1.00  0.00     0.006 A 
ENDBRANCH  39  56
ENDBRANCH  13  14
ENDBRANCH   6   8
ENDBRANCH   5   6
ENDBRANCH   4   5
ENDBRANCH   3   4
ENDBRANCH   2   3
ENDBRANCH   1   2
BRANCH   1  64
ATOM     64  C   UNL     1       5.546  -0.995  -7.007  1.00  0.00     0.188 C 
BRANCH  64  65
ATOM     65  O   UNL     1       5.838  -0.206  -8.149  1.00  0.00    -0.376 OA
BRANCH  65  66
ATOM     66  C   UNL     1       4.705   0.251  -8.882  1.00  0.00     0.202 C 
BRANCH  66  67
ATOM     67  C   UNL     1       3.695   1.140  -8.143  1.00  0.00     0.261 C 
BRANCH  67  68
ATOM     68  O   UNL     1       3.212   0.602  -6.903  1.00  0.00    -0.463 OA
BRANCH  68  69
ATOM     69  C   UNL     1       2.190  -0.297  -6.890  1.00  0.00     0.310 C 
ATOM     70  O   UNL     1       1.669  -0.770  -7.890  1.00  0.00    -0.252 OA
BRANCH  69  71
ATOM     71  C   UNL     1       1.837  -0.634  -5.442  1.00  0.00     0.119 C 
ATOM     72  C   UNL     1       1.833   0.679  -4.653  1.00  0.00     0.019 C 
ATOM     73  C   UNL     1       0.489  -1.366  -5.342  1.00  0.00     0.135 C 
ATOM     74  C   UNL     1       1.092   0.624  -3.339  1.00  0.00     0.022 C 
ATOM     75  N   UNL     1      -0.025  -1.409  -3.962  1.00  0.00    -0.338 N 
ATOM     76  C   UNL     1      -0.230  -0.103  -3.370  1.00  0.00     0.120 C 
BRANCH  75  77
ATOM     77  C   UNL     1      -0.082  -2.618  -3.258  1.00  0.00     0.254 C 
ATOM     78  O   UNL     1       0.367  -3.665  -3.720  1.00  0.00    -0.269 OA
BRANCH  77  79
ATOM     79  C   UNL     1      -0.723  -2.663  -1.912  1.00  0.00     0.049 A 
ATOM     80  C   UNL     1      -2.026  -2.163  -1.722  1.00  0.00     0.014 A 
ATOM     81  C   UNL     1      -0.076  -3.303  -0.825  1.00  0.00     0.012 A 
ATOM     82  C   UNL     1      -2.649  -2.235  -0.475  1.00  0.00     0.003 A 
ATOM     83  C   UNL     1      -0.727  -3.342   0.414  1.00  0.00     0.046 A 
ATOM     84  C   UNL     1       1.164  -3.986  -0.648  1.00  0.00     0.029 A 
ATOM     85  C   UNL     1      -2.000  -2.801   0.624  1.00  0.00     0.027 A 
ATOM     86  N   UNL     1       0.101  -4.000   1.297  1.00  0.00    -0.361 N 
ATOM     87  C   UNL     1       1.236  -4.416   0.658  1.00  0.00     0.083 A 
ATOM     88  H   UNL     1      -0.096  -4.149   2.250  1.00  0.00     0.166 HD
ENDBRANCH  77  79
ENDBRANCH  75  77
ENDBRANCH  69  71
ENDBRANCH  68  69
ENDBRANCH  67  68
ENDBRANCH  66  67
ENDBRANCH  65  66
ENDBRANCH  64  65
ENDBRANCH   1  64
TORSDOF 19
