REMARK SMILES NS(=O)(=O)c1ccc(-n2ccnc2-c2ccc(O)c(C(=O)OCCOCCOCCOC(=O)c3ccc(-c4c5nc(c(-c6c(F)cccc6F)c6ccc([nH]6)c(-c6c(F)cccc6F)c6nc(c(-c7c(F)cccc7F)c7ccc4[nH]7)C=C6)C=C5)cc3)c2)cc1
REMARK SMILES IDX 26 1 25 2 24 3 23 4 22 5 20 6 21 7 19 8 14 9 15 10 88 11
REMARK SMILES IDX 16 12 17 13 13 14 9 15 10 16 11 17 12 18 8 19 5 20 6 21
REMARK SMILES IDX 90 22 7 23 89 24 2 25 3 26 4 27 1 28 18 31 27 33 28 34 29 35
REMARK SMILES IDX 30 36 31 37 32 38 33 39 34 40 35 41 87 42 36 43 86 44 37 45
REMARK SMILES IDX 38 46 39 47 80 48 40 49 85 50 79 51 81 52 41 53 84 54 78 55
REMARK SMILES IDX 77 56 42 58 68 59 51 60 67 61 52 62 55 63 66 64 82 65 53 66
REMARK SMILES IDX 54 67 65 69 83 70 56 71 43 72 44 73 49 74 45 75 46 76 48 77
REMARK SMILES IDX 50 78 47 79 69 80 70 81 75 82 71 83 72 84 74 85 76 86 73 87
REMARK SMILES IDX 57 88 58 89 63 90 59 91 60 92 62 93 64 94 61 95
REMARK H PARENT 1 29 1 30 18 32 81 57 55 68
REMARK Flexibility Score: inf
ROOT
ATOM      1  C   UNL     1      -4.346  -0.631  -8.272  1.00  0.00     0.188 C 
ENDROOT
BRANCH   1   2
ATOM      2  O   UNL     1      -5.439  -0.720  -7.372  1.00  0.00    -0.376 OA
BRANCH   2   3
ATOM      3  C   UNL     1      -5.269  -0.385  -6.001  1.00  0.00     0.202 C 
BRANCH   3   4
ATOM      4  C   UNL     1      -4.046  -0.843  -5.181  1.00  0.00     0.261 C 
BRANCH   4   5
ATOM      5  O   UNL     1      -2.770  -0.687  -5.819  1.00  0.00    -0.460 OA
BRANCH   5   6
ATOM      6  C   UNL     1      -2.153  -1.831  -6.193  1.00  0.00     0.342 C 
ATOM      7  O   UNL     1      -2.539  -2.973  -5.989  1.00  0.00    -0.246 OA
BRANCH   6   8
ATOM      8  C   UNL     1      -1.030  -1.554  -7.119  1.00  0.00     0.102 A 
ATOM      9  C   UNL     1       0.834  -0.172  -7.875  1.00  0.00     0.019 A 
ATOM     10  C   UNL     1       1.030  -1.054  -8.946  1.00  0.00     0.016 A 
ATOM     11  C   UNL     1      -0.246  -0.400  -7.001  1.00  0.00     0.031 A 
ATOM     12  C   UNL     1       0.218  -2.182  -9.097  1.00  0.00     0.048 A 
ATOM     13  C   UNL     1      -0.785  -2.445  -8.170  1.00  0.00     0.130 A 
BRANCH   9  14
ATOM     14  C   UNL     1       1.763   0.957  -7.688  1.00  0.00     0.144 A 
ATOM     15  N   UNL     1       2.191   1.458  -6.457  1.00  0.00    -0.300 N 
ATOM     16  C   UNL     1       2.836   2.646  -6.711  1.00  0.00     0.113 A 
ATOM     17  C   UNL     1       2.931   2.724  -8.078  1.00  0.00     0.132 A 
ATOM     18  N   UNL     1       2.282   1.676  -8.672  1.00  0.00    -0.236 NA
BRANCH  15  19
ATOM     19  C   UNL     1       1.979   0.890  -5.177  1.00  0.00     0.047 A 
ATOM     20  C   UNL     1       1.160  -0.306  -2.814  1.00  0.00     0.082 A 
ATOM     21  C   UNL     1       1.745  -1.091  -3.808  1.00  0.00     0.024 A 
ATOM     22  C   UNL     1       1.033   1.081  -2.970  1.00  0.00     0.024 A 
ATOM     23  C   UNL     1       2.155  -0.491  -4.997  1.00  0.00     0.028 A 
ATOM     24  C   UNL     1       1.466   1.689  -4.149  1.00  0.00     0.028 A 
BRANCH  20  25
ATOM     25  S   UNL     1       0.525  -1.079  -1.357  1.00  0.00     0.238 S 
ATOM     26  O   UNL     1       1.096  -2.402  -1.234  1.00  0.00    -0.207 OA
ATOM     27  O   UNL     1      -0.892  -0.829  -1.290  1.00  0.00    -0.207 OA
BRANCH  25  28
ATOM     28  N   UNL     1       1.228  -0.180  -0.126  1.00  0.00    -0.225 NA
ATOM     29  H   UNL     1       0.925  -0.545   0.777  1.00  0.00     0.137 HD
ATOM     30  H   UNL     1       0.941   0.795  -0.212  1.00  0.00     0.137 HD
ENDBRANCH  25  28
ENDBRANCH  20  25
ENDBRANCH  15  19
ENDBRANCH   9  14
BRANCH  13  31
ATOM     31  O   UNL     1      -1.523  -3.580  -8.375  1.00  0.00    -0.507 OA
ATOM     32  H   UNL     1      -1.321  -4.147  -9.093  1.00  0.00     0.293 HD
ENDBRANCH  13  31
ENDBRANCH   6   8
ENDBRANCH   5   6
ENDBRANCH   4   5
ENDBRANCH   3   4
ENDBRANCH   2   3
ENDBRANCH   1   2
BRANCH   1  33
ATOM     33  C   UNL     1      -3.499   0.657  -8.367  1.00  0.00     0.188 C 
BRANCH  33  34
ATOM     34  O   UNL     1      -3.589   1.546  -7.277  1.00  0.00    -0.376 OA
BRANCH  34  35
ATOM     35  C   UNL     1      -4.451   2.673  -7.284  1.00  0.00     0.202 C 
BRANCH  35  36
ATOM     36  C   UNL     1      -5.640   2.891  -8.224  1.00  0.00     0.261 C 
BRANCH  36  37
ATOM     37  O   UNL     1      -5.936   1.843  -9.124  1.00  0.00    -0.460 OA
BRANCH  37  38
ATOM     38  C   UNL     1      -5.406   2.014 -10.354  1.00  0.00     0.338 C 
ATOM     39  O   UNL     1      -4.614   2.874 -10.700  1.00  0.00    -0.246 OA
BRANCH  38  40
ATOM     40  C   UNL     1      -5.950   0.995 -11.257  1.00  0.00     0.060 A 
ATOM     41  C   UNL     1      -5.323   0.857 -12.497  1.00  0.00     0.016 A 
ATOM     42  C   UNL     1      -7.196   0.414 -10.981  1.00  0.00     0.016 A 
ATOM     43  C   UNL     1      -6.060   0.359 -13.546  1.00  0.00     0.010 A 
ATOM     44  C   UNL     1      -7.936  -0.076 -12.032  1.00  0.00     0.010 A 
ATOM     45  C   UNL     1      -7.395   0.018 -13.314  1.00  0.00    -0.014 A 
BRANCH  45  46
ATOM     46  C   UNL     1      -8.268  -0.013 -14.470  1.00  0.00     0.031 A 
ATOM     47  C   UNL     1      -8.320  -1.270 -15.238  1.00  0.00     0.074 A 
ATOM     48  C   UNL     1      -9.048   1.050 -14.749  1.00  0.00     0.049 A 
ATOM     49  N   UNL     1      -8.085  -1.451 -16.496  1.00  0.00    -0.248 NA
ATOM     50  C   UNL     1      -8.636  -2.495 -14.492  1.00  0.00     0.031 C 
ATOM     51  C   UNL     1      -9.321   2.215 -13.898  1.00  0.00     0.029 A 
ATOM     52  N   UNL     1      -9.857   1.252 -15.822  1.00  0.00    -0.354 N 
ATOM     53  C   UNL     1      -8.371  -2.789 -16.740  1.00  0.00     0.074 A 
ATOM     54  C   UNL     1      -8.602  -3.409 -15.460  1.00  0.00     0.031 C 
ATOM     55  C   UNL     1     -10.389   2.880 -14.391  1.00  0.00     0.029 A 
ATOM     56  C   UNL     1     -10.788   2.260 -15.643  1.00  0.00     0.049 A 
ATOM     57  H   UNL     1      -9.787   0.728 -16.652  1.00  0.00     0.167 HD
ATOM     58  C   UNL     1      -8.583  -3.272 -17.992  1.00  0.00     0.037 A 
ATOM     59  C   UNL     1     -11.866   2.501 -16.424  1.00  0.00     0.037 A 
ATOM     60  C   UNL     1      -8.058  -2.412 -19.013  1.00  0.00     0.049 A 
ATOM     61  C   UNL     1     -11.657   1.811 -17.721  1.00  0.00     0.074 A 
ATOM     62  C   UNL     1      -6.794  -1.960 -19.340  1.00  0.00     0.029 A 
ATOM     63  N   UNL     1      -8.929  -1.620 -19.716  1.00  0.00    -0.354 N 
ATOM     64  N   UNL     1     -10.783   2.168 -18.620  1.00  0.00    -0.248 NA
ATOM     65  C   UNL     1     -12.167   0.454 -17.855  1.00  0.00     0.031 C 
ATOM     66  C   UNL     1      -6.986  -0.644 -19.851  1.00  0.00     0.029 A 
ATOM     67  C   UNL     1      -8.355  -0.378 -19.808  1.00  0.00     0.049 A 
ATOM     68  H   UNL     1      -9.801  -1.891 -20.084  1.00  0.00     0.167 HD
ATOM     69  C   UNL     1     -10.340   0.978 -19.181  1.00  0.00     0.074 A 
ATOM     70  C   UNL     1     -11.304  -0.028 -18.751  1.00  0.00     0.031 C 
ATOM     71  C   UNL     1      -9.086   0.865 -19.710  1.00  0.00     0.037 A 
BRANCH  58  72
ATOM     72  C   UNL     1      -9.514  -4.412 -18.277  1.00  0.00     0.057 A 
ATOM     73  C   UNL     1      -9.432  -5.108 -19.491  1.00  0.00     0.134 A 
ATOM     74  C   UNL     1     -10.648  -4.693 -17.488  1.00  0.00     0.134 A 
ATOM     75  F   UNL     1      -8.424  -4.882 -20.347  1.00  0.00    -0.206 F 
ATOM     76  C   UNL     1     -10.417  -6.016 -19.895  1.00  0.00     0.040 A 
ATOM     77  C   UNL     1     -11.609  -5.635 -17.855  1.00  0.00     0.040 A 
ATOM     78  F   UNL     1     -10.920  -4.003 -16.370  1.00  0.00    -0.206 F 
ATOM     79  C   UNL     1     -11.506  -6.288 -19.073  1.00  0.00     0.006 A 
ENDBRANCH  58  72
BRANCH  59  80
ATOM     80  C   UNL     1     -13.181   3.030 -16.005  1.00  0.00     0.057 A 
ATOM     81  C   UNL     1     -14.073   3.577 -16.935  1.00  0.00     0.134 A 
ATOM     82  C   UNL     1     -13.696   2.794 -14.717  1.00  0.00     0.134 A 
ATOM     83  F   UNL     1     -13.689   3.792 -18.201  1.00  0.00    -0.206 F 
ATOM     84  C   UNL     1     -15.404   3.867 -16.605  1.00  0.00     0.040 A 
ATOM     85  C   UNL     1     -15.016   3.091 -14.371  1.00  0.00     0.040 A 
ATOM     86  F   UNL     1     -12.960   2.188 -13.774  1.00  0.00    -0.206 F 
ATOM     87  C   UNL     1     -15.880   3.619 -15.320  1.00  0.00     0.006 A 
ENDBRANCH  59  80
BRANCH  71  88
ATOM     88  C   UNL     1      -8.299   2.128 -19.918  1.00  0.00     0.057 A 
ATOM     89  C   UNL     1      -7.859   2.943 -18.864  1.00  0.00     0.134 A 
ATOM     90  C   UNL     1      -7.834   2.441 -21.200  1.00  0.00     0.134 A 
ATOM     91  F   UNL     1      -8.167   2.655 -17.593  1.00  0.00    -0.206 F 
ATOM     92  C   UNL     1      -7.030   4.047 -19.084  1.00  0.00     0.040 A 
ATOM     93  C   UNL     1      -6.980   3.523 -21.428  1.00  0.00     0.040 A 
ATOM     94  F   UNL     1      -8.162   1.667 -22.247  1.00  0.00    -0.206 F 
ATOM     95  C   UNL     1      -6.583   4.337 -20.369  1.00  0.00     0.006 A 
ENDBRANCH  71  88
ENDBRANCH  45  46
ENDBRANCH  38  40
ENDBRANCH  37  38
ENDBRANCH  36  37
ENDBRANCH  35  36
ENDBRANCH  34  35
ENDBRANCH  33  34
ENDBRANCH   1  33
TORSDOF 22
