REMARK SMILES C[C@H](CNS(=O)(=O)c1ccc(C(=O)OCCOCCOCCOC(=O)c2ccc(-c3c4nc(c(-c5c(F)cccc5F)c5ccc([nH]5)c(-c5c(F)cccc5F)c5nc(c(-c6c(F)cccc6F)c6ccc3[nH]6)C=C5)C=C4)cc2)cc1F)[NH+](C)C
REMARK SMILES IDX 17 1 16 2 15 3 14 4 12 5 13 6 11 7 8 8 9 9 81 10 10 11 80 12
REMARK SMILES IDX 82 13 5 14 6 15 7 16 4 17 3 19 2 20 1 21 83 22 84 23 85 24
REMARK SMILES IDX 18 26 19 27 20 28 21 29 22 30 23 31 24 32 25 33 26 34 27 35
REMARK SMILES IDX 79 36 28 37 78 38 29 39 30 40 31 41 72 42 32 43 77 44 71 45
REMARK SMILES IDX 73 46 33 47 76 48 70 49 69 50 34 52 60 53 43 54 59 55 44 56
REMARK SMILES IDX 47 57 58 58 74 59 45 60 46 61 57 63 75 64 48 65 35 66 36 67
REMARK SMILES IDX 41 68 37 69 38 70 40 71 42 72 39 73 61 74 62 75 67 76 63 77
REMARK SMILES IDX 64 78 66 79 68 80 65 81 49 82 50 83 55 84 51 85 52 86 54 87
REMARK SMILES IDX 56 88 53 89
REMARK H PARENT 4 18 83 25 73 51 47 62
REMARK Flexibility Score: inf
ROOT
ATOM      1  O   UNL     1       9.379  -1.427  -2.816  1.00  0.00    -0.376 OA
ENDROOT
BRANCH   1   2
ATOM      2  C   UNL     1       9.393  -2.650  -3.542  1.00  0.00     0.202 C 
BRANCH   2   3
ATOM      3  C   UNL     1       8.345  -3.696  -3.156  1.00  0.00     0.261 C 
BRANCH   3   4
ATOM      4  O   UNL     1       6.999  -3.230  -3.353  1.00  0.00    -0.460 OA
BRANCH   4   5
ATOM      5  C   UNL     1       6.214  -3.266  -2.253  1.00  0.00     0.338 C 
ATOM      6  O   UNL     1       6.490  -3.724  -1.157  1.00  0.00    -0.246 OA
BRANCH   5   7
ATOM      7  C   UNL     1       4.984  -2.486  -2.483  1.00  0.00     0.063 A 
ATOM      8  C   UNL     1       2.583  -1.094  -2.673  1.00  0.00     0.118 A 
ATOM      9  C   UNL     1       3.472  -0.789  -1.641  1.00  0.00     0.026 A 
ATOM     10  C   UNL     1       2.929  -2.034  -3.643  1.00  0.00     0.144 A 
ATOM     11  C   UNL     1       4.660  -1.507  -1.532  1.00  0.00     0.017 A 
ATOM     12  C   UNL     1       4.139  -2.725  -3.568  1.00  0.00     0.056 A 
ATOM     13  F   UNL     1       2.102  -2.309  -4.659  1.00  0.00    -0.205 F 
BRANCH   8  14
ATOM     14  S   UNL     1       0.959  -0.415  -2.734  1.00  0.00     0.243 S 
ATOM     15  O   UNL     1       0.009  -1.496  -2.621  1.00  0.00    -0.207 OA
ATOM     16  O   UNL     1       0.933   0.535  -3.824  1.00  0.00    -0.207 OA
BRANCH  14  17
ATOM     17  N   UNL     1       0.814   0.528  -1.341  1.00  0.00    -0.205 NA
ATOM     18  H   UNL     1       1.697   1.024  -1.223  1.00  0.00     0.141 HD
BRANCH  17  19
ATOM     19  C   UNL     1       0.513  -0.133  -0.053  1.00  0.00     0.163 C 
BRANCH  19  20
ATOM     20  C   UNL     1       0.176   0.888   1.078  1.00  0.00     0.195 C 
ATOM     21  C   UNL     1       1.028   2.166   0.996  1.00  0.00     0.076 C 
BRANCH  20  22
ATOM     22  N   UNL     1      -1.280   1.117   1.232  1.00  0.00    -0.337 N 
ATOM     23  C   UNL     1      -1.607   1.944   2.394  1.00  0.00     0.332 C 
ATOM     24  C   UNL     1      -1.967   1.608   0.043  1.00  0.00     0.332 C 
ATOM     25  H   UNL     1      -1.643   0.177   1.391  1.00  0.00     0.347 HD
ENDBRANCH  20  22
ENDBRANCH  19  20
ENDBRANCH  17  19
ENDBRANCH  14  17
ENDBRANCH   8  14
ENDBRANCH   5   7
ENDBRANCH   4   5
ENDBRANCH   3   4
ENDBRANCH   2   3
ENDBRANCH   1   2
BRANCH   1  26
ATOM     26  C   UNL     1       8.246  -0.571  -2.906  1.00  0.00     0.188 C 
BRANCH  26  27
ATOM     27  C   UNL     1       7.562  -0.344  -4.269  1.00  0.00     0.188 C 
BRANCH  27  28
ATOM     28  O   UNL     1       8.366  -0.685  -5.387  1.00  0.00    -0.376 OA
BRANCH  28  29
ATOM     29  C   UNL     1       8.797   0.396  -6.201  1.00  0.00     0.202 C 
BRANCH  29  30
ATOM     30  C   UNL     1       9.961   1.187  -5.597  1.00  0.00     0.261 C 
BRANCH  30  31
ATOM     31  O   UNL     1       9.656   1.852  -4.360  1.00  0.00    -0.460 OA
BRANCH  31  32
ATOM     32  C   UNL     1       8.736   2.838  -4.413  1.00  0.00     0.338 C 
ATOM     33  O   UNL     1       8.130   3.232  -5.393  1.00  0.00    -0.246 OA
BRANCH  32  34
ATOM     34  C   UNL     1       8.457   3.285  -3.034  1.00  0.00     0.060 A 
ATOM     35  C   UNL     1       7.127   3.345  -2.601  1.00  0.00     0.016 A 
ATOM     36  C   UNL     1       9.499   3.675  -2.187  1.00  0.00     0.016 A 
ATOM     37  C   UNL     1       6.834   3.841  -1.329  1.00  0.00     0.010 A 
ATOM     38  C   UNL     1       9.203   4.184  -0.921  1.00  0.00     0.010 A 
ATOM     39  C   UNL     1       7.868   4.303  -0.501  1.00  0.00    -0.014 A 
BRANCH  39  40
ATOM     40  C   UNL     1       7.543   5.090   0.713  1.00  0.00     0.031 A 
ATOM     41  C   UNL     1       7.457   6.586   0.592  1.00  0.00     0.074 A 
ATOM     42  C   UNL     1       7.313   4.495   1.897  1.00  0.00     0.049 A 
ATOM     43  N   UNL     1       7.202   7.480   1.513  1.00  0.00    -0.248 NA
ATOM     44  C   UNL     1       7.688   7.150  -0.749  1.00  0.00     0.031 C 
ATOM     45  C   UNL     1       7.338   3.055   2.141  1.00  0.00     0.029 A 
ATOM     46  N   UNL     1       7.014   5.042   3.120  1.00  0.00    -0.354 N 
ATOM     47  C   UNL     1       7.231   8.707   0.863  1.00  0.00     0.074 A 
ATOM     48  C   UNL     1       7.557   8.448  -0.523  1.00  0.00     0.031 C 
ATOM     49  C   UNL     1       7.068   2.831   3.440  1.00  0.00     0.029 A 
ATOM     50  C   UNL     1       6.875   4.112   4.120  1.00  0.00     0.049 A 
ATOM     51  H   UNL     1       6.910   6.010   3.266  1.00  0.00     0.167 HD
ATOM     52  C   UNL     1       6.997   9.939   1.370  1.00  0.00     0.037 A 
ATOM     53  C   UNL     1       6.631   4.279   5.435  1.00  0.00     0.037 A 
ATOM     54  C   UNL     1       6.689  10.207   2.747  1.00  0.00     0.049 A 
ATOM     55  C   UNL     1       6.450   5.667   5.993  1.00  0.00     0.074 A 
ATOM     56  C   UNL     1       6.443  11.426   3.353  1.00  0.00     0.029 A 
ATOM     57  N   UNL     1       6.593   9.239   3.734  1.00  0.00    -0.354 N 
ATOM     58  N   UNL     1       6.461   6.817   5.365  1.00  0.00    -0.248 NA
ATOM     59  C   UNL     1       6.223   5.779   7.442  1.00  0.00     0.031 C 
ATOM     60  C   UNL     1       6.229  11.200   4.716  1.00  0.00     0.029 A 
ATOM     61  C   UNL     1       6.305   9.836   4.949  1.00  0.00     0.049 A 
ATOM     62  H   UNL     1       6.711   8.273   3.593  1.00  0.00     0.167 HD
ATOM     63  C   UNL     1       6.219   7.784   6.334  1.00  0.00     0.074 A 
ATOM     64  C   UNL     1       6.061   7.087   7.593  1.00  0.00     0.031 C 
ATOM     65  C   UNL     1       6.135   9.129   6.191  1.00  0.00     0.037 A 
BRANCH  52  66
ATOM     66  C   UNL     1       7.076  11.097   0.424  1.00  0.00     0.057 A 
ATOM     67  C   UNL     1       8.164  11.977   0.458  1.00  0.00     0.134 A 
ATOM     68  C   UNL     1       6.052  11.361  -0.493  1.00  0.00     0.134 A 
ATOM     69  F   UNL     1       9.176  11.776   1.316  1.00  0.00    -0.206 F 
ATOM     70  C   UNL     1       8.227  13.087  -0.384  1.00  0.00     0.040 A 
ATOM     71  C   UNL     1       6.113  12.458  -1.354  1.00  0.00     0.040 A 
ATOM     72  F   UNL     1       4.993  10.543  -0.584  1.00  0.00    -0.206 F 
ATOM     73  C   UNL     1       7.200  13.328  -1.295  1.00  0.00     0.006 A 
ENDBRANCH  52  66
BRANCH  53  74
ATOM     74  C   UNL     1       6.539   3.097   6.326  1.00  0.00     0.057 A 
ATOM     75  C   UNL     1       7.676   2.363   6.683  1.00  0.00     0.134 A 
ATOM     76  C   UNL     1       5.310   2.682   6.850  1.00  0.00     0.134 A 
ATOM     77  F   UNL     1       8.883   2.715   6.215  1.00  0.00    -0.206 F 
ATOM     78  C   UNL     1       7.593   1.251   7.522  1.00  0.00     0.040 A 
ATOM     79  C   UNL     1       5.215   1.583   7.706  1.00  0.00     0.040 A 
ATOM     80  F   UNL     1       4.189   3.360   6.562  1.00  0.00    -0.206 F 
ATOM     81  C   UNL     1       6.359   0.861   8.039  1.00  0.00     0.006 A 
ENDBRANCH  53  74
BRANCH  65  82
ATOM     82  C   UNL     1       5.826   9.944   7.411  1.00  0.00     0.057 A 
ATOM     83  C   UNL     1       4.565  10.534   7.571  1.00  0.00     0.134 A 
ATOM     84  C   UNL     1       6.799  10.219   8.378  1.00  0.00     0.134 A 
ATOM     85  F   UNL     1       3.593  10.318   6.672  1.00  0.00    -0.206 F 
ATOM     86  C   UNL     1       4.289  11.382   8.644  1.00  0.00     0.040 A 
ATOM     87  C   UNL     1       6.528  11.050   9.466  1.00  0.00     0.040 A 
ATOM     88  F   UNL     1       8.023   9.677   8.283  1.00  0.00    -0.206 F 
ATOM     89  C   UNL     1       5.273  11.641   9.596  1.00  0.00     0.006 A 
ENDBRANCH  65  82
ENDBRANCH  39  40
ENDBRANCH  32  34
ENDBRANCH  31  32
ENDBRANCH  30  31
ENDBRANCH  29  30
ENDBRANCH  28  29
ENDBRANCH  27  28
ENDBRANCH  26  27
ENDBRANCH   1  26
TORSDOF 22
