REMARK SMILES O=C(CN1C(=O)/C(=C\c2c(F)cccc2Cl)Oc2ccccc21)OCCOCCOCCOC(=O)c1ccc(-c2c3nc(c(-c4c(F)cccc4F)c4ccc([nH]4)c(-c4c(F)cccc4F)c4nc(c(-c5c(F)cccc5F)c5ccc2[nH]5)C=C4)C=C3)cc1
REMARK SMILES IDX 28 1 27 2 26 3 25 4 24 5 2 6 1 7 3 8 4 9 5 10 23 11 6 12
REMARK SMILES IDX 7 13 18 14 22 15 8 16 17 17 19 18 21 19 20 20 9 21 10 22
REMARK SMILES IDX 15 23 11 24 12 25 14 26 16 27 13 28 29 29 30 30 31 31 32 32
REMARK SMILES IDX 33 33 34 34 35 35 36 36 37 37 89 38 38 39 88 40 39 41 40 42
REMARK SMILES IDX 41 43 82 44 42 45 87 46 81 47 83 48 43 49 86 50 80 51 79 52
REMARK SMILES IDX 44 54 70 55 53 56 69 57 54 58 57 59 68 60 84 61 55 62 56 63
REMARK SMILES IDX 67 65 85 66 58 67 45 68 46 69 51 70 47 71 48 72 50 73 52 74
REMARK SMILES IDX 49 75 71 76 72 77 77 78 73 79 74 80 76 81 78 82 75 83 59 84
REMARK SMILES IDX 60 85 65 86 61 87 62 88 64 89 66 90 63 91
REMARK H PARENT 83 53 57 64
REMARK Flexibility Score: inf
ROOT
ATOM      1  C   UNL     1       2.471   0.649   2.038  1.00  0.00     0.188 C 
ENDROOT
BRANCH   1   2
ATOM      2  O   UNL     1       3.854   0.499   1.753  1.00  0.00    -0.376 OA
BRANCH   2   3
ATOM      3  C   UNL     1       4.469   1.386   0.829  1.00  0.00     0.202 C 
BRANCH   3   4
ATOM      4  C   UNL     1       3.665   1.816  -0.406  1.00  0.00     0.261 C 
BRANCH   4   5
ATOM      5  O   UNL     1       2.635   0.915  -0.854  1.00  0.00    -0.462 OA
BRANCH   5   6
ATOM      6  C   UNL     1       2.940  -0.149  -1.642  1.00  0.00     0.326 C 
ATOM      7  O   UNL     1       2.433  -0.276  -2.751  1.00  0.00    -0.250 OA
BRANCH   6   8
ATOM      8  C   UNL     1       3.721  -1.243  -0.933  1.00  0.00     0.248 C 
BRANCH   8   9
ATOM      9  N   UNL     1       4.564  -2.056  -1.792  1.00  0.00    -0.291 N 
ATOM     10  C   UNL     1       4.165  -3.365  -2.004  1.00  0.00     0.294 C 
ATOM     11  C   UNL     1       5.814  -1.595  -2.291  1.00  0.00     0.088 A 
ATOM     12  O   UNL     1       3.041  -3.789  -1.754  1.00  0.00    -0.265 OA
ATOM     13  C   UNL     1       5.295  -4.259  -2.415  1.00  0.00     0.193 C 
ATOM     14  C   UNL     1       6.616  -2.465  -3.041  1.00  0.00     0.151 A 
ATOM     15  C   UNL     1       6.293  -0.305  -2.057  1.00  0.00     0.030 A 
ATOM     16  C   UNL     1       5.568  -5.384  -1.734  1.00  0.00     0.065 C 
ATOM     17  O   UNL     1       6.242  -3.764  -3.298  1.00  0.00    -0.449 OA
ATOM     18  C   UNL     1       7.866  -2.067  -3.517  1.00  0.00     0.049 A 
ATOM     19  C   UNL     1       7.550   0.096  -2.510  1.00  0.00     0.002 A 
ATOM     20  C   UNL     1       8.340  -0.788  -3.236  1.00  0.00     0.004 A 
BRANCH  16  21
ATOM     21  C   UNL     1       4.864  -5.753  -0.502  1.00  0.00     0.033 A 
ATOM     22  C   UNL     1       3.643  -6.428  -0.576  1.00  0.00     0.132 A 
ATOM     23  C   UNL     1       5.340  -5.347   0.759  1.00  0.00     0.051 A 
ATOM     24  F   UNL     1       3.163  -6.838  -1.760  1.00  0.00    -0.206 F 
ATOM     25  C   UNL     1       2.892  -6.668   0.564  1.00  0.00     0.040 A 
ATOM     26  C   UNL     1       4.613  -5.628   1.911  1.00  0.00     0.021 A 
ATOM     27  Cl  UNL     1       6.819  -4.469   0.949  1.00  0.00    -0.084 Cl
ATOM     28  C   UNL     1       3.395  -6.285   1.804  1.00  0.00     0.005 A 
ENDBRANCH  16  21
ENDBRANCH   8   9
ENDBRANCH   6   8
ENDBRANCH   5   6
ENDBRANCH   4   5
ENDBRANCH   3   4
ENDBRANCH   2   3
ENDBRANCH   1   2
BRANCH   1  29
ATOM     29  C   UNL     1       1.945   2.044   2.394  1.00  0.00     0.188 C 
BRANCH  29  30
ATOM     30  O   UNL     1       2.942   3.058   2.429  1.00  0.00    -0.376 OA
BRANCH  30  31
ATOM     31  C   UNL     1       3.306   3.498   3.736  1.00  0.00     0.202 C 
BRANCH  31  32
ATOM     32  C   UNL     1       4.330   2.602   4.448  1.00  0.00     0.261 C 
BRANCH  32  33
ATOM     33  O   UNL     1       3.922   1.246   4.702  1.00  0.00    -0.460 OA
BRANCH  33  34
ATOM     34  C   UNL     1       2.853   1.055   5.502  1.00  0.00     0.338 C 
ATOM     35  O   UNL     1       2.150   1.918   6.003  1.00  0.00    -0.246 OA
BRANCH  34  36
ATOM     36  C   UNL     1       2.571  -0.395   5.602  1.00  0.00     0.060 A 
ATOM     37  C   UNL     1       3.580  -1.303   5.929  1.00  0.00     0.016 A 
ATOM     38  C   UNL     1       1.257  -0.844   5.418  1.00  0.00     0.016 A 
ATOM     39  C   UNL     1       3.259  -2.653   6.121  1.00  0.00     0.010 A 
ATOM     40  C   UNL     1       0.940  -2.196   5.604  1.00  0.00     0.010 A 
ATOM     41  C   UNL     1       1.931  -3.109   5.990  1.00  0.00    -0.014 A 
BRANCH  41  42
ATOM     42  C   UNL     1       1.575  -4.461   6.496  1.00  0.00     0.031 A 
ATOM     43  C   UNL     1       1.254  -5.631   5.618  1.00  0.00     0.074 A 
ATOM     44  C   UNL     1       1.498  -4.644   7.828  1.00  0.00     0.049 A 
ATOM     45  N   UNL     1       1.319  -6.906   5.920  1.00  0.00    -0.248 NA
ATOM     46  C   UNL     1       0.786  -5.364   4.254  1.00  0.00     0.031 C 
ATOM     47  C   UNL     1       1.609  -3.593   8.840  1.00  0.00     0.029 A 
ATOM     48  N   UNL     1       1.275  -5.787   8.551  1.00  0.00    -0.354 N 
ATOM     49  C   UNL     1       1.066  -7.589   4.741  1.00  0.00     0.074 A 
ATOM     50  C   UNL     1       0.648  -6.599   3.774  1.00  0.00     0.031 C 
ATOM     51  C   UNL     1       1.416  -4.137  10.053  1.00  0.00     0.029 A 
ATOM     52  C   UNL     1       1.204  -5.575   9.902  1.00  0.00     0.049 A 
ATOM     53  H   UNL     1       1.175  -6.675   8.139  1.00  0.00     0.167 HD
ATOM     54  C   UNL     1       1.292  -8.901   4.491  1.00  0.00     0.037 A 
ATOM     55  C   UNL     1       0.998  -6.444  10.908  1.00  0.00     0.037 A 
ATOM     56  C   UNL     1       1.506  -9.894   5.509  1.00  0.00     0.049 A 
ATOM     57  C   UNL     1       0.931  -7.918  10.626  1.00  0.00     0.074 A 
ATOM     58  C   UNL     1       1.793 -11.241   5.367  1.00  0.00     0.029 A 
ATOM     59  N   UNL     1       1.346  -9.660   6.861  1.00  0.00    -0.354 N 
ATOM     60  N   UNL     1       1.116  -8.551   9.495  1.00  0.00    -0.248 NA
ATOM     61  C   UNL     1       0.658  -8.800  11.770  1.00  0.00     0.031 C 
ATOM     62  C   UNL     1       1.723 -11.837   6.633  1.00  0.00     0.029 A 
ATOM     63  C   UNL     1       1.419 -10.852   7.558  1.00  0.00     0.049 A 
ATOM     64  H   UNL     1       1.202  -8.775   7.269  1.00  0.00     0.167 HD
ATOM     65  C   UNL     1       1.026  -9.905   9.798  1.00  0.00     0.074 A 
ATOM     66  C   UNL     1       0.768 -10.001  11.218  1.00  0.00     0.031 C 
ATOM     67  C   UNL     1       1.160 -10.967   8.967  1.00  0.00     0.037 A 
BRANCH  54  68
ATOM     68  C   UNL     1       1.462  -9.343   3.072  1.00  0.00     0.057 A 
ATOM     69  C   UNL     1       0.404  -9.746   2.259  1.00  0.00     0.134 A 
ATOM     70  C   UNL     1       2.765  -9.486   2.565  1.00  0.00     0.134 A 
ATOM     71  F   UNL     1      -0.860  -9.659   2.696  1.00  0.00    -0.206 F 
ATOM     72  C   UNL     1       0.634 -10.257   0.977  1.00  0.00     0.040 A 
ATOM     73  C   UNL     1       3.007  -9.995   1.289  1.00  0.00     0.040 A 
ATOM     74  F   UNL     1       3.824  -9.120   3.305  1.00  0.00    -0.206 F 
ATOM     75  C   UNL     1       1.936 -10.380   0.489  1.00  0.00     0.006 A 
ENDBRANCH  54  68
BRANCH  55  76
ATOM     76  C   UNL     1       0.847  -5.939  12.290  1.00  0.00     0.057 A 
ATOM     77  C   UNL     1      -0.311  -5.254  12.678  1.00  0.00     0.134 A 
ATOM     78  C   UNL     1       1.831  -6.158  13.257  1.00  0.00     0.134 A 
ATOM     79  F   UNL     1      -1.286  -5.015  11.789  1.00  0.00    -0.206 F 
ATOM     80  C   UNL     1      -0.487  -4.808  13.986  1.00  0.00     0.040 A 
ATOM     81  C   UNL     1       1.659  -5.734  14.574  1.00  0.00     0.040 A 
ATOM     82  F   UNL     1       2.952  -6.823  12.941  1.00  0.00    -0.206 F 
ATOM     83  C   UNL     1       0.497  -5.057  14.941  1.00  0.00     0.006 A 
ENDBRANCH  55  76
BRANCH  67  84
ATOM     84  C   UNL     1       1.029 -12.336   9.560  1.00  0.00     0.057 A 
ATOM     85  C   UNL     1       2.140 -13.182   9.677  1.00  0.00     0.134 A 
ATOM     86  C   UNL     1      -0.209 -12.833   9.986  1.00  0.00     0.134 A 
ATOM     87  F   UNL     1       3.353 -12.773   9.278  1.00  0.00    -0.206 F 
ATOM     88  C   UNL     1       2.022 -14.473  10.193  1.00  0.00     0.040 A 
ATOM     89  C   UNL     1      -0.335 -14.112  10.528  1.00  0.00     0.040 A 
ATOM     90  F   UNL     1      -1.309 -12.068   9.912  1.00  0.00    -0.206 F 
ATOM     91  C   UNL     1       0.782 -14.939  10.626  1.00  0.00     0.006 A 
ENDBRANCH  67  84
ENDBRANCH  41  42
ENDBRANCH  34  36
ENDBRANCH  33  34
ENDBRANCH  32  33
ENDBRANCH  31  32
ENDBRANCH  30  31
ENDBRANCH  29  30
ENDBRANCH   1  29
TORSDOF 19
