REMARK SMILES Cc1ccc(C(=O)OCCOCCOCCOC(=O)c2ccc(-c3c4nc(c(-c5c(F)cccc5F)c5ccc([nH]5)c(-c5c(F)cccc5F)c5nc(c(-c6c(F)cccc6F)c6ccc3[nH]6)C=C5)C=C4)cc2)cc1S(=O)(=O)N(C)[C@H]1CCSC1
REMARK SMILES IDX 12 1 11 2 10 3 9 4 8 5 6 6 7 7 5 8 1 9 2 10 3 11 75 12 4 13
REMARK SMILES IDX 74 14 76 15 77 16 78 17 79 18 80 19 81 20 82 21 85 22 83 23
REMARK SMILES IDX 84 24 13 25 14 26 15 27 16 28 17 29 18 30 19 31 20 32 21 33
REMARK SMILES IDX 73 34 22 35 72 36 23 37 24 38 25 39 66 40 26 41 71 42 65 43
REMARK SMILES IDX 67 44 27 45 70 46 64 47 63 48 28 50 54 51 37 52 53 53 38 54
REMARK SMILES IDX 41 55 52 56 68 57 39 58 40 59 51 61 69 62 42 63 29 64 30 65
REMARK SMILES IDX 35 66 31 67 32 68 34 69 36 70 33 71 55 72 56 73 61 74 57 75
REMARK SMILES IDX 58 76 60 77 62 78 59 79 43 80 44 81 49 82 45 83 46 84 48 85
REMARK SMILES IDX 50 86 47 87
REMARK H PARENT 67 49 41 60
REMARK Flexibility Score: inf
ROOT
ATOM      1  C   UNL     1      -6.015   2.624  -3.870  1.00  0.00     0.188 C 
ENDROOT
BRANCH   1   2
ATOM      2  O   UNL     1      -6.517   3.851  -3.358  1.00  0.00    -0.376 OA
BRANCH   2   3
ATOM      3  C   UNL     1      -5.833   5.072  -3.672  1.00  0.00     0.202 C 
BRANCH   3   4
ATOM      4  C   UNL     1      -4.685   5.603  -2.752  1.00  0.00     0.261 C 
BRANCH   4   5
ATOM      5  O   UNL     1      -3.351   4.961  -2.779  1.00  0.00    -0.460 OA
BRANCH   5   6
ATOM      6  C   UNL     1      -2.095   5.489  -3.080  1.00  0.00     0.338 C 
ATOM      7  O   UNL     1      -1.963   6.536  -3.705  1.00  0.00    -0.246 OA
BRANCH   6   8
ATOM      8  C   UNL     1      -0.791   4.640  -2.475  1.00  0.00     0.061 A 
ATOM      9  C   UNL     1       2.477   1.886  -1.508  1.00  0.00     0.046 C 
ATOM     10  C   UNL     1       1.530   3.032  -1.680  1.00  0.00    -0.031 A 
ATOM     11  C   UNL     1       0.315   2.810  -1.111  1.00  0.00     0.006 A 
ATOM     12  C   UNL     1       1.623   4.224  -2.431  1.00  0.00     0.086 A 
ATOM     13  C   UNL     1      -0.750   3.619  -1.484  1.00  0.00     0.016 A 
ATOM     14  C   UNL     1       0.476   4.972  -2.882  1.00  0.00     0.037 A 
BRANCH  12  15
ATOM     15  S   UNL     1       3.106   5.202  -2.508  1.00  0.00     0.243 S 
ATOM     16  O   UNL     1       3.578   5.091  -3.869  1.00  0.00    -0.207 OA
ATOM     17  O   UNL     1       2.753   6.481  -1.925  1.00  0.00    -0.207 OA
BRANCH  15  18
ATOM     18  N   UNL     1       4.223   4.484  -1.465  1.00  0.00    -0.197 NA
ATOM     19  C   UNL     1       5.231   3.640  -2.113  1.00  0.00     0.125 C 
BRANCH  18  20
ATOM     20  C   UNL     1       3.989   4.519   0.013  1.00  0.00     0.083 C 
ATOM     21  C   UNL     1       4.720   3.442   0.822  1.00  0.00     0.032 C 
ATOM     22  C   UNL     1       4.435   5.853   0.620  1.00  0.00     0.089 C 
ATOM     23  C   UNL     1       4.471   3.748   2.290  1.00  0.00     0.071 C 
ATOM     24  S   UNL     1       4.635   5.545   2.407  1.00  0.00    -0.160 SA
ENDBRANCH  18  20
ENDBRANCH  15  18
ENDBRANCH  12  15
ENDBRANCH   6   8
ENDBRANCH   5   6
ENDBRANCH   4   5
ENDBRANCH   3   4
ENDBRANCH   2   3
ENDBRANCH   1   2
BRANCH   1  25
ATOM     25  C   UNL     1      -5.812   2.465  -5.369  1.00  0.00     0.188 C 
BRANCH  25  26
ATOM     26  O   UNL     1      -4.749   3.315  -5.783  1.00  0.00    -0.376 OA
BRANCH  26  27
ATOM     27  C   UNL     1      -4.574   3.384  -7.193  1.00  0.00     0.202 C 
BRANCH  27  28
ATOM     28  C   UNL     1      -4.029   2.077  -7.796  1.00  0.00     0.261 C 
BRANCH  28  29
ATOM     29  O   UNL     1      -2.853   1.652  -7.072  1.00  0.00    -0.460 OA
BRANCH  29  30
ATOM     30  C   UNL     1      -2.919   0.487  -6.354  1.00  0.00     0.338 C 
ATOM     31  O   UNL     1      -3.521  -0.519  -6.686  1.00  0.00    -0.246 OA
BRANCH  30  32
ATOM     32  C   UNL     1      -2.417   0.750  -4.960  1.00  0.00     0.060 A 
ATOM     33  C   UNL     1      -2.867   0.051  -3.838  1.00  0.00     0.016 A 
ATOM     34  C   UNL     1      -1.893   1.979  -4.727  1.00  0.00     0.016 A 
ATOM     35  C   UNL     1      -3.018   0.704  -2.557  1.00  0.00     0.010 A 
ATOM     36  C   UNL     1      -2.396   2.624  -3.595  1.00  0.00     0.010 A 
ATOM     37  C   UNL     1      -2.946   2.098  -2.401  1.00  0.00    -0.014 A 
BRANCH  37  38
ATOM     38  C   UNL     1      -3.691   2.940  -1.156  1.00  0.00     0.031 A 
ATOM     39  C   UNL     1      -3.262   4.243  -0.123  1.00  0.00     0.074 A 
ATOM     40  C   UNL     1      -4.879   2.428  -0.771  1.00  0.00     0.049 A 
ATOM     41  N   UNL     1      -3.496   4.277   1.180  1.00  0.00    -0.248 NA
ATOM     42  C   UNL     1      -2.419   5.466  -0.371  1.00  0.00     0.031 C 
ATOM     43  C   UNL     1      -5.872   3.039   0.091  1.00  0.00     0.029 A 
ATOM     44  N   UNL     1      -5.364   1.143  -0.996  1.00  0.00    -0.354 N 
ATOM     45  C   UNL     1      -3.034   5.535   1.626  1.00  0.00     0.074 A 
ATOM     46  C   UNL     1      -1.945   5.849   0.807  1.00  0.00     0.031 C 
ATOM     47  C   UNL     1      -6.706   2.083   0.527  1.00  0.00     0.029 A 
ATOM     48  C   UNL     1      -6.183   0.806   0.079  1.00  0.00     0.049 A 
ATOM     49  H   UNL     1      -5.165   0.574  -1.774  1.00  0.00     0.167 HD
ATOM     50  C   UNL     1      -3.815   6.448   2.283  1.00  0.00     0.037 A 
ATOM     51  C   UNL     1      -5.885  -0.278   0.849  1.00  0.00     0.037 A 
ATOM     52  C   UNL     1      -4.857   5.725   2.952  1.00  0.00     0.049 A 
ATOM     53  C   UNL     1      -5.661   0.107   2.291  1.00  0.00     0.074 A 
ATOM     54  C   UNL     1      -6.214   5.583   2.771  1.00  0.00     0.029 A 
ATOM     55  N   UNL     1      -4.444   4.713   3.794  1.00  0.00    -0.354 N 
ATOM     56  N   UNL     1      -5.499   1.343   2.679  1.00  0.00    -0.248 NA
ATOM     57  C   UNL     1      -5.625  -0.824   3.415  1.00  0.00     0.031 C 
ATOM     58  C   UNL     1      -6.571   4.335   3.365  1.00  0.00     0.029 A 
ATOM     59  C   UNL     1      -5.441   3.785   3.953  1.00  0.00     0.049 A 
ATOM     60  H   UNL     1      -3.558   4.664   4.221  1.00  0.00     0.167 HD
ATOM     61  C   UNL     1      -5.336   1.395   4.032  1.00  0.00     0.074 A 
ATOM     62  C   UNL     1      -5.418   0.011   4.451  1.00  0.00     0.031 C 
ATOM     63  C   UNL     1      -5.125   2.571   4.687  1.00  0.00     0.037 A 
BRANCH  50  64
ATOM     64  C   UNL     1      -3.746   7.997   2.177  1.00  0.00     0.057 A 
ATOM     65  C   UNL     1      -4.592   8.785   2.985  1.00  0.00     0.134 A 
ATOM     66  C   UNL     1      -2.997   8.780   1.254  1.00  0.00     0.134 A 
ATOM     67  F   UNL     1      -5.383   8.222   3.909  1.00  0.00    -0.206 F 
ATOM     68  C   UNL     1      -4.693  10.190   2.879  1.00  0.00     0.040 A 
ATOM     69  C   UNL     1      -3.049  10.186   1.178  1.00  0.00     0.040 A 
ATOM     70  F   UNL     1      -2.210   8.258   0.310  1.00  0.00    -0.206 F 
ATOM     71  C   UNL     1      -3.913  10.900   1.981  1.00  0.00     0.006 A 
ENDBRANCH  50  64
BRANCH  51  72
ATOM     72  C   UNL     1      -5.299  -1.412   0.066  1.00  0.00     0.057 A 
ATOM     73  C   UNL     1      -6.067  -1.904  -1.016  1.00  0.00     0.134 A 
ATOM     74  C   UNL     1      -3.945  -1.763   0.067  1.00  0.00     0.134 A 
ATOM     75  F   UNL     1      -7.373  -1.599  -1.102  1.00  0.00    -0.206 F 
ATOM     76  C   UNL     1      -5.505  -2.592  -2.096  1.00  0.00     0.040 A 
ATOM     77  C   UNL     1      -3.372  -2.485  -1.001  1.00  0.00     0.040 A 
ATOM     78  F   UNL     1      -3.119  -1.302   1.016  1.00  0.00    -0.206 F 
ATOM     79  C   UNL     1      -4.145  -2.870  -2.099  1.00  0.00     0.006 A 
ENDBRANCH  51  72
BRANCH  63  80
ATOM     80  C   UNL     1      -4.519   2.709   6.062  1.00  0.00     0.057 A 
ATOM     81  C   UNL     1      -3.594   1.799   6.592  1.00  0.00     0.134 A 
ATOM     82  C   UNL     1      -4.661   3.917   6.783  1.00  0.00     0.134 A 
ATOM     83  F   UNL     1      -3.290   0.658   5.959  1.00  0.00    -0.206 F 
ATOM     84  C   UNL     1      -2.881   2.060   7.767  1.00  0.00     0.040 A 
ATOM     85  C   UNL     1      -3.903   4.217   7.916  1.00  0.00     0.040 A 
ATOM     86  F   UNL     1      -5.500   4.883   6.376  1.00  0.00    -0.206 F 
ATOM     87  C   UNL     1      -3.016   3.280   8.420  1.00  0.00     0.006 A 
ENDBRANCH  63  80
ENDBRANCH  37  38
ENDBRANCH  30  32
ENDBRANCH  29  30
ENDBRANCH  28  29
ENDBRANCH  27  28
ENDBRANCH  26  27
ENDBRANCH  25  26
ENDBRANCH   1  25
TORSDOF 20
