REMARK SMILES Cc1cc(OC(F)(F)F)cc2c1O[C@@H](C(F)(F)F)C(C(=O)OCCOCCOCCOC(=O)c1ccc(-c3c4nc(c(-c5c(F)cccc5F)c5ccc([nH]5)c(-c5c(F)cccc5F)c5nc(c(-c6c(F)cccc6F)c6ccc3[nH]6)C=C5)C=C4)cc1)=C2
REMARK SMILES IDX 26 1 25 2 24 3 23 4 22 5 20 6 21 7 19 8 1 9 2 10 3 11 12 12
REMARK SMILES IDX 4 13 11 14 13 15 10 16 88 17 14 18 5 19 6 20 7 21 8 22 9 23
REMARK SMILES IDX 15 24 16 25 17 26 18 27 27 28 28 29 29 30 30 31 31 32 32 33
REMARK SMILES IDX 33 34 34 35 35 36 87 37 36 38 86 39 37 40 38 41 39 42 80 43
REMARK SMILES IDX 40 44 85 45 79 46 81 47 41 48 84 49 78 50 77 51 42 53 68 54
REMARK SMILES IDX 51 55 67 56 52 57 55 58 66 59 82 60 53 61 54 62 65 64 83 65
REMARK SMILES IDX 56 66 43 67 44 68 49 69 45 70 46 71 48 72 50 73 47 74 69 75
REMARK SMILES IDX 70 76 75 77 71 78 72 79 74 80 76 81 73 82 57 83 58 84 63 85
REMARK SMILES IDX 59 86 60 87 62 88 64 89 61 90
REMARK H PARENT 81 52 55 63
REMARK Flexibility Score: inf
ROOT
ATOM      1  C   UNL     1      -3.258  -2.443  -6.624  1.00  0.00     0.188 C 
ENDROOT
BRANCH   1   2
ATOM      2  O   UNL     1      -3.216  -3.452  -7.626  1.00  0.00    -0.376 OA
BRANCH   2   3
ATOM      3  C   UNL     1      -2.722  -4.747  -7.305  1.00  0.00     0.202 C 
BRANCH   3   4
ATOM      4  C   UNL     1      -1.323  -4.874  -6.679  1.00  0.00     0.261 C 
BRANCH   4   5
ATOM      5  O   UNL     1      -1.110  -4.104  -5.478  1.00  0.00    -0.460 OA
BRANCH   5   6
ATOM      6  C   UNL     1      -0.174  -3.132  -5.554  1.00  0.00     0.338 C 
ATOM      7  O   UNL     1       0.552  -2.907  -6.511  1.00  0.00    -0.246 OA
BRANCH   6   8
ATOM      8  C   UNL     1      -0.211  -2.251  -4.367  1.00  0.00     0.087 C 
ATOM      9  C   UNL     1       1.033  -0.165   0.150  1.00  0.00     0.048 C 
ATOM     10  C   UNL     1       0.615   0.347  -1.200  1.00  0.00    -0.005 A 
ATOM     11  C   UNL     1       0.576   1.736  -1.422  1.00  0.00     0.054 A 
ATOM     12  C   UNL     1       0.343  -0.525  -2.262  1.00  0.00     0.131 A 
ATOM     13  C   UNL     1       0.245   2.251  -2.676  1.00  0.00     0.130 A 
ATOM     14  C   UNL     1      -0.017  -0.017  -3.514  1.00  0.00     0.021 A 
ATOM     15  O   UNL     1       0.540  -1.866  -2.048  1.00  0.00    -0.475 OA
ATOM     16  C   UNL     1      -0.079   1.368  -3.711  1.00  0.00     0.058 A 
ATOM     17  C   UNL     1      -0.195  -0.935  -4.630  1.00  0.00     0.027 C 
ATOM     18  C   UNL     1      -0.093  -2.801  -2.970  1.00  0.00     0.316 C 
BRANCH  13  19
ATOM     19  O   UNL     1       0.216   3.573  -3.023  1.00  0.00    -0.406 OA
BRANCH  19  20
ATOM     20  C   UNL     1       0.795   4.503  -2.120  1.00  0.00     0.573 C 
ATOM     21  F   UNL     1       0.068   4.587  -0.985  1.00  0.00    -0.132 F 
ATOM     22  F   UNL     1       2.067   4.167  -1.815  1.00  0.00    -0.132 F 
ATOM     23  F   UNL     1       0.813   5.723  -2.700  1.00  0.00    -0.132 F 
ENDBRANCH  19  20
ENDBRANCH  13  19
BRANCH  18  24
ATOM     24  C   UNL     1      -1.396  -3.307  -2.322  1.00  0.00     0.430 C 
ATOM     25  F   UNL     1      -1.191  -3.643  -1.022  1.00  0.00    -0.167 F 
ATOM     26  F   UNL     1      -2.376  -2.374  -2.337  1.00  0.00    -0.167 F 
ATOM     27  F   UNL     1      -1.868  -4.417  -2.928  1.00  0.00    -0.167 F 
ENDBRANCH  18  24
ENDBRANCH   6   8
ENDBRANCH   5   6
ENDBRANCH   4   5
ENDBRANCH   3   4
ENDBRANCH   2   3
ENDBRANCH   1   2
BRANCH   1  28
ATOM     28  C   UNL     1      -3.672  -2.809  -5.186  1.00  0.00     0.188 C 
BRANCH  28  29
ATOM     29  O   UNL     1      -4.080  -4.147  -5.035  1.00  0.00    -0.376 OA
BRANCH  29  30
ATOM     30  C   UNL     1      -5.442  -4.394  -4.738  1.00  0.00     0.202 C 
BRANCH  30  31
ATOM     31  C   UNL     1      -6.537  -3.774  -5.623  1.00  0.00     0.261 C 
BRANCH  31  32
ATOM     32  O   UNL     1      -6.313  -2.437  -6.099  1.00  0.00    -0.460 OA
BRANCH  32  33
ATOM     33  C   UNL     1      -6.607  -1.412  -5.270  1.00  0.00     0.338 C 
ATOM     34  O   UNL     1      -7.037  -1.480  -4.129  1.00  0.00    -0.246 OA
BRANCH  33  35
ATOM     35  C   UNL     1      -6.144  -0.172  -5.928  1.00  0.00     0.060 A 
ATOM     36  C   UNL     1      -4.992   0.478  -5.457  1.00  0.00     0.016 A 
ATOM     37  C   UNL     1      -6.842   0.333  -7.026  1.00  0.00     0.016 A 
ATOM     38  C   UNL     1      -4.531   1.633  -6.091  1.00  0.00     0.010 A 
ATOM     39  C   UNL     1      -6.405   1.513  -7.631  1.00  0.00     0.010 A 
ATOM     40  C   UNL     1      -5.261   2.179  -7.154  1.00  0.00    -0.014 A 
BRANCH  40  41
ATOM     41  C   UNL     1      -4.986   3.562  -7.607  1.00  0.00     0.031 A 
ATOM     42  C   UNL     1      -5.727   4.679  -6.926  1.00  0.00     0.074 A 
ATOM     43  C   UNL     1      -4.122   3.829  -8.600  1.00  0.00     0.049 A 
ATOM     44  N   UNL     1      -5.743   5.958  -7.197  1.00  0.00    -0.248 NA
ATOM     45  C   UNL     1      -6.569   4.292  -5.782  1.00  0.00     0.031 C 
ATOM     46  C   UNL     1      -3.297   2.846  -9.298  1.00  0.00     0.029 A 
ATOM     47  N   UNL     1      -3.811   5.023  -9.203  1.00  0.00    -0.354 N 
ATOM     48  C   UNL     1      -6.592   6.527  -6.257  1.00  0.00     0.074 A 
ATOM     49  C   UNL     1      -7.098   5.452  -5.432  1.00  0.00     0.031 C 
ATOM     50  C   UNL     1      -2.586   3.476 -10.251  1.00  0.00     0.029 A 
ATOM     51  C   UNL     1      -2.937   4.896 -10.254  1.00  0.00     0.049 A 
ATOM     52  H   UNL     1      -4.179   5.887  -8.909  1.00  0.00     0.167 HD
ATOM     53  C   UNL     1      -6.923   7.830  -6.092  1.00  0.00     0.037 A 
ATOM     54  C   UNL     1      -2.501   5.820 -11.133  1.00  0.00     0.037 A 
ATOM     55  C   UNL     1      -6.457   8.892  -6.943  1.00  0.00     0.049 A 
ATOM     56  C   UNL     1      -2.990   7.242 -11.016  1.00  0.00     0.074 A 
ATOM     57  C   UNL     1      -6.746  10.243  -6.875  1.00  0.00     0.029 A 
ATOM     58  N   UNL     1      -5.620   8.716  -8.035  1.00  0.00    -0.354 N 
ATOM     59  N   UNL     1      -3.782   7.779 -10.118  1.00  0.00    -0.248 NA
ATOM     60  C   UNL     1      -2.525   8.187 -12.042  1.00  0.00     0.031 C 
ATOM     61  C   UNL     1      -6.132  10.875  -7.962  1.00  0.00     0.029 A 
ATOM     62  C   UNL     1      -5.405   9.929  -8.667  1.00  0.00     0.049 A 
ATOM     63  H   UNL     1      -5.234   7.855  -8.318  1.00  0.00     0.167 HD
ATOM     64  C   UNL     1      -3.878   9.127 -10.449  1.00  0.00     0.074 A 
ATOM     65  C   UNL     1      -3.054   9.327 -11.623  1.00  0.00     0.031 C 
ATOM     66  C   UNL     1      -4.579  10.114  -9.834  1.00  0.00     0.037 A 
BRANCH  53  67
ATOM     67  C   UNL     1      -7.873   8.152  -4.976  1.00  0.00     0.057 A 
ATOM     68  C   UNL     1      -9.180   8.573  -5.250  1.00  0.00     0.134 A 
ATOM     69  C   UNL     1      -7.505   8.023  -3.629  1.00  0.00     0.134 A 
ATOM     70  F   UNL     1      -9.598   8.718  -6.516  1.00  0.00    -0.206 F 
ATOM     71  C   UNL     1     -10.089   8.845  -4.227  1.00  0.00     0.040 A 
ATOM     72  C   UNL     1      -8.415   8.262  -2.598  1.00  0.00     0.040 A 
ATOM     73  F   UNL     1      -6.275   7.604  -3.297  1.00  0.00    -0.206 F 
ATOM     74  C   UNL     1      -9.711   8.678  -2.896  1.00  0.00     0.006 A 
ENDBRANCH  53  67
BRANCH  54  75
ATOM     75  C   UNL     1      -1.563   5.442 -12.223  1.00  0.00     0.057 A 
ATOM     76  C   UNL     1      -1.963   4.621 -13.284  1.00  0.00     0.134 A 
ATOM     77  C   UNL     1      -0.257   5.946 -12.257  1.00  0.00     0.134 A 
ATOM     78  F   UNL     1      -3.203   4.111 -13.316  1.00  0.00    -0.206 F 
ATOM     79  C   UNL     1      -1.099   4.312 -14.336  1.00  0.00     0.040 A 
ATOM     80  C   UNL     1       0.609   5.668 -13.317  1.00  0.00     0.040 A 
ATOM     81  F   UNL     1       0.177   6.762 -11.285  1.00  0.00    -0.206 F 
ATOM     82  C   UNL     1       0.188   4.845 -14.360  1.00  0.00     0.006 A 
ENDBRANCH  54  75
BRANCH  66  83
ATOM     83  C   UNL     1      -4.443  11.505 -10.388  1.00  0.00     0.057 A 
ATOM     84  C   UNL     1      -3.777  12.498  -9.656  1.00  0.00     0.134 A 
ATOM     85  C   UNL     1      -4.988  11.874 -11.625  1.00  0.00     0.134 A 
ATOM     86  F   UNL     1      -3.242  12.219  -8.458  1.00  0.00    -0.206 F 
ATOM     87  C   UNL     1      -3.658  13.804 -10.134  1.00  0.00     0.040 A 
ATOM     88  C   UNL     1      -4.845  13.169 -12.128  1.00  0.00     0.040 A 
ATOM     89  F   UNL     1      -5.628  10.971 -12.383  1.00  0.00    -0.206 F 
ATOM     90  C   UNL     1      -4.184  14.140 -11.379  1.00  0.00     0.006 A 
ENDBRANCH  66  83
ENDBRANCH  40  41
ENDBRANCH  33  35
ENDBRANCH  32  33
ENDBRANCH  31  32
ENDBRANCH  30  31
ENDBRANCH  29  30
ENDBRANCH  28  29
ENDBRANCH   1  28
TORSDOF 20
