REMARK SMILES O=C(OCCOCCOCCOC(=O)[C@H]1CC[C@@H]2CCCC[C@@H]2N1C(=O)NC1CC1)c1ccc(-c2c3nc(c(-c4c(F)cccc4F)c4ccc([nH]4)c(-c4c(F)cccc4F)c4nc(c(-c5c(F)cccc5F)c5ccc2[nH]5)C=C4)C=C3)cc1
REMARK SMILES IDX 7 1 6 2 5 3 4 4 3 5 2 6 1 7 31 8 32 9 84 10 33 11 83 12
REMARK SMILES IDX 34 13 35 14 36 15 77 16 37 17 82 18 76 19 78 20 38 21 81 22
REMARK SMILES IDX 75 23 74 24 39 26 65 27 48 28 64 29 49 30 52 31 63 32 79 33
REMARK SMILES IDX 50 34 51 35 62 37 80 38 53 39 40 40 41 41 46 42 42 43 43 44
REMARK SMILES IDX 45 45 47 46 44 47 66 48 67 49 72 50 68 51 69 52 71 53 73 54
REMARK SMILES IDX 70 55 54 56 55 57 60 58 56 59 57 60 59 61 61 62 58 63 8 64
REMARK SMILES IDX 9 65 10 66 11 67 12 68 13 69 14 70 15 71 16 72 24 73 17 74
REMARK SMILES IDX 23 75 18 76 22 77 19 78 21 79 20 80 25 81 26 82 27 83 28 85
REMARK SMILES IDX 29 86 30 87
REMARK H PARENT 78 25 52 36 27 84
REMARK Flexibility Score: inf
ROOT
ATOM      1  C   UNL     1       7.139  -1.356  -4.317  1.00  0.00     0.188 C 
ENDROOT
BRANCH   1   2
ATOM      2  O   UNL     1       6.254  -0.895  -5.349  1.00  0.00    -0.376 OA
BRANCH   2   3
ATOM      3  C   UNL     1       6.890  -0.066  -6.331  1.00  0.00     0.202 C 
BRANCH   3   4
ATOM      4  C   UNL     1       7.230   1.363  -5.882  1.00  0.00     0.261 C 
BRANCH   4   5
ATOM      5  O   UNL     1       7.427   1.497  -4.468  1.00  0.00    -0.460 OA
BRANCH   5   6
ATOM      6  C   UNL     1       6.503   1.588  -3.482  1.00  0.00     0.338 C 
ATOM      7  O   UNL     1       6.905   1.574  -2.319  1.00  0.00    -0.246 OA
BRANCH   6   8
ATOM      8  C   UNL     1       5.025   1.714  -3.704  1.00  0.00     0.060 A 
ATOM      9  C   UNL     1       4.333   1.454  -4.890  1.00  0.00     0.016 A 
ATOM     10  C   UNL     1       4.270   2.127  -2.592  1.00  0.00     0.016 A 
ATOM     11  C   UNL     1       2.967   1.696  -5.016  1.00  0.00     0.010 A 
ATOM     12  C   UNL     1       2.895   2.349  -2.697  1.00  0.00     0.010 A 
ATOM     13  C   UNL     1       2.251   2.186  -3.933  1.00  0.00    -0.014 A 
BRANCH  13  14
ATOM     14  C   UNL     1       0.912   2.767  -4.142  1.00  0.00     0.031 A 
ATOM     15  C   UNL     1       0.817   4.258  -4.153  1.00  0.00     0.074 A 
ATOM     16  C   UNL     1      -0.176   2.022  -4.396  1.00  0.00     0.049 A 
ATOM     17  N   UNL     1      -0.242   5.015  -4.185  1.00  0.00    -0.248 NA
ATOM     18  C   UNL     1       2.094   4.993  -4.196  1.00  0.00     0.031 C 
ATOM     19  C   UNL     1      -0.178   0.598  -4.690  1.00  0.00     0.029 A 
ATOM     20  N   UNL     1      -1.506   2.355  -4.394  1.00  0.00    -0.354 N 
ATOM     21  C   UNL     1       0.238   6.309  -4.299  1.00  0.00     0.074 A 
ATOM     22  C   UNL     1       1.680   6.247  -4.251  1.00  0.00     0.031 C 
ATOM     23  C   UNL     1      -1.440   0.140  -4.671  1.00  0.00     0.029 A 
ATOM     24  C   UNL     1      -2.321   1.246  -4.360  1.00  0.00     0.049 A 
ATOM     25  H   UNL     1      -1.839   3.281  -4.414  1.00  0.00     0.167 HD
ATOM     26  C   UNL     1      -0.478   7.441  -4.469  1.00  0.00     0.037 A 
ATOM     27  C   UNL     1      -3.622   1.141  -4.044  1.00  0.00     0.037 A 
ATOM     28  C   UNL     1      -1.915   7.461  -4.474  1.00  0.00     0.049 A 
ATOM     29  C   UNL     1      -4.396   2.408  -3.910  1.00  0.00     0.074 A 
ATOM     30  C   UNL     1      -2.767   8.537  -4.615  1.00  0.00     0.029 A 
ATOM     31  N   UNL     1      -2.711   6.333  -4.300  1.00  0.00    -0.354 N 
ATOM     32  N   UNL     1      -3.954   3.639  -3.986  1.00  0.00    -0.248 NA
ATOM     33  C   UNL     1      -5.845   2.282  -3.740  1.00  0.00     0.031 C 
ATOM     34  C   UNL     1      -4.077   8.071  -4.453  1.00  0.00     0.029 A 
ATOM     35  C   UNL     1      -4.046   6.695  -4.276  1.00  0.00     0.049 A 
ATOM     36  H   UNL     1      -2.374   5.413  -4.207  1.00  0.00     0.167 HD
ATOM     37  C   UNL     1      -5.077   4.443  -3.956  1.00  0.00     0.074 A 
ATOM     38  C   UNL     1      -6.217   3.554  -3.804  1.00  0.00     0.031 C 
ATOM     39  C   UNL     1      -5.156   5.789  -4.098  1.00  0.00     0.037 A 
BRANCH  26  40
ATOM     40  C   UNL     1       0.304   8.713  -4.589  1.00  0.00     0.057 A 
ATOM     41  C   UNL     1       1.112   8.992  -5.702  1.00  0.00     0.134 A 
ATOM     42  C   UNL     1       0.317   9.633  -3.536  1.00  0.00     0.134 A 
ATOM     43  F   UNL     1       1.175   8.132  -6.731  1.00  0.00    -0.206 F 
ATOM     44  C   UNL     1       1.934  10.120  -5.743  1.00  0.00     0.040 A 
ATOM     45  C   UNL     1       1.113  10.778  -3.577  1.00  0.00     0.040 A 
ATOM     46  F   UNL     1      -0.421   9.419  -2.436  1.00  0.00    -0.206 F 
ATOM     47  C   UNL     1       1.935  11.018  -4.677  1.00  0.00     0.006 A 
ENDBRANCH  26  40
BRANCH  27  48
ATOM     48  C   UNL     1      -4.231  -0.187  -3.805  1.00  0.00     0.057 A 
ATOM     49  C   UNL     1      -4.891  -0.897  -4.810  1.00  0.00     0.134 A 
ATOM     50  C   UNL     1      -4.125  -0.794  -2.547  1.00  0.00     0.134 A 
ATOM     51  F   UNL     1      -5.041  -0.357  -6.028  1.00  0.00    -0.206 F 
ATOM     52  C   UNL     1      -5.415  -2.172  -4.577  1.00  0.00     0.040 A 
ATOM     53  C   UNL     1      -4.633  -2.072  -2.303  1.00  0.00     0.040 A 
ATOM     54  F   UNL     1      -3.516  -0.153  -1.538  1.00  0.00    -0.206 F 
ATOM     55  C   UNL     1      -5.278  -2.766  -3.323  1.00  0.00     0.006 A 
ENDBRANCH  27  48
BRANCH  39  56
ATOM     56  C   UNL     1      -6.532   6.369  -4.144  1.00  0.00     0.057 A 
ATOM     57  C   UNL     1      -7.333   6.467  -3.003  1.00  0.00     0.134 A 
ATOM     58  C   UNL     1      -7.043   6.865  -5.351  1.00  0.00     0.134 A 
ATOM     59  F   UNL     1      -6.905   5.985  -1.826  1.00  0.00    -0.206 F 
ATOM     60  C   UNL     1      -8.608   7.028  -3.062  1.00  0.00     0.040 A 
ATOM     61  C   UNL     1      -8.301   7.456  -5.416  1.00  0.00     0.040 A 
ATOM     62  F   UNL     1      -6.318   6.796  -6.478  1.00  0.00    -0.206 F 
ATOM     63  C   UNL     1      -9.090   7.534  -4.270  1.00  0.00     0.006 A 
ENDBRANCH  39  56
ENDBRANCH  13  14
ENDBRANCH   6   8
ENDBRANCH   5   6
ENDBRANCH   4   5
ENDBRANCH   3   4
ENDBRANCH   2   3
ENDBRANCH   1   2
BRANCH   1  64
ATOM     64  C   UNL     1       7.035  -2.852  -4.013  1.00  0.00     0.188 C 
BRANCH  64  65
ATOM     65  O   UNL     1       7.399  -3.747  -5.054  1.00  0.00    -0.376 OA
BRANCH  65  66
ATOM     66  C   UNL     1       6.764  -3.551  -6.300  1.00  0.00     0.202 C 
BRANCH  66  67
ATOM     67  C   UNL     1       5.244  -3.701  -6.385  1.00  0.00     0.261 C 
BRANCH  67  68
ATOM     68  O   UNL     1       4.389  -3.115  -5.382  1.00  0.00    -0.462 OA
BRANCH  68  69
ATOM     69  C   UNL     1       3.833  -3.983  -4.476  1.00  0.00     0.329 C 
ATOM     70  O   UNL     1       4.229  -5.126  -4.298  1.00  0.00    -0.250 OA
BRANCH  69  71
ATOM     71  C   UNL     1       2.631  -3.383  -3.714  1.00  0.00     0.197 C 
ATOM     72  C   UNL     1       2.547  -1.848  -3.711  1.00  0.00     0.038 C 
ATOM     73  N   UNL     1       1.254  -3.996  -3.697  1.00  0.00    -0.308 N 
ATOM     74  C   UNL     1       1.677  -1.357  -2.538  1.00  0.00     0.008 C 
ATOM     75  C   UNL     1       0.432  -3.560  -2.520  1.00  0.00     0.091 C 
ATOM     76  C   UNL     1       0.302  -2.036  -2.556  1.00  0.00     0.012 C 
ATOM     77  C   UNL     1       0.890  -4.097  -1.158  1.00  0.00     0.025 C 
ATOM     78  C   UNL     1      -0.634  -1.558  -1.449  1.00  0.00     0.006 C 
ATOM     79  C   UNL     1       0.243  -3.418   0.062  1.00  0.00     0.002 C 
ATOM     80  C   UNL     1      -0.138  -1.943  -0.068  1.00  0.00     0.000 C 
BRANCH  73  81
ATOM     81  C   UNL     1       0.494  -4.514  -4.719  1.00  0.00     0.318 C 
ATOM     82  O   UNL     1      -0.726  -4.704  -4.592  1.00  0.00    -0.249 OA
ATOM     83  N   UNL     1       0.924  -4.896  -5.930  1.00  0.00    -0.335 N 
ATOM     84  H   UNL     1       0.190  -5.297  -6.450  1.00  0.00     0.165 HD
BRANCH  83  85
ATOM     85  C   UNL     1       2.118  -4.891  -6.674  1.00  0.00     0.084 C 
ATOM     86  C   UNL     1       2.134  -5.378  -8.105  1.00  0.00     0.027 C 
ATOM     87  C   UNL     1       2.243  -3.918  -7.821  1.00  0.00     0.027 C 
ENDBRANCH  83  85
ENDBRANCH  73  81
ENDBRANCH  69  71
ENDBRANCH  68  69
ENDBRANCH  67  68
ENDBRANCH  66  67
ENDBRANCH  65  66
ENDBRANCH  64  65
ENDBRANCH   1  64
TORSDOF 19
