REMARK SMILES O=C(CSc1nnc2sc3ccccc3n12)N[C@H](Cc1c[nH]c2ccccc12)C(=O)OCCOCCOCCOC(=O)c1ccc(-c2c3nc(c(-c4c(F)cccc4F)c4ccc([nH]4)c(-c4c(F)cccc4F)c4nc(c(-c5c(F)cccc5F)c5ccc2[nH]5)C=C4)C=C3)cc1
REMARK SMILES IDX 35 1 34 2 33 3 32 4 31 5 29 6 30 7 18 8 17 9 1 10 2 11 3 13
REMARK SMILES IDX 4 14 5 15 6 16 16 17 7 18 8 19 15 20 9 21 10 22 14 23 11 24
REMARK SMILES IDX 13 25 12 26 19 27 20 28 21 29 28 30 22 31 23 32 27 33 24 35
REMARK SMILES IDX 26 36 25 37 36 38 37 39 38 40 39 41 40 42 41 43 42 44 43 45
REMARK SMILES IDX 44 46 96 47 45 48 95 49 46 50 47 51 48 52 89 53 49 54 94 55
REMARK SMILES IDX 88 56 90 57 50 58 93 59 87 60 86 61 51 63 77 64 60 65 76 66
REMARK SMILES IDX 61 67 64 68 75 69 91 70 62 71 63 72 74 74 92 75 65 76 52 77
REMARK SMILES IDX 53 78 58 79 54 80 55 81 57 82 59 83 56 84 78 85 79 86 84 87
REMARK SMILES IDX 80 88 81 89 83 90 85 91 82 92 66 93 67 94 72 95 68 96 69 97
REMARK SMILES IDX 71 98 73 99 70 100
REMARK H PARENT 17 12 22 34 90 62 64 73
REMARK Flexibility Score: inf
ROOT
ATOM      1  C   UNL     1       2.384   3.634  -3.336  1.00  0.00     0.188 C 
ENDROOT
BRANCH   1   2
ATOM      2  O   UNL     1       3.165   4.625  -3.965  1.00  0.00    -0.376 OA
BRANCH   2   3
ATOM      3  C   UNL     1       4.373   5.046  -3.342  1.00  0.00     0.202 C 
BRANCH   3   4
ATOM      4  C   UNL     1       4.408   5.205  -1.816  1.00  0.00     0.261 C 
BRANCH   4   5
ATOM      5  O   UNL     1       4.455   3.941  -1.096  1.00  0.00    -0.462 OA
BRANCH   5   6
ATOM      6  C   UNL     1       3.605   3.861  -0.051  1.00  0.00     0.329 C 
ATOM      7  O   UNL     1       2.952   4.840   0.336  1.00  0.00    -0.250 OA
BRANCH   6   8
ATOM      8  C   UNL     1       3.386   2.486   0.671  1.00  0.00     0.196 C 
BRANCH   8   9
ATOM      9  N   UNL     1       3.483   2.987   2.030  1.00  0.00    -0.342 N 
ATOM     10  O   UNL     1       5.149   1.685   2.941  1.00  0.00    -0.274 OA
ATOM     11  C   UNL     1       4.343   2.601   3.008  1.00  0.00     0.231 C 
ATOM     12  H   UNL     1       2.845   3.696   2.274  1.00  0.00     0.164 HD
BRANCH  11  13
ATOM     13  C   UNL     1       4.181   3.453   4.239  1.00  0.00     0.178 C 
BRANCH  13  14
ATOM     14  S   UNL     1       5.334   4.855   4.085  1.00  0.00    -0.076 SA
BRANCH  14  15
ATOM     15  C   UNL     1       6.787   3.922   4.009  1.00  0.00     0.197 A 
ATOM     16  N   UNL     1       7.528   3.720   2.935  1.00  0.00    -0.122 NA
ATOM     17  N   UNL     1       7.208   3.103   5.011  1.00  0.00    -0.260 N 
ATOM     18  N   UNL     1       8.454   2.716   3.235  1.00  0.00    -0.118 NA
ATOM     19  C   UNL     1       8.213   2.363   4.470  1.00  0.00     0.217 A 
ATOM     20  C   UNL     1       6.901   2.846   6.345  1.00  0.00     0.068 A 
ATOM     21  S   UNL     1       8.899   1.236   5.589  1.00  0.00    -0.094 S 
ATOM     22  C   UNL     1       7.754   1.848   6.834  1.00  0.00     0.055 A 
ATOM     23  C   UNL     1       5.942   3.458   7.138  1.00  0.00     0.028 A 
ATOM     24  C   UNL     1       7.669   1.464   8.161  1.00  0.00     0.021 A 
ATOM     25  C   UNL     1       5.834   3.045   8.463  1.00  0.00     0.002 A 
ATOM     26  C   UNL     1       6.701   2.069   8.975  1.00  0.00     0.002 A 
ENDBRANCH  14  15
ENDBRANCH  13  14
ENDBRANCH  11  13
ENDBRANCH   8   9
BRANCH   8  27
ATOM     27  C   UNL     1       3.996   1.116   0.370  1.00  0.00     0.074 C 
BRANCH  27  28
ATOM     28  C   UNL     1       3.365  -0.143   1.038  1.00  0.00    -0.020 A 
ATOM     29  C   UNL     1       3.396  -1.398   0.440  1.00  0.00     0.087 A 
ATOM     30  C   UNL     1       2.807  -0.385   2.359  1.00  0.00     0.003 A 
ATOM     31  N   UNL     1       3.066  -2.351   1.367  1.00  0.00    -0.361 N 
ATOM     32  C   UNL     1       2.830  -1.765   2.582  1.00  0.00     0.046 A 
ATOM     33  C   UNL     1       2.372   0.395   3.448  1.00  0.00     0.010 A 
ATOM     34  H   UNL     1       3.007  -3.317   1.186  1.00  0.00     0.166 HD
ATOM     35  C   UNL     1       2.652  -2.350   3.848  1.00  0.00     0.026 A 
ATOM     36  C   UNL     1       2.270  -0.149   4.732  1.00  0.00     0.001 A 
ATOM     37  C   UNL     1       2.434  -1.506   4.936  1.00  0.00     0.002 A 
ENDBRANCH  27  28
ENDBRANCH   8  27
ENDBRANCH   6   8
ENDBRANCH   5   6
ENDBRANCH   4   5
ENDBRANCH   3   4
ENDBRANCH   2   3
ENDBRANCH   1   2
BRANCH   1  38
ATOM     38  C   UNL     1       3.079   2.379  -2.821  1.00  0.00     0.188 C 
BRANCH  38  39
ATOM     39  O   UNL     1       4.385   2.040  -3.194  1.00  0.00    -0.376 OA
BRANCH  39  40
ATOM     40  C   UNL     1       4.606   1.681  -4.547  1.00  0.00     0.202 C 
BRANCH  40  41
ATOM     41  C   UNL     1       3.537   0.953  -5.412  1.00  0.00     0.261 C 
BRANCH  41  42
ATOM     42  O   UNL     1       2.160   1.046  -4.979  1.00  0.00    -0.460 OA
BRANCH  42  43
ATOM     43  C   UNL     1       1.578  -0.079  -4.464  1.00  0.00     0.338 C 
ATOM     44  O   UNL     1       1.958  -1.229  -4.643  1.00  0.00    -0.246 OA
BRANCH  43  45
ATOM     45  C   UNL     1       0.662   0.325  -3.337  1.00  0.00     0.060 A 
ATOM     46  C   UNL     1      -0.145   1.467  -3.393  1.00  0.00     0.016 A 
ATOM     47  C   UNL     1       0.915  -0.256  -2.082  1.00  0.00     0.016 A 
ATOM     48  C   UNL     1      -0.604   2.066  -2.200  1.00  0.00     0.010 A 
ATOM     49  C   UNL     1       0.457   0.349  -0.896  1.00  0.00     0.010 A 
ATOM     50  C   UNL     1      -0.278   1.541  -0.929  1.00  0.00    -0.014 A 
BRANCH  50  51
ATOM     51  C   UNL     1      -1.069   1.937   0.273  1.00  0.00     0.031 A 
ATOM     52  C   UNL     1      -2.480   1.603   0.051  1.00  0.00     0.074 A 
ATOM     53  C   UNL     1      -0.783   2.534   1.461  1.00  0.00     0.049 A 
ATOM     54  N   UNL     1      -3.364   2.500  -0.231  1.00  0.00    -0.248 NA
ATOM     55  C   UNL     1      -2.928   0.221  -0.112  1.00  0.00     0.031 C 
ATOM     56  C   UNL     1       0.440   3.205   1.829  1.00  0.00     0.029 A 
ATOM     57  N   UNL     1      -1.536   2.717   2.617  1.00  0.00    -0.354 N 
ATOM     58  C   UNL     1      -4.555   1.813  -0.314  1.00  0.00     0.074 A 
ATOM     59  C   UNL     1      -4.205   0.422  -0.453  1.00  0.00     0.031 C 
ATOM     60  C   UNL     1       0.482   3.467   3.155  1.00  0.00     0.029 A 
ATOM     61  C   UNL     1      -0.787   3.078   3.748  1.00  0.00     0.049 A 
ATOM     62  H   UNL     1      -2.514   2.603   2.639  1.00  0.00     0.167 HD
ATOM     63  C   UNL     1      -5.679   2.438   0.119  1.00  0.00     0.037 A 
ATOM     64  C   UNL     1      -1.147   3.560   4.971  1.00  0.00     0.037 A 
ATOM     65  C   UNL     1      -5.488   3.873   0.195  1.00  0.00     0.049 A 
ATOM     66  C   UNL     1      -2.370   4.346   4.819  1.00  0.00     0.074 A 
ATOM     67  C   UNL     1      -5.457   4.948  -0.669  1.00  0.00     0.029 A 
ATOM     68  N   UNL     1      -4.917   4.294   1.364  1.00  0.00    -0.354 N 
ATOM     69  N   UNL     1      -2.384   5.526   4.273  1.00  0.00    -0.248 NA
ATOM     70  C   UNL     1      -3.655   3.678   4.954  1.00  0.00     0.031 C 
ATOM     71  C   UNL     1      -4.808   6.020   0.020  1.00  0.00     0.029 A 
ATOM     72  C   UNL     1      -4.481   5.590   1.298  1.00  0.00     0.049 A 
ATOM     73  H   UNL     1      -4.828   3.728   2.164  1.00  0.00     0.167 HD
ATOM     74  C   UNL     1      -3.570   5.527   3.575  1.00  0.00     0.074 A 
ATOM     75  C   UNL     1      -4.383   4.470   4.166  1.00  0.00     0.031 C 
ATOM     76  C   UNL     1      -3.647   6.112   2.350  1.00  0.00     0.037 A 
BRANCH  63  77
ATOM     77  C   UNL     1      -6.701   1.755   1.001  1.00  0.00     0.057 A 
ATOM     78  C   UNL     1      -6.467   0.580   1.747  1.00  0.00     0.134 A 
ATOM     79  C   UNL     1      -7.846   2.479   1.376  1.00  0.00     0.134 A 
ATOM     80  F   UNL     1      -5.385  -0.186   1.579  1.00  0.00    -0.206 F 
ATOM     81  C   UNL     1      -7.288   0.173   2.800  1.00  0.00     0.040 A 
ATOM     82  C   UNL     1      -8.649   2.103   2.459  1.00  0.00     0.040 A 
ATOM     83  F   UNL     1      -8.172   3.622   0.753  1.00  0.00    -0.206 F 
ATOM     84  C   UNL     1      -8.366   0.952   3.181  1.00  0.00     0.006 A 
ENDBRANCH  63  77
BRANCH  64  85
ATOM     85  C   UNL     1      -0.631   3.185   6.312  1.00  0.00     0.057 A 
ATOM     86  C   UNL     1      -0.217   1.871   6.563  1.00  0.00     0.134 A 
ATOM     87  C   UNL     1      -0.760   4.006   7.443  1.00  0.00     0.134 A 
ATOM     88  F   UNL     1      -0.209   0.975   5.569  1.00  0.00    -0.206 F 
ATOM     89  C   UNL     1       0.099   1.405   7.847  1.00  0.00     0.040 A 
ATOM     90  C   UNL     1      -0.477   3.548   8.741  1.00  0.00     0.040 A 
ATOM     91  F   UNL     1      -1.218   5.261   7.324  1.00  0.00    -0.206 F 
ATOM     92  C   UNL     1      -0.040   2.243   8.946  1.00  0.00     0.006 A 
ENDBRANCH  64  85
BRANCH  76  93
ATOM     93  C   UNL     1      -2.721   7.250   2.076  1.00  0.00     0.057 A 
ATOM     94  C   UNL     1      -3.269   8.533   1.996  1.00  0.00     0.134 A 
ATOM     95  C   UNL     1      -1.341   7.130   1.870  1.00  0.00     0.134 A 
ATOM     96  F   UNL     1      -4.588   8.714   2.171  1.00  0.00    -0.206 F 
ATOM     97  C   UNL     1      -2.486   9.654   1.719  1.00  0.00     0.040 A 
ATOM     98  C   UNL     1      -0.539   8.248   1.613  1.00  0.00     0.040 A 
ATOM     99  F   UNL     1      -0.741   5.933   1.890  1.00  0.00    -0.206 F 
ATOM    100  C   UNL     1      -1.114   9.514   1.532  1.00  0.00     0.006 A 
ENDBRANCH  76  93
ENDBRANCH  50  51
ENDBRANCH  43  45
ENDBRANCH  42  43
ENDBRANCH  41  42
ENDBRANCH  40  41
ENDBRANCH  39  40
ENDBRANCH  38  39
ENDBRANCH   1  38
TORSDOF 23
