REMARK SMILES C[C@@H]1C[C@H](C)C[C@H]([N@@H+]2[C@H](C(=O)OCCOCCOCCOC(=O)c3ccc(-c4c5nc(c(-c6c(F)cccc6F)c6ccc([nH]6)c(-c6c(F)cccc6F)c6nc(c(-c7c(F)cccc7F)c7ccc4[nH]7)C=C6)C=C5)cc3)CC[C@@H]3CCCC[C@@H]32)C1
REMARK SMILES IDX 17 1 16 2 15 3 14 4 13 5 12 6 10 7 11 8 9 9 8 10 85 11 78 13
REMARK SMILES IDX 80 14 84 15 79 16 81 17 83 18 82 19 7 20 5 21 4 22 6 23 3 24
REMARK SMILES IDX 2 25 86 26 1 27 18 28 19 29 20 30 21 31 22 32 23 33 24 34
REMARK SMILES IDX 25 35 77 36 26 37 76 38 27 39 28 40 29 41 70 42 30 43 75 44
REMARK SMILES IDX 69 45 71 46 31 47 74 48 68 49 67 50 32 52 58 53 41 54 57 55
REMARK SMILES IDX 42 56 45 57 56 58 72 59 43 60 44 61 55 63 73 64 46 65 33 66
REMARK SMILES IDX 34 67 39 68 35 69 36 70 38 71 40 72 37 73 59 74 60 75 65 76
REMARK SMILES IDX 61 77 62 78 64 79 66 80 63 81 47 82 48 83 53 84 49 85 50 86
REMARK SMILES IDX 52 87 54 88 51 89
REMARK H PARENT 8 12 71 51 45 62
REMARK Flexibility Score: inf
ROOT
ATOM      1  C   UNL     1       6.444   1.525  -1.244  1.00  0.00     0.188 C 
ENDROOT
BRANCH   1   2
ATOM      2  C   UNL     1       6.797   1.080   0.183  1.00  0.00     0.188 C 
BRANCH   2   3
ATOM      3  O   UNL     1       7.911   0.216   0.396  1.00  0.00    -0.376 OA
BRANCH   3   4
ATOM      4  C   UNL     1       8.275  -0.667  -0.655  1.00  0.00     0.202 C 
BRANCH   4   5
ATOM      5  C   UNL     1       7.242  -1.740  -0.989  1.00  0.00     0.261 C 
BRANCH   5   6
ATOM      6  O   UNL     1       5.886  -1.242  -1.093  1.00  0.00    -0.459 OA
BRANCH   6   7
ATOM      7  C   UNL     1       4.969  -2.130  -0.677  1.00  0.00     0.365 C 
ATOM      8  O   UNL     1       5.282  -3.292  -0.388  1.00  0.00    -0.245 OA
BRANCH   7   9
ATOM      9  C   UNL     1       3.531  -1.689  -0.436  1.00  0.00     0.295 C 
ATOM     10  N   UNL     1       2.898  -0.300  -0.487  1.00  0.00    -0.318 N 
ATOM     11  C   UNL     1       1.792  -0.385   0.557  1.00  0.00     0.188 C 
ATOM     12  H   UNL     1       3.524   0.466  -0.239  1.00  0.00     0.349 HD
ATOM     13  C   UNL     1       2.579  -2.748  -0.971  1.00  0.00     0.078 C 
ATOM     14  C   UNL     1       0.919  -1.685   0.656  1.00  0.00     0.048 C 
ATOM     15  C   UNL     1       1.033   0.881   0.978  1.00  0.00     0.065 C 
ATOM     16  C   UNL     1       1.532  -2.981   0.094  1.00  0.00     0.016 C 
ATOM     17  C   UNL     1      -0.499  -1.522   0.143  1.00  0.00     0.010 C 
ATOM     18  C   UNL     1      -0.449   0.760   1.368  1.00  0.00     0.006 C 
ATOM     19  C   UNL     1      -1.260  -0.432   0.870  1.00  0.00     0.001 C 
BRANCH  10  20
ATOM     20  C   UNL     1       2.631   0.261  -1.872  1.00  0.00     0.185 C 
ATOM     21  C   UNL     1      -0.714   1.311  -2.054  1.00  0.00     0.008 C 
ATOM     22  C   UNL     1       0.385   1.114  -3.080  1.00  0.00    -0.008 C 
ATOM     23  C   UNL     1       1.373  -0.021  -2.731  1.00  0.00     0.068 C 
ATOM     24  C   UNL     1       1.055   2.438  -3.433  1.00  0.00     0.007 C 
ATOM     25  C   UNL     1       2.162   2.871  -2.477  1.00  0.00    -0.008 C 
ATOM     26  C   UNL     1       3.120   1.723  -2.096  1.00  0.00     0.068 C 
ATOM     27  C   UNL     1       1.663   3.718  -1.301  1.00  0.00     0.008 C 
ENDBRANCH  10  20
ENDBRANCH   7   9
ENDBRANCH   6   7
ENDBRANCH   5   6
ENDBRANCH   4   5
ENDBRANCH   3   4
ENDBRANCH   2   3
ENDBRANCH   1   2
BRANCH   1  28
ATOM     28  O   UNL     1       7.580   1.731  -2.071  1.00  0.00    -0.376 OA
BRANCH  28  29
ATOM     29  C   UNL     1       7.461   2.873  -2.908  1.00  0.00     0.202 C 
BRANCH  29  30
ATOM     30  C   UNL     1       8.059   4.079  -2.180  1.00  0.00     0.261 C 
BRANCH  30  31
ATOM     31  O   UNL     1       7.408   4.373  -0.923  1.00  0.00    -0.460 OA
BRANCH  31  32
ATOM     32  C   UNL     1       6.212   4.982  -1.007  1.00  0.00     0.338 C 
ATOM     33  O   UNL     1       5.630   5.325  -2.038  1.00  0.00    -0.246 OA
BRANCH  32  34
ATOM     34  C   UNL     1       5.596   5.053   0.327  1.00  0.00     0.060 A 
ATOM     35  C   UNL     1       4.575   4.155   0.639  1.00  0.00     0.016 A 
ATOM     36  C   UNL     1       5.927   6.058   1.229  1.00  0.00     0.016 A 
ATOM     37  C   UNL     1       3.834   4.278   1.808  1.00  0.00     0.010 A 
ATOM     38  C   UNL     1       5.195   6.177   2.419  1.00  0.00     0.010 A 
ATOM     39  C   UNL     1       4.120   5.310   2.700  1.00  0.00    -0.014 A 
BRANCH  39  40
ATOM     40  C   UNL     1       3.206   5.565   3.840  1.00  0.00     0.031 A 
ATOM     41  C   UNL     1       2.353   6.802   3.823  1.00  0.00     0.074 A 
ATOM     42  C   UNL     1       3.080   4.684   4.850  1.00  0.00     0.049 A 
ATOM     43  N   UNL     1       1.646   7.337   4.784  1.00  0.00    -0.248 NA
ATOM     44  C   UNL     1       2.286   7.532   2.546  1.00  0.00     0.031 C 
ATOM     45  C   UNL     1       3.745   3.385   4.933  1.00  0.00     0.029 A 
ATOM     46  N   UNL     1       2.344   4.759   6.007  1.00  0.00    -0.354 N 
ATOM     47  C   UNL     1       1.096   8.494   4.247  1.00  0.00     0.074 A 
ATOM     48  C   UNL     1       1.540   8.578   2.872  1.00  0.00     0.031 C 
ATOM     49  C   UNL     1       3.393   2.787   6.084  1.00  0.00     0.029 A 
ATOM     50  C   UNL     1       2.542   3.693   6.850  1.00  0.00     0.049 A 
ATOM     51  H   UNL     1       1.734   5.504   6.212  1.00  0.00     0.167 HD
ATOM     52  C   UNL     1       0.301   9.406   4.852  1.00  0.00     0.037 A 
ATOM     53  C   UNL     1       2.133   3.498   8.118  1.00  0.00     0.037 A 
ATOM     54  C   UNL     1      -0.171   9.295   6.207  1.00  0.00     0.049 A 
ATOM     55  C   UNL     1       1.326   4.567   8.804  1.00  0.00     0.074 A 
ATOM     56  C   UNL     1      -0.965  10.175   6.920  1.00  0.00     0.029 A 
ATOM     57  N   UNL     1       0.100   8.227   7.048  1.00  0.00    -0.354 N 
ATOM     58  N   UNL     1       0.885   5.706   8.326  1.00  0.00    -0.248 NA
ATOM     59  C   UNL     1       0.980   4.334  10.214  1.00  0.00     0.031 C 
ATOM     60  C   UNL     1      -1.147   9.655   8.207  1.00  0.00     0.029 A 
ATOM     61  C   UNL     1      -0.500   8.431   8.279  1.00  0.00     0.049 A 
ATOM     62  H   UNL     1       0.639   7.439   6.806  1.00  0.00     0.167 HD
ATOM     63  C   UNL     1       0.199   6.316   9.369  1.00  0.00     0.074 A 
ATOM     64  C   UNL     1       0.268   5.415  10.500  1.00  0.00     0.031 C 
ATOM     65  C   UNL     1      -0.427   7.518   9.390  1.00  0.00     0.037 A 
BRANCH  52  66
ATOM     66  C   UNL     1      -0.063  10.632   4.070  1.00  0.00     0.057 A 
ATOM     67  C   UNL     1      -1.004  10.606   3.034  1.00  0.00     0.134 A 
ATOM     68  C   UNL     1       0.526  11.864   4.380  1.00  0.00     0.134 A 
ATOM     69  F   UNL     1      -1.589   9.453   2.675  1.00  0.00    -0.206 F 
ATOM     70  C   UNL     1      -1.334  11.761   2.322  1.00  0.00     0.040 A 
ATOM     71  C   UNL     1       0.188  13.030   3.691  1.00  0.00     0.040 A 
ATOM     72  F   UNL     1       1.436  11.956   5.362  1.00  0.00    -0.206 F 
ATOM     73  C   UNL     1      -0.743  12.979   2.655  1.00  0.00     0.006 A 
ENDBRANCH  52  66
BRANCH  53  74
ATOM     74  C   UNL     1       2.540   2.273   8.852  1.00  0.00     0.057 A 
ATOM     75  C   UNL     1       1.603   1.303   9.224  1.00  0.00     0.134 A 
ATOM     76  C   UNL     1       3.874   2.055   9.219  1.00  0.00     0.134 A 
ATOM     77  F   UNL     1       0.306   1.469   8.928  1.00  0.00    -0.206 F 
ATOM     78  C   UNL     1       1.976   0.166   9.943  1.00  0.00     0.040 A 
ATOM     79  C   UNL     1       4.265   0.910   9.914  1.00  0.00     0.040 A 
ATOM     80  F   UNL     1       4.820   2.950   8.898  1.00  0.00    -0.206 F 
ATOM     81  C   UNL     1       3.312  -0.036  10.284  1.00  0.00     0.006 A 
ENDBRANCH  53  74
BRANCH  65  82
ATOM     82  C   UNL     1      -1.116   7.909  10.663  1.00  0.00     0.057 A 
ATOM     83  C   UNL     1      -0.400   8.328  11.790  1.00  0.00     0.134 A 
ATOM     84  C   UNL     1      -2.514   7.902  10.747  1.00  0.00     0.134 A 
ATOM     85  F   UNL     1       0.942   8.344  11.777  1.00  0.00    -0.206 F 
ATOM     86  C   UNL     1      -1.050   8.708  12.966  1.00  0.00     0.040 A 
ATOM     87  C   UNL     1      -3.176   8.302  11.909  1.00  0.00     0.040 A 
ATOM     88  F   UNL     1      -3.258   7.519   9.699  1.00  0.00    -0.206 F 
ATOM     89  C   UNL     1      -2.443   8.702  13.024  1.00  0.00     0.006 A 
ENDBRANCH  65  82
ENDBRANCH  39  40
ENDBRANCH  32  34
ENDBRANCH  31  32
ENDBRANCH  30  31
ENDBRANCH  29  30
ENDBRANCH  28  29
ENDBRANCH   1  28
TORSDOF 18
