REMARK SMILES COc1ccc([C@@H]([NH3+])CC(=O)OCCOCCOCCOC(=O)c2ccc(-c3c4nc(c(-c5c(F)cccc5F)c5ccc([nH]5)c(-c5c(F)cccc5F)c5nc(c(-c6c(F)cccc6F)c6ccc3[nH]6)C=C5)C=C4)cc2)cc1
REMARK SMILES IDX 16 1 15 2 14 3 13 4 12 5 10 6 11 7 9 8 7 9 6 10 3 11 4 12
REMARK SMILES IDX 79 13 5 14 78 15 2 16 1 17 8 18 17 22 18 23 19 24 20 25
REMARK SMILES IDX 21 26 22 27 23 28 24 29 25 30 77 31 26 32 76 33 27 34 28 35
REMARK SMILES IDX 29 36 70 37 30 38 75 39 69 40 71 41 31 42 74 43 68 44 67 45
REMARK SMILES IDX 32 47 58 48 41 49 57 50 42 51 45 52 56 53 72 54 43 55 44 56
REMARK SMILES IDX 55 58 73 59 46 60 33 61 34 62 39 63 35 64 36 65 38 66 40 67
REMARK SMILES IDX 37 68 59 69 60 70 65 71 61 72 62 73 64 74 66 75 63 76 47 77
REMARK SMILES IDX 48 78 53 79 49 80 50 81 52 82 54 83 51 84
REMARK H PARENT 8 19 8 20 8 21 71 46 45 57
REMARK Flexibility Score: inf
ROOT
ATOM      1  C   UNL     1       3.130   7.326   0.558  1.00  0.00     0.188 C 
ENDROOT
BRANCH   1   2
ATOM      2  O   UNL     1       2.526   7.196   1.840  1.00  0.00    -0.376 OA
BRANCH   2   3
ATOM      3  C   UNL     1       1.895   5.945   2.118  1.00  0.00     0.202 C 
BRANCH   3   4
ATOM      4  C   UNL     1       0.728   5.545   1.198  1.00  0.00     0.261 C 
BRANCH   4   5
ATOM      5  O   UNL     1       1.044   5.576  -0.212  1.00  0.00    -0.463 OA
BRANCH   5   6
ATOM      6  C   UNL     1       0.249   6.357  -0.989  1.00  0.00     0.312 C 
ATOM      7  O   UNL     1      -0.714   6.994  -0.571  1.00  0.00    -0.252 OA
BRANCH   6   8
ATOM      8  C   UNL     1       0.706   6.505  -2.429  1.00  0.00     0.192 C 
BRANCH   8   9
ATOM      9  C   UNL     1       1.687   5.483  -3.020  1.00  0.00     0.223 C 
BRANCH   9  10
ATOM     10  C   UNL     1       1.352   4.034  -2.749  1.00  0.00     0.010 A 
ATOM     11  C   UNL     1       0.792   1.426  -1.902  1.00  0.00     0.118 A 
ATOM     12  C   UNL     1      -0.240   2.251  -2.341  1.00  0.00     0.047 A 
ATOM     13  C   UNL     1       2.114   1.850  -1.999  1.00  0.00     0.047 A 
ATOM     14  C   UNL     1       0.038   3.550  -2.768  1.00  0.00     0.014 A 
ATOM     15  C   UNL     1       2.391   3.146  -2.430  1.00  0.00     0.014 A 
BRANCH  11  16
ATOM     16  O   UNL     1       0.447   0.191  -1.425  1.00  0.00    -0.497 OA
ATOM     17  C   UNL     1       1.006  -0.059  -0.135  1.00  0.00     0.278 C 
ENDBRANCH  11  16
ENDBRANCH   9  10
BRANCH   9  18
ATOM     18  N   UNL     1       1.781   5.702  -4.473  1.00  0.00    -0.351 N 
ATOM     19  H   UNL     1       0.872   5.529  -4.902  1.00  0.00     0.345 HD
ATOM     20  H   UNL     1       2.471   5.063  -4.868  1.00  0.00     0.345 HD
ATOM     21  H   UNL     1       2.066   6.664  -4.654  1.00  0.00     0.345 HD
ENDBRANCH   9  18
ENDBRANCH   8   9
ENDBRANCH   6   8
ENDBRANCH   5   6
ENDBRANCH   4   5
ENDBRANCH   3   4
ENDBRANCH   2   3
ENDBRANCH   1   2
BRANCH   1  22
ATOM     22  C   UNL     1       4.183   6.274   0.200  1.00  0.00     0.188 C 
BRANCH  22  23
ATOM     23  O   UNL     1       3.809   4.926   0.430  1.00  0.00    -0.376 OA
BRANCH  23  24
ATOM     24  C   UNL     1       4.798   3.912   0.252  1.00  0.00     0.202 C 
BRANCH  24  25
ATOM     25  C   UNL     1       6.218   4.152   0.798  1.00  0.00     0.261 C 
BRANCH  25  26
ATOM     26  O   UNL     1       6.896   5.340   0.339  1.00  0.00    -0.460 OA
BRANCH  26  27
ATOM     27  C   UNL     1       6.907   5.617  -0.988  1.00  0.00     0.338 C 
ATOM     28  O   UNL     1       6.603   4.865  -1.890  1.00  0.00    -0.246 OA
BRANCH  27  29
ATOM     29  C   UNL     1       7.076   7.094  -1.142  1.00  0.00     0.060 A 
ATOM     30  C   UNL     1       6.369   7.741  -2.168  1.00  0.00     0.016 A 
ATOM     31  C   UNL     1       7.834   7.851  -0.243  1.00  0.00     0.016 A 
ATOM     32  C   UNL     1       6.453   9.129  -2.323  1.00  0.00     0.010 A 
ATOM     33  C   UNL     1       7.927   9.238  -0.405  1.00  0.00     0.010 A 
ATOM     34  C   UNL     1       7.269   9.880  -1.469  1.00  0.00    -0.014 A 
BRANCH  34  35
ATOM     35  C   UNL     1       7.636  11.278  -1.820  1.00  0.00     0.031 A 
ATOM     36  C   UNL     1       8.962  11.503  -2.498  1.00  0.00     0.074 A 
ATOM     37  C   UNL     1       6.831  12.326  -1.566  1.00  0.00     0.049 A 
ATOM     38  N   UNL     1       9.557  12.622  -2.821  1.00  0.00    -0.248 NA
ATOM     39  C   UNL     1       9.723  10.293  -2.852  1.00  0.00     0.031 C 
ATOM     40  C   UNL     1       5.501  12.253  -0.967  1.00  0.00     0.029 A 
ATOM     41  N   UNL     1       7.034  13.670  -1.775  1.00  0.00    -0.354 N 
ATOM     42  C   UNL     1      10.762  12.251  -3.405  1.00  0.00     0.074 A 
ATOM     43  C   UNL     1      10.831  10.807  -3.360  1.00  0.00     0.031 C 
ATOM     44  C   UNL     1       5.011  13.501  -0.843  1.00  0.00     0.029 A 
ATOM     45  C   UNL     1       6.008  14.462  -1.317  1.00  0.00     0.049 A 
ATOM     46  H   UNL     1       7.839  14.031  -2.211  1.00  0.00     0.167 HD
ATOM     47  C   UNL     1      11.725  13.038  -3.940  1.00  0.00     0.037 A 
ATOM     48  C   UNL     1       5.902  15.806  -1.261  1.00  0.00     0.037 A 
ATOM     49  C   UNL     1      11.664  14.474  -3.985  1.00  0.00     0.049 A 
ATOM     50  C   UNL     1       7.030  16.667  -1.777  1.00  0.00     0.074 A 
ATOM     51  C   UNL     1      12.591  15.358  -4.510  1.00  0.00     0.029 A 
ATOM     52  N   UNL     1      10.623  15.237  -3.481  1.00  0.00    -0.354 N 
ATOM     53  N   UNL     1       8.161  16.308  -2.336  1.00  0.00    -0.248 NA
ATOM     54  C   UNL     1       6.865  18.124  -1.652  1.00  0.00     0.031 C 
ATOM     55  C   UNL     1      12.136  16.658  -4.273  1.00  0.00     0.029 A 
ATOM     56  C   UNL     1      10.896  16.583  -3.661  1.00  0.00     0.049 A 
ATOM     57  H   UNL     1       9.811  14.876  -3.057  1.00  0.00     0.167 HD
ATOM     58  C   UNL     1       8.818  17.490  -2.667  1.00  0.00     0.074 A 
ATOM     59  C   UNL     1       7.958  18.576  -2.251  1.00  0.00     0.031 C 
ATOM     60  C   UNL     1      10.023  17.658  -3.266  1.00  0.00     0.037 A 
BRANCH  47  61
ATOM     61  C   UNL     1      12.943  12.358  -4.492  1.00  0.00     0.057 A 
ATOM     62  C   UNL     1      12.899  11.594  -5.666  1.00  0.00     0.134 A 
ATOM     63  C   UNL     1      14.183  12.492  -3.855  1.00  0.00     0.134 A 
ATOM     64  F   UNL     1      11.739  11.409  -6.314  1.00  0.00    -0.206 F 
ATOM     65  C   UNL     1      14.040  10.967  -6.171  1.00  0.00     0.040 A 
ATOM     66  C   UNL     1      15.336  11.896  -4.367  1.00  0.00     0.040 A 
ATOM     67  F   UNL     1      14.296  13.212  -2.728  1.00  0.00    -0.206 F 
ATOM     68  C   UNL     1      15.264  11.125  -5.526  1.00  0.00     0.006 A 
ENDBRANCH  47  61
BRANCH  48  69
ATOM     69  C   UNL     1       4.692  16.442  -0.674  1.00  0.00     0.057 A 
ATOM     70  C   UNL     1       3.818  17.204  -1.459  1.00  0.00     0.134 A 
ATOM     71  C   UNL     1       4.410  16.350   0.695  1.00  0.00     0.134 A 
ATOM     72  F   UNL     1       4.049  17.358  -2.772  1.00  0.00    -0.206 F 
ATOM     73  C   UNL     1       2.724  17.871  -0.903  1.00  0.00     0.040 A 
ATOM     74  C   UNL     1       3.302  16.987   1.259  1.00  0.00     0.040 A 
ATOM     75  F   UNL     1       5.209  15.642   1.505  1.00  0.00    -0.206 F 
ATOM     76  C   UNL     1       2.461  17.758   0.460  1.00  0.00     0.006 A 
ENDBRANCH  48  69
BRANCH  60  77
ATOM     77  C   UNL     1      10.463  19.062  -3.573  1.00  0.00     0.057 A 
ATOM     78  C   UNL     1      10.857  19.960  -2.573  1.00  0.00     0.134 A 
ATOM     79  C   UNL     1      10.549  19.501  -4.902  1.00  0.00     0.134 A 
ATOM     80  F   UNL     1      10.792  19.608  -1.280  1.00  0.00    -0.206 F 
ATOM     81  C   UNL     1      11.297  21.249  -2.881  1.00  0.00     0.040 A 
ATOM     82  C   UNL     1      11.017  20.776  -5.224  1.00  0.00     0.040 A 
ATOM     83  F   UNL     1      10.201  18.689  -5.912  1.00  0.00    -0.206 F 
ATOM     84  C   UNL     1      11.387  21.657  -4.211  1.00  0.00     0.006 A 
ENDBRANCH  60  77
ENDBRANCH  34  35
ENDBRANCH  27  29
ENDBRANCH  26  27
ENDBRANCH  25  26
ENDBRANCH  24  25
ENDBRANCH  23  24
ENDBRANCH  22  23
ENDBRANCH   1  22
TORSDOF 21
