REMARK SMILES COCC[C@]1(C(=O)OCCOCCOCCOC(=O)c2ccc(-c3c4nc(c(-c5c(F)cccc5F)c5ccc([nH]5)c(-c5c(F)cccc5F)c5nc(c(-c6c(F)cccc6F)c6ccc3[nH]6)C=C5)C=C4)cc2)CCCN(C(=O)Cc2c(C)nc(C)[nH]c2=O)C1
REMARK SMILES IDX 12 1 11 2 10 3 9 4 8 5 6 6 7 7 5 8 74 9 90 10 75 11 77 12
REMARK SMILES IDX 76 13 4 14 3 15 2 16 1 17 78 18 79 19 80 20 81 21 82 22
REMARK SMILES IDX 88 23 83 24 84 25 87 26 89 27 85 28 86 30 13 31 14 32 15 33
REMARK SMILES IDX 16 34 17 35 18 36 19 37 20 38 21 39 73 40 22 41 72 42 23 43
REMARK SMILES IDX 24 44 25 45 66 46 26 47 71 48 65 49 67 50 27 51 70 52 64 53
REMARK SMILES IDX 63 54 28 56 54 57 37 58 53 59 38 60 41 61 52 62 68 63 39 64
REMARK SMILES IDX 40 65 51 67 69 68 42 69 29 70 30 71 35 72 31 73 32 74 34 75
REMARK SMILES IDX 36 76 33 77 55 78 56 79 61 80 57 81 58 82 60 83 62 84 59 85
REMARK SMILES IDX 43 86 44 87 49 88 45 89 46 90 48 91 50 92 47 93
REMARK H PARENT 87 29 67 55 41 66
REMARK Flexibility Score: inf
ROOT
ATOM      1  C   UNL     1       2.291  -3.850  -4.471  1.00  0.00     0.188 C 
ENDROOT
BRANCH   1   2
ATOM      2  O   UNL     1       2.004  -3.815  -5.861  1.00  0.00    -0.376 OA
BRANCH   2   3
ATOM      3  C   UNL     1       1.883  -2.566  -6.531  1.00  0.00     0.202 C 
BRANCH   3   4
ATOM      4  C   UNL     1       0.964  -1.470  -5.963  1.00  0.00     0.261 C 
BRANCH   4   5
ATOM      5  O   UNL     1       1.225  -1.055  -4.604  1.00  0.00    -0.463 OA
BRANCH   5   6
ATOM      6  C   UNL     1       0.263  -1.374  -3.703  1.00  0.00     0.314 C 
ATOM      7  O   UNL     1      -0.766  -1.966  -4.018  1.00  0.00    -0.252 OA
BRANCH   6   8
ATOM      8  C   UNL     1       0.525  -0.910  -2.239  1.00  0.00     0.088 C 
ATOM      9  C   UNL     1       1.923  -0.309  -1.920  1.00  0.00     0.022 C 
ATOM     10  C   UNL     1      -0.481   0.247  -2.165  1.00  0.00     0.138 C 
ATOM     11  C   UNL     1       2.009   0.919  -0.986  1.00  0.00     0.023 C 
ATOM     12  N   UNL     1      -0.492   0.861  -0.851  1.00  0.00    -0.341 N 
ATOM     13  C   UNL     1       0.715   1.593  -0.513  1.00  0.00     0.119 C 
BRANCH   8  14
ATOM     14  C   UNL     1       0.072  -2.138  -1.341  1.00  0.00     0.049 C 
BRANCH  14  15
ATOM     15  C   UNL     1       0.993  -2.830  -0.330  1.00  0.00     0.161 C 
BRANCH  15  16
ATOM     16  O   UNL     1       0.762  -2.440   1.018  1.00  0.00    -0.385 OA
ATOM     17  C   UNL     1       1.561  -1.359   1.450  1.00  0.00     0.194 C 
ENDBRANCH  15  16
ENDBRANCH  14  15
ENDBRANCH   8  14
BRANCH  12  18
ATOM     18  C   UNL     1      -1.696   0.843  -0.153  1.00  0.00     0.227 C 
ATOM     19  O   UNL     1      -2.686   0.271  -0.618  1.00  0.00    -0.275 OA
BRANCH  18  20
ATOM     20  C   UNL     1      -1.823   1.590   1.172  1.00  0.00     0.143 C 
BRANCH  20  21
ATOM     21  C   UNL     1      -1.312   0.812   2.351  1.00  0.00     0.048 A 
ATOM     22  C   UNL     1      -0.419   1.230   3.274  1.00  0.00     0.049 A 
ATOM     23  C   UNL     1      -1.851  -0.563   2.541  1.00  0.00     0.254 A 
ATOM     24  C   UNL     1       0.143   2.628   3.334  1.00  0.00     0.067 C 
ATOM     25  N   UNL     1       0.125   0.412   4.241  1.00  0.00    -0.240 NA
ATOM     26  N   UNL     1      -1.191  -1.337   3.444  1.00  0.00    -0.311 N 
ATOM     27  O   UNL     1      -2.848  -0.978   1.965  1.00  0.00    -0.269 OA
ATOM     28  C   UNL     1      -0.239  -0.828   4.267  1.00  0.00     0.105 A 
ATOM     29  H   UNL     1      -1.409  -2.295   3.502  1.00  0.00     0.171 HD
ATOM     30  C   UNL     1       0.414  -1.790   5.215  1.00  0.00     0.087 C 
ENDBRANCH  20  21
ENDBRANCH  18  20
ENDBRANCH  12  18
ENDBRANCH   6   8
ENDBRANCH   5   6
ENDBRANCH   4   5
ENDBRANCH   3   4
ENDBRANCH   2   3
ENDBRANCH   1   2
BRANCH   1  31
ATOM     31  C   UNL     1       3.297  -2.851  -3.884  1.00  0.00     0.188 C 
BRANCH  31  32
ATOM     32  O   UNL     1       3.926  -2.012  -4.824  1.00  0.00    -0.376 OA
BRANCH  32  33
ATOM     33  C   UNL     1       5.302  -2.235  -5.080  1.00  0.00     0.202 C 
BRANCH  33  34
ATOM     34  C   UNL     1       5.759  -3.658  -5.450  1.00  0.00     0.261 C 
BRANCH  34  35
ATOM     35  O   UNL     1       5.292  -4.728  -4.605  1.00  0.00    -0.460 OA
BRANCH  35  36
ATOM     36  C   UNL     1       5.777  -4.790  -3.347  1.00  0.00     0.338 C 
ATOM     37  O   UNL     1       6.612  -4.045  -2.848  1.00  0.00    -0.246 OA
BRANCH  36  38
ATOM     38  C   UNL     1       4.949  -5.750  -2.577  1.00  0.00     0.060 A 
ATOM     39  C   UNL     1       4.329  -5.313  -1.396  1.00  0.00     0.016 A 
ATOM     40  C   UNL     1       4.781  -7.067  -3.009  1.00  0.00     0.016 A 
ATOM     41  C   UNL     1       3.595  -6.206  -0.614  1.00  0.00     0.010 A 
ATOM     42  C   UNL     1       4.063  -7.968  -2.212  1.00  0.00     0.010 A 
ATOM     43  C   UNL     1       3.512  -7.555  -0.985  1.00  0.00    -0.014 A 
BRANCH  43  44
ATOM     44  C   UNL     1       3.095  -8.561   0.028  1.00  0.00     0.031 A 
ATOM     45  C   UNL     1       4.177  -9.294   0.781  1.00  0.00     0.074 A 
ATOM     46  C   UNL     1       1.804  -8.792   0.324  1.00  0.00     0.049 A 
ATOM     47  N   UNL     1       4.076 -10.211   1.709  1.00  0.00    -0.248 NA
ATOM     48  C   UNL     1       5.564  -8.942   0.434  1.00  0.00     0.031 C 
ATOM     49  C   UNL     1       0.658  -8.128  -0.293  1.00  0.00     0.029 A 
ATOM     50  N   UNL     1       1.244  -9.661   1.229  1.00  0.00    -0.354 N 
ATOM     51  C   UNL     1       5.381 -10.547   2.051  1.00  0.00     0.074 A 
ATOM     52  C   UNL     1       6.255  -9.768   1.203  1.00  0.00     0.031 C 
ATOM     53  C   UNL     1      -0.472  -8.620   0.248  1.00  0.00     0.029 A 
ATOM     54  C   UNL     1      -0.130  -9.649   1.230  1.00  0.00     0.049 A 
ATOM     55  H   UNL     1       1.778 -10.238   1.822  1.00  0.00     0.167 HD
ATOM     56  C   UNL     1       5.819 -11.413   2.995  1.00  0.00     0.037 A 
ATOM     57  C   UNL     1      -1.006 -10.393   1.933  1.00  0.00     0.037 A 
ATOM     58  C   UNL     1       4.956 -12.195   3.841  1.00  0.00     0.049 A 
ATOM     59  C   UNL     1      -0.496 -11.404   2.930  1.00  0.00     0.074 A 
ATOM     60  C   UNL     1       5.305 -13.092   4.835  1.00  0.00     0.029 A 
ATOM     61  N   UNL     1       3.571 -12.179   3.785  1.00  0.00    -0.354 N 
ATOM     62  N   UNL     1       0.739 -11.692   3.266  1.00  0.00    -0.248 NA
ATOM     63  C   UNL     1      -1.509 -12.186   3.656  1.00  0.00     0.031 C 
ATOM     64  C   UNL     1       4.132 -13.661   5.343  1.00  0.00     0.029 A 
ATOM     65  C   UNL     1       3.050 -13.069   4.711  1.00  0.00     0.049 A 
ATOM     66  H   UNL     1       3.036 -11.618   3.178  1.00  0.00     0.167 HD
ATOM     67  C   UNL     1       0.649 -12.658   4.264  1.00  0.00     0.074 A 
ATOM     68  C   UNL     1      -0.761 -12.893   4.490  1.00  0.00     0.031 C 
ATOM     69  C   UNL     1       1.644 -13.293   4.934  1.00  0.00     0.037 A 
BRANCH  56  70
ATOM     70  C   UNL     1       7.304 -11.579   3.141  1.00  0.00     0.057 A 
ATOM     71  C   UNL     1       8.118 -10.564   3.663  1.00  0.00     0.134 A 
ATOM     72  C   UNL     1       7.927 -12.776   2.767  1.00  0.00     0.134 A 
ATOM     73  F   UNL     1       7.589  -9.385   4.023  1.00  0.00    -0.206 F 
ATOM     74  C   UNL     1       9.500 -10.724   3.781  1.00  0.00     0.040 A 
ATOM     75  C   UNL     1       9.303 -12.960   2.909  1.00  0.00     0.040 A 
ATOM     76  F   UNL     1       7.208 -13.789   2.261  1.00  0.00    -0.206 F 
ATOM     77  C   UNL     1      10.095 -11.929   3.410  1.00  0.00     0.006 A 
ENDBRANCH  56  70
BRANCH  57  78
ATOM     78  C   UNL     1      -2.469 -10.224   1.726  1.00  0.00     0.057 A 
ATOM     79  C   UNL     1      -3.293  -9.708   2.735  1.00  0.00     0.134 A 
ATOM     80  C   UNL     1      -3.085 -10.619   0.533  1.00  0.00     0.134 A 
ATOM     81  F   UNL     1      -2.768  -9.340   3.913  1.00  0.00    -0.206 F 
ATOM     82  C   UNL     1      -4.677  -9.615   2.574  1.00  0.00     0.040 A 
ATOM     83  C   UNL     1      -4.464 -10.504   0.347  1.00  0.00     0.040 A 
ATOM     84  F   UNL     1      -2.354 -11.127  -0.471  1.00  0.00    -0.206 F 
ATOM     85  C   UNL     1      -5.265 -10.009   1.374  1.00  0.00     0.006 A 
ENDBRANCH  57  78
BRANCH  69  86
ATOM     86  C   UNL     1       1.242 -14.263   6.011  1.00  0.00     0.057 A 
ATOM     87  C   UNL     1       0.615 -15.482   5.723  1.00  0.00     0.134 A 
ATOM     88  C   UNL     1       1.498 -13.976   7.359  1.00  0.00     0.134 A 
ATOM     89  F   UNL     1       0.333 -15.820   4.455  1.00  0.00    -0.206 F 
ATOM     90  C   UNL     1       0.218 -16.358   6.736  1.00  0.00     0.040 A 
ATOM     91  C   UNL     1       1.137 -14.859   8.378  1.00  0.00     0.040 A 
ATOM     92  F   UNL     1       2.110 -12.834   7.709  1.00  0.00    -0.206 F 
ATOM     93  C   UNL     1       0.483 -16.048   8.069  1.00  0.00     0.006 A 
ENDBRANCH  69  86
ENDBRANCH  43  44
ENDBRANCH  36  38
ENDBRANCH  35  36
ENDBRANCH  34  35
ENDBRANCH  33  34
ENDBRANCH  32  33
ENDBRANCH  31  32
ENDBRANCH   1  31
TORSDOF 23
