REMARK SMILES C[NH2+][C@]1(C(=O)OCCOCCOCCOC(=O)c2ccc(-c3c4nc(c(-c5c(F)cccc5F)c5ccc([nH]5)c(-c5c(F)cccc5F)c5nc(c(-c6c(F)cccc6F)c6ccc3[nH]6)C=C5)C=C4)cc2)CCC[C@@H]1CC[N@H+]1CCC[C@H]([NH+](C)C)C1
REMARK SMILES IDX 10 1 9 2 8 3 7 4 6 5 4 6 5 7 3 8 72 9 75 10 73 11 74 12 2 13
REMARK SMILES IDX 1 14 76 17 77 18 78 19 79 20 86 21 80 23 82 24 81 25 83 26
REMARK SMILES IDX 84 27 85 28 11 30 12 31 13 32 14 33 15 34 16 35 17 36 18 37
REMARK SMILES IDX 19 38 71 39 20 40 70 41 21 42 22 43 23 44 64 45 24 46 69 47
REMARK SMILES IDX 63 48 65 49 25 50 68 51 62 52 61 53 26 55 52 56 35 57 51 58
REMARK SMILES IDX 36 59 39 60 50 61 66 62 37 63 38 64 49 66 67 67 40 68 27 69
REMARK SMILES IDX 28 70 33 71 29 72 30 73 32 74 34 75 31 76 53 77 54 78 59 79
REMARK SMILES IDX 55 80 56 81 58 82 60 83 57 84 41 85 42 86 47 87 43 88 44 89
REMARK SMILES IDX 46 90 48 91 45 92
REMARK H PARENT 2 15 2 16 78 22 83 29 65 54 39 65
REMARK Flexibility Score: inf
ROOT
ATOM      1  C   UNL     1       1.972   1.383   2.317  1.00  0.00     0.188 C 
ENDROOT
BRANCH   1   2
ATOM      2  O   UNL     1       3.238   0.810   2.033  1.00  0.00    -0.376 OA
BRANCH   2   3
ATOM      3  C   UNL     1       3.404   0.017   0.868  1.00  0.00     0.202 C 
BRANCH   3   4
ATOM      4  C   UNL     1       2.402  -1.099   0.537  1.00  0.00     0.261 C 
BRANCH   4   5
ATOM      5  O   UNL     1       1.003  -0.745   0.422  1.00  0.00    -0.459 OA
BRANCH   5   6
ATOM      6  C   UNL     1       0.215  -1.130   1.467  1.00  0.00     0.368 C 
ATOM      7  O   UNL     1       0.677  -1.685   2.466  1.00  0.00    -0.245 OA
BRANCH   6   8
ATOM      8  C   UNL     1      -1.334  -0.852   1.294  1.00  0.00     0.197 C 
ATOM      9  C   UNL     1      -1.761   0.241   0.289  1.00  0.00     0.081 C 
ATOM     10  C   UNL     1      -1.942  -2.099   0.587  1.00  0.00     0.068 C 
ATOM     11  C   UNL     1      -3.157  -0.148  -0.210  1.00  0.00     0.008 C 
ATOM     12  C   UNL     1      -3.304  -1.647   0.044  1.00  0.00     0.011 C 
BRANCH   8  13
ATOM     13  N   UNL     1      -1.782  -0.507   2.666  1.00  0.00    -0.334 N 
ATOM     14  C   UNL     1      -3.173  -0.486   3.035  1.00  0.00     0.331 C 
ATOM     15  H   UNL     1      -1.333  -1.178   3.289  1.00  0.00     0.347 HD
ATOM     16  H   UNL     1      -1.530   0.479   2.730  1.00  0.00     0.347 HD
ENDBRANCH   8  13
BRANCH  10  17
ATOM     17  C   UNL     1      -1.962  -3.369   1.448  1.00  0.00     0.072 C 
BRANCH  17  18
ATOM     18  C   UNL     1      -1.713  -4.693   0.702  1.00  0.00     0.262 C 
BRANCH  18  19
ATOM     19  N   UNL     1      -0.528  -4.825  -0.163  1.00  0.00    -0.330 N 
ATOM     20  C   UNL     1       0.695  -4.184   0.306  1.00  0.00     0.262 C 
ATOM     21  C   UNL     1      -0.235  -6.242  -0.426  1.00  0.00     0.327 C 
ATOM     22  H   UNL     1      -0.798  -4.322  -1.008  1.00  0.00     0.348 HD
ATOM     23  C   UNL     1       1.857  -4.268  -0.689  1.00  0.00     0.068 C 
ATOM     24  C   UNL     1       0.782  -6.418  -1.588  1.00  0.00     0.239 C 
ATOM     25  C   UNL     1       2.083  -5.664  -1.243  1.00  0.00     0.077 C 
BRANCH  24  26
ATOM     26  N   UNL     1       0.274  -6.171  -2.965  1.00  0.00    -0.333 N 
ATOM     27  C   UNL     1      -0.870  -7.036  -3.265  1.00  0.00     0.332 C 
ATOM     28  C   UNL     1      -0.079  -4.788  -3.281  1.00  0.00     0.332 C 
ATOM     29  H   UNL     1       1.073  -6.395  -3.557  1.00  0.00     0.348 HD
ENDBRANCH  24  26
ENDBRANCH  18  19
ENDBRANCH  17  18
ENDBRANCH  10  17
ENDBRANCH   6   8
ENDBRANCH   5   6
ENDBRANCH   4   5
ENDBRANCH   3   4
ENDBRANCH   2   3
ENDBRANCH   1   2
BRANCH   1  30
ATOM     30  C   UNL     1       1.142   1.968   1.163  1.00  0.00     0.188 C 
BRANCH  30  31
ATOM     31  O   UNL     1       1.776   2.001  -0.087  1.00  0.00    -0.376 OA
BRANCH  31  32
ATOM     32  C   UNL     1       2.418   3.190  -0.502  1.00  0.00     0.202 C 
BRANCH  32  33
ATOM     33  C   UNL     1       3.012   4.225   0.477  1.00  0.00     0.261 C 
BRANCH  33  34
ATOM     34  O   UNL     1       2.504   4.280   1.820  1.00  0.00    -0.460 OA
BRANCH  34  35
ATOM     35  C   UNL     1       1.365   4.976   2.045  1.00  0.00     0.338 C 
ATOM     36  O   UNL     1       0.706   5.588   1.219  1.00  0.00    -0.246 OA
BRANCH  35  37
ATOM     37  C   UNL     1       0.901   4.653   3.419  1.00  0.00     0.060 A 
ATOM     38  C   UNL     1      -0.341   4.017   3.595  1.00  0.00     0.016 A 
ATOM     39  C   UNL     1       1.701   4.938   4.527  1.00  0.00     0.016 A 
ATOM     40  C   UNL     1      -0.795   3.692   4.876  1.00  0.00     0.010 A 
ATOM     41  C   UNL     1       1.230   4.643   5.811  1.00  0.00     0.010 A 
ATOM     42  C   UNL     1      -0.033   4.048   5.995  1.00  0.00    -0.014 A 
BRANCH  42  43
ATOM     43  C   UNL     1      -0.637   4.013   7.352  1.00  0.00     0.031 A 
ATOM     44  C   UNL     1      -1.204   5.293   7.906  1.00  0.00     0.074 A 
ATOM     45  C   UNL     1      -0.688   2.887   8.086  1.00  0.00     0.049 A 
ATOM     46  N   UNL     1      -1.690   5.547   9.094  1.00  0.00    -0.248 NA
ATOM     47  C   UNL     1      -1.217   6.446   6.991  1.00  0.00     0.031 C 
ATOM     48  C   UNL     1      -0.228   1.570   7.655  1.00  0.00     0.029 A 
ATOM     49  N   UNL     1      -1.142   2.684   9.368  1.00  0.00    -0.354 N 
ATOM     50  C   UNL     1      -2.053   6.888   9.072  1.00  0.00     0.074 A 
ATOM     51  C   UNL     1      -1.706   7.402   7.765  1.00  0.00     0.031 C 
ATOM     52  C   UNL     1      -0.402   0.697   8.664  1.00  0.00     0.029 A 
ATOM     53  C   UNL     1      -0.950   1.402   9.823  1.00  0.00     0.049 A 
ATOM     54  H   UNL     1      -1.565   3.390   9.908  1.00  0.00     0.167 HD
ATOM     55  C   UNL     1      -2.628   7.627  10.050  1.00  0.00     0.037 A 
ATOM     56  C   UNL     1      -1.162   0.870  11.044  1.00  0.00     0.037 A 
ATOM     57  C   UNL     1      -2.968   7.121  11.354  1.00  0.00     0.049 A 
ATOM     58  C   UNL     1      -1.719   1.735  12.148  1.00  0.00     0.074 A 
ATOM     59  C   UNL     1      -3.565   7.790  12.408  1.00  0.00     0.029 A 
ATOM     60  N   UNL     1      -2.728   5.826  11.785  1.00  0.00    -0.354 N 
ATOM     61  N   UNL     1      -2.077   2.996  12.115  1.00  0.00    -0.248 NA
ATOM     62  C   UNL     1      -1.901   1.099  13.463  1.00  0.00     0.031 C 
ATOM     63  C   UNL     1      -3.632   6.915  13.497  1.00  0.00     0.029 A 
ATOM     64  C   UNL     1      -3.139   5.683  13.100  1.00  0.00     0.049 A 
ATOM     65  H   UNL     1      -2.326   5.113  11.238  1.00  0.00     0.167 HD
ATOM     66  C   UNL     1      -2.559   3.292  13.386  1.00  0.00     0.074 A 
ATOM     67  C   UNL     1      -2.457   2.076  14.165  1.00  0.00     0.031 C 
ATOM     68  C   UNL     1      -3.045   4.465  13.864  1.00  0.00     0.037 A 
BRANCH  55  69
ATOM     69  C   UNL     1      -2.893   9.076   9.756  1.00  0.00     0.057 A 
ATOM     70  C   UNL     1      -3.881   9.483   8.850  1.00  0.00     0.134 A 
ATOM     71  C   UNL     1      -2.165  10.078  10.410  1.00  0.00     0.134 A 
ATOM     72  F   UNL     1      -4.603   8.574   8.177  1.00  0.00    -0.206 F 
ATOM     73  C   UNL     1      -4.117  10.833   8.585  1.00  0.00     0.040 A 
ATOM     74  C   UNL     1      -2.412  11.431  10.177  1.00  0.00     0.040 A 
ATOM     75  F   UNL     1      -1.206   9.759  11.293  1.00  0.00    -0.206 F 
ATOM     76  C   UNL     1      -3.386  11.812   9.256  1.00  0.00     0.006 A 
ENDBRANCH  55  69
BRANCH  56  77
ATOM     77  C   UNL     1      -0.827  -0.554  11.309  1.00  0.00     0.057 A 
ATOM     78  C   UNL     1      -1.824  -1.496  11.589  1.00  0.00     0.134 A 
ATOM     79  C   UNL     1       0.501  -1.000  11.329  1.00  0.00     0.134 A 
ATOM     80  F   UNL     1      -3.113  -1.126  11.616  1.00  0.00    -0.206 F 
ATOM     81  C   UNL     1      -1.514  -2.822  11.899  1.00  0.00     0.040 A 
ATOM     82  C   UNL     1       0.824  -2.329  11.607  1.00  0.00     0.040 A 
ATOM     83  F   UNL     1       1.506  -0.148  11.076  1.00  0.00    -0.206 F 
ATOM     84  C   UNL     1      -0.185  -3.243  11.902  1.00  0.00     0.006 A 
ENDBRANCH  56  77
BRANCH  68  85
ATOM     85  C   UNL     1      -3.554   4.484  15.279  1.00  0.00     0.057 A 
ATOM     86  C   UNL     1      -2.696   4.396  16.383  1.00  0.00     0.134 A 
ATOM     87  C   UNL     1      -4.923   4.642  15.539  1.00  0.00     0.134 A 
ATOM     88  F   UNL     1      -1.376   4.235  16.207  1.00  0.00    -0.206 F 
ATOM     89  C   UNL     1      -3.183   4.438  17.691  1.00  0.00     0.040 A 
ATOM     90  C   UNL     1      -5.418   4.716  16.842  1.00  0.00     0.040 A 
ATOM     91  F   UNL     1      -5.801   4.745  14.529  1.00  0.00    -0.206 F 
ATOM     92  C   UNL     1      -4.547   4.607  17.923  1.00  0.00     0.006 A 
ENDBRANCH  68  85
ENDBRANCH  42  43
ENDBRANCH  35  37
ENDBRANCH  34  35
ENDBRANCH  33  34
ENDBRANCH  32  33
ENDBRANCH  31  32
ENDBRANCH  30  31
ENDBRANCH   1  30
TORSDOF 22
