REMARK SMILES CC(C)(C[C@@H](O)C(F)(F)F)C(=O)OCCOCCOCCOC(=O)c1ccc(-c2c3nc(c(-c4c(F)cccc4F)c4ccc([nH]4)c(-c4c(F)cccc4F)c4nc(c(-c5c(F)cccc5F)c5ccc2[nH]5)C=C4)C=C3)cc1
REMARK SMILES IDX 17 1 16 2 15 3 14 4 13 5 11 6 12 7 2 8 1 9 3 10 4 11 5 12
REMARK SMILES IDX 6 13 7 15 8 16 9 17 10 18 18 19 19 20 20 21 21 22 22 23
REMARK SMILES IDX 23 24 24 25 25 26 26 27 78 28 27 29 77 30 28 31 29 32 30 33
REMARK SMILES IDX 71 34 31 35 76 36 70 37 72 38 32 39 75 40 69 41 68 42 33 44
REMARK SMILES IDX 59 45 42 46 58 47 43 48 46 49 57 50 73 51 44 52 45 53 56 55
REMARK SMILES IDX 74 56 47 57 34 58 35 59 40 60 36 61 37 62 39 63 41 64 38 65
REMARK SMILES IDX 60 66 61 67 66 68 62 69 63 70 65 71 67 72 64 73 48 74 49 75
REMARK SMILES IDX 54 76 50 77 51 78 53 79 55 80 52 81
REMARK H PARENT 6 14 72 43 46 54
REMARK Flexibility Score: inf
ROOT
ATOM      1  C   UNL     1       1.401   3.876  -1.526  1.00  0.00     0.188 C 
ENDROOT
BRANCH   1   2
ATOM      2  O   UNL     1       2.343   3.826  -2.592  1.00  0.00    -0.376 OA
BRANCH   2   3
ATOM      3  C   UNL     1       1.915   3.534  -3.913  1.00  0.00     0.202 C 
BRANCH   3   4
ATOM      4  C   UNL     1       1.725   2.040  -4.251  1.00  0.00     0.261 C 
BRANCH   4   5
ATOM      5  O   UNL     1       0.823   1.245  -3.431  1.00  0.00    -0.463 OA
BRANCH   5   6
ATOM      6  C   UNL     1       1.441   0.536  -2.448  1.00  0.00     0.311 C 
ATOM      7  O   UNL     1       2.634   0.659  -2.182  1.00  0.00    -0.252 OA
BRANCH   6   8
ATOM      8  C   UNL     1       0.562  -0.490  -1.694  1.00  0.00     0.065 C 
ATOM      9  C   UNL     1       0.881  -0.312  -0.193  1.00  0.00     0.023 C 
ATOM     10  C   UNL     1       1.119  -1.861  -2.152  1.00  0.00     0.023 C 
BRANCH   8  11
ATOM     11  C   UNL     1      -0.986  -0.581  -1.913  1.00  0.00     0.059 C 
BRANCH  11  12
ATOM     12  C   UNL     1      -1.875   0.569  -1.410  1.00  0.00     0.220 C 
BRANCH  12  13
ATOM     13  O   UNL     1      -2.169   1.419  -2.531  1.00  0.00    -0.384 OA
ATOM     14  H   UNL     1      -2.654   0.914  -3.202  1.00  0.00     0.211 HD
ENDBRANCH  12  13
BRANCH  12  15
ATOM     15  C   UNL     1      -3.198   0.091  -0.761  1.00  0.00     0.414 C 
ATOM     16  F   UNL     1      -2.965  -0.859   0.175  1.00  0.00    -0.168 F 
ATOM     17  F   UNL     1      -3.818   1.116  -0.128  1.00  0.00    -0.168 F 
ATOM     18  F   UNL     1      -4.057  -0.426  -1.664  1.00  0.00    -0.168 F 
ENDBRANCH  12  15
ENDBRANCH  11  12
ENDBRANCH   8  11
ENDBRANCH   6   8
ENDBRANCH   5   6
ENDBRANCH   4   5
ENDBRANCH   3   4
ENDBRANCH   2   3
ENDBRANCH   1   2
BRANCH   1  19
ATOM     19  C   UNL     1      -0.062   3.528  -1.776  1.00  0.00     0.188 C 
BRANCH  19  20
ATOM     20  O   UNL     1      -0.579   4.078  -2.972  1.00  0.00    -0.376 OA
BRANCH  20  21
ATOM     21  C   UNL     1      -1.908   4.580  -2.950  1.00  0.00     0.202 C 
BRANCH  21  22
ATOM     22  C   UNL     1      -1.999   5.951  -2.272  1.00  0.00     0.261 C 
BRANCH  22  23
ATOM     23  O   UNL     1      -1.569   5.951  -0.898  1.00  0.00    -0.460 OA
BRANCH  23  24
ATOM     24  C   UNL     1      -2.346   5.251  -0.032  1.00  0.00     0.338 C 
ATOM     25  O   UNL     1      -3.406   4.715  -0.269  1.00  0.00    -0.246 OA
BRANCH  24  26
ATOM     26  C   UNL     1      -1.554   5.030   1.202  1.00  0.00     0.060 A 
ATOM     27  C   UNL     1      -1.372   3.716   1.659  1.00  0.00     0.016 A 
ATOM     28  C   UNL     1      -0.970   6.099   1.881  1.00  0.00     0.016 A 
ATOM     29  C   UNL     1      -0.622   3.469   2.812  1.00  0.00     0.010 A 
ATOM     30  C   UNL     1      -0.244   5.854   3.049  1.00  0.00     0.010 A 
ATOM     31  C   UNL     1      -0.089   4.543   3.536  1.00  0.00    -0.014 A 
BRANCH  31  32
ATOM     32  C   UNL     1       0.454   4.334   4.901  1.00  0.00     0.031 A 
ATOM     33  C   UNL     1      -0.426   4.670   6.074  1.00  0.00     0.074 A 
ATOM     34  C   UNL     1       1.699   3.869   5.108  1.00  0.00     0.049 A 
ATOM     35  N   UNL     1      -0.140   4.708   7.349  1.00  0.00    -0.248 NA
ATOM     36  C   UNL     1      -1.821   5.020   5.757  1.00  0.00     0.031 C 
ATOM     37  C   UNL     1       2.633   3.450   4.067  1.00  0.00     0.029 A 
ATOM     38  N   UNL     1       2.395   3.693   6.280  1.00  0.00    -0.354 N 
ATOM     39  C   UNL     1      -1.310   5.104   7.985  1.00  0.00     0.074 A 
ATOM     40  C   UNL     1      -2.301   5.320   6.954  1.00  0.00     0.031 C 
ATOM     41  C   UNL     1       3.791   3.082   4.646  1.00  0.00     0.029 A 
ATOM     42  C   UNL     1       3.693   3.284   6.091  1.00  0.00     0.049 A 
ATOM     43  H   UNL     1       2.002   3.844   7.169  1.00  0.00     0.167 HD
ATOM     44  C   UNL     1      -1.540   5.270   9.309  1.00  0.00     0.037 A 
ATOM     45  C   UNL     1       4.695   3.129   6.979  1.00  0.00     0.037 A 
ATOM     46  C   UNL     1      -0.553   5.056  10.334  1.00  0.00     0.049 A 
ATOM     47  C   UNL     1       4.444   3.410   8.440  1.00  0.00     0.074 A 
ATOM     48  C   UNL     1      -0.691   5.189  11.704  1.00  0.00     0.029 A 
ATOM     49  N   UNL     1       0.759   4.672  10.099  1.00  0.00    -0.354 N 
ATOM     50  N   UNL     1       3.335   3.780   9.036  1.00  0.00    -0.248 NA
ATOM     51  C   UNL     1       5.587   3.253   9.353  1.00  0.00     0.031 C 
ATOM     52  C   UNL     1       0.553   4.943  12.294  1.00  0.00     0.029 A 
ATOM     53  C   UNL     1       1.449   4.591  11.297  1.00  0.00     0.049 A 
ATOM     54  H   UNL     1       1.143   4.486   9.212  1.00  0.00     0.167 HD
ATOM     55  C   UNL     1       3.638   3.865  10.391  1.00  0.00     0.074 A 
ATOM     56  C   UNL     1       5.031   3.497  10.531  1.00  0.00     0.031 C 
ATOM     57  C   UNL     1       2.834   4.212  11.427  1.00  0.00     0.037 A 
BRANCH  44  58
ATOM     58  C   UNL     1      -2.905   5.744   9.718  1.00  0.00     0.057 A 
ATOM     59  C   UNL     1      -4.041   4.933   9.603  1.00  0.00     0.134 A 
ATOM     60  C   UNL     1      -3.080   7.027  10.254  1.00  0.00     0.134 A 
ATOM     61  F   UNL     1      -3.947   3.700   9.083  1.00  0.00    -0.206 F 
ATOM     62  C   UNL     1      -5.306   5.390   9.979  1.00  0.00     0.040 A 
ATOM     63  C   UNL     1      -4.334   7.483  10.663  1.00  0.00     0.040 A 
ATOM     64  F   UNL     1      -2.034   7.855  10.396  1.00  0.00    -0.206 F 
ATOM     65  C   UNL     1      -5.453   6.667  10.518  1.00  0.00     0.006 A 
ENDBRANCH  44  58
BRANCH  45  66
ATOM     66  C   UNL     1       6.046   2.710   6.519  1.00  0.00     0.057 A 
ATOM     67  C   UNL     1       6.584   1.470   6.883  1.00  0.00     0.134 A 
ATOM     68  C   UNL     1       6.845   3.553   5.737  1.00  0.00     0.134 A 
ATOM     69  F   UNL     1       5.880   0.630   7.657  1.00  0.00    -0.206 F 
ATOM     70  C   UNL     1       7.873   1.091   6.503  1.00  0.00     0.040 A 
ATOM     71  C   UNL     1       8.124   3.174   5.324  1.00  0.00     0.040 A 
ATOM     72  F   UNL     1       6.392   4.757   5.357  1.00  0.00    -0.206 F 
ATOM     73  C   UNL     1       8.645   1.942   5.715  1.00  0.00     0.006 A 
ENDBRANCH  45  66
BRANCH  57  74
ATOM     74  C   UNL     1       3.419   4.161  12.811  1.00  0.00     0.057 A 
ATOM     75  C   UNL     1       4.376   5.084  13.251  1.00  0.00     0.134 A 
ATOM     76  C   UNL     1       2.981   3.199  13.731  1.00  0.00     0.134 A 
ATOM     77  F   UNL     1       4.847   6.025  12.420  1.00  0.00    -0.206 F 
ATOM     78  C   UNL     1       4.895   5.035  14.547  1.00  0.00     0.040 A 
ATOM     79  C   UNL     1       3.469   3.160  15.038  1.00  0.00     0.040 A 
ATOM     80  F   UNL     1       2.057   2.291  13.381  1.00  0.00    -0.206 F 
ATOM     81  C   UNL     1       4.435   4.076  15.447  1.00  0.00     0.006 A 
ENDBRANCH  57  74
ENDBRANCH  31  32
ENDBRANCH  24  26
ENDBRANCH  23  24
ENDBRANCH  22  23
ENDBRANCH  21  22
ENDBRANCH  20  21
ENDBRANCH  19  20
ENDBRANCH   1  19
TORSDOF 21
