REMARK SMILES CN1C(=O)[C@H](CC(=O)OCCOCCOCCOC(=O)c2ccc(-c3c4nc(c(-c5c(F)cccc5F)c5ccc([nH]5)c(-c5c(F)cccc5F)c5nc(c(-c6c(F)cccc6F)c6ccc3[nH]6)C=C5)C=C4)cc2)S/C1=[NH+]\N=C\c1ccc(O)cc1O
REMARK SMILES IDX 13 1 12 2 11 3 10 4 9 5 7 6 8 7 6 8 5 9 1 10 2 11 3 12 76 13
REMARK SMILES IDX 4 14 75 15 77 16 78 18 79 19 80 20 81 21 86 22 82 23 85 24
REMARK SMILES IDX 83 25 87 26 84 28 14 30 15 31 16 32 17 33 18 34 19 35 20 36
REMARK SMILES IDX 21 37 22 38 74 39 23 40 73 41 24 42 25 43 26 44 67 45 27 46
REMARK SMILES IDX 72 47 66 48 68 49 28 50 71 51 65 52 64 53 29 55 55 56 38 57
REMARK SMILES IDX 54 58 39 59 42 60 53 61 69 62 40 63 41 64 52 66 70 67 43 68
REMARK SMILES IDX 30 69 31 70 36 71 32 72 33 73 35 74 37 75 34 76 56 77 57 78
REMARK SMILES IDX 62 79 58 80 59 81 61 82 63 83 60 84 44 85 45 86 50 87 46 88
REMARK SMILES IDX 47 89 49 90 51 91 48 92
REMARK H PARENT 77 17 87 27 84 29 68 54 42 65
REMARK Flexibility Score: inf
ROOT
ATOM      1  C   UNL     1      -0.114   0.692  -4.621  1.00  0.00     0.188 C 
ENDROOT
BRANCH   1   2
ATOM      2  O   UNL     1       0.825  -0.302  -5.004  1.00  0.00    -0.376 OA
BRANCH   2   3
ATOM      3  C   UNL     1       1.653  -0.831  -3.966  1.00  0.00     0.202 C 
BRANCH   3   4
ATOM      4  C   UNL     1       2.456   0.184  -3.130  1.00  0.00     0.261 C 
BRANCH   4   5
ATOM      5  O   UNL     1       1.644   1.210  -2.505  1.00  0.00    -0.463 OA
BRANCH   5   6
ATOM      6  C   UNL     1       2.105   2.486  -2.613  1.00  0.00     0.307 C 
ATOM      7  O   UNL     1       3.208   2.783  -3.057  1.00  0.00    -0.252 OA
BRANCH   6   8
ATOM      8  C   UNL     1       1.050   3.543  -2.334  1.00  0.00     0.150 C 
BRANCH   8   9
ATOM      9  C   UNL     1       0.176   3.492  -1.090  1.00  0.00     0.185 C 
ATOM     10  C   UNL     1       1.135   0.486   0.903  1.00  0.00     0.301 C 
ATOM     11  N   UNL     1       0.953   1.837   0.425  1.00  0.00    -0.191 N 
ATOM     12  C   UNL     1      -0.027   2.141  -0.473  1.00  0.00     0.324 C 
ATOM     13  C   UNL     1       1.360   2.928   1.125  1.00  0.00     0.339 C 
ATOM     14  O   UNL     1      -1.048   1.496  -0.649  1.00  0.00    -0.245 OA
ATOM     15  S   UNL     1       0.910   4.412   0.289  1.00  0.00    -0.020 SA
ATOM     16  N   UNL     1       1.935   2.855   2.282  1.00  0.00    -0.142 N 
ATOM     17  H   UNL     1       2.304   2.028   2.667  1.00  0.00     0.343 HD
BRANCH  16  18
ATOM     18  N   UNL     1       1.966   4.084   2.909  1.00  0.00    -0.093 NA
ATOM     19  C   UNL     1       2.739   4.132   3.938  1.00  0.00     0.170 C 
BRANCH  19  20
ATOM     20  C   UNL     1       2.771   5.373   4.724  1.00  0.00     0.039 A 
ATOM     21  C   UNL     1       3.892   5.625   5.514  1.00  0.00     0.017 A 
ATOM     22  C   UNL     1       1.711   6.295   4.684  1.00  0.00     0.128 A 
ATOM     23  C   UNL     1       3.954   6.808   6.251  1.00  0.00     0.047 A 
ATOM     24  C   UNL     1       1.764   7.461   5.437  1.00  0.00     0.093 A 
ATOM     25  C   UNL     1       2.892   7.710   6.210  1.00  0.00     0.119 A 
BRANCH  22  26
ATOM     26  O   UNL     1       0.581   6.114   3.929  1.00  0.00    -0.507 OA
ATOM     27  H   UNL     1       0.489   5.346   3.401  1.00  0.00     0.293 HD
ENDBRANCH  22  26
BRANCH  25  28
ATOM     28  O   UNL     1       3.000   8.850   6.951  1.00  0.00    -0.508 OA
ATOM     29  H   UNL     1       3.768   9.002   7.467  1.00  0.00     0.293 HD
ENDBRANCH  25  28
ENDBRANCH  19  20
ENDBRANCH  16  18
ENDBRANCH   8   9
ENDBRANCH   6   8
ENDBRANCH   5   6
ENDBRANCH   4   5
ENDBRANCH   3   4
ENDBRANCH   2   3
ENDBRANCH   1   2
BRANCH   1  30
ATOM     30  C   UNL     1      -1.151   0.306  -3.555  1.00  0.00     0.188 C 
BRANCH  30  31
ATOM     31  O   UNL     1      -0.734  -0.665  -2.606  1.00  0.00    -0.376 OA
BRANCH  31  32
ATOM     32  C   UNL     1      -1.721  -1.143  -1.687  1.00  0.00     0.202 C 
BRANCH  32  33
ATOM     33  C   UNL     1      -2.901  -1.907  -2.299  1.00  0.00     0.261 C 
BRANCH  33  34
ATOM     34  O   UNL     1      -3.705  -1.151  -3.224  1.00  0.00    -0.460 OA
BRANCH  34  35
ATOM     35  C   UNL     1      -4.218   0.037  -2.820  1.00  0.00     0.338 C 
ATOM     36  O   UNL     1      -4.300   0.458  -1.680  1.00  0.00    -0.246 OA
BRANCH  35  37
ATOM     37  C   UNL     1      -4.448   0.854  -4.041  1.00  0.00     0.060 A 
ATOM     38  C   UNL     1      -4.052   2.201  -4.052  1.00  0.00     0.016 A 
ATOM     39  C   UNL     1      -4.962   0.269  -5.201  1.00  0.00     0.016 A 
ATOM     40  C   UNL     1      -4.199   2.970  -5.214  1.00  0.00     0.010 A 
ATOM     41  C   UNL     1      -5.116   1.037  -6.355  1.00  0.00     0.010 A 
ATOM     42  C   UNL     1      -4.766   2.399  -6.361  1.00  0.00    -0.014 A 
BRANCH  42  43
ATOM     43  C   UNL     1      -5.209   3.232  -7.508  1.00  0.00     0.031 A 
ATOM     44  C   UNL     1      -6.672   3.571  -7.599  1.00  0.00     0.074 A 
ATOM     45  C   UNL     1      -4.367   3.623  -8.482  1.00  0.00     0.049 A 
ATOM     46  N   UNL     1      -7.346   4.108  -8.582  1.00  0.00    -0.248 NA
ATOM     47  C   UNL     1      -7.487   3.237  -6.419  1.00  0.00     0.031 C 
ATOM     48  C   UNL     1      -2.924   3.399  -8.499  1.00  0.00     0.029 A 
ATOM     49  N   UNL     1      -4.623   4.269  -9.668  1.00  0.00    -0.354 N 
ATOM     50  C   UNL     1      -8.665   4.155  -8.149  1.00  0.00     0.074 A 
ATOM     51  C   UNL     1      -8.701   3.569  -6.827  1.00  0.00     0.031 C 
ATOM     52  C   UNL     1      -2.424   3.880  -9.652  1.00  0.00     0.029 A 
ATOM     53  C   UNL     1      -3.517   4.400 -10.473  1.00  0.00     0.049 A 
ATOM     54  H   UNL     1      -5.513   4.607  -9.916  1.00  0.00     0.167 HD
ATOM     55  C   UNL     1      -9.750   4.646  -8.792  1.00  0.00     0.037 A 
ATOM     56  C   UNL     1      -3.410   4.850 -11.740  1.00  0.00     0.037 A 
ATOM     57  C   UNL     1      -9.714   5.226 -10.107  1.00  0.00     0.049 A 
ATOM     58  C   UNL     1      -4.646   5.314 -12.473  1.00  0.00     0.074 A 
ATOM     59  C   UNL     1     -10.756   5.767 -10.838  1.00  0.00     0.029 A 
ATOM     60  N   UNL     1      -8.575   5.331 -10.891  1.00  0.00    -0.354 N 
ATOM     61  N   UNL     1      -5.887   5.374 -12.052  1.00  0.00    -0.248 NA
ATOM     62  C   UNL     1      -4.468   5.768 -13.861  1.00  0.00     0.031 C 
ATOM     63  C   UNL     1     -10.259   6.147 -12.088  1.00  0.00     0.029 A 
ATOM     64  C   UNL     1      -8.895   5.904 -12.110  1.00  0.00     0.049 A 
ATOM     65  H   UNL     1      -7.674   5.041 -10.622  1.00  0.00     0.167 HD
ATOM     66  C   UNL     1      -6.625   5.906 -13.104  1.00  0.00     0.074 A 
ATOM     67  C   UNL     1      -5.694   6.155 -14.184  1.00  0.00     0.031 C 
ATOM     68  C   UNL     1      -7.954   6.168 -13.169  1.00  0.00     0.037 A 
BRANCH  55  69
ATOM     69  C   UNL     1     -11.074   4.544  -8.092  1.00  0.00     0.057 A 
ATOM     70  C   UNL     1     -11.376   5.311  -6.958  1.00  0.00     0.134 A 
ATOM     71  C   UNL     1     -12.069   3.684  -8.573  1.00  0.00     0.134 A 
ATOM     72  F   UNL     1     -10.461   6.142  -6.436  1.00  0.00    -0.206 F 
ATOM     73  C   UNL     1     -12.609   5.206  -6.314  1.00  0.00     0.040 A 
ATOM     74  C   UNL     1     -13.317   3.594  -7.956  1.00  0.00     0.040 A 
ATOM     75  F   UNL     1     -11.848   2.924  -9.656  1.00  0.00    -0.206 F 
ATOM     76  C   UNL     1     -13.587   4.351  -6.818  1.00  0.00     0.006 A 
ENDBRANCH  55  69
BRANCH  56  77
ATOM     77  C   UNL     1      -2.088   4.867 -12.422  1.00  0.00     0.057 A 
ATOM     78  C   UNL     1      -1.467   6.074 -12.769  1.00  0.00     0.134 A 
ATOM     79  C   UNL     1      -1.431   3.683 -12.778  1.00  0.00     0.134 A 
ATOM     80  F   UNL     1      -2.059   7.243 -12.483  1.00  0.00    -0.206 F 
ATOM     81  C   UNL     1      -0.254   6.103 -13.459  1.00  0.00     0.040 A 
ATOM     82  C   UNL     1      -0.204   3.696 -13.443  1.00  0.00     0.040 A 
ATOM     83  F   UNL     1      -1.973   2.492 -12.482  1.00  0.00    -0.206 F 
ATOM     84  C   UNL     1       0.385   4.910 -13.793  1.00  0.00     0.006 A 
ENDBRANCH  56  77
BRANCH  68  85
ATOM     85  C   UNL     1      -8.483   6.813 -14.419  1.00  0.00     0.057 A 
ATOM     86  C   UNL     1      -8.607   6.112 -15.625  1.00  0.00     0.134 A 
ATOM     87  C   UNL     1      -8.948   8.135 -14.390  1.00  0.00     0.134 A 
ATOM     88  F   UNL     1      -8.172   4.847 -15.724  1.00  0.00    -0.206 F 
ATOM     89  C   UNL     1      -9.161   6.708 -16.760  1.00  0.00     0.040 A 
ATOM     90  C   UNL     1      -9.530   8.731 -15.509  1.00  0.00     0.040 A 
ATOM     91  F   UNL     1      -8.871   8.860 -13.263  1.00  0.00    -0.206 F 
ATOM     92  C   UNL     1      -9.634   8.018 -16.701  1.00  0.00     0.006 A 
ENDBRANCH  68  85
ENDBRANCH  42  43
ENDBRANCH  35  37
ENDBRANCH  34  35
ENDBRANCH  33  34
ENDBRANCH  32  33
ENDBRANCH  31  32
ENDBRANCH  30  31
ENDBRANCH   1  30
TORSDOF 22
