REMARK SMILES CN(C)C(=O)CCc1cccc(NC(=O)[C@H]2CCCC[C@@H]2C(=O)OCCOCCOCCOC(=O)c2ccc(-c3c4nc(c(-c5c(F)cccc5F)c5ccc([nH]5)c(-c5c(F)cccc5F)c5nc(c(-c6c(F)cccc6F)c6ccc3[nH]6)C=C5)C=C4)cc2)c1
REMARK SMILES IDX 27 1 26 2 25 3 24 4 22 5 23 6 21 7 16 8 17 9 18 10 20 11
REMARK SMILES IDX 19 12 14 13 13 14 15 16 12 17 8 18 9 19 90 20 10 21 11 22
REMARK SMILES IDX 7 23 6 24 4 25 1 26 2 27 3 28 5 29 28 30 29 31 30 32 31 33
REMARK SMILES IDX 32 34 33 35 34 36 35 37 36 38 37 39 89 40 38 41 88 42 39 43
REMARK SMILES IDX 40 44 41 45 82 46 42 47 87 48 81 49 83 50 43 51 86 52 80 53
REMARK SMILES IDX 79 54 44 56 70 57 53 58 69 59 54 60 57 61 68 62 84 63 55 64
REMARK SMILES IDX 56 65 67 67 85 68 58 69 45 70 46 71 51 72 47 73 48 74 50 75
REMARK SMILES IDX 52 76 49 77 71 78 72 79 77 80 73 81 74 82 76 83 78 84 75 85
REMARK SMILES IDX 59 86 60 87 65 88 61 89 62 90 64 91 66 92 63 93
REMARK H PARENT 13 15 83 55 57 66
REMARK Flexibility Score: inf
ROOT
ATOM      1  O   UNL     1      -7.044   5.564   2.399  1.00  0.00    -0.376 OA
ENDROOT
BRANCH   1   2
ATOM      2  C   UNL     1      -7.004   4.990   1.093  1.00  0.00     0.202 C 
BRANCH   2   3
ATOM      3  C   UNL     1      -6.196   5.768   0.045  1.00  0.00     0.261 C 
BRANCH   3   4
ATOM      4  O   UNL     1      -4.766   5.714   0.252  1.00  0.00    -0.463 OA
BRANCH   4   5
ATOM      5  C   UNL     1      -4.010   5.823  -0.885  1.00  0.00     0.309 C 
ATOM      6  O   UNL     1      -4.400   5.519  -2.005  1.00  0.00    -0.252 OA
BRANCH   5   7
ATOM      7  C   UNL     1      -2.670   6.526  -0.630  1.00  0.00     0.111 C 
ATOM      8  C   UNL     1      -1.589   5.619  -0.025  1.00  0.00     0.093 C 
ATOM      9  C   UNL     1      -1.776   5.312   1.444  1.00  0.00     0.014 C 
ATOM     10  C   UNL     1      -2.331   6.435   2.300  1.00  0.00     0.001 C 
ATOM     11  C   UNL     1      -2.954   7.808   0.143  1.00  0.00     0.016 C 
ATOM     12  C   UNL     1      -3.041   7.634   1.658  1.00  0.00     0.001 C 
BRANCH   8  13
ATOM     13  C   UNL     1      -0.139   5.843  -0.518  1.00  0.00     0.228 C 
ATOM     14  N   UNL     1       0.929   6.284   0.212  1.00  0.00    -0.326 N 
ATOM     15  H   UNL     1       1.762   5.811  -0.016  1.00  0.00     0.169 HD
ATOM     16  O   UNL     1       0.132   5.494  -1.679  1.00  0.00    -0.274 OA
BRANCH  14  17
ATOM     17  C   UNL     1       1.120   7.256   1.216  1.00  0.00     0.041 A 
ATOM     18  C   UNL     1       2.663   8.700   2.419  1.00  0.00    -0.045 A 
ATOM     19  C   UNL     1       1.606   9.457   2.933  1.00  0.00     0.004 A 
ATOM     20  C   UNL     1       2.411   7.531   1.666  1.00  0.00     0.029 A 
ATOM     21  C   UNL     1       0.328   9.180   2.505  1.00  0.00     0.002 A 
ATOM     22  C   UNL     1       0.136   8.144   1.592  1.00  0.00     0.026 A 
BRANCH  18  23
ATOM     23  C   UNL     1       4.031   9.338   2.402  1.00  0.00     0.045 C 
BRANCH  23  24
ATOM     24  C   UNL     1       4.349   9.884   0.998  1.00  0.00     0.105 C 
BRANCH  24  25
ATOM     25  C   UNL     1       3.305  10.875   0.474  1.00  0.00     0.222 C 
ATOM     26  C   UNL     1       1.587  11.540  -1.143  1.00  0.00     0.146 C 
ATOM     27  N   UNL     1       2.497  10.537  -0.608  1.00  0.00    -0.349 N 
ATOM     28  C   UNL     1       2.414   9.244  -1.272  1.00  0.00     0.146 C 
ATOM     29  O   UNL     1       3.217  11.979   1.022  1.00  0.00    -0.275 OA
ENDBRANCH  24  25
ENDBRANCH  23  24
ENDBRANCH  18  23
ENDBRANCH  14  17
ENDBRANCH   8  13
ENDBRANCH   5   7
ENDBRANCH   4   5
ENDBRANCH   3   4
ENDBRANCH   2   3
ENDBRANCH   1   2
BRANCH   1  30
ATOM     30  C   UNL     1      -5.840   5.516   3.157  1.00  0.00     0.188 C 
BRANCH  30  31
ATOM     31  C   UNL     1      -5.089   4.178   3.160  1.00  0.00     0.188 C 
BRANCH  31  32
ATOM     32  O   UNL     1      -5.865   3.074   3.614  1.00  0.00    -0.376 OA
BRANCH  32  33
ATOM     33  C   UNL     1      -6.371   3.192   4.946  1.00  0.00     0.202 C 
BRANCH  33  34
ATOM     34  C   UNL     1      -5.275   3.259   6.015  1.00  0.00     0.261 C 
BRANCH  34  35
ATOM     35  O   UNL     1      -4.691   4.579   6.098  1.00  0.00    -0.460 OA
BRANCH  35  36
ATOM     36  C   UNL     1      -3.682   4.654   7.002  1.00  0.00     0.338 C 
ATOM     37  O   UNL     1      -3.286   3.739   7.716  1.00  0.00    -0.246 OA
BRANCH  36  38
ATOM     38  C   UNL     1      -3.072   6.001   7.047  1.00  0.00     0.060 A 
ATOM     39  C   UNL     1      -2.657   6.638   5.880  1.00  0.00     0.016 A 
ATOM     40  C   UNL     1      -2.746   6.562   8.280  1.00  0.00     0.016 A 
ATOM     41  C   UNL     1      -1.841   7.777   5.934  1.00  0.00     0.010 A 
ATOM     42  C   UNL     1      -1.989   7.741   8.336  1.00  0.00     0.010 A 
ATOM     43  C   UNL     1      -1.477   8.336   7.166  1.00  0.00    -0.014 A 
BRANCH  43  44
ATOM     44  C   UNL     1      -0.466   9.435   7.274  1.00  0.00     0.031 A 
ATOM     45  C   UNL     1       0.786   9.205   8.089  1.00  0.00     0.074 A 
ATOM     46  C   UNL     1      -0.602  10.624   6.652  1.00  0.00     0.049 A 
ATOM     47  N   UNL     1       1.639  10.072   8.574  1.00  0.00    -0.248 NA
ATOM     48  C   UNL     1       1.111   7.805   8.405  1.00  0.00     0.031 C 
ATOM     49  C   UNL     1      -1.673  10.992   5.729  1.00  0.00     0.029 A 
ATOM     50  N   UNL     1       0.185  11.752   6.712  1.00  0.00    -0.354 N 
ATOM     51  C   UNL     1       2.548   9.333   9.322  1.00  0.00     0.074 A 
ATOM     52  C   UNL     1       2.159   7.943   9.204  1.00  0.00     0.031 C 
ATOM     53  C   UNL     1      -1.452  12.239   5.276  1.00  0.00     0.029 A 
ATOM     54  C   UNL     1      -0.288  12.799   5.958  1.00  0.00     0.049 A 
ATOM     55  H   UNL     1       1.012  11.803   7.245  1.00  0.00     0.167 HD
ATOM     56  C   UNL     1       3.598   9.771  10.057  1.00  0.00     0.037 A 
ATOM     57  C   UNL     1       0.129  14.078   5.867  1.00  0.00     0.037 A 
ATOM     58  C   UNL     1       4.040  11.139  10.120  1.00  0.00     0.049 A 
ATOM     59  C   UNL     1       1.255  14.565   6.742  1.00  0.00     0.074 A 
ATOM     60  C   UNL     1       5.078  11.680  10.859  1.00  0.00     0.029 A 
ATOM     61  N   UNL     1       3.486  12.177   9.390  1.00  0.00    -0.354 N 
ATOM     62  N   UNL     1       2.017  13.890   7.566  1.00  0.00    -0.248 NA
ATOM     63  C   UNL     1       1.542  16.009   6.707  1.00  0.00     0.031 C 
ATOM     64  C   UNL     1       5.136  13.053  10.596  1.00  0.00     0.029 A 
ATOM     65  C   UNL     1       4.154  13.358   9.669  1.00  0.00     0.049 A 
ATOM     66  H   UNL     1       2.730  12.088   8.766  1.00  0.00     0.167 HD
ATOM     67  C   UNL     1       2.876  14.822   8.140  1.00  0.00     0.074 A 
ATOM     68  C   UNL     1       2.556  16.106   7.556  1.00  0.00     0.031 C 
ATOM     69  C   UNL     1       3.834  14.631   9.079  1.00  0.00     0.037 A 
BRANCH  56  70
ATOM     70  C   UNL     1       4.307   8.762  10.911  1.00  0.00     0.057 A 
ATOM     71  C   UNL     1       5.205   7.829  10.383  1.00  0.00     0.134 A 
ATOM     72  C   UNL     1       4.092   8.747  12.296  1.00  0.00     0.134 A 
ATOM     73  F   UNL     1       5.440   7.782   9.063  1.00  0.00    -0.206 F 
ATOM     74  C   UNL     1       5.851   6.899  11.202  1.00  0.00     0.040 A 
ATOM     75  C   UNL     1       4.747   7.838  13.126  1.00  0.00     0.040 A 
ATOM     76  F   UNL     1       3.246   9.620  12.863  1.00  0.00    -0.206 F 
ATOM     77  C   UNL     1       5.626   6.906  12.578  1.00  0.00     0.006 A 
ENDBRANCH  56  70
BRANCH  57  78
ATOM     78  C   UNL     1      -0.561  15.030   4.958  1.00  0.00     0.057 A 
ATOM     79  C   UNL     1       0.101  15.565   3.845  1.00  0.00     0.134 A 
ATOM     80  C   UNL     1      -1.870  15.463   5.197  1.00  0.00     0.134 A 
ATOM     81  F   UNL     1       1.371  15.223   3.589  1.00  0.00    -0.206 F 
ATOM     82  C   UNL     1      -0.513  16.497   3.007  1.00  0.00     0.040 A 
ATOM     83  C   UNL     1      -2.506  16.374   4.353  1.00  0.00     0.040 A 
ATOM     84  F   UNL     1      -2.554  15.001   6.254  1.00  0.00    -0.206 F 
ATOM     85  C   UNL     1      -1.824  16.899   3.256  1.00  0.00     0.006 A 
ENDBRANCH  57  78
BRANCH  69  86
ATOM     86  C   UNL     1       4.619  15.830   9.518  1.00  0.00     0.057 A 
ATOM     87  C   UNL     1       4.074  16.788  10.381  1.00  0.00     0.134 A 
ATOM     88  C   UNL     1       5.945  16.010   9.105  1.00  0.00     0.134 A 
ATOM     89  F   UNL     1       2.805  16.680  10.802  1.00  0.00    -0.206 F 
ATOM     90  C   UNL     1       4.815  17.893  10.806  1.00  0.00     0.040 A 
ATOM     91  C   UNL     1       6.702  17.100   9.538  1.00  0.00     0.040 A 
ATOM     92  F   UNL     1       6.529  15.124   8.284  1.00  0.00    -0.206 F 
ATOM     93  C   UNL     1       6.135  18.048  10.388  1.00  0.00     0.006 A 
ENDBRANCH  69  86
ENDBRANCH  43  44
ENDBRANCH  36  38
ENDBRANCH  35  36
ENDBRANCH  34  35
ENDBRANCH  33  34
ENDBRANCH  32  33
ENDBRANCH  31  32
ENDBRANCH  30  31
ENDBRANCH   1  30
TORSDOF 22
