REMARK SMILES C[C@]1(C(=O)OCCOCCOCCOC(=O)c2ccc(-c3c4nc(c(-c5c(F)cccc5F)c5ccc([nH]5)c(-c5c(F)cccc5F)c5nc(c(-c6c(F)cccc6F)c6ccc3[nH]6)C=C5)C=C4)cc2)[NH2+]C2(C(=O)c3ccccc3C2=O)[C@@H]2C(=O)N(c3ccccc3)C(=O)[C@H]21
REMARK SMILES IDX 10 1 9 2 8 3 7 4 6 5 5 6 3 7 4 8 2 9 1 10 71 11 95 12 72 13
REMARK SMILES IDX 83 16 93 17 73 18 81 19 84 20 86 21 94 22 74 23 75 24 80 25
REMARK SMILES IDX 82 26 85 27 76 28 79 29 77 30 78 31 87 32 88 33 92 34 89 35
REMARK SMILES IDX 91 36 90 37 11 38 12 39 13 40 14 41 15 42 16 43 17 44 18 45
REMARK SMILES IDX 70 46 19 47 69 48 20 49 21 50 22 51 63 52 23 53 68 54 62 55
REMARK SMILES IDX 64 56 24 57 67 58 61 59 60 60 25 62 51 63 34 64 50 65 35 66
REMARK SMILES IDX 38 67 49 68 65 69 36 70 37 71 48 73 66 74 39 75 26 76 27 77
REMARK SMILES IDX 32 78 28 79 29 80 31 81 33 82 30 83 52 84 53 85 58 86 54 87
REMARK SMILES IDX 55 88 57 89 59 90 56 91 40 92 41 93 46 94 42 95 43 96 45 97
REMARK SMILES IDX 47 98 44 99
REMARK H PARENT 71 14 71 15 64 61 38 72
REMARK Flexibility Score: inf
ROOT
ATOM      1  C   UNL     1       0.638  -1.067   3.182  1.00  0.00     0.188 C 
ENDROOT
BRANCH   1   2
ATOM      2  C   UNL     1      -0.253   0.187   3.153  1.00  0.00     0.188 C 
BRANCH   2   3
ATOM      3  O   UNL     1      -1.453   0.134   3.883  1.00  0.00    -0.376 OA
BRANCH   3   4
ATOM      4  C   UNL     1      -2.597  -0.496   3.326  1.00  0.00     0.202 C 
BRANCH   4   5
ATOM      5  C   UNL     1      -2.673  -1.144   1.930  1.00  0.00     0.261 C 
BRANCH   5   6
ATOM      6  O   UNL     1      -1.444  -1.571   1.335  1.00  0.00    -0.459 OA
BRANCH   6   7
ATOM      7  C   UNL     1      -1.072  -0.960   0.178  1.00  0.00     0.368 C 
ATOM      8  O   UNL     1      -1.712  -0.061  -0.354  1.00  0.00    -0.245 OA
BRANCH   7   9
ATOM      9  C   UNL     1       0.261  -1.518  -0.414  1.00  0.00     0.205 C 
ATOM     10  C   UNL     1       1.239  -0.350  -0.547  1.00  0.00     0.093 C 
ATOM     11  N   UNL     1       0.866  -2.664   0.384  1.00  0.00    -0.313 N 
ATOM     12  C   UNL     1       0.026  -2.245  -1.700  1.00  0.00     0.172 C 
ATOM     13  C   UNL     1       0.334  -3.972  -0.183  1.00  0.00     0.237 C 
ATOM     14  H   UNL     1       0.599  -2.580   1.365  1.00  0.00     0.348 HD
ATOM     15  H   UNL     1       1.883  -2.640   0.319  1.00  0.00     0.348 HD
ATOM     16  C   UNL     1      -0.662  -3.496  -1.185  1.00  0.00     0.177 C 
ATOM     17  C   UNL     1      -0.890  -1.807  -2.781  1.00  0.00     0.244 C 
ATOM     18  C   UNL     1       1.507  -4.815  -0.678  1.00  0.00     0.232 C 
ATOM     19  C   UNL     1      -0.264  -4.835   0.931  1.00  0.00     0.232 C 
ATOM     20  C   UNL     1      -1.133  -4.089  -2.461  1.00  0.00     0.245 C 
ATOM     21  N   UNL     1      -1.478  -2.985  -3.239  1.00  0.00    -0.250 N 
ATOM     22  O   UNL     1      -0.983  -0.668  -3.184  1.00  0.00    -0.273 OA
ATOM     23  O   UNL     1       2.291  -4.521  -1.564  1.00  0.00    -0.286 OA
ATOM     24  C   UNL     1       1.631  -5.990   0.184  1.00  0.00     0.036 A 
ATOM     25  C   UNL     1       0.612  -5.995   1.128  1.00  0.00     0.036 A 
ATOM     26  O   UNL     1      -1.309  -4.669   1.534  1.00  0.00    -0.286 OA
ATOM     27  O   UNL     1      -1.288  -5.282  -2.655  1.00  0.00    -0.273 OA
ATOM     28  C   UNL     1       2.600  -6.977   0.152  1.00  0.00     0.013 A 
ATOM     29  C   UNL     1       0.508  -7.000   2.073  1.00  0.00     0.013 A 
ATOM     30  C   UNL     1       2.511  -8.001   1.100  1.00  0.00     0.001 A 
ATOM     31  C   UNL     1       1.472  -8.014   2.051  1.00  0.00     0.001 A 
BRANCH  21  32
ATOM     32  C   UNL     1      -2.442  -2.973  -4.262  1.00  0.00     0.052 A 
ATOM     33  C   UNL     1      -2.290  -2.124  -5.365  1.00  0.00     0.027 A 
ATOM     34  C   UNL     1      -3.638  -3.680  -4.098  1.00  0.00     0.027 A 
ATOM     35  C   UNL     1      -3.325  -1.964  -6.283  1.00  0.00     0.002 A 
ATOM     36  C   UNL     1      -4.690  -3.482  -4.994  1.00  0.00     0.002 A 
ATOM     37  C   UNL     1      -4.533  -2.627  -6.085  1.00  0.00     0.000 A 
ENDBRANCH  21  32
ENDBRANCH   7   9
ENDBRANCH   6   7
ENDBRANCH   5   6
ENDBRANCH   4   5
ENDBRANCH   3   4
ENDBRANCH   2   3
ENDBRANCH   1   2
BRANCH   1  38
ATOM     38  O   UNL     1       0.215  -2.278   3.768  1.00  0.00    -0.376 OA
BRANCH  38  39
ATOM     39  C   UNL     1      -0.205  -2.260   5.121  1.00  0.00     0.202 C 
BRANCH  39  40
ATOM     40  C   UNL     1       0.641  -1.562   6.203  1.00  0.00     0.261 C 
BRANCH  40  41
ATOM     41  O   UNL     1       1.231  -0.302   5.837  1.00  0.00    -0.460 OA
BRANCH  41  42
ATOM     42  C   UNL     1       2.571  -0.318   5.599  1.00  0.00     0.338 C 
ATOM     43  O   UNL     1       3.331  -1.265   5.709  1.00  0.00    -0.246 OA
BRANCH  42  44
ATOM     44  C   UNL     1       2.944   0.953   4.932  1.00  0.00     0.060 A 
ATOM     45  C   UNL     1       2.703   2.176   5.552  1.00  0.00     0.016 A 
ATOM     46  C   UNL     1       3.508   0.911   3.645  1.00  0.00     0.016 A 
ATOM     47  C   UNL     1       3.042   3.359   4.888  1.00  0.00     0.010 A 
ATOM     48  C   UNL     1       3.818   2.095   2.971  1.00  0.00     0.010 A 
ATOM     49  C   UNL     1       3.607   3.329   3.599  1.00  0.00    -0.014 A 
BRANCH  49  50
ATOM     50  C   UNL     1       4.115   4.584   2.992  1.00  0.00     0.031 A 
ATOM     51  C   UNL     1       3.354   5.326   1.934  1.00  0.00     0.074 A 
ATOM     52  C   UNL     1       5.294   5.064   3.431  1.00  0.00     0.049 A 
ATOM     53  N   UNL     1       3.616   6.494   1.402  1.00  0.00    -0.248 NA
ATOM     54  C   UNL     1       2.151   4.674   1.401  1.00  0.00     0.031 C 
ATOM     55  C   UNL     1       6.142   4.413   4.431  1.00  0.00     0.029 A 
ATOM     56  N   UNL     1       5.974   6.209   3.107  1.00  0.00    -0.354 N 
ATOM     57  C   UNL     1       2.596   6.737   0.493  1.00  0.00     0.074 A 
ATOM     58  C   UNL     1       1.741   5.565   0.506  1.00  0.00     0.031 C 
ATOM     59  C   UNL     1       7.214   5.187   4.663  1.00  0.00     0.029 A 
ATOM     60  C   UNL     1       7.141   6.370   3.813  1.00  0.00     0.049 A 
ATOM     61  H   UNL     1       5.656   6.854   2.434  1.00  0.00     0.167 HD
ATOM     62  C   UNL     1       2.384   7.842  -0.265  1.00  0.00     0.037 A 
ATOM     63  C   UNL     1       8.048   7.364   3.783  1.00  0.00     0.037 A 
ATOM     64  C   UNL     1       3.258   8.990  -0.302  1.00  0.00     0.049 A 
ATOM     65  C   UNL     1       7.821   8.545   2.882  1.00  0.00     0.074 A 
ATOM     66  C   UNL     1       3.111  10.166  -1.020  1.00  0.00     0.029 A 
ATOM     67  N   UNL     1       4.456   9.099   0.390  1.00  0.00    -0.354 N 
ATOM     68  N   UNL     1       6.805   8.804   2.095  1.00  0.00    -0.248 NA
ATOM     69  C   UNL     1       8.865   9.579   2.874  1.00  0.00     0.031 C 
ATOM     70  C   UNL     1       4.245  10.958  -0.809  1.00  0.00     0.029 A 
ATOM     71  C   UNL     1       5.070  10.307   0.092  1.00  0.00     0.049 A 
ATOM     72  H   UNL     1       4.817   8.419   1.004  1.00  0.00     0.167 HD
ATOM     73  C   UNL     1       7.071  10.044   1.528  1.00  0.00     0.074 A 
ATOM     74  C   UNL     1       8.336  10.490   2.071  1.00  0.00     0.031 C 
ATOM     75  C   UNL     1       6.328  10.750   0.640  1.00  0.00     0.037 A 
BRANCH  62  76
ATOM     76  C   UNL     1       1.154   7.862  -1.129  1.00  0.00     0.057 A 
ATOM     77  C   UNL     1       1.252   7.836  -2.526  1.00  0.00     0.134 A 
ATOM     78  C   UNL     1      -0.131   7.954  -0.576  1.00  0.00     0.134 A 
ATOM     79  F   UNL     1       2.451   7.767  -3.124  1.00  0.00    -0.206 F 
ATOM     80  C   UNL     1       0.119   7.896  -3.340  1.00  0.00     0.040 A 
ATOM     81  C   UNL     1      -1.273   7.986  -1.379  1.00  0.00     0.040 A 
ATOM     82  F   UNL     1      -0.298   7.986   0.755  1.00  0.00    -0.206 F 
ATOM     83  C   UNL     1      -1.149   7.961  -2.767  1.00  0.00     0.006 A 
ENDBRANCH  62  76
BRANCH  63  84
ATOM     84  C   UNL     1       9.253   7.298   4.647  1.00  0.00     0.057 A 
ATOM     85  C   UNL     1      10.262   6.356   4.417  1.00  0.00     0.134 A 
ATOM     86  C   UNL     1       9.438   8.199   5.702  1.00  0.00     0.134 A 
ATOM     87  F   UNL     1      10.140   5.458   3.428  1.00  0.00    -0.206 F 
ATOM     88  C   UNL     1      11.415   6.315   5.201  1.00  0.00     0.040 A 
ATOM     89  C   UNL     1      10.600   8.189   6.475  1.00  0.00     0.040 A 
ATOM     90  F   UNL     1       8.513   9.134   5.962  1.00  0.00    -0.206 F 
ATOM     91  C   UNL     1      11.592   7.242   6.226  1.00  0.00     0.006 A 
ENDBRANCH  63  84
BRANCH  75  92
ATOM     92  C   UNL     1       6.843  12.104   0.236  1.00  0.00     0.057 A 
ATOM     93  C   UNL     1       6.178  13.268   0.647  1.00  0.00     0.134 A 
ATOM     94  C   UNL     1       7.978  12.263  -0.569  1.00  0.00     0.134 A 
ATOM     95  F   UNL     1       5.081  13.191   1.415  1.00  0.00    -0.206 F 
ATOM     96  C   UNL     1       6.621  14.537   0.269  1.00  0.00     0.040 A 
ATOM     97  C   UNL     1       8.450  13.528  -0.927  1.00  0.00     0.040 A 
ATOM     98  F   UNL     1       8.673  11.193  -0.984  1.00  0.00    -0.206 F 
ATOM     99  C   UNL     1       7.766  14.669  -0.513  1.00  0.00     0.006 A 
ENDBRANCH  75  92
ENDBRANCH  49  50
ENDBRANCH  42  44
ENDBRANCH  41  42
ENDBRANCH  40  41
ENDBRANCH  39  40
ENDBRANCH  38  39
ENDBRANCH   1  38
TORSDOF 18
