REMARK SMILES CC1=NN(c2ccc(Cl)c(C(=O)OCCOCCOCCOC(=O)c3ccc(-c4c5nc(c(-c6c(F)cccc6F)c6ccc([nH]6)c(-c6c(F)cccc6F)c6nc(c(-c7c(F)cccc7F)c7ccc4[nH]7)C=C6)C=C5)cc3)c2)C(=O)/C1=C\c1ccccc1Cl
REMARK SMILES IDX 17 1 16 2 15 3 14 4 13 5 11 6 12 7 10 8 5 9 6 10 79 11 7 12
REMARK SMILES IDX 8 13 9 14 4 15 1 16 2 17 3 18 82 19 80 20 83 21 81 22 84 23
REMARK SMILES IDX 85 24 89 25 86 26 88 27 90 28 87 29 18 30 19 31 20 32 21 33
REMARK SMILES IDX 22 34 23 35 24 36 25 37 26 38 78 39 27 40 77 41 28 42 29 43
REMARK SMILES IDX 30 44 71 45 31 46 76 47 70 48 72 49 32 50 75 51 69 52 68 53
REMARK SMILES IDX 33 55 59 56 42 57 58 58 43 59 46 60 57 61 73 62 44 63 45 64
REMARK SMILES IDX 56 66 74 67 47 68 34 69 35 70 40 71 36 72 37 73 39 74 41 75
REMARK SMILES IDX 38 76 60 77 61 78 66 79 62 80 63 81 65 82 67 83 64 84 48 85
REMARK SMILES IDX 49 86 54 87 50 88 51 89 53 90 55 91 52 92
REMARK H PARENT 72 54 46 65
REMARK Flexibility Score: inf
ROOT
ATOM      1  C   UNL     1      -0.298   6.511   2.644  1.00  0.00     0.188 C 
ENDROOT
BRANCH   1   2
ATOM      2  O   UNL     1      -0.095   7.359   3.761  1.00  0.00    -0.376 OA
BRANCH   2   3
ATOM      3  C   UNL     1       1.181   7.952   3.967  1.00  0.00     0.202 C 
BRANCH   3   4
ATOM      4  C   UNL     1       2.452   7.106   3.846  1.00  0.00     0.261 C 
BRANCH   4   5
ATOM      5  O   UNL     1       2.553   6.428   2.587  1.00  0.00    -0.460 OA
BRANCH   5   6
ATOM      6  C   UNL     1       2.760   5.091   2.651  1.00  0.00     0.339 C 
ATOM      7  O   UNL     1       2.911   4.419   3.657  1.00  0.00    -0.246 OA
BRANCH   6   8
ATOM      8  C   UNL     1       2.564   4.486   1.319  1.00  0.00     0.080 A 
ATOM      9  C   UNL     1       1.509   2.709   0.048  1.00  0.00     0.070 A 
ATOM     10  C   UNL     1       2.242   3.099  -1.077  1.00  0.00     0.030 A 
ATOM     11  C   UNL     1       1.649   3.417   1.242  1.00  0.00     0.045 A 
ATOM     12  C   UNL     1       3.092   4.205  -1.020  1.00  0.00     0.023 A 
ATOM     13  C   UNL     1       3.272   4.893   0.183  1.00  0.00     0.055 A 
ATOM     14  Cl  UNL     1       4.421   6.180   0.195  1.00  0.00    -0.083 Cl
BRANCH   9  15
ATOM     15  N   UNL     1       0.778   1.515   0.019  1.00  0.00    -0.196 N 
ATOM     16  C   UNL     1      -2.353  -0.245   0.271  1.00  0.00     0.069 C 
ATOM     17  C   UNL     1      -0.946   0.246   0.172  1.00  0.00     0.071 C 
ATOM     18  N   UNL     1      -0.579   1.499   0.312  1.00  0.00    -0.169 NA
ATOM     19  C   UNL     1       0.203  -0.642  -0.094  1.00  0.00     0.065 C 
ATOM     20  C   UNL     1       1.337   0.281  -0.330  1.00  0.00     0.280 C 
ATOM     21  C   UNL     1       0.254  -1.975   0.040  1.00  0.00     0.025 C 
ATOM     22  O   UNL     1       2.453   0.006  -0.706  1.00  0.00    -0.267 OA
BRANCH  21  23
ATOM     23  C   UNL     1       1.541  -2.689   0.085  1.00  0.00    -0.006 A 
ATOM     24  C   UNL     1       1.950  -3.429  -1.031  1.00  0.00     0.009 A 
ATOM     25  C   UNL     1       2.416  -2.583   1.188  1.00  0.00     0.048 A 
ATOM     26  C   UNL     1       3.218  -4.019  -1.060  1.00  0.00     0.001 A 
ATOM     27  C   UNL     1       3.686  -3.162   1.148  1.00  0.00     0.021 A 
ATOM     28  Cl  UNL     1       1.971  -1.728   2.629  1.00  0.00    -0.084 Cl
ATOM     29  C   UNL     1       4.089  -3.874   0.020  1.00  0.00     0.002 A 
ENDBRANCH  21  23
ENDBRANCH   9  15
ENDBRANCH   6   8
ENDBRANCH   5   6
ENDBRANCH   4   5
ENDBRANCH   3   4
ENDBRANCH   2   3
ENDBRANCH   1   2
BRANCH   1  30
ATOM     30  C   UNL     1      -0.014   7.019   1.213  1.00  0.00     0.188 C 
BRANCH  30  31
ATOM     31  O   UNL     1       0.523   8.304   1.020  1.00  0.00    -0.376 OA
BRANCH  31  32
ATOM     32  C   UNL     1      -0.259   9.467   1.224  1.00  0.00     0.202 C 
BRANCH  32  33
ATOM     33  C   UNL     1      -1.796   9.514   1.272  1.00  0.00     0.261 C 
BRANCH  33  34
ATOM     34  O   UNL     1      -2.485   8.318   1.638  1.00  0.00    -0.460 OA
BRANCH  34  35
ATOM     35  C   UNL     1      -3.160   7.714   0.629  1.00  0.00     0.338 C 
ATOM     36  O   UNL     1      -3.226   8.060  -0.537  1.00  0.00    -0.246 OA
BRANCH  35  37
ATOM     37  C   UNL     1      -3.697   6.432   1.117  1.00  0.00     0.060 A 
ATOM     38  C   UNL     1      -3.197   5.244   0.569  1.00  0.00     0.016 A 
ATOM     39  C   UNL     1      -4.717   6.407   2.068  1.00  0.00     0.016 A 
ATOM     40  C   UNL     1      -3.738   4.019   0.955  1.00  0.00     0.010 A 
ATOM     41  C   UNL     1      -5.274   5.180   2.436  1.00  0.00     0.010 A 
ATOM     42  C   UNL     1      -4.809   3.985   1.858  1.00  0.00    -0.014 A 
BRANCH  42  43
ATOM     43  C   UNL     1      -5.565   2.726   2.057  1.00  0.00     0.031 A 
ATOM     44  C   UNL     1      -6.839   2.526   1.284  1.00  0.00     0.074 A 
ATOM     45  C   UNL     1      -5.129   1.774   2.900  1.00  0.00     0.049 A 
ATOM     46  N   UNL     1      -7.705   1.547   1.346  1.00  0.00    -0.248 NA
ATOM     47  C   UNL     1      -7.181   3.572   0.306  1.00  0.00     0.031 C 
ATOM     48  C   UNL     1      -3.889   1.826   3.671  1.00  0.00     0.029 A 
ATOM     49  N   UNL     1      -5.700   0.577   3.257  1.00  0.00    -0.354 N 
ATOM     50  C   UNL     1      -8.695   1.862   0.423  1.00  0.00     0.074 A 
ATOM     51  C   UNL     1      -8.338   3.135  -0.166  1.00  0.00     0.031 C 
ATOM     52  C   UNL     1      -3.805   0.721   4.434  1.00  0.00     0.029 A 
ATOM     53  C   UNL     1      -4.999  -0.097   4.226  1.00  0.00     0.049 A 
ATOM     54  H   UNL     1      -6.532   0.236   2.857  1.00  0.00     0.167 HD
ATOM     55  C   UNL     1      -9.797   1.151   0.089  1.00  0.00     0.037 A 
ATOM     56  C   UNL     1      -5.305  -1.230   4.888  1.00  0.00     0.037 A 
ATOM     57  C   UNL     1     -10.158  -0.109   0.681  1.00  0.00     0.049 A 
ATOM     58  C   UNL     1      -6.586  -1.956   4.565  1.00  0.00     0.074 A 
ATOM     59  C   UNL     1     -11.252  -0.910   0.404  1.00  0.00     0.029 A 
ATOM     60  N   UNL     1      -9.436  -0.747   1.677  1.00  0.00    -0.354 N 
ATOM     61  N   UNL     1      -7.501  -1.667   3.671  1.00  0.00    -0.248 NA
ATOM     62  C   UNL     1      -6.874  -3.171   5.343  1.00  0.00     0.031 C 
ATOM     63  C   UNL     1     -11.216  -2.011   1.265  1.00  0.00     0.029 A 
ATOM     64  C   UNL     1     -10.071  -1.923   2.040  1.00  0.00     0.049 A 
ATOM     65  H   UNL     1      -8.597  -0.414   2.069  1.00  0.00     0.167 HD
ATOM     66  C   UNL     1      -8.450  -2.680   3.754  1.00  0.00     0.074 A 
ATOM     67  C   UNL     1      -7.995  -3.596   4.778  1.00  0.00     0.031 C 
ATOM     68  C   UNL     1      -9.595  -2.839   3.045  1.00  0.00     0.037 A 
BRANCH  55  69
ATOM     69  C   UNL     1     -10.705   1.733  -0.954  1.00  0.00     0.057 A 
ATOM     70  C   UNL     1     -10.341   1.777  -2.306  1.00  0.00     0.134 A 
ATOM     71  C   UNL     1     -11.972   2.219  -0.608  1.00  0.00     0.134 A 
ATOM     72  F   UNL     1      -9.135   1.341  -2.701  1.00  0.00    -0.206 F 
ATOM     73  C   UNL     1     -11.198   2.302  -3.275  1.00  0.00     0.040 A 
ATOM     74  C   UNL     1     -12.848   2.722  -1.571  1.00  0.00     0.040 A 
ATOM     75  F   UNL     1     -12.383   2.202   0.669  1.00  0.00    -0.206 F 
ATOM     76  C   UNL     1     -12.459   2.769  -2.909  1.00  0.00     0.006 A 
ENDBRANCH  55  69
BRANCH  56  77
ATOM     77  C   UNL     1      -4.398  -1.751   5.942  1.00  0.00     0.057 A 
ATOM     78  C   UNL     1      -3.702  -2.953   5.770  1.00  0.00     0.134 A 
ATOM     79  C   UNL     1      -4.246  -1.088   7.166  1.00  0.00     0.134 A 
ATOM     80  F   UNL     1      -3.828  -3.647   4.628  1.00  0.00    -0.206 F 
ATOM     81  C   UNL     1      -2.909  -3.491   6.784  1.00  0.00     0.040 A 
ATOM     82  C   UNL     1      -3.434  -1.600   8.179  1.00  0.00     0.040 A 
ATOM     83  F   UNL     1      -4.888   0.067   7.396  1.00  0.00    -0.206 F 
ATOM     84  C   UNL     1      -2.771  -2.812   7.993  1.00  0.00     0.006 A 
ENDBRANCH  56  77
BRANCH  68  85
ATOM     85  C   UNL     1     -10.407  -4.075   3.305  1.00  0.00     0.057 A 
ATOM     86  C   UNL     1     -11.145  -4.248   4.483  1.00  0.00     0.134 A 
ATOM     87  C   UNL     1     -10.487  -5.087   2.338  1.00  0.00     0.134 A 
ATOM     88  F   UNL     1     -11.103  -3.323   5.453  1.00  0.00    -0.206 F 
ATOM     89  C   UNL     1     -11.913  -5.393   4.700  1.00  0.00     0.040 A 
ATOM     90  C   UNL     1     -11.274  -6.223   2.532  1.00  0.00     0.040 A 
ATOM     91  F   UNL     1      -9.813  -4.980   1.183  1.00  0.00    -0.206 F 
ATOM     92  C   UNL     1     -11.986  -6.381   3.719  1.00  0.00     0.006 A 
ENDBRANCH  68  85
ENDBRANCH  42  43
ENDBRANCH  35  37
ENDBRANCH  34  35
ENDBRANCH  33  34
ENDBRANCH  32  33
ENDBRANCH  31  32
ENDBRANCH  30  31
ENDBRANCH   1  30
TORSDOF 19
