REMARK SMILES Cc1cc(C(=O)N[C@@H]2C(=O)N3C(C(=O)OCCOCCOCCOC(=O)c4ccc(-c5c6nc(c(-c7c(F)cccc7F)c7ccc([nH]7)c(-c7c(F)cccc7F)c7nc(c(-c8c(F)cccc8F)c8ccc5[nH]8)C=C7)C=C6)cc4)=C(CSc4nnc(C)s4)CS[C@H]23)n(C)n1
REMARK SMILES IDX 19 1 18 2 17 3 16 4 15 5 13 6 14 7 12 8 8 9 9 10 92 11 10 12
REMARK SMILES IDX 11 13 91 14 90 15 81 16 7 17 5 18 6 19 4 21 1 22 2 23 3 24
REMARK SMILES IDX 95 25 93 26 94 27 82 28 83 29 84 30 85 31 89 32 86 33 87 34
REMARK SMILES IDX 88 35 20 36 21 37 22 38 23 39 24 40 25 41 26 42 27 43 28 44
REMARK SMILES IDX 80 45 29 46 79 47 30 48 31 49 32 50 73 51 33 52 78 53 72 54
REMARK SMILES IDX 74 55 34 56 77 57 71 58 70 59 35 61 61 62 44 63 60 64 45 65
REMARK SMILES IDX 48 66 59 67 75 68 46 69 47 70 58 72 76 73 49 74 36 75 37 76
REMARK SMILES IDX 42 77 38 78 39 79 41 80 43 81 40 82 62 83 63 84 68 85 64 86
REMARK SMILES IDX 65 87 67 88 69 89 66 90 50 91 51 92 56 93 52 94 53 95 55 96
REMARK SMILES IDX 57 97 54 98
REMARK H PARENT 7 20 74 60 48 71
REMARK Flexibility Score: inf
ROOT
ATOM      1  C   UNL     1      -3.129   0.438  -0.762  1.00  0.00     0.188 C 
ENDROOT
BRANCH   1   2
ATOM      2  O   UNL     1      -3.292   1.732  -1.311  1.00  0.00    -0.376 OA
BRANCH   2   3
ATOM      3  C   UNL     1      -3.611   1.862  -2.690  1.00  0.00     0.202 C 
BRANCH   3   4
ATOM      4  C   UNL     1      -3.093   0.879  -3.754  1.00  0.00     0.261 C 
BRANCH   4   5
ATOM      5  O   UNL     1      -3.318  -0.511  -3.461  1.00  0.00    -0.459 OA
BRANCH   5   6
ATOM      6  C   UNL     1      -2.207  -1.278  -3.358  1.00  0.00     0.355 C 
ATOM      7  O   UNL     1      -1.063  -0.916  -3.603  1.00  0.00    -0.244 OA
BRANCH   6   8
ATOM      8  C   UNL     1      -2.484  -2.659  -2.834  1.00  0.00     0.132 C 
ATOM      9  C   UNL     1      -0.225  -4.066  -0.680  1.00  0.00     0.206 C 
ATOM     10  C   UNL     1      -0.898  -2.678  -0.832  1.00  0.00     0.253 C 
ATOM     11  C   UNL     1      -1.230  -4.498  -1.788  1.00  0.00     0.181 C 
ATOM     12  O   UNL     1      -0.852  -1.622  -0.236  1.00  0.00    -0.272 OA
ATOM     13  N   UNL     1      -1.583  -3.114  -1.911  1.00  0.00    -0.289 N 
ATOM     14  S   UNL     1      -2.746  -5.356  -1.311  1.00  0.00    -0.129 SA
ATOM     15  C   UNL     1      -3.514  -4.977  -2.908  1.00  0.00     0.106 C 
ATOM     16  C   UNL     1      -3.454  -3.496  -3.297  1.00  0.00    -0.019 C 
BRANCH   9  17
ATOM     17  N   UNL     1      -0.239  -4.825   0.595  1.00  0.00    -0.336 N 
ATOM     18  C   UNL     1      -0.001  -6.184   0.756  1.00  0.00     0.270 C 
ATOM     19  O   UNL     1      -0.110  -6.655   1.885  1.00  0.00    -0.268 OA
ATOM     20  H   UNL     1      -0.439  -4.313   1.411  1.00  0.00     0.164 HD
BRANCH  18  21
ATOM     21  C   UNL     1       0.279  -6.981  -0.424  1.00  0.00     0.126 A 
ATOM     22  C   UNL     1       0.354  -7.458  -4.029  1.00  0.00     0.069 C 
ATOM     23  C   UNL     1       0.394  -7.588  -2.553  1.00  0.00     0.060 A 
ATOM     24  C   UNL     1       0.905  -6.662  -1.622  1.00  0.00     0.059 A 
ATOM     25  N   UNL     1      -0.173  -8.622  -1.931  1.00  0.00    -0.178 NA
ATOM     26  N   UNL     1      -0.086  -8.296  -0.619  1.00  0.00    -0.263 N 
ATOM     27  C   UNL     1      -0.360  -9.328   0.351  1.00  0.00     0.174 C 
ENDBRANCH  18  21
ENDBRANCH   9  17
BRANCH  16  28
ATOM     28  C   UNL     1      -4.482  -3.158  -4.348  1.00  0.00     0.111 C 
BRANCH  28  29
ATOM     29  S   UNL     1      -6.084  -2.498  -3.844  1.00  0.00    -0.089 SA
BRANCH  29  30
ATOM     30  C   UNL     1      -6.542  -3.113  -2.276  1.00  0.00     0.174 A 
ATOM     31  N   UNL     1      -5.873  -4.005  -1.587  1.00  0.00    -0.132 NA
ATOM     32  S   UNL     1      -7.962  -2.563  -1.465  1.00  0.00    -0.091 S 
ATOM     33  N   UNL     1      -6.392  -4.216  -0.325  1.00  0.00    -0.143 NA
ATOM     34  C   UNL     1      -7.451  -3.469  -0.098  1.00  0.00     0.115 A 
ATOM     35  C   UNL     1      -8.171  -3.378   1.198  1.00  0.00     0.081 C 
ENDBRANCH  29  30
ENDBRANCH  28  29
ENDBRANCH  16  28
ENDBRANCH   6   8
ENDBRANCH   5   6
ENDBRANCH   4   5
ENDBRANCH   3   4
ENDBRANCH   2   3
ENDBRANCH   1   2
BRANCH   1  36
ATOM     36  C   UNL     1      -4.319  -0.538  -0.792  1.00  0.00     0.188 C 
BRANCH  36  37
ATOM     37  O   UNL     1      -5.488  -0.159  -1.476  1.00  0.00    -0.376 OA
BRANCH  37  38
ATOM     38  C   UNL     1      -6.352   0.820  -0.934  1.00  0.00     0.202 C 
BRANCH  38  39
ATOM     39  C   UNL     1      -6.386   1.256   0.541  1.00  0.00     0.261 C 
BRANCH  39  40
ATOM     40  O   UNL     1      -5.227   1.019   1.343  1.00  0.00    -0.460 OA
BRANCH  40  41
ATOM     41  C   UNL     1      -5.308  -0.037   2.194  1.00  0.00     0.338 C 
ATOM     42  O   UNL     1      -6.251  -0.795   2.342  1.00  0.00    -0.246 OA
BRANCH  41  43
ATOM     43  C   UNL     1      -3.975  -0.257   2.792  1.00  0.00     0.060 A 
ATOM     44  C   UNL     1      -3.296  -1.455   2.526  1.00  0.00     0.016 A 
ATOM     45  C   UNL     1      -3.405   0.711   3.619  1.00  0.00     0.016 A 
ATOM     46  C   UNL     1      -2.049  -1.694   3.104  1.00  0.00     0.010 A 
ATOM     47  C   UNL     1      -2.167   0.459   4.215  1.00  0.00     0.010 A 
ATOM     48  C   UNL     1      -1.494  -0.754   3.981  1.00  0.00    -0.014 A 
BRANCH  48  49
ATOM     49  C   UNL     1      -0.305  -1.107   4.796  1.00  0.00     0.031 A 
ATOM     50  C   UNL     1      -0.518  -1.560   6.214  1.00  0.00     0.074 A 
ATOM     51  C   UNL     1       0.941  -1.028   4.298  1.00  0.00     0.049 A 
ATOM     52  N   UNL     1       0.360  -1.837   7.143  1.00  0.00    -0.248 NA
ATOM     53  C   UNL     1      -1.918  -1.716   6.641  1.00  0.00     0.031 C 
ATOM     54  C   UNL     1       1.286  -0.651   2.929  1.00  0.00     0.029 A 
ATOM     55  N   UNL     1       2.154  -1.247   4.906  1.00  0.00    -0.354 N 
ATOM     56  C   UNL     1      -0.379  -2.191   8.265  1.00  0.00     0.074 A 
ATOM     57  C   UNL     1      -1.776  -2.060   7.911  1.00  0.00     0.031 C 
ATOM     58  C   UNL     1       2.626  -0.640   2.808  1.00  0.00     0.029 A 
ATOM     59  C   UNL     1       3.230  -0.977   4.097  1.00  0.00     0.049 A 
ATOM     60  H   UNL     1       2.242  -1.567   5.832  1.00  0.00     0.167 HD
ATOM     61  C   UNL     1       0.065  -2.593   9.480  1.00  0.00     0.037 A 
ATOM     62  C   UNL     1       4.549  -0.974   4.377  1.00  0.00     0.037 A 
ATOM     63  C   UNL     1       1.455  -2.712   9.836  1.00  0.00     0.049 A 
ATOM     64  C   UNL     1       5.020  -1.336   5.763  1.00  0.00     0.074 A 
ATOM     65  C   UNL     1       2.003  -3.128  11.037  1.00  0.00     0.029 A 
ATOM     66  N   UNL     1       2.515  -2.401   8.999  1.00  0.00    -0.354 N 
ATOM     67  N   UNL     1       4.319  -1.694   6.812  1.00  0.00    -0.248 NA
ATOM     68  C   UNL     1       6.471  -1.296   6.004  1.00  0.00     0.031 C 
ATOM     69  C   UNL     1       3.393  -3.003  10.949  1.00  0.00     0.029 A 
ATOM     70  C   UNL     1       3.715  -2.582   9.669  1.00  0.00     0.049 A 
ATOM     71  H   UNL     1       2.429  -2.098   8.066  1.00  0.00     0.167 HD
ATOM     72  C   UNL     1       5.241  -1.957   7.820  1.00  0.00     0.074 A 
ATOM     73  C   UNL     1       6.553  -1.726   7.255  1.00  0.00     0.031 C 
ATOM     74  C   UNL     1       5.020  -2.357   9.098  1.00  0.00     0.037 A 
BRANCH  61  75
ATOM     75  C   UNL     1      -0.970  -2.894  10.526  1.00  0.00     0.057 A 
ATOM     76  C   UNL     1      -1.821  -4.003  10.436  1.00  0.00     0.134 A 
ATOM     77  C   UNL     1      -1.105  -2.068  11.650  1.00  0.00     0.134 A 
ATOM     78  F   UNL     1      -1.756  -4.828   9.380  1.00  0.00    -0.206 F 
ATOM     79  C   UNL     1      -2.790  -4.261  11.408  1.00  0.00     0.040 A 
ATOM     80  C   UNL     1      -2.047  -2.334  12.644  1.00  0.00     0.040 A 
ATOM     81  F   UNL     1      -0.319  -0.992  11.803  1.00  0.00    -0.206 F 
ATOM     82  C   UNL     1      -2.899  -3.429  12.520  1.00  0.00     0.006 A 
ENDBRANCH  61  75
BRANCH  62  83
ATOM     83  C   UNL     1       5.532  -0.596   3.327  1.00  0.00     0.057 A 
ATOM     84  C   UNL     1       6.435  -1.531   2.807  1.00  0.00     0.134 A 
ATOM     85  C   UNL     1       5.614   0.716   2.843  1.00  0.00     0.134 A 
ATOM     86  F   UNL     1       6.427  -2.797   3.250  1.00  0.00    -0.206 F 
ATOM     87  C   UNL     1       7.396  -1.172   1.860  1.00  0.00     0.040 A 
ATOM     88  C   UNL     1       6.550   1.081   1.874  1.00  0.00     0.040 A 
ATOM     89  F   UNL     1       4.783   1.661   3.304  1.00  0.00    -0.206 F 
ATOM     90  C   UNL     1       7.451   0.137   1.386  1.00  0.00     0.006 A 
ENDBRANCH  62  83
BRANCH  74  91
ATOM     91  C   UNL     1       6.221  -2.621   9.964  1.00  0.00     0.057 A 
ATOM     92  C   UNL     1       7.055  -1.593  10.422  1.00  0.00     0.134 A 
ATOM     93  C   UNL     1       6.522  -3.925  10.383  1.00  0.00     0.134 A 
ATOM     94  F   UNL     1       6.833  -0.322  10.053  1.00  0.00    -0.206 F 
ATOM     95  C   UNL     1       8.158  -1.854  11.239  1.00  0.00     0.040 A 
ATOM     96  C   UNL     1       7.601  -4.195  11.226  1.00  0.00     0.040 A 
ATOM     97  F   UNL     1       5.760  -4.959   9.994  1.00  0.00    -0.206 F 
ATOM     98  C   UNL     1       8.428  -3.158  11.650  1.00  0.00     0.006 A 
ENDBRANCH  74  91
ENDBRANCH  48  49
ENDBRANCH  41  43
ENDBRANCH  40  41
ENDBRANCH  39  40
ENDBRANCH  38  39
ENDBRANCH  37  38
ENDBRANCH  36  37
ENDBRANCH   1  36
TORSDOF 22
