REMARK SMILES C[N@H+]1CCO[C@@H](CNS(=O)(=O)N2CCC(C(=O)OCCOCCOCCOC(=O)c3ccc(-c4c5nc(c(-c6c(F)cccc6F)c6ccc([nH]6)c(-c6c(F)cccc6F)c6nc(c(-c7c(F)cccc7F)c7ccc4[nH]7)C=C6)C=C5)cc3)CC2)C1
REMARK SMILES IDX 22 1 21 2 20 3 19 4 18 5 16 6 17 7 15 8 12 9 13 10 85 11
REMARK SMILES IDX 14 12 84 13 9 14 10 15 11 16 8 17 7 19 6 20 1 21 2 22 3 23
REMARK SMILES IDX 86 24 4 26 5 27 23 28 24 29 25 30 26 31 27 32 28 33 29 34
REMARK SMILES IDX 30 35 31 36 83 37 32 38 82 39 33 40 34 41 35 42 76 43 36 44
REMARK SMILES IDX 81 45 75 46 77 47 37 48 80 49 74 50 73 51 38 53 64 54 47 55
REMARK SMILES IDX 63 56 48 57 51 58 62 59 78 60 49 61 50 62 61 64 79 65 52 66
REMARK SMILES IDX 39 67 40 68 45 69 41 70 42 71 44 72 46 73 43 74 65 75 66 76
REMARK SMILES IDX 71 77 67 78 68 79 70 80 72 81 69 82 53 83 54 84 59 85 55 86
REMARK SMILES IDX 56 87 58 88 60 89 57 90
REMARK H PARENT 8 18 2 25 77 52 51 63
REMARK Flexibility Score: inf
ROOT
ATOM      1  C   UNL     1       7.803  -4.394  -0.281  1.00  0.00     0.188 C 
ENDROOT
BRANCH   1   2
ATOM      2  O   UNL     1       7.043  -5.154  -1.216  1.00  0.00    -0.376 OA
BRANCH   2   3
ATOM      3  C   UNL     1       5.913  -4.569  -1.846  1.00  0.00     0.202 C 
BRANCH   3   4
ATOM      4  C   UNL     1       4.716  -4.180  -0.961  1.00  0.00     0.261 C 
BRANCH   4   5
ATOM      5  O   UNL     1       5.008  -3.460   0.259  1.00  0.00    -0.463 OA
BRANCH   5   6
ATOM      6  C   UNL     1       5.076  -4.191   1.401  1.00  0.00     0.309 C 
ATOM      7  O   UNL     1       4.859  -5.398   1.451  1.00  0.00    -0.252 OA
BRANCH   6   8
ATOM      8  C   UNL     1       5.338  -3.377   2.683  1.00  0.00     0.102 C 
ATOM      9  N   UNL     1       4.321  -0.996   4.062  1.00  0.00    -0.189 NA
ATOM     10  C   UNL     1       3.867  -2.316   4.500  1.00  0.00     0.104 C 
ATOM     11  C   UNL     1       5.761  -1.038   3.733  1.00  0.00     0.104 C 
ATOM     12  C   UNL     1       3.981  -3.334   3.380  1.00  0.00     0.032 C 
ATOM     13  C   UNL     1       6.003  -1.991   2.557  1.00  0.00     0.032 C 
BRANCH   9  14
ATOM     14  S   UNL     1       3.408   0.117   3.202  1.00  0.00     0.279 S 
ATOM     15  O   UNL     1       3.712  -0.024   1.801  1.00  0.00    -0.195 OA
ATOM     16  O   UNL     1       3.566   1.404   3.845  1.00  0.00    -0.195 OA
BRANCH  14  17
ATOM     17  N   UNL     1       1.781  -0.318   3.387  1.00  0.00    -0.199 NA
ATOM     18  H   UNL     1       1.601  -0.466   4.380  1.00  0.00     0.142 HD
BRANCH  17  19
ATOM     19  C   UNL     1       1.391  -1.545   2.659  1.00  0.00     0.138 C 
BRANCH  19  20
ATOM     20  C   UNL     1      -0.067  -1.780   2.287  1.00  0.00     0.188 C 
ATOM     21  C   UNL     1       0.974  -0.172  -0.413  1.00  0.00     0.332 C 
ATOM     22  N   UNL     1      -0.226  -0.943  -0.123  1.00  0.00    -0.333 N 
ATOM     23  C   UNL     1      -0.131  -2.354  -0.540  1.00  0.00     0.290 C 
ATOM     24  C   UNL     1      -0.698  -0.828   1.264  1.00  0.00     0.295 C 
ATOM     25  H   UNL     1      -0.940  -0.504  -0.704  1.00  0.00     0.348 HD
ATOM     26  C   UNL     1       0.432  -3.324   0.512  1.00  0.00     0.222 C 
ATOM     27  O   UNL     1      -0.188  -3.145   1.799  1.00  0.00    -0.365 OA
ENDBRANCH  19  20
ENDBRANCH  17  19
ENDBRANCH  14  17
ENDBRANCH   9  14
ENDBRANCH   6   8
ENDBRANCH   5   6
ENDBRANCH   4   5
ENDBRANCH   3   4
ENDBRANCH   2   3
ENDBRANCH   1   2
BRANCH   1  28
ATOM     28  C   UNL     1       7.741  -2.860  -0.301  1.00  0.00     0.188 C 
BRANCH  28  29
ATOM     29  O   UNL     1       7.417  -2.322  -1.562  1.00  0.00    -0.376 OA
BRANCH  29  30
ATOM     30  C   UNL     1       8.295  -1.345  -2.079  1.00  0.00     0.202 C 
BRANCH  30  31
ATOM     31  C   UNL     1       9.651  -1.914  -2.514  1.00  0.00     0.261 C 
BRANCH  31  32
ATOM     32  O   UNL     1      10.336  -2.719  -1.530  1.00  0.00    -0.460 OA
BRANCH  32  33
ATOM     33  C   UNL     1      10.873  -2.069  -0.471  1.00  0.00     0.338 C 
ATOM     34  O   UNL     1      10.873  -0.865  -0.283  1.00  0.00    -0.246 OA
BRANCH  33  35
ATOM     35  C   UNL     1      11.246  -3.070   0.564  1.00  0.00     0.060 A 
ATOM     36  C   UNL     1      10.713  -2.932   1.855  1.00  0.00     0.016 A 
ATOM     37  C   UNL     1      12.108  -4.130   0.278  1.00  0.00     0.016 A 
ATOM     38  C   UNL     1      11.076  -3.823   2.869  1.00  0.00     0.010 A 
ATOM     39  C   UNL     1      12.486  -5.012   1.302  1.00  0.00     0.010 A 
ATOM     40  C   UNL     1      12.003  -4.843   2.613  1.00  0.00    -0.014 A 
BRANCH  40  41
ATOM     41  C   UNL     1      12.596  -5.602   3.750  1.00  0.00     0.031 A 
ATOM     42  C   UNL     1      13.964  -5.209   4.249  1.00  0.00     0.074 A 
ATOM     43  C   UNL     1      11.927  -6.592   4.370  1.00  0.00     0.049 A 
ATOM     44  N   UNL     1      14.677  -5.721   5.221  1.00  0.00    -0.248 NA
ATOM     45  C   UNL     1      14.614  -4.087   3.555  1.00  0.00     0.031 C 
ATOM     46  C   UNL     1      10.587  -7.057   4.023  1.00  0.00     0.029 A 
ATOM     47  N   UNL     1      12.296  -7.388   5.429  1.00  0.00    -0.354 N 
ATOM     48  C   UNL     1      15.857  -4.987   5.253  1.00  0.00     0.074 A 
ATOM     49  C   UNL     1      15.780  -4.020   4.178  1.00  0.00     0.031 C 
ATOM     50  C   UNL     1      10.246  -8.060   4.851  1.00  0.00     0.029 A 
ATOM     51  C   UNL     1      11.354  -8.329   5.768  1.00  0.00     0.049 A 
ATOM     52  H   UNL     1      13.154  -7.292   5.901  1.00  0.00     0.167 HD
ATOM     53  C   UNL     1      16.907  -5.095   6.103  1.00  0.00     0.037 A 
ATOM     54  C   UNL     1      11.387  -9.305   6.698  1.00  0.00     0.037 A 
ATOM     55  C   UNL     1      16.997  -6.058   7.170  1.00  0.00     0.049 A 
ATOM     56  C   UNL     1      12.598  -9.455   7.585  1.00  0.00     0.074 A 
ATOM     57  C   UNL     1      18.016  -6.231   8.092  1.00  0.00     0.029 A 
ATOM     58  N   UNL     1      16.039  -7.020   7.454  1.00  0.00    -0.354 N 
ATOM     59  N   UNL     1      13.693  -8.735   7.625  1.00  0.00    -0.248 NA
ATOM     60  C   UNL     1      12.570 -10.552   8.564  1.00  0.00     0.031 C 
ATOM     61  C   UNL     1      17.703  -7.335   8.893  1.00  0.00     0.029 A 
ATOM     62  C   UNL     1      16.457  -7.807   8.516  1.00  0.00     0.049 A 
ATOM     63  H   UNL     1      15.188  -7.128   6.971  1.00  0.00     0.167 HD
ATOM     64  C   UNL     1      14.467  -9.271   8.650  1.00  0.00     0.074 A 
ATOM     65  C   UNL     1      13.705 -10.361   9.220  1.00  0.00     0.031 C 
ATOM     66  C   UNL     1      15.697  -8.894   9.081  1.00  0.00     0.037 A 
BRANCH  53  67
ATOM     67  C   UNL     1      18.065  -4.160   5.893  1.00  0.00     0.057 A 
ATOM     68  C   UNL     1      17.970  -2.787   6.155  1.00  0.00     0.134 A 
ATOM     69  C   UNL     1      19.303  -4.647   5.451  1.00  0.00     0.134 A 
ATOM     70  F   UNL     1      16.811  -2.252   6.567  1.00  0.00    -0.206 F 
ATOM     71  C   UNL     1      19.055  -1.929   5.961  1.00  0.00     0.040 A 
ATOM     72  C   UNL     1      20.403  -3.804   5.283  1.00  0.00     0.040 A 
ATOM     73  F   UNL     1      19.467  -5.952   5.186  1.00  0.00    -0.206 F 
ATOM     74  C   UNL     1      20.278  -2.439   5.531  1.00  0.00     0.006 A 
ENDBRANCH  53  67
BRANCH  54  75
ATOM     75  C   UNL     1      10.238 -10.239   6.844  1.00  0.00     0.057 A 
ATOM     76  C   UNL     1       9.448 -10.249   8.001  1.00  0.00     0.134 A 
ATOM     77  C   UNL     1       9.931 -11.176   5.849  1.00  0.00     0.134 A 
ATOM     78  F   UNL     1       9.710  -9.398   9.004  1.00  0.00    -0.206 F 
ATOM     79  C   UNL     1       8.412 -11.169   8.173  1.00  0.00     0.040 A 
ATOM     80  C   UNL     1       8.877 -12.080   5.994  1.00  0.00     0.040 A 
ATOM     81  F   UNL     1      10.651 -11.224   4.719  1.00  0.00    -0.206 F 
ATOM     82  C   UNL     1       8.120 -12.084   7.163  1.00  0.00     0.006 A 
ENDBRANCH  54  75
BRANCH  66  83
ATOM     83  C   UNL     1      16.277  -9.639  10.252  1.00  0.00     0.057 A 
ATOM     84  C   UNL     1      16.673 -10.981  10.163  1.00  0.00     0.134 A 
ATOM     85  C   UNL     1      16.448  -9.002  11.490  1.00  0.00     0.134 A 
ATOM     86  F   UNL     1      16.532 -11.657   9.012  1.00  0.00    -0.206 F 
ATOM     87  C   UNL     1      17.172 -11.673  11.270  1.00  0.00     0.040 A 
ATOM     88  C   UNL     1      16.978  -9.673  12.593  1.00  0.00     0.040 A 
ATOM     89  F   UNL     1      16.106  -7.715  11.647  1.00  0.00    -0.206 F 
ATOM     90  C   UNL     1      17.329 -11.017  12.489  1.00  0.00     0.006 A 
ENDBRANCH  66  83
ENDBRANCH  40  41
ENDBRANCH  33  35
ENDBRANCH  32  33
ENDBRANCH  31  32
ENDBRANCH  30  31
ENDBRANCH  29  30
ENDBRANCH  28  29
ENDBRANCH   1  28
TORSDOF 21
