REMARK SMILES O=C1[NH+]=C(S)N(c2cccc(Br)c2)C(=O)/C1=C/c1ccc(-c2ccc(C(=O)OCCOCCOCCOC(=O)c3ccc(-c4c5nc(c(-c6c(F)cccc6F)c6ccc([nH]6)c(-c6c(F)cccc6F)c6nc(c(-c7c(F)cccc7F)c7ccc4[nH]7)C=C6)C=C5)cc3)cc2)o1
REMARK SMILES IDX 32 1 31 2 30 3 29 4 28 5 26 6 27 7 25 8 22 9 23 10 95 11
REMARK SMILES IDX 24 12 94 13 21 14 18 15 19 16 96 17 20 18 17 19 1 20 2 21
REMARK SMILES IDX 3 22 16 23 4 24 14 26 6 27 15 28 5 29 7 31 8 32 13 33 9 34
REMARK SMILES IDX 11 35 10 36 12 37 33 38 34 39 35 40 36 41 37 42 38 43 39 44
REMARK SMILES IDX 40 45 41 46 93 47 42 48 92 49 43 50 44 51 45 52 86 53 46 54
REMARK SMILES IDX 91 55 85 56 87 57 47 58 90 59 84 60 83 61 48 63 74 64 57 65
REMARK SMILES IDX 73 66 58 67 61 68 72 69 88 70 59 71 60 72 71 74 89 75 62 76
REMARK SMILES IDX 49 77 50 78 55 79 51 80 52 81 54 82 56 83 53 84 75 85 76 86
REMARK SMILES IDX 81 87 77 88 78 89 80 90 82 91 79 92 63 93 64 94 69 95 65 96
REMARK SMILES IDX 66 97 68 98 70 99 67 100
REMARK H PARENT 3 25 5 30 87 62 61 73
REMARK Flexibility Score: inf
ROOT
ATOM      1  C   UNL     1      -5.441  -5.585   5.340  1.00  0.00     0.188 C 
ENDROOT
BRANCH   1   2
ATOM      2  O   UNL     1      -6.737  -5.820   5.855  1.00  0.00    -0.376 OA
BRANCH   2   3
ATOM      3  C   UNL     1      -7.862  -5.864   4.991  1.00  0.00     0.202 C 
BRANCH   3   4
ATOM      4  C   UNL     1      -8.006  -4.990   3.731  1.00  0.00     0.261 C 
BRANCH   4   5
ATOM      5  O   UNL     1      -6.817  -4.772   2.963  1.00  0.00    -0.460 OA
BRANCH   5   6
ATOM      6  C   UNL     1      -6.307  -3.516   3.025  1.00  0.00     0.338 C 
ATOM      7  O   UNL     1      -6.778  -2.566   3.628  1.00  0.00    -0.246 OA
BRANCH   6   8
ATOM      8  C   UNL     1      -4.966  -3.477   2.394  1.00  0.00     0.060 A 
ATOM      9  C   UNL     1      -2.466  -3.141   1.168  1.00  0.00     0.017 A 
ATOM     10  C   UNL     1      -2.701  -2.595   2.434  1.00  0.00     0.013 A 
ATOM     11  C   UNL     1      -3.455  -3.946   0.575  1.00  0.00     0.013 A 
ATOM     12  C   UNL     1      -3.953  -2.749   3.038  1.00  0.00     0.016 A 
ATOM     13  C   UNL     1      -4.700  -4.123   1.186  1.00  0.00     0.016 A 
BRANCH   9  14
ATOM     14  C   UNL     1      -1.335  -2.698   0.366  1.00  0.00     0.134 A 
ATOM     15  C   UNL     1       0.796  -2.218  -0.037  1.00  0.00     0.128 A 
ATOM     16  C   UNL     1       0.047  -1.816  -1.138  1.00  0.00     0.051 A 
ATOM     17  O   UNL     1      -0.074  -2.780   0.883  1.00  0.00    -0.457 OA
ATOM     18  C   UNL     1      -1.301  -2.116  -0.880  1.00  0.00     0.051 A 
BRANCH  15  19
ATOM     19  C   UNL     1       2.209  -2.147   0.122  1.00  0.00     0.071 C 
ATOM     20  O   UNL     1       1.139   0.555   0.302  1.00  0.00    -0.241 OA
ATOM     21  C   UNL     1       2.333   0.358   0.160  1.00  0.00     0.347 C 
ATOM     22  N   UNL     1       3.198   1.404   0.051  1.00  0.00    -0.200 N 
ATOM     23  C   UNL     1       2.928  -1.002   0.112  1.00  0.00     0.158 C 
ATOM     24  C   UNL     1       4.469   1.248   0.018  1.00  0.00     0.323 C 
ATOM     25  H   UNL     1       2.832   2.317  -0.004  1.00  0.00     0.316 HD
ATOM     26  C   UNL     1       4.409  -1.149   0.056  1.00  0.00     0.354 C 
ATOM     27  N   UNL     1       5.134   0.036   0.053  1.00  0.00    -0.151 N 
ATOM     28  O   UNL     1       4.918  -2.270   0.005  1.00  0.00    -0.240 OA
BRANCH  24  29
ATOM     29  S   UNL     1       5.360   2.748  -0.181  1.00  0.00    -0.055 SA
ATOM     30  H   UNL     1       4.491   3.795  -0.185  1.00  0.00     0.116 HD
ENDBRANCH  24  29
BRANCH  27  31
ATOM     31  C   UNL     1       6.565  -0.054   0.045  1.00  0.00     0.138 A 
ATOM     32  C   UNL     1       7.227  -0.738  -0.987  1.00  0.00     0.052 A 
ATOM     33  C   UNL     1       7.323   0.535   1.067  1.00  0.00     0.068 A 
ATOM     34  C   UNL     1       8.623  -0.795  -1.018  1.00  0.00     0.006 A 
ATOM     35  C   UNL     1       8.716   0.464   1.033  1.00  0.00     0.022 A 
ATOM     36  C   UNL     1       9.370  -0.190  -0.008  1.00  0.00     0.016 A 
ATOM     37  Br  UNL     1       9.726   1.264   2.417  1.00  0.00    -0.051 Br
ENDBRANCH  27  31
ENDBRANCH  15  19
ENDBRANCH   9  14
ENDBRANCH   6   8
ENDBRANCH   5   6
ENDBRANCH   4   5
ENDBRANCH   3   4
ENDBRANCH   2   3
ENDBRANCH   1   2
BRANCH   1  38
ATOM     38  C   UNL     1      -4.855  -6.523   4.264  1.00  0.00     0.188 C 
BRANCH  38  39
ATOM     39  O   UNL     1      -5.741  -7.439   3.670  1.00  0.00    -0.376 OA
BRANCH  39  40
ATOM     40  C   UNL     1      -6.031  -8.672   4.306  1.00  0.00     0.202 C 
BRANCH  40  41
ATOM     41  C   UNL     1      -5.496  -9.148   5.674  1.00  0.00     0.261 C 
BRANCH  41  42
ATOM     42  O   UNL     1      -4.769  -8.226   6.489  1.00  0.00    -0.460 OA
BRANCH  42  43
ATOM     43  C   UNL     1      -3.424  -8.383   6.491  1.00  0.00     0.338 C 
ATOM     44  O   UNL     1      -2.772  -9.193   5.856  1.00  0.00    -0.246 OA
BRANCH  43  45
ATOM     45  C   UNL     1      -2.811  -7.287   7.264  1.00  0.00     0.060 A 
ATOM     46  C   UNL     1      -2.028  -6.343   6.586  1.00  0.00     0.016 A 
ATOM     47  C   UNL     1      -2.951  -7.231   8.651  1.00  0.00     0.016 A 
ATOM     48  C   UNL     1      -1.341  -5.364   7.301  1.00  0.00     0.010 A 
ATOM     49  C   UNL     1      -2.245  -6.262   9.369  1.00  0.00     0.010 A 
ATOM     50  C   UNL     1      -1.402  -5.353   8.700  1.00  0.00    -0.014 A 
BRANCH  50  51
ATOM     51  C   UNL     1      -0.422  -4.543   9.465  1.00  0.00     0.031 A 
ATOM     52  C   UNL     1       0.791  -5.235  10.027  1.00  0.00     0.074 A 
ATOM     53  C   UNL     1      -0.580  -3.219   9.629  1.00  0.00     0.049 A 
ATOM     54  N   UNL     1       1.763  -4.751  10.758  1.00  0.00    -0.248 NA
ATOM     55  C   UNL     1       0.923  -6.670   9.726  1.00  0.00     0.031 C 
ATOM     56  C   UNL     1      -1.685  -2.425   9.097  1.00  0.00     0.029 A 
ATOM     57  N   UNL     1       0.197  -2.309  10.303  1.00  0.00    -0.354 N 
ATOM     58  C   UNL     1       2.612  -5.821  11.012  1.00  0.00     0.074 A 
ATOM     59  C   UNL     1       2.024  -6.987  10.389  1.00  0.00     0.031 C 
ATOM     60  C   UNL     1      -1.521  -1.145   9.474  1.00  0.00     0.029 A 
ATOM     61  C   UNL     1      -0.320  -1.037  10.300  1.00  0.00     0.049 A 
ATOM     62  H   UNL     1       1.043  -2.547  10.746  1.00  0.00     0.167 HD
ATOM     63  C   UNL     1       3.782  -5.832  11.693  1.00  0.00     0.037 A 
ATOM     64  C   UNL     1       0.119   0.080  10.915  1.00  0.00     0.037 A 
ATOM     65  C   UNL     1       4.366  -4.671  12.313  1.00  0.00     0.049 A 
ATOM     66  C   UNL     1       1.385   0.027  11.731  1.00  0.00     0.074 A 
ATOM     67  C   UNL     1       5.554  -4.575  13.015  1.00  0.00     0.029 A 
ATOM     68  N   UNL     1       3.797  -3.406  12.313  1.00  0.00    -0.354 N 
ATOM     69  N   UNL     1       2.194  -0.983  11.948  1.00  0.00    -0.248 NA
ATOM     70  C   UNL     1       1.805   1.277  12.383  1.00  0.00     0.031 C 
ATOM     71  C   UNL     1       5.675  -3.266  13.492  1.00  0.00     0.029 A 
ATOM     72  C   UNL     1       4.599  -2.529  13.025  1.00  0.00     0.049 A 
ATOM     73  H   UNL     1       2.950  -3.167  11.873  1.00  0.00     0.167 HD
ATOM     74  C   UNL     1       3.235  -0.482  12.722  1.00  0.00     0.074 A 
ATOM     75  C   UNL     1       2.960   0.924  12.929  1.00  0.00     0.031 C 
ATOM     76  C   UNL     1       4.323  -1.126  13.212  1.00  0.00     0.037 A 
BRANCH  63  77
ATOM     77  C   UNL     1       4.492  -7.149  11.829  1.00  0.00     0.057 A 
ATOM     78  C   UNL     1       5.094  -7.787  10.736  1.00  0.00     0.134 A 
ATOM     79  C   UNL     1       4.596  -7.775  13.077  1.00  0.00     0.134 A 
ATOM     80  F   UNL     1       5.020  -7.250   9.508  1.00  0.00    -0.206 F 
ATOM     81  C   UNL     1       5.747  -9.013  10.875  1.00  0.00     0.040 A 
ATOM     82  C   UNL     1       5.274  -8.985  13.235  1.00  0.00     0.040 A 
ATOM     83  F   UNL     1       4.047  -7.218  14.167  1.00  0.00    -0.206 F 
ATOM     84  C   UNL     1       5.845  -9.611  12.129  1.00  0.00     0.006 A 
ENDBRANCH  63  77
BRANCH  64  85
ATOM     85  C   UNL     1      -0.646   1.348  10.793  1.00  0.00     0.057 A 
ATOM     86  C   UNL     1      -0.118   2.454  10.116  1.00  0.00     0.134 A 
ATOM     87  C   UNL     1      -1.907   1.498  11.383  1.00  0.00     0.134 A 
ATOM     88  F   UNL     1       1.097   2.383   9.552  1.00  0.00    -0.206 F 
ATOM     89  C   UNL     1      -0.805   3.668  10.049  1.00  0.00     0.040 A 
ATOM     90  C   UNL     1      -2.618   2.696  11.298  1.00  0.00     0.040 A 
ATOM     91  F   UNL     1      -2.470   0.478  12.048  1.00  0.00    -0.206 F 
ATOM     92  C   UNL     1      -2.062   3.789  10.637  1.00  0.00     0.006 A 
ENDBRANCH  64  85
BRANCH  76  93
ATOM     93  C   UNL     1       5.335  -0.307  13.965  1.00  0.00     0.057 A 
ATOM     94  C   UNL     1       5.071   0.233  15.230  1.00  0.00     0.134 A 
ATOM     95  C   UNL     1       6.609  -0.086  13.424  1.00  0.00     0.134 A 
ATOM     96  F   UNL     1       3.869   0.067  15.804  1.00  0.00    -0.206 F 
ATOM     97  C   UNL     1       6.024   0.990  15.914  1.00  0.00     0.040 A 
ATOM     98  C   UNL     1       7.582   0.640  14.113  1.00  0.00     0.040 A 
ATOM     99  F   UNL     1       6.936  -0.585  12.222  1.00  0.00    -0.206 F 
ATOM    100  C   UNL     1       7.287   1.190  15.358  1.00  0.00     0.006 A 
ENDBRANCH  76  93
ENDBRANCH  50  51
ENDBRANCH  43  45
ENDBRANCH  42  43
ENDBRANCH  41  42
ENDBRANCH  40  41
ENDBRANCH  39  40
ENDBRANCH  38  39
ENDBRANCH   1  38
TORSDOF 21
