REMARK SMILES C/C(=N\Nc1nc(-c2ccc(Cl)cc2)cs1)c1nnn(-c2ccc(C(=O)OCCOCCOCCOC(=O)c3ccc(-c4c5nc(c(-c6c(F)cccc6F)c6ccc([nH]6)c(-c6c(F)cccc6F)c6nc(c(-c7c(F)cccc7F)c7ccc4[nH]7)C=C6)C=C5)cc3)cc2)c1C
REMARK SMILES IDX 30 1 29 2 28 3 27 4 25 5 26 6 24 7 21 8 22 9 94 10 23 11
REMARK SMILES IDX 93 12 20 13 17 14 18 15 95 16 19 17 96 18 2 19 1 20 3 21
REMARK SMILES IDX 4 22 5 24 6 25 16 26 7 27 15 28 8 29 9 30 14 31 10 32 13 33
REMARK SMILES IDX 11 34 12 35 31 36 32 37 33 38 34 39 35 40 36 41 37 42 38 43
REMARK SMILES IDX 39 44 40 45 92 46 41 47 91 48 42 49 43 50 44 51 85 52 45 53
REMARK SMILES IDX 90 54 84 55 86 56 46 57 89 58 83 59 82 60 47 62 73 63 56 64
REMARK SMILES IDX 72 65 57 66 60 67 71 68 87 69 58 70 59 71 70 73 88 74 61 75
REMARK SMILES IDX 48 76 49 77 54 78 50 79 51 80 53 81 55 82 52 83 74 84 75 85
REMARK SMILES IDX 80 86 76 87 77 88 79 89 81 90 78 91 62 92 63 93 68 94 64 95
REMARK SMILES IDX 65 96 67 97 69 98 66 99
REMARK H PARENT 4 23 86 61 60 72
REMARK Flexibility Score: inf
ROOT
ATOM      1  O   UNL     1       8.767  -6.688  -6.527  1.00  0.00    -0.376 OA
ENDROOT
BRANCH   1   2
ATOM      2  C   UNL     1       9.749  -5.802  -6.017  1.00  0.00     0.202 C 
BRANCH   2   3
ATOM      3  C   UNL     1       9.502  -4.600  -5.083  1.00  0.00     0.261 C 
BRANCH   3   4
ATOM      4  O   UNL     1       8.262  -4.555  -4.385  1.00  0.00    -0.460 OA
BRANCH   4   5
ATOM      5  C   UNL     1       7.358  -3.652  -4.851  1.00  0.00     0.338 C 
ATOM      6  O   UNL     1       7.503  -2.874  -5.759  1.00  0.00    -0.246 OA
BRANCH   5   7
ATOM      7  C   UNL     1       6.062  -3.880  -4.165  1.00  0.00     0.060 A 
ATOM      8  C   UNL     1       3.604  -4.051  -2.909  1.00  0.00     0.067 A 
ATOM      9  C   UNL     1       3.636  -3.858  -4.292  1.00  0.00     0.029 A 
ATOM     10  C   UNL     1       4.774  -4.318  -2.184  1.00  0.00     0.029 A 
ATOM     11  C   UNL     1       4.880  -3.751  -4.915  1.00  0.00     0.018 A 
ATOM     12  C   UNL     1       6.010  -4.226  -2.812  1.00  0.00     0.018 A 
BRANCH   8  13
ATOM     13  N   UNL     1       2.463  -3.635  -2.195  1.00  0.00    -0.217 N 
ATOM     14  C   UNL     1       1.098  -2.387  -1.041  1.00  0.00     0.132 A 
ATOM     15  N   UNL     1       0.368  -3.317  -1.732  1.00  0.00    -0.128 NA
ATOM     16  C   UNL     1       2.442  -2.558  -1.325  1.00  0.00     0.071 A 
ATOM     17  N   UNL     1       1.204  -4.001  -2.511  1.00  0.00    -0.061 NA
ATOM     18  C   UNL     1       3.627  -1.717  -0.997  1.00  0.00     0.069 C 
BRANCH  14  19
ATOM     19  C   UNL     1       0.537  -1.290  -0.263  1.00  0.00     0.087 C 
ATOM     20  C   UNL     1       0.990   0.084  -0.688  1.00  0.00     0.071 C 
ATOM     21  N   UNL     1      -0.203  -1.633   0.753  1.00  0.00    -0.176 NA
BRANCH  21  22
ATOM     22  N   UNL     1      -0.658  -0.769   1.726  1.00  0.00    -0.252 N 
ATOM     23  H   UNL     1      -1.175  -1.199   2.446  1.00  0.00     0.193 HD
BRANCH  22  24
ATOM     24  C   UNL     1      -0.515   0.574   1.859  1.00  0.00     0.203 A 
ATOM     25  N   UNL     1      -0.723   1.470   0.924  1.00  0.00    -0.219 NA
ATOM     26  S   UNL     1       0.058   1.251   3.345  1.00  0.00    -0.103 S 
ATOM     27  C   UNL     1      -0.114   2.663   1.248  1.00  0.00     0.084 A 
ATOM     28  C   UNL     1       0.370   2.737   2.536  1.00  0.00     0.097 A 
BRANCH  27  29
ATOM     29  C   UNL     1       0.065   3.675   0.223  1.00  0.00     0.001 A 
ATOM     30  C   UNL     1      -1.028   4.056  -0.567  1.00  0.00     0.012 A 
ATOM     31  C   UNL     1       1.339   4.178  -0.077  1.00  0.00     0.012 A 
ATOM     32  C   UNL     1      -0.856   4.950  -1.627  1.00  0.00     0.021 A 
ATOM     33  C   UNL     1       1.512   5.064  -1.145  1.00  0.00     0.021 A 
ATOM     34  C   UNL     1       0.413   5.449  -1.912  1.00  0.00     0.041 A 
ATOM     35  Cl  UNL     1       0.630   6.533  -3.230  1.00  0.00    -0.084 Cl
ENDBRANCH  27  29
ENDBRANCH  22  24
ENDBRANCH  21  22
ENDBRANCH  14  19
ENDBRANCH   8  13
ENDBRANCH   5   7
ENDBRANCH   4   5
ENDBRANCH   3   4
ENDBRANCH   2   3
ENDBRANCH   1   2
BRANCH   1  36
ATOM     36  C   UNL     1       7.409  -6.569  -6.173  1.00  0.00     0.188 C 
BRANCH  36  37
ATOM     37  C   UNL     1       6.960  -7.143  -4.814  1.00  0.00     0.188 C 
BRANCH  37  38
ATOM     38  O   UNL     1       7.868  -7.319  -3.745  1.00  0.00    -0.376 OA
BRANCH  38  39
ATOM     39  C   UNL     1       8.982  -8.194  -3.813  1.00  0.00     0.202 C 
BRANCH  39  40
ATOM     40  C   UNL     1       9.056  -9.450  -4.676  1.00  0.00     0.261 C 
BRANCH  40  41
ATOM     41  O   UNL     1       8.266  -9.449  -5.844  1.00  0.00    -0.460 OA
BRANCH  41  42
ATOM     42  C   UNL     1       7.082 -10.072  -5.678  1.00  0.00     0.338 C 
ATOM     43  O   UNL     1       6.549 -10.385  -4.627  1.00  0.00    -0.246 OA
BRANCH  42  44
ATOM     44  C   UNL     1       6.561 -10.446  -6.989  1.00  0.00     0.060 A 
ATOM     45  C   UNL     1       5.239 -10.889  -7.024  1.00  0.00     0.016 A 
ATOM     46  C   UNL     1       7.474 -10.695  -8.024  1.00  0.00     0.016 A 
ATOM     47  C   UNL     1       4.899 -11.800  -7.992  1.00  0.00     0.010 A 
ATOM     48  C   UNL     1       7.139 -11.623  -8.975  1.00  0.00     0.010 A 
ATOM     49  C   UNL     1       5.888 -12.227  -8.886  1.00  0.00    -0.014 A 
BRANCH  49  50
ATOM     50  C   UNL     1       5.539 -13.280  -9.808  1.00  0.00     0.031 A 
ATOM     51  C   UNL     1       4.660 -12.799 -10.891  1.00  0.00     0.074 A 
ATOM     52  C   UNL     1       6.042 -14.524  -9.711  1.00  0.00     0.049 A 
ATOM     53  N   UNL     1       3.422 -13.101 -11.086  1.00  0.00    -0.248 NA
ATOM     54  C   UNL     1       5.159 -11.704 -11.739  1.00  0.00     0.031 C 
ATOM     55  C   UNL     1       7.124 -14.996  -8.845  1.00  0.00     0.029 A 
ATOM     56  N   UNL     1       5.750 -15.620 -10.459  1.00  0.00    -0.354 N 
ATOM     57  C   UNL     1       3.054 -12.404 -12.229  1.00  0.00     0.074 A 
ATOM     58  C   UNL     1       4.071 -11.414 -12.453  1.00  0.00     0.031 C 
ATOM     59  C   UNL     1       7.548 -16.204  -9.286  1.00  0.00     0.029 A 
ATOM     60  C   UNL     1       6.694 -16.635 -10.380  1.00  0.00     0.049 A 
ATOM     61  H   UNL     1       4.937 -15.689 -11.010  1.00  0.00     0.167 HD
ATOM     62  C   UNL     1       2.108 -12.909 -13.063  1.00  0.00     0.037 A 
ATOM     63  C   UNL     1       6.796 -17.695 -11.223  1.00  0.00     0.037 A 
ATOM     64  C   UNL     1       1.282 -13.879 -12.384  1.00  0.00     0.049 A 
ATOM     65  C   UNL     1       5.505 -17.820 -11.948  1.00  0.00     0.074 A 
ATOM     66  C   UNL     1       0.492 -13.855 -11.250  1.00  0.00     0.029 A 
ATOM     67  N   UNL     1       1.495 -15.207 -12.662  1.00  0.00    -0.354 N 
ATOM     68  N   UNL     1       4.393 -18.216 -11.397  1.00  0.00    -0.248 NA
ATOM     69  C   UNL     1       5.351 -17.064 -13.184  1.00  0.00     0.031 C 
ATOM     70  C   UNL     1       0.670 -15.133 -10.645  1.00  0.00     0.029 A 
ATOM     71  C   UNL     1       1.502 -15.886 -11.473  1.00  0.00     0.049 A 
ATOM     72  H   UNL     1       1.620 -15.600 -13.556  1.00  0.00     0.167 HD
ATOM     73  C   UNL     1       3.419 -17.392 -11.941  1.00  0.00     0.074 A 
ATOM     74  C   UNL     1       4.051 -16.768 -13.101  1.00  0.00     0.031 C 
ATOM     75  C   UNL     1       2.297 -17.067 -11.234  1.00  0.00     0.037 A 
BRANCH  62  76
ATOM     76  C   UNL     1       2.230 -12.858 -14.567  1.00  0.00     0.057 A 
ATOM     77  C   UNL     1       1.165 -13.348 -15.343  1.00  0.00     0.134 A 
ATOM     78  C   UNL     1       3.436 -12.651 -15.271  1.00  0.00     0.134 A 
ATOM     79  F   UNL     1      -0.032 -13.594 -14.791  1.00  0.00    -0.206 F 
ATOM     80  C   UNL     1       1.319 -13.699 -16.689  1.00  0.00     0.040 A 
ATOM     81  C   UNL     1       3.583 -12.946 -16.628  1.00  0.00     0.040 A 
ATOM     82  F   UNL     1       4.568 -12.253 -14.680  1.00  0.00    -0.206 F 
ATOM     83  C   UNL     1       2.535 -13.508 -17.333  1.00  0.00     0.006 A 
ENDBRANCH  62  76
BRANCH  63  84
ATOM     84  C   UNL     1       8.013 -18.410 -11.677  1.00  0.00     0.057 A 
ATOM     85  C   UNL     1       7.917 -19.642 -12.343  1.00  0.00     0.134 A 
ATOM     86  C   UNL     1       9.269 -17.782 -11.726  1.00  0.00     0.134 A 
ATOM     87  F   UNL     1       6.752 -20.303 -12.389  1.00  0.00    -0.206 F 
ATOM     88  C   UNL     1       8.997 -20.199 -13.041  1.00  0.00     0.040 A 
ATOM     89  C   UNL     1      10.358 -18.332 -12.411  1.00  0.00     0.040 A 
ATOM     90  F   UNL     1       9.462 -16.568 -11.190  1.00  0.00    -0.206 F 
ATOM     91  C   UNL     1      10.220 -19.538 -13.087  1.00  0.00     0.006 A 
ENDBRANCH  63  84
BRANCH  75  92
ATOM     92  C   UNL     1       1.994 -17.852  -9.989  1.00  0.00     0.057 A 
ATOM     93  C   UNL     1       2.832 -17.917  -8.864  1.00  0.00     0.134 A 
ATOM     94  C   UNL     1       0.739 -18.462  -9.878  1.00  0.00     0.134 A 
ATOM     95  F   UNL     1       4.008 -17.276  -8.834  1.00  0.00    -0.206 F 
ATOM     96  C   UNL     1       2.454 -18.605  -7.706  1.00  0.00     0.040 A 
ATOM     97  C   UNL     1       0.335 -19.117  -8.714  1.00  0.00     0.040 A 
ATOM     98  F   UNL     1      -0.137 -18.394 -10.894  1.00  0.00    -0.206 F 
ATOM     99  C   UNL     1       1.200 -19.203  -7.627  1.00  0.00     0.006 A 
ENDBRANCH  75  92
ENDBRANCH  49  50
ENDBRANCH  42  44
ENDBRANCH  41  42
ENDBRANCH  40  41
ENDBRANCH  39  40
ENDBRANCH  38  39
ENDBRANCH  37  38
ENDBRANCH  36  37
ENDBRANCH   1  36
TORSDOF 22
