REMARK SMILES Cc1nn(C)c(C)c1CNC(=O)N[C@H]1CC[C@@H](C(=O)OCCOCCOCCOC(=O)c2ccc(-c3c4nc(c(-c5c(F)cccc5F)c5ccc([nH]5)c(-c5c(F)cccc5F)c5nc(c(-c6c(F)cccc6F)c6ccc3[nH]6)C=C5)C=C4)cc2)C1
REMARK SMILES IDX 24 1 23 2 22 3 21 4 20 5 18 6 19 7 17 8 14 9 15 10 86 11
REMARK SMILES IDX 16 12 13 13 10 14 11 15 12 17 9 19 8 20 1 21 2 22 3 23 4 24
REMARK SMILES IDX 6 25 5 26 7 27 25 28 26 29 27 30 28 31 29 32 30 33 31 34
REMARK SMILES IDX 32 35 33 36 85 37 34 38 84 39 35 40 36 41 37 42 78 43 38 44
REMARK SMILES IDX 83 45 77 46 79 47 39 48 82 49 76 50 75 51 40 53 66 54 49 55
REMARK SMILES IDX 65 56 50 57 53 58 64 59 80 60 51 61 52 62 63 64 81 65 54 66
REMARK SMILES IDX 41 67 42 68 47 69 43 70 44 71 46 72 48 73 45 74 67 75 68 76
REMARK SMILES IDX 73 77 69 78 70 79 72 80 74 81 71 82 55 83 56 84 61 85 57 86
REMARK SMILES IDX 58 87 60 88 62 89 59 90
REMARK H PARENT 10 16 13 18 79 52 53 63
REMARK Flexibility Score: inf
ROOT
ATOM      1  C   UNL     1      -0.592   5.385  -6.371  1.00  0.00     0.188 C 
ENDROOT
BRANCH   1   2
ATOM      2  O   UNL     1      -1.972   5.390  -6.704  1.00  0.00    -0.376 OA
BRANCH   2   3
ATOM      3  C   UNL     1      -2.942   5.261  -5.667  1.00  0.00     0.202 C 
BRANCH   3   4
ATOM      4  C   UNL     1      -2.786   4.176  -4.584  1.00  0.00     0.261 C 
BRANCH   4   5
ATOM      5  O   UNL     1      -1.522   4.192  -3.892  1.00  0.00    -0.463 OA
BRANCH   5   6
ATOM      6  C   UNL     1      -0.796   3.046  -3.925  1.00  0.00     0.309 C 
ATOM      7  O   UNL     1      -1.181   1.996  -4.426  1.00  0.00    -0.252 OA
BRANCH   6   8
ATOM      8  C   UNL     1       0.622   3.221  -3.390  1.00  0.00     0.101 C 
ATOM      9  C   UNL     1       0.614   4.038  -1.112  1.00  0.00     0.084 C 
ATOM     10  C   UNL     1       0.995   2.564  -1.049  1.00  0.00     0.026 C 
ATOM     11  C   UNL     1       0.940   4.444  -2.532  1.00  0.00     0.040 C 
ATOM     12  C   UNL     1       1.008   2.045  -2.490  1.00  0.00     0.017 C 
BRANCH   9  13
ATOM     13  N   UNL     1      -0.797   4.257  -0.841  1.00  0.00    -0.335 N 
ATOM     14  N   UNL     1      -0.901   4.936   1.413  1.00  0.00    -0.334 N 
ATOM     15  C   UNL     1      -1.471   4.686   0.232  1.00  0.00     0.315 C 
ATOM     16  H   UNL     1      -1.516   5.356   2.057  1.00  0.00     0.165 HD
ATOM     17  O   UNL     1      -2.680   4.891   0.110  1.00  0.00    -0.249 OA
ATOM     18  H   UNL     1      -1.378   4.044  -1.607  1.00  0.00     0.165 HD
BRANCH  14  19
ATOM     19  C   UNL     1       0.419   4.726   1.947  1.00  0.00     0.157 C 
BRANCH  19  20
ATOM     20  C   UNL     1       1.170   6.010   2.108  1.00  0.00     0.015 A 
ATOM     21  C   UNL     1       2.852   5.203   3.955  1.00  0.00     0.069 C 
ATOM     22  C   UNL     1       2.233   6.198   3.043  1.00  0.00     0.065 A 
ATOM     23  N   UNL     1       2.683   7.453   3.050  1.00  0.00    -0.178 NA
ATOM     24  N   UNL     1       1.939   8.076   2.124  1.00  0.00    -0.272 N 
ATOM     25  C   UNL     1       1.093   7.234   1.445  1.00  0.00     0.040 A 
ATOM     26  C   UNL     1       2.095   9.506   1.981  1.00  0.00     0.174 C 
ATOM     27  C   UNL     1       0.305   7.705   0.274  1.00  0.00     0.067 C 
ENDBRANCH  19  20
ENDBRANCH  14  19
ENDBRANCH   9  13
ENDBRANCH   6   8
ENDBRANCH   5   6
ENDBRANCH   4   5
ENDBRANCH   3   4
ENDBRANCH   2   3
ENDBRANCH   1   2
BRANCH   1  28
ATOM     28  C   UNL     1      -0.084   6.314  -5.263  1.00  0.00     0.188 C 
BRANCH  28  29
ATOM     29  O   UNL     1      -1.082   6.917  -4.479  1.00  0.00    -0.376 OA
BRANCH  29  30
ATOM     30  C   UNL     1      -1.362   8.296  -4.677  1.00  0.00     0.202 C 
BRANCH  30  31
ATOM     31  C   UNL     1      -1.256   8.994  -6.054  1.00  0.00     0.261 C 
BRANCH  31  32
ATOM     32  O   UNL     1      -0.317   8.476  -7.010  1.00  0.00    -0.460 OA
BRANCH  32  33
ATOM     33  C   UNL     1       0.971   8.875  -6.903  1.00  0.00     0.338 C 
ATOM     34  O   UNL     1       1.435   9.652  -6.079  1.00  0.00    -0.246 OA
BRANCH  33  35
ATOM     35  C   UNL     1       1.788   8.012  -7.788  1.00  0.00     0.060 A 
ATOM     36  C   UNL     1       2.730   7.142  -7.216  1.00  0.00     0.016 A 
ATOM     37  C   UNL     1       1.610   8.040  -9.171  1.00  0.00     0.016 A 
ATOM     38  C   UNL     1       3.506   6.309  -8.025  1.00  0.00     0.010 A 
ATOM     39  C   UNL     1       2.410   7.230  -9.983  1.00  0.00     0.010 A 
ATOM     40  C   UNL     1       3.378   6.379  -9.418  1.00  0.00    -0.014 A 
BRANCH  40  41
ATOM     41  C   UNL     1       4.378   5.718 -10.293  1.00  0.00     0.031 A 
ATOM     42  C   UNL     1       5.505   6.550 -10.840  1.00  0.00     0.074 A 
ATOM     43  C   UNL     1       4.295   4.412 -10.603  1.00  0.00     0.049 A 
ATOM     44  N   UNL     1       6.435   6.230 -11.703  1.00  0.00    -0.248 NA
ATOM     45  C   UNL     1       5.589   7.934 -10.348  1.00  0.00     0.031 C 
ATOM     46  C   UNL     1       3.287   3.482 -10.098  1.00  0.00     0.029 A 
ATOM     47  N   UNL     1       5.072   3.647 -11.438  1.00  0.00    -0.354 N 
ATOM     48  C   UNL     1       7.205   7.375 -11.866  1.00  0.00     0.074 A 
ATOM     49  C   UNL     1       6.618   8.404 -11.036  1.00  0.00     0.031 C 
ATOM     50  C   UNL     1       3.496   2.273 -10.649  1.00  0.00     0.029 A 
ATOM     51  C   UNL     1       4.625   2.355 -11.575  1.00  0.00     0.049 A 
ATOM     52  H   UNL     1       5.873   3.991 -11.895  1.00  0.00     0.167 HD
ATOM     53  C   UNL     1       8.305   7.553 -12.635  1.00  0.00     0.037 A 
ATOM     54  C   UNL     1       5.061   1.364 -12.380  1.00  0.00     0.037 A 
ATOM     55  C   UNL     1       8.884   6.532 -13.467  1.00  0.00     0.049 A 
ATOM     56  C   UNL     1       6.230   1.614 -13.299  1.00  0.00     0.074 A 
ATOM     57  C   UNL     1      10.003   6.612 -14.277  1.00  0.00     0.029 A 
ATOM     58  N   UNL     1       8.382   5.247 -13.604  1.00  0.00    -0.354 N 
ATOM     59  N   UNL     1       6.961   2.693 -13.438  1.00  0.00    -0.248 NA
ATOM     60  C   UNL     1       6.633   0.504 -14.177  1.00  0.00     0.031 C 
ATOM     61  C   UNL     1      10.145   5.394 -14.948  1.00  0.00     0.029 A 
ATOM     62  C   UNL     1       9.153   4.533 -14.507  1.00  0.00     0.049 A 
ATOM     63  H   UNL     1       7.594   4.894 -13.131  1.00  0.00     0.167 HD
ATOM     64  C   UNL     1       7.929   2.382 -14.387  1.00  0.00     0.074 A 
ATOM     65  C   UNL     1       7.697   1.009 -14.783  1.00  0.00     0.031 C 
ATOM     66  C   UNL     1       8.921   3.161 -14.884  1.00  0.00     0.037 A 
BRANCH  53  67
ATOM     67  C   UNL     1       8.935   8.916 -12.635  1.00  0.00     0.057 A 
ATOM     68  C   UNL     1       9.620   9.417 -11.520  1.00  0.00     0.134 A 
ATOM     69  C   UNL     1       8.879   9.726 -13.776  1.00  0.00     0.134 A 
ATOM     70  F   UNL     1       9.697   8.700 -10.389  1.00  0.00    -0.206 F 
ATOM     71  C   UNL     1      10.205  10.685 -11.533  1.00  0.00     0.040 A 
ATOM     72  C   UNL     1       9.486  10.982 -13.811  1.00  0.00     0.040 A 
ATOM     73  F   UNL     1       8.242   9.306 -14.880  1.00  0.00    -0.206 F 
ATOM     74  C   UNL     1      10.146  11.468 -12.684  1.00  0.00     0.006 A 
ENDBRANCH  53  67
BRANCH  54  75
ATOM     75  C   UNL     1       4.381   0.042 -12.375  1.00  0.00     0.057 A 
ATOM     76  C   UNL     1       5.033  -1.106 -11.911  1.00  0.00     0.134 A 
ATOM     77  C   UNL     1       3.079  -0.113 -12.868  1.00  0.00     0.134 A 
ATOM     78  F   UNL     1       6.292  -1.029 -11.453  1.00  0.00    -0.206 F 
ATOM     79  C   UNL     1       4.426  -2.363 -11.954  1.00  0.00     0.040 A 
ATOM     80  C   UNL     1       2.448  -1.358 -12.890  1.00  0.00     0.040 A 
ATOM     81  F   UNL     1       2.400   0.946 -13.332  1.00  0.00    -0.206 F 
ATOM     82  C   UNL     1       3.126  -2.490 -12.441  1.00  0.00     0.006 A 
ENDBRANCH  54  75
BRANCH  66  83
ATOM     83  C   UNL     1       9.866   2.538 -15.873  1.00  0.00     0.057 A 
ATOM     84  C   UNL     1       9.476   2.219 -17.180  1.00  0.00     0.134 A 
ATOM     85  C   UNL     1      11.203   2.299 -15.524  1.00  0.00     0.134 A 
ATOM     86  F   UNL     1       8.209   2.412 -17.577  1.00  0.00    -0.206 F 
ATOM     87  C   UNL     1      10.372   1.661 -18.094  1.00  0.00     0.040 A 
ATOM     88  C   UNL     1      12.116   1.771 -16.438  1.00  0.00     0.040 A 
ATOM     89  F   UNL     1      11.648   2.592 -14.293  1.00  0.00    -0.206 F 
ATOM     90  C   UNL     1      11.699   1.443 -17.726  1.00  0.00     0.006 A 
ENDBRANCH  66  83
ENDBRANCH  40  41
ENDBRANCH  33  35
ENDBRANCH  32  33
ENDBRANCH  31  32
ENDBRANCH  30  31
ENDBRANCH  29  30
ENDBRANCH  28  29
ENDBRANCH   1  28
TORSDOF 20
