REMARK SMILES CC[C@@](C)(NC(=O)Nc1cccc(C[NH2+]C)c1)C(=O)OCCOCCOCCOC(=O)c1ccc(-c2c3nc(c(-c4c(F)cccc4F)c4ccc([nH]4)c(-c4c(F)cccc4F)c4nc(c(-c5c(F)cccc5F)c5ccc2[nH]5)C=C4)C=C3)cc1
REMARK SMILES IDX 24 1 23 2 22 3 21 4 20 5 18 6 19 7 3 8 4 9 2 10 1 11 5 12
REMARK SMILES IDX 6 13 7 15 8 16 9 18 10 19 17 20 11 21 13 22 12 23 14 24
REMARK SMILES IDX 15 25 16 26 25 29 26 30 27 31 28 32 29 33 30 34 31 35 32 36
REMARK SMILES IDX 33 37 85 38 34 39 84 40 35 41 36 42 37 43 78 44 38 45 83 46
REMARK SMILES IDX 77 47 79 48 39 49 82 50 76 51 75 52 40 54 66 55 49 56 65 57
REMARK SMILES IDX 50 58 53 59 64 60 80 61 51 62 52 63 63 65 81 66 54 67 41 68
REMARK SMILES IDX 42 69 47 70 43 71 44 72 46 73 48 74 45 75 67 76 68 77 73 78
REMARK SMILES IDX 69 79 70 80 72 81 74 82 71 83 55 84 56 85 61 86 57 87 58 88
REMARK SMILES IDX 60 89 62 90 59 91
REMARK H PARENT 5 14 8 17 15 27 15 28 79 53 53 64
REMARK Flexibility Score: inf
ROOT
ATOM      1  C   UNL     1       5.171  -4.122   0.072  1.00  0.00     0.188 C 
ENDROOT
BRANCH   1   2
ATOM      2  O   UNL     1       4.747  -3.449   1.260  1.00  0.00    -0.376 OA
BRANCH   2   3
ATOM      3  C   UNL     1       4.576  -4.176   2.480  1.00  0.00     0.202 C 
BRANCH   3   4
ATOM      4  C   UNL     1       3.798  -3.351   3.612  1.00  0.00     0.261 C 
BRANCH   4   5
ATOM      5  O   UNL     1       2.340  -3.275   3.397  1.00  0.00    -0.462 OA
BRANCH   5   6
ATOM      6  C   UNL     1       1.510  -2.186   3.682  1.00  0.00     0.331 C 
ATOM      7  O   UNL     1       1.677  -1.472   4.669  1.00  0.00    -0.249 OA
BRANCH   6   8
ATOM      8  C   UNL     1       0.301  -1.920   2.517  1.00  0.00     0.136 C 
ATOM      9  C   UNL     1      -1.018  -1.851   3.301  1.00  0.00     0.047 C 
BRANCH   8  10
ATOM     10  C   UNL     1       0.040  -1.001   1.228  1.00  0.00     0.037 C 
ATOM     11  C   UNL     1       0.302   0.479   1.069  1.00  0.00     0.007 C 
ENDBRANCH   8  10
BRANCH   8  12
ATOM     12  N   UNL     1       0.490  -3.166   1.853  1.00  0.00    -0.322 N 
ATOM     13  C   UNL     1       1.571  -3.398   1.092  1.00  0.00     0.320 C 
ATOM     14  H   UNL     1      -0.188  -3.872   1.954  1.00  0.00     0.166 HD
ATOM     15  O   UNL     1       1.660  -4.575   0.738  1.00  0.00    -0.248 OA
ATOM     16  N   UNL     1       2.511  -2.458   0.736  1.00  0.00    -0.308 N 
ATOM     17  H   UNL     1       2.958  -2.819  -0.063  1.00  0.00     0.171 HD
BRANCH  16  18
ATOM     18  C   UNL     1       3.148  -1.181   0.995  1.00  0.00     0.043 A 
ATOM     19  C   UNL     1       4.072  -0.754   0.027  1.00  0.00     0.026 A 
ATOM     20  C   UNL     1       3.081  -0.343   2.108  1.00  0.00     0.035 A 
ATOM     21  C   UNL     1       4.867   0.398   0.190  1.00  0.00     0.003 A 
ATOM     22  C   UNL     1       3.810   0.857   2.283  1.00  0.00     0.008 A 
ATOM     23  C   UNL     1       4.738   1.206   1.318  1.00  0.00     0.010 A 
BRANCH  22  24
ATOM     24  C   UNL     1       3.475   1.731   3.478  1.00  0.00     0.297 C 
BRANCH  24  25
ATOM     25  N   UNL     1       4.229   1.395   4.687  1.00  0.00    -0.345 N 
ATOM     26  C   UNL     1       3.503   1.855   5.873  1.00  0.00     0.331 C 
ATOM     27  H   UNL     1       5.142   1.850   4.652  1.00  0.00     0.346 HD
ATOM     28  H   UNL     1       4.349   0.384   4.737  1.00  0.00     0.346 HD
ENDBRANCH  24  25
ENDBRANCH  22  24
ENDBRANCH  16  18
ENDBRANCH   8  12
ENDBRANCH   6   8
ENDBRANCH   5   6
ENDBRANCH   4   5
ENDBRANCH   3   4
ENDBRANCH   2   3
ENDBRANCH   1   2
BRANCH   1  29
ATOM     29  C   UNL     1       4.142  -4.992  -0.663  1.00  0.00     0.188 C 
BRANCH  29  30
ATOM     30  O   UNL     1       4.035  -6.329  -0.204  1.00  0.00    -0.376 OA
BRANCH  30  31
ATOM     31  C   UNL     1       5.105  -7.151  -0.637  1.00  0.00     0.202 C 
BRANCH  31  32
ATOM     32  C   UNL     1       5.026  -7.620  -2.104  1.00  0.00     0.261 C 
BRANCH  32  33
ATOM     33  O   UNL     1       4.606  -6.613  -3.049  1.00  0.00    -0.460 OA
BRANCH  33  34
ATOM     34  C   UNL     1       3.262  -6.579  -3.318  1.00  0.00     0.338 C 
ATOM     35  O   UNL     1       2.441  -7.398  -2.998  1.00  0.00    -0.246 OA
BRANCH  34  36
ATOM     36  C   UNL     1       2.914  -5.277  -3.971  1.00  0.00     0.060 A 
ATOM     37  C   UNL     1       1.769  -4.585  -3.541  1.00  0.00     0.016 A 
ATOM     38  C   UNL     1       3.685  -4.749  -5.008  1.00  0.00     0.016 A 
ATOM     39  C   UNL     1       1.371  -3.393  -4.173  1.00  0.00     0.010 A 
ATOM     40  C   UNL     1       3.280  -3.568  -5.647  1.00  0.00     0.010 A 
ATOM     41  C   UNL     1       2.103  -2.898  -5.260  1.00  0.00    -0.014 A 
BRANCH  41  42
ATOM     42  C   UNL     1       1.565  -1.842  -6.167  1.00  0.00     0.031 A 
ATOM     43  C   UNL     1       0.870  -2.297  -7.426  1.00  0.00     0.074 A 
ATOM     44  C   UNL     1       1.765  -0.526  -5.960  1.00  0.00     0.049 A 
ATOM     45  N   UNL     1       0.555  -1.619  -8.500  1.00  0.00    -0.248 NA
ATOM     46  C   UNL     1       0.500  -3.721  -7.483  1.00  0.00     0.031 C 
ATOM     47  C   UNL     1       2.364   0.068  -4.769  1.00  0.00     0.029 A 
ATOM     48  N   UNL     1       1.518   0.551  -6.784  1.00  0.00    -0.354 N 
ATOM     49  C   UNL     1      -0.011  -2.541  -9.373  1.00  0.00     0.074 A 
ATOM     50  C   UNL     1      -0.000  -3.823  -8.705  1.00  0.00     0.031 C 
ATOM     51  C   UNL     1       2.483   1.396  -4.957  1.00  0.00     0.029 A 
ATOM     52  C   UNL     1       2.018   1.739  -6.301  1.00  0.00     0.049 A 
ATOM     53  H   UNL     1       1.031   0.478  -7.637  1.00  0.00     0.167 HD
ATOM     54  C   UNL     1      -0.484  -2.341 -10.625  1.00  0.00     0.037 A 
ATOM     55  C   UNL     1       2.139   2.946  -6.896  1.00  0.00     0.037 A 
ATOM     56  C   UNL     1      -0.511  -1.065 -11.287  1.00  0.00     0.049 A 
ATOM     57  C   UNL     1       1.672   3.128  -8.324  1.00  0.00     0.074 A 
ATOM     58  C   UNL     1      -1.021  -0.756 -12.536  1.00  0.00     0.029 A 
ATOM     59  N   UNL     1       0.004   0.108 -10.761  1.00  0.00    -0.354 N 
ATOM     60  N   UNL     1       1.107   2.261  -9.130  1.00  0.00    -0.248 NA
ATOM     61  C   UNL     1       1.875   4.455  -8.931  1.00  0.00     0.031 C 
ATOM     62  C   UNL     1      -0.753   0.591 -12.794  1.00  0.00     0.029 A 
ATOM     63  C   UNL     1      -0.134   1.134 -11.680  1.00  0.00     0.049 A 
ATOM     64  H   UNL     1       0.408   0.198  -9.867  1.00  0.00     0.167 HD
ATOM     65  C   UNL     1       0.866   2.942 -10.320  1.00  0.00     0.074 A 
ATOM     66  C   UNL     1       1.327   4.299 -10.129  1.00  0.00     0.031 C 
ATOM     67  C   UNL     1       0.316   2.485 -11.471  1.00  0.00     0.037 A 
BRANCH  54  68
ATOM     68  C   UNL     1      -0.975  -3.534 -11.390  1.00  0.00     0.057 A 
ATOM     69  C   UNL     1      -2.186  -4.167 -11.089  1.00  0.00     0.134 A 
ATOM     70  C   UNL     1      -0.251  -4.010 -12.491  1.00  0.00     0.134 A 
ATOM     71  F   UNL     1      -2.920  -3.768 -10.039  1.00  0.00    -0.206 F 
ATOM     72  C   UNL     1      -2.656  -5.238 -11.850  1.00  0.00     0.040 A 
ATOM     73  C   UNL     1      -0.723  -5.063 -13.276  1.00  0.00     0.040 A 
ATOM     74  F   UNL     1       0.916  -3.445 -12.835  1.00  0.00    -0.206 F 
ATOM     75  C   UNL     1      -1.929  -5.681 -12.954  1.00  0.00     0.006 A 
ENDBRANCH  54  68
BRANCH  55  76
ATOM     76  C   UNL     1       2.795   4.082  -6.189  1.00  0.00     0.057 A 
ATOM     77  C   UNL     1       2.090   5.250  -5.871  1.00  0.00     0.134 A 
ATOM     78  C   UNL     1       4.164   4.061  -5.888  1.00  0.00     0.134 A 
ATOM     79  F   UNL     1       0.786   5.352  -6.165  1.00  0.00    -0.206 F 
ATOM     80  C   UNL     1       2.724   6.363  -5.310  1.00  0.00     0.040 A 
ATOM     81  C   UNL     1       4.804   5.154  -5.298  1.00  0.00     0.040 A 
ATOM     82  F   UNL     1       4.904   2.980  -6.174  1.00  0.00    -0.206 F 
ATOM     83  C   UNL     1       4.086   6.314  -5.019  1.00  0.00     0.006 A 
ENDBRANCH  55  76
BRANCH  67  84
ATOM     84  C   UNL     1       0.146   3.455 -12.606  1.00  0.00     0.057 A 
ATOM     85  C   UNL     1       1.236   3.917 -13.354  1.00  0.00     0.134 A 
ATOM     86  C   UNL     1      -1.132   3.872 -13.003  1.00  0.00     0.134 A 
ATOM     87  F   UNL     1       2.487   3.564 -13.022  1.00  0.00    -0.206 F 
ATOM     88  C   UNL     1       1.062   4.769 -14.447  1.00  0.00     0.040 A 
ATOM     89  C   UNL     1      -1.321   4.700 -14.110  1.00  0.00     0.040 A 
ATOM     90  F   UNL     1      -2.221   3.457 -12.338  1.00  0.00    -0.206 F 
ATOM     91  C   UNL     1      -0.220   5.154 -14.834  1.00  0.00     0.006 A 
ENDBRANCH  67  84
ENDBRANCH  41  42
ENDBRANCH  34  36
ENDBRANCH  33  34
ENDBRANCH  32  33
ENDBRANCH  31  32
ENDBRANCH  30  31
ENDBRANCH  29  30
ENDBRANCH   1  29
TORSDOF 22
