REMARK SMILES C[C@@H](NS(=O)(=O)c1ccccc1)C(=O)OCCOCCOCCOC(=O)c1ccc(-c2c3nc(c(-c4c(F)cccc4F)c4ccc([nH]4)c(-c4c(F)cccc4F)c4nc(c(-c5c(F)cccc5F)c5ccc2[nH]5)C=C4)C=C3)cc1
REMARK SMILES IDX 19 1 18 2 17 3 16 4 15 5 13 6 14 7 2 8 1 9 3 10 4 12 5 13
REMARK SMILES IDX 6 14 7 15 8 16 12 17 9 18 11 19 10 20 20 21 21 22 22 23
REMARK SMILES IDX 23 24 24 25 25 26 26 27 27 28 28 29 80 30 29 31 79 32 30 33
REMARK SMILES IDX 31 34 32 35 73 36 33 37 78 38 72 39 74 40 34 41 77 42 71 43
REMARK SMILES IDX 70 44 35 46 61 47 44 48 60 49 45 50 48 51 59 52 75 53 46 54
REMARK SMILES IDX 47 55 58 57 76 58 49 59 36 60 37 61 42 62 38 63 39 64 41 65
REMARK SMILES IDX 43 66 40 67 62 68 63 69 68 70 64 71 65 72 67 73 69 74 66 75
REMARK SMILES IDX 50 76 51 77 56 78 52 79 53 80 55 81 57 82 54 83
REMARK H PARENT 3 11 74 45 48 56
REMARK Flexibility Score: inf
ROOT
ATOM      1  C   UNL     1      -2.782   1.195  -1.169  1.00  0.00     0.188 C 
ENDROOT
BRANCH   1   2
ATOM      2  O   UNL     1      -3.846   0.525  -0.518  1.00  0.00    -0.376 OA
BRANCH   2   3
ATOM      3  C   UNL     1      -3.799  -0.889  -0.577  1.00  0.00     0.202 C 
BRANCH   3   4
ATOM      4  C   UNL     1      -2.825  -1.565   0.389  1.00  0.00     0.261 C 
BRANCH   4   5
ATOM      5  O   UNL     1      -1.400  -1.648   0.159  1.00  0.00    -0.462 OA
BRANCH   5   6
ATOM      6  C   UNL     1      -0.720  -1.435  -0.990  1.00  0.00     0.323 C 
ATOM      7  O   UNL     1      -1.181  -1.031  -2.046  1.00  0.00    -0.250 OA
BRANCH   6   8
ATOM      8  C   UNL     1       0.743  -1.819  -0.824  1.00  0.00     0.176 C 
ATOM      9  C   UNL     1       1.356  -1.143   0.403  1.00  0.00     0.038 C 
BRANCH   8  10
ATOM     10  N   UNL     1       0.834  -3.292  -0.729  1.00  0.00    -0.197 NA
ATOM     11  H   UNL     1       0.205  -3.589   0.018  1.00  0.00     0.142 HD
BRANCH  10  12
ATOM     12  S   UNL     1       0.443  -4.193  -2.109  1.00  0.00     0.241 S 
ATOM     13  O   UNL     1       0.869  -3.435  -3.259  1.00  0.00    -0.207 OA
ATOM     14  O   UNL     1       0.957  -5.523  -1.850  1.00  0.00    -0.207 OA
BRANCH  12  15
ATOM     15  C   UNL     1      -1.334  -4.304  -2.108  1.00  0.00     0.082 A 
ATOM     16  C   UNL     1      -2.085  -3.504  -2.977  1.00  0.00     0.022 A 
ATOM     17  C   UNL     1      -1.977  -5.221  -1.274  1.00  0.00     0.022 A 
ATOM     18  C   UNL     1      -3.480  -3.534  -2.926  1.00  0.00     0.001 A 
ATOM     19  C   UNL     1      -3.374  -5.276  -1.258  1.00  0.00     0.001 A 
ATOM     20  C   UNL     1      -4.124  -4.413  -2.060  1.00  0.00     0.000 A 
ENDBRANCH  12  15
ENDBRANCH  10  12
ENDBRANCH   8  10
ENDBRANCH   6   8
ENDBRANCH   5   6
ENDBRANCH   4   5
ENDBRANCH   3   4
ENDBRANCH   2   3
ENDBRANCH   1   2
BRANCH   1  21
ATOM     21  C   UNL     1      -1.606   1.514  -0.231  1.00  0.00     0.188 C 
BRANCH  21  22
ATOM     22  O   UNL     1      -1.844   1.737   1.150  1.00  0.00    -0.376 OA
BRANCH  22  23
ATOM     23  C   UNL     1      -3.034   2.413   1.518  1.00  0.00     0.202 C 
BRANCH  23  24
ATOM     24  C   UNL     1      -3.313   3.814   0.938  1.00  0.00     0.261 C 
BRANCH  24  25
ATOM     25  O   UNL     1      -2.995   4.022  -0.454  1.00  0.00    -0.460 OA
BRANCH  25  26
ATOM     26  C   UNL     1      -1.809   4.624  -0.729  1.00  0.00     0.338 C 
ATOM     27  O   UNL     1      -1.017   5.077   0.078  1.00  0.00    -0.246 OA
BRANCH  26  28
ATOM     28  C   UNL     1      -1.488   4.468  -2.175  1.00  0.00     0.060 A 
ATOM     29  C   UNL     1      -0.297   3.814  -2.542  1.00  0.00     0.016 A 
ATOM     30  C   UNL     1      -2.319   4.992  -3.163  1.00  0.00     0.016 A 
ATOM     31  C   UNL     1       0.073   3.694  -3.885  1.00  0.00     0.010 A 
ATOM     32  C   UNL     1      -1.925   4.913  -4.507  1.00  0.00     0.010 A 
ATOM     33  C   UNL     1      -0.714   4.292  -4.872  1.00  0.00    -0.014 A 
BRANCH  33  34
ATOM     34  C   UNL     1      -0.178   4.482  -6.246  1.00  0.00     0.031 A 
ATOM     35  C   UNL     1       0.416   5.820  -6.593  1.00  0.00     0.074 A 
ATOM     36  C   UNL     1      -0.230   3.514  -7.177  1.00  0.00     0.049 A 
ATOM     37  N   UNL     1       0.790   6.293  -7.754  1.00  0.00    -0.248 NA
ATOM     38  C   UNL     1       0.598   6.756  -5.473  1.00  0.00     0.031 C 
ATOM     39  C   UNL     1      -0.715   2.154  -6.961  1.00  0.00     0.029 A 
ATOM     40  N   UNL     1       0.106   3.547  -8.510  1.00  0.00    -0.354 N 
ATOM     41  C   UNL     1       1.222   7.590  -7.509  1.00  0.00     0.074 A 
ATOM     42  C   UNL     1       1.048   7.835  -6.094  1.00  0.00     0.031 C 
ATOM     43  C   UNL     1      -0.686   1.493  -8.133  1.00  0.00     0.029 A 
ATOM     44  C   UNL     1      -0.223   2.397  -9.186  1.00  0.00     0.049 A 
ATOM     45  H   UNL     1       0.539   4.320  -8.939  1.00  0.00     0.167 HD
ATOM     46  C   UNL     1       1.716   8.498  -8.384  1.00  0.00     0.037 A 
ATOM     47  C   UNL     1      -0.197   2.122 -10.506  1.00  0.00     0.037 A 
ATOM     48  C   UNL     1       1.891   8.251  -9.791  1.00  0.00     0.049 A 
ATOM     49  C   UNL     1       0.282   3.171 -11.479  1.00  0.00     0.074 A 
ATOM     50  C   UNL     1       2.413   9.096 -10.755  1.00  0.00     0.029 A 
ATOM     51  N   UNL     1       1.537   7.076 -10.437  1.00  0.00    -0.354 N 
ATOM     52  N   UNL     1       0.704   4.390 -11.241  1.00  0.00    -0.248 NA
ATOM     53  C   UNL     1       0.286   2.807 -12.904  1.00  0.00     0.031 C 
ATOM     54  C   UNL     1       2.312   8.457 -11.994  1.00  0.00     0.029 A 
ATOM     55  C   UNL     1       1.794   7.188 -11.793  1.00  0.00     0.049 A 
ATOM     56  H   UNL     1       1.158   6.281  -9.996  1.00  0.00     0.167 HD
ATOM     57  C   UNL     1       1.052   4.924 -12.477  1.00  0.00     0.074 A 
ATOM     58  C   UNL     1       0.796   3.896 -13.464  1.00  0.00     0.031 C 
ATOM     59  C   UNL     1       1.545   6.154 -12.767  1.00  0.00     0.037 A 
BRANCH  46  60
ATOM     60  C   UNL     1       2.052   9.861  -7.850  1.00  0.00     0.057 A 
ATOM     61  C   UNL     1       3.130  10.080  -6.982  1.00  0.00     0.134 A 
ATOM     62  C   UNL     1       1.286  10.974  -8.221  1.00  0.00     0.134 A 
ATOM     63  F   UNL     1       3.895   9.056  -6.575  1.00  0.00    -0.206 F 
ATOM     64  C   UNL     1       3.413  11.350  -6.476  1.00  0.00     0.040 A 
ATOM     65  C   UNL     1       1.579  12.254  -7.748  1.00  0.00     0.040 A 
ATOM     66  F   UNL     1       0.243  10.838  -9.053  1.00  0.00    -0.206 F 
ATOM     67  C   UNL     1       2.639  12.443  -6.864  1.00  0.00     0.006 A 
ENDBRANCH  46  60
BRANCH  47  68
ATOM     68  C   UNL     1      -0.679   0.804 -10.995  1.00  0.00     0.057 A 
ATOM     69  C   UNL     1       0.199  -0.133 -11.552  1.00  0.00     0.134 A 
ATOM     70  C   UNL     1      -2.034   0.454 -10.925  1.00  0.00     0.134 A 
ATOM     71  F   UNL     1       1.503   0.154 -11.675  1.00  0.00    -0.206 F 
ATOM     72  C   UNL     1      -0.253  -1.365 -12.030  1.00  0.00     0.040 A 
ATOM     73  C   UNL     1      -2.495  -0.784 -11.374  1.00  0.00     0.040 A 
ATOM     74  F   UNL     1      -2.929   1.309 -10.408  1.00  0.00    -0.206 F 
ATOM     75  C   UNL     1      -1.603  -1.696 -11.934  1.00  0.00     0.006 A 
ENDBRANCH  47  68
BRANCH  59  76
ATOM     76  C   UNL     1       1.888   6.455 -14.199  1.00  0.00     0.057 A 
ATOM     77  C   UNL     1       0.904   6.665 -15.172  1.00  0.00     0.134 A 
ATOM     78  C   UNL     1       3.225   6.612 -14.589  1.00  0.00     0.134 A 
ATOM     79  F   UNL     1      -0.395   6.522 -14.869  1.00  0.00    -0.206 F 
ATOM     80  C   UNL     1       1.238   7.009 -16.485  1.00  0.00     0.040 A 
ATOM     81  C   UNL     1       3.570   6.982 -15.890  1.00  0.00     0.040 A 
ATOM     82  F   UNL     1       4.218   6.436 -13.704  1.00  0.00    -0.206 F 
ATOM     83  C   UNL     1       2.574   7.178 -16.843  1.00  0.00     0.006 A 
ENDBRANCH  59  76
ENDBRANCH  33  34
ENDBRANCH  26  28
ENDBRANCH  25  26
ENDBRANCH  24  25
ENDBRANCH  23  24
ENDBRANCH  22  23
ENDBRANCH  21  22
ENDBRANCH   1  21
TORSDOF 20
