REMARK SMILES O=C(CNc1nc(-c2ccccc2)c(-c2ccccc2)s1)OCCOCCOCCOC(=O)c1ccc(-c2c3nc(c(-c4c(F)cccc4F)c4ccc([nH]4)c(-c4c(F)cccc4F)c4nc(c(-c5c(F)cccc5F)c5ccc2[nH]5)C=C4)C=C3)cc1
REMARK SMILES IDX 26 1 25 2 24 3 23 4 22 5 2 6 1 7 3 8 4 9 5 11 6 12 21 13
REMARK SMILES IDX 7 14 14 15 8 16 9 17 13 18 10 19 12 20 11 21 15 22 16 23
REMARK SMILES IDX 20 24 17 25 19 26 18 27 27 28 28 29 29 30 30 31 31 32 32 33
REMARK SMILES IDX 33 34 34 35 35 36 87 37 36 38 86 39 37 40 38 41 39 42 80 43
REMARK SMILES IDX 40 44 85 45 79 46 81 47 41 48 84 49 78 50 77 51 42 53 68 54
REMARK SMILES IDX 51 55 67 56 52 57 55 58 66 59 82 60 53 61 54 62 65 64 83 65
REMARK SMILES IDX 56 66 43 67 44 68 49 69 45 70 46 71 48 72 50 73 47 74 69 75
REMARK SMILES IDX 70 76 75 77 71 78 72 79 74 80 76 81 73 82 57 83 58 84 63 85
REMARK SMILES IDX 59 86 60 87 62 88 64 89 61 90
REMARK H PARENT 4 10 81 52 55 63
REMARK Flexibility Score: inf
ROOT
ATOM      1  C   UNL     1       2.688   1.629   0.886  1.00  0.00     0.188 C 
ENDROOT
BRANCH   1   2
ATOM      2  O   UNL     1       4.091   1.660   0.723  1.00  0.00    -0.376 OA
BRANCH   2   3
ATOM      3  C   UNL     1       4.747   0.513   0.220  1.00  0.00     0.202 C 
BRANCH   3   4
ATOM      4  C   UNL     1       4.264   0.040  -1.152  1.00  0.00     0.261 C 
BRANCH   4   5
ATOM      5  O   UNL     1       2.949  -0.569  -1.218  1.00  0.00    -0.462 OA
BRANCH   5   6
ATOM      6  C   UNL     1       2.423  -1.569  -0.478  1.00  0.00     0.325 C 
ATOM      7  O   UNL     1       1.225  -1.831  -0.589  1.00  0.00    -0.250 OA
BRANCH   6   8
ATOM      8  C   UNL     1       3.304  -2.360   0.477  1.00  0.00     0.238 C 
BRANCH   8   9
ATOM      9  N   UNL     1       4.459  -2.915  -0.200  1.00  0.00    -0.351 N 
ATOM     10  H   UNL     1       4.321  -3.433  -1.025  1.00  0.00     0.163 HD
BRANCH   9  11
ATOM     11  C   UNL     1       5.713  -2.750   0.257  1.00  0.00     0.184 A 
ATOM     12  N   UNL     1       6.057  -2.353   1.460  1.00  0.00    -0.220 NA
ATOM     13  S   UNL     1       7.013  -2.974  -0.840  1.00  0.00    -0.096 S 
ATOM     14  C   UNL     1       7.430  -2.136   1.518  1.00  0.00     0.091 A 
ATOM     15  C   UNL     1       8.107  -2.362   0.328  1.00  0.00     0.064 A 
BRANCH  14  16
ATOM     16  C   UNL     1       8.088  -1.735   2.757  1.00  0.00     0.002 A 
ATOM     17  C   UNL     1       8.956  -0.635   2.801  1.00  0.00     0.010 A 
ATOM     18  C   UNL     1       7.912  -2.507   3.912  1.00  0.00     0.010 A 
ATOM     19  C   UNL     1       9.677  -0.346   3.963  1.00  0.00     0.001 A 
ATOM     20  C   UNL     1       8.634  -2.218   5.073  1.00  0.00     0.001 A 
ATOM     21  C   UNL     1       9.525  -1.145   5.094  1.00  0.00     0.000 A 
ENDBRANCH  14  16
BRANCH  15  22
ATOM     22  C   UNL     1       9.512  -2.228  -0.035  1.00  0.00    -0.006 A 
ATOM     23  C   UNL     1       9.914  -1.248  -0.954  1.00  0.00     0.009 A 
ATOM     24  C   UNL     1      10.471  -3.075   0.530  1.00  0.00     0.009 A 
ATOM     25  C   UNL     1      11.256  -1.128  -1.312  1.00  0.00     0.001 A 
ATOM     26  C   UNL     1      11.812  -2.955   0.168  1.00  0.00     0.001 A 
ATOM     27  C   UNL     1      12.203  -1.985  -0.755  1.00  0.00     0.000 A 
ENDBRANCH  15  22
ENDBRANCH   9  11
ENDBRANCH   8   9
ENDBRANCH   6   8
ENDBRANCH   5   6
ENDBRANCH   4   5
ENDBRANCH   3   4
ENDBRANCH   2   3
ENDBRANCH   1   2
BRANCH   1  28
ATOM     28  C   UNL     1       2.110   3.050   0.968  1.00  0.00     0.188 C 
BRANCH  28  29
ATOM     29  O   UNL     1       2.867   4.098   0.367  1.00  0.00    -0.376 OA
BRANCH  29  30
ATOM     30  C   UNL     1       4.176   4.360   0.885  1.00  0.00     0.202 C 
BRANCH  30  31
ATOM     31  C   UNL     1       4.316   4.589   2.397  1.00  0.00     0.261 C 
BRANCH  31  32
ATOM     32  O   UNL     1       3.972   3.445   3.209  1.00  0.00    -0.460 OA
BRANCH  32  33
ATOM     33  C   UNL     1       3.031   3.686   4.155  1.00  0.00     0.338 C 
ATOM     34  O   UNL     1       2.474   4.745   4.389  1.00  0.00    -0.246 OA
BRANCH  33  35
ATOM     35  C   UNL     1       2.626   2.451   4.852  1.00  0.00     0.060 A 
ATOM     36  C   UNL     1       1.304   2.016   4.697  1.00  0.00     0.016 A 
ATOM     37  C   UNL     1       3.446   1.889   5.832  1.00  0.00     0.016 A 
ATOM     38  C   UNL     1       0.773   1.068   5.573  1.00  0.00     0.010 A 
ATOM     39  C   UNL     1       2.909   0.945   6.718  1.00  0.00     0.010 A 
ATOM     40  C   UNL     1       1.554   0.576   6.628  1.00  0.00    -0.014 A 
BRANCH  40  41
ATOM     41  C   UNL     1       0.882  -0.134   7.748  1.00  0.00     0.031 A 
ATOM     42  C   UNL     1       0.449   0.661   8.954  1.00  0.00     0.074 A 
ATOM     43  C   UNL     1       0.601  -1.447   7.681  1.00  0.00     0.049 A 
ATOM     44  N   UNL     1      -0.198   0.268  10.022  1.00  0.00    -0.248 NA
ATOM     45  C   UNL     1       0.790   2.093   8.952  1.00  0.00     0.031 C 
ATOM     46  C   UNL     1       0.931  -2.327   6.563  1.00  0.00     0.029 A 
ATOM     47  N   UNL     1      -0.037  -2.265   8.580  1.00  0.00    -0.354 N 
ATOM     48  C   UNL     1      -0.343   1.400  10.816  1.00  0.00     0.074 A 
ATOM     49  C   UNL     1       0.310   2.489  10.122  1.00  0.00     0.031 C 
ATOM     50  C   UNL     1       0.490  -3.567   6.843  1.00  0.00     0.029 A 
ATOM     51  C   UNL     1      -0.138  -3.569   8.164  1.00  0.00     0.049 A 
ATOM     52  H   UNL     1      -0.390  -1.946   9.443  1.00  0.00     0.167 HD
ATOM     53  C   UNL     1      -0.972   1.529  12.008  1.00  0.00     0.037 A 
ATOM     54  C   UNL     1      -0.674  -4.640   8.780  1.00  0.00     0.037 A 
ATOM     55  C   UNL     1      -1.628   0.456  12.706  1.00  0.00     0.049 A 
ATOM     56  C   UNL     1      -1.320  -4.483  10.131  1.00  0.00     0.074 A 
ATOM     57  C   UNL     1      -2.310   0.498  13.910  1.00  0.00     0.029 A 
ATOM     58  N   UNL     1      -1.677  -0.857  12.264  1.00  0.00    -0.354 N 
ATOM     59  N   UNL     1      -1.485  -3.400  10.851  1.00  0.00    -0.248 NA
ATOM     60  C   UNL     1      -1.863  -5.702  10.752  1.00  0.00     0.031 C 
ATOM     61  C   UNL     1      -2.739  -0.798  14.216  1.00  0.00     0.029 A 
ATOM     62  C   UNL     1      -2.359  -1.638  13.182  1.00  0.00     0.049 A 
ATOM     63  H   UNL     1      -1.285  -1.185  11.423  1.00  0.00     0.167 HD
ATOM     64  C   UNL     1      -2.180  -3.799  11.987  1.00  0.00     0.074 A 
ATOM     65  C   UNL     1      -2.409  -5.223  11.861  1.00  0.00     0.031 C 
ATOM     66  C   UNL     1      -2.595  -3.051  13.039  1.00  0.00     0.037 A 
BRANCH  53  67
ATOM     67  C   UNL     1      -0.961   2.886  12.645  1.00  0.00     0.057 A 
ATOM     68  C   UNL     1      -1.759   3.933  12.165  1.00  0.00     0.134 A 
ATOM     69  C   UNL     1      -0.159   3.143  13.764  1.00  0.00     0.134 A 
ATOM     70  F   UNL     1      -2.539   3.753  11.088  1.00  0.00    -0.206 F 
ATOM     71  C   UNL     1      -1.743   5.194  12.762  1.00  0.00     0.040 A 
ATOM     72  C   UNL     1      -0.151   4.394  14.382  1.00  0.00     0.040 A 
ATOM     73  F   UNL     1       0.625   2.182  14.274  1.00  0.00    -0.206 F 
ATOM     74  C   UNL     1      -0.940   5.426  13.878  1.00  0.00     0.006 A 
ENDBRANCH  53  67
BRANCH  54  75
ATOM     75  C   UNL     1      -0.639  -5.970   8.123  1.00  0.00     0.057 A 
ATOM     76  C   UNL     1      -1.806  -6.564   7.629  1.00  0.00     0.134 A 
ATOM     77  C   UNL     1       0.554  -6.692   8.008  1.00  0.00     0.134 A 
ATOM     78  F   UNL     1      -2.983  -5.931   7.736  1.00  0.00    -0.206 F 
ATOM     79  C   UNL     1      -1.791  -7.838   7.058  1.00  0.00     0.040 A 
ATOM     80  C   UNL     1       0.587  -7.958   7.420  1.00  0.00     0.040 A 
ATOM     81  F   UNL     1       1.704  -6.178   8.466  1.00  0.00    -0.206 F 
ATOM     82  C   UNL     1      -0.591  -8.537   6.950  1.00  0.00     0.006 A 
ENDBRANCH  54  75
BRANCH  66  83
ATOM     83  C   UNL     1      -3.379  -3.746  14.113  1.00  0.00     0.057 A 
ATOM     84  C   UNL     1      -2.771  -4.609  15.033  1.00  0.00     0.134 A 
ATOM     85  C   UNL     1      -4.754  -3.519  14.250  1.00  0.00     0.134 A 
ATOM     86  F   UNL     1      -1.459  -4.877  14.949  1.00  0.00    -0.206 F 
ATOM     87  C   UNL     1      -3.508  -5.241  16.037  1.00  0.00     0.040 A 
ATOM     88  C   UNL     1      -5.497  -4.127  15.263  1.00  0.00     0.040 A 
ATOM     89  F   UNL     1      -5.396  -2.696  13.407  1.00  0.00    -0.206 F 
ATOM     90  C   UNL     1      -4.875  -4.996  16.157  1.00  0.00     0.006 A 
ENDBRANCH  66  83
ENDBRANCH  40  41
ENDBRANCH  33  35
ENDBRANCH  32  33
ENDBRANCH  31  32
ENDBRANCH  30  31
ENDBRANCH  29  30
ENDBRANCH  28  29
ENDBRANCH   1  28
TORSDOF 21
