REMARK SMILES Cc1cccc(OC2(C(=O)OCCOCCOCCOC(=O)c3ccc(-c4c5nc(c(-c6c(F)cccc6F)c6ccc([nH]6)c(-c6c(F)cccc6F)c6nc(c(-c7c(F)cccc7F)c7ccc4[nH]7)C=C6)C=C5)cc3)CCN(C(=O)c3cnc[nH]c3=O)CC2)c1
REMARK SMILES IDX 15 1 14 2 13 3 12 4 11 5 9 6 10 7 8 8 77 9 90 10 78 11 89 12
REMARK SMILES IDX 79 13 80 14 81 15 7 16 6 17 1 18 2 19 3 20 91 21 4 22 5 23
REMARK SMILES IDX 82 24 83 25 87 26 84 27 86 28 88 29 85 30 16 32 17 33 18 34
REMARK SMILES IDX 19 35 20 36 21 37 22 38 23 39 24 40 76 41 25 42 75 43 26 44
REMARK SMILES IDX 27 45 28 46 69 47 29 48 74 49 68 50 70 51 30 52 73 53 67 54
REMARK SMILES IDX 66 55 31 57 57 58 40 59 56 60 41 61 44 62 55 63 71 64 42 65
REMARK SMILES IDX 43 66 54 68 72 69 45 70 32 71 33 72 38 73 34 74 35 75 37 76
REMARK SMILES IDX 39 77 36 78 58 79 59 80 64 81 60 82 61 83 63 84 65 85 62 86
REMARK SMILES IDX 46 87 47 88 52 89 48 90 49 91 51 92 53 93 50 94
REMARK H PARENT 86 31 70 56 44 67
REMARK Flexibility Score: inf
ROOT
ATOM      1  C   UNL     1       0.680   3.288  -5.439  1.00  0.00     0.188 C 
ENDROOT
BRANCH   1   2
ATOM      2  O   UNL     1       0.383   4.653  -5.076  1.00  0.00    -0.376 OA
BRANCH   2   3
ATOM      3  C   UNL     1       1.244   5.526  -4.318  1.00  0.00     0.202 C 
BRANCH   3   4
ATOM      4  C   UNL     1       0.822   6.215  -2.829  1.00  0.00     0.261 C 
BRANCH   4   5
ATOM      5  O   UNL     1       0.755   5.473  -1.224  1.00  0.00    -0.460 OA
BRANCH   5   6
ATOM      6  C   UNL     1      -0.161   4.943  -0.222  1.00  0.00     0.350 C 
ATOM      7  O   UNL     1      -1.388   5.082  -0.175  1.00  0.00    -0.247 OA
BRANCH   6   8
ATOM      8  C   UNL     1       0.309   3.993   0.899  1.00  0.00     0.209 C 
ATOM      9  C   UNL     1       1.816   4.111   1.003  1.00  0.00     0.082 C 
ATOM     10  C   UNL     1      -0.542   4.404   2.154  1.00  0.00     0.082 C 
ATOM     11  C   UNL     1       2.341   3.994   2.415  1.00  0.00     0.124 C 
ATOM     12  C   UNL     1       0.145   4.075   3.456  1.00  0.00     0.124 C 
ATOM     13  N   UNL     1       1.471   4.656   3.361  1.00  0.00    -0.338 N 
ATOM     14  C   UNL     1       1.698   5.976   3.725  1.00  0.00     0.261 C 
ATOM     15  O   UNL     1       2.326   6.774   3.038  1.00  0.00    -0.269 OA
BRANCH   8  16
ATOM     16  O   UNL     1      -0.260   2.742   0.428  1.00  0.00    -0.475 OA
BRANCH  16  17
ATOM     17  C   UNL     1      -0.218   1.525   1.036  1.00  0.00     0.121 A 
ATOM     18  C   UNL     1       2.263  -1.332   1.144  1.00  0.00     0.044 C 
ATOM     19  C   UNL     1       0.977  -0.572   1.278  1.00  0.00    -0.047 A 
ATOM     20  C   UNL     1      -0.233  -1.258   1.430  1.00  0.00     0.003 A 
ATOM     21  C   UNL     1       0.975   0.822   1.114  1.00  0.00     0.050 A 
ATOM     22  C   UNL     1      -1.436  -0.556   1.407  1.00  0.00     0.004 A 
ATOM     23  C   UNL     1      -1.428   0.829   1.187  1.00  0.00     0.046 A 
ENDBRANCH  16  17
ENDBRANCH   8  16
BRANCH  14  24
ATOM     24  C   UNL     1       1.135   6.351   5.037  1.00  0.00     0.123 A 
ATOM     25  C   UNL     1       0.328   7.413   5.176  1.00  0.00     0.132 A 
ATOM     26  C   UNL     1       1.404   5.545   6.241  1.00  0.00     0.263 A 
ATOM     27  N   UNL     1      -0.285   7.784   6.352  1.00  0.00    -0.246 NA
ATOM     28  N   UNL     1       0.751   5.944   7.367  1.00  0.00    -0.312 N 
ATOM     29  O   UNL     1       2.163   4.576   6.254  1.00  0.00    -0.269 OA
ATOM     30  C   UNL     1      -0.056   7.042   7.382  1.00  0.00     0.199 A 
ATOM     31  H   UNL     1       0.864   5.423   8.195  1.00  0.00     0.171 HD
ENDBRANCH  14  24
ENDBRANCH   6   8
ENDBRANCH   5   6
ENDBRANCH   4   5
ENDBRANCH   3   4
ENDBRANCH   2   3
ENDBRANCH   1   2
BRANCH   1  32
ATOM     32  C   UNL     1       2.076   2.717  -5.735  1.00  0.00     0.188 C 
BRANCH  32  33
ATOM     33  O   UNL     1       3.071   3.254  -4.888  1.00  0.00    -0.376 OA
BRANCH  33  34
ATOM     34  C   UNL     1       4.374   2.712  -5.059  1.00  0.00     0.202 C 
BRANCH  34  35
ATOM     35  C   UNL     1       4.574   1.321  -4.416  1.00  0.00     0.261 C 
BRANCH  35  36
ATOM     36  O   UNL     1       4.233   1.302  -3.009  1.00  0.00    -0.460 OA
BRANCH  36  37
ATOM     37  C   UNL     1       3.181   0.493  -2.635  1.00  0.00     0.338 C 
ATOM     38  O   UNL     1       3.237  -0.722  -2.586  1.00  0.00    -0.246 OA
BRANCH  37  39
ATOM     39  C   UNL     1       1.965   1.314  -2.341  1.00  0.00     0.060 A 
ATOM     40  C   UNL     1       0.614   0.935  -2.307  1.00  0.00     0.016 A 
ATOM     41  C   UNL     1       2.185   2.637  -2.233  1.00  0.00     0.016 A 
ATOM     42  C   UNL     1      -0.491   1.920  -2.326  1.00  0.00     0.010 A 
ATOM     43  C   UNL     1       1.106   3.500  -2.400  1.00  0.00     0.010 A 
ATOM     44  C   UNL     1      -0.305   3.310  -2.438  1.00  0.00    -0.014 A 
BRANCH  44  45
ATOM     45  C   UNL     1      -1.500   4.471  -2.791  1.00  0.00     0.031 A 
ATOM     46  C   UNL     1      -2.017   6.025  -2.150  1.00  0.00     0.074 A 
ATOM     47  C   UNL     1      -2.277   4.147  -3.852  1.00  0.00     0.049 A 
ATOM     48  N   UNL     1      -3.268   6.465  -2.151  1.00  0.00    -0.248 NA
ATOM     49  C   UNL     1      -1.226   7.114  -1.415  1.00  0.00     0.031 C 
ATOM     50  C   UNL     1      -3.174   5.027  -4.598  1.00  0.00     0.029 A 
ATOM     51  N   UNL     1      -2.477   2.891  -4.441  1.00  0.00    -0.354 N 
ATOM     52  C   UNL     1      -3.317   7.764  -1.598  1.00  0.00     0.074 A 
ATOM     53  C   UNL     1      -2.067   8.040  -1.023  1.00  0.00     0.031 C 
ATOM     54  C   UNL     1      -4.012   4.277  -5.326  1.00  0.00     0.029 A 
ATOM     55  C   UNL     1      -3.783   2.895  -4.954  1.00  0.00     0.049 A 
ATOM     56  H   UNL     1      -1.828   2.151  -4.487  1.00  0.00     0.167 HD
ATOM     57  C   UNL     1      -4.301   8.686  -1.774  1.00  0.00     0.037 A 
ATOM     58  C   UNL     1      -4.723   2.002  -4.544  1.00  0.00     0.037 A 
ATOM     59  C   UNL     1      -5.323   8.145  -2.608  1.00  0.00     0.049 A 
ATOM     60  C   UNL     1      -5.992   2.653  -4.058  1.00  0.00     0.074 A 
ATOM     61  C   UNL     1      -5.481   8.128  -3.979  1.00  0.00     0.029 A 
ATOM     62  N   UNL     1      -6.115   7.146  -2.085  1.00  0.00    -0.354 N 
ATOM     63  N   UNL     1      -6.089   3.917  -3.757  1.00  0.00    -0.248 NA
ATOM     64  C   UNL     1      -7.247   1.938  -3.849  1.00  0.00     0.031 C 
ATOM     65  C   UNL     1      -6.354   7.060  -4.290  1.00  0.00     0.029 A 
ATOM     66  C   UNL     1      -6.751   6.473  -3.102  1.00  0.00     0.049 A 
ATOM     67  H   UNL     1      -6.211   6.944  -1.127  1.00  0.00     0.167 HD
ATOM     68  C   UNL     1      -7.338   4.178  -3.263  1.00  0.00     0.074 A 
ATOM     69  C   UNL     1      -8.038   2.917  -3.374  1.00  0.00     0.031 C 
ATOM     70  C   UNL     1      -7.669   5.404  -2.768  1.00  0.00     0.037 A 
BRANCH  57  71
ATOM     71  C   UNL     1      -4.052  10.160  -1.480  1.00  0.00     0.057 A 
ATOM     72  C   UNL     1      -4.295  11.138  -2.458  1.00  0.00     0.134 A 
ATOM     73  C   UNL     1      -3.434  10.648  -0.308  1.00  0.00     0.134 A 
ATOM     74  F   UNL     1      -4.959  10.848  -3.583  1.00  0.00    -0.206 F 
ATOM     75  C   UNL     1      -3.835  12.459  -2.342  1.00  0.00     0.040 A 
ATOM     76  C   UNL     1      -2.909  11.948  -0.206  1.00  0.00     0.040 A 
ATOM     77  F   UNL     1      -3.268   9.855   0.764  1.00  0.00    -0.206 F 
ATOM     78  C   UNL     1      -3.094  12.857  -1.238  1.00  0.00     0.006 A 
ENDBRANCH  57  71
BRANCH  58  79
ATOM     79  C   UNL     1      -4.154   0.711  -4.070  1.00  0.00     0.057 A 
ATOM     80  C   UNL     1      -3.451  -0.093  -4.990  1.00  0.00     0.134 A 
ATOM     81  C   UNL     1      -3.956   0.434  -2.714  1.00  0.00     0.134 A 
ATOM     82  F   UNL     1      -3.583   0.122  -6.309  1.00  0.00    -0.206 F 
ATOM     83  C   UNL     1      -2.518  -1.052  -4.583  1.00  0.00     0.040 A 
ATOM     84  C   UNL     1      -3.037  -0.540  -2.295  1.00  0.00     0.040 A 
ATOM     85  F   UNL     1      -4.545   1.183  -1.771  1.00  0.00    -0.206 F 
ATOM     86  C   UNL     1      -2.288  -1.258  -3.228  1.00  0.00     0.006 A 
ENDBRANCH  58  79
BRANCH  70  87
ATOM     87  C   UNL     1      -8.867   5.748  -1.919  1.00  0.00     0.057 A 
ATOM     88  C   UNL     1      -9.511   4.838  -1.072  1.00  0.00     0.134 A 
ATOM     89  C   UNL     1      -9.278   7.097  -1.778  1.00  0.00     0.134 A 
ATOM     90  F   UNL     1      -9.157   3.548  -1.026  1.00  0.00    -0.206 F 
ATOM     91  C   UNL     1     -10.512   5.232  -0.176  1.00  0.00     0.040 A 
ATOM     92  C   UNL     1     -10.226   7.509  -0.841  1.00  0.00     0.040 A 
ATOM     93  F   UNL     1      -8.745   8.080  -2.519  1.00  0.00    -0.206 F 
ATOM     94  C   UNL     1     -10.858   6.572  -0.042  1.00  0.00     0.006 A 
ENDBRANCH  70  87
ENDBRANCH  44  45
ENDBRANCH  37  39
ENDBRANCH  36  37
ENDBRANCH  35  36
ENDBRANCH  34  35
ENDBRANCH  33  34
ENDBRANCH  32  33
ENDBRANCH   1  32
TORSDOF 20
