REMARK SMILES Cc1ccc(Cl)cc1NC(=O)N[C@@](C)(C(=O)OCCOCCOCCOC(=O)c1ccc(-c2c3nc(c(-c4c(F)cccc4F)c4ccc([nH]4)c(-c4c(F)cccc4F)c4nc(c(-c5c(F)cccc5F)c5ccc2[nH]5)C=C4)C=C3)cc1)C(F)(F)F
REMARK SMILES IDX 21 1 20 2 19 3 18 4 17 5 15 6 16 7 13 8 14 9 12 10 9 11
REMARK SMILES IDX 10 12 11 14 8 16 1 17 2 18 3 19 4 20 7 21 5 22 6 23 83 24
REMARK SMILES IDX 84 25 85 26 86 27 22 28 23 29 24 30 25 31 26 32 27 33 28 34
REMARK SMILES IDX 29 35 30 36 82 37 31 38 81 39 32 40 33 41 34 42 75 43 35 44
REMARK SMILES IDX 80 45 74 46 76 47 36 48 79 49 73 50 72 51 37 53 63 54 46 55
REMARK SMILES IDX 62 56 47 57 50 58 61 59 77 60 48 61 49 62 60 64 78 65 51 66
REMARK SMILES IDX 38 67 39 68 44 69 40 70 41 71 43 72 45 73 42 74 64 75 65 76
REMARK SMILES IDX 70 77 66 78 67 79 69 80 71 81 68 82 52 83 53 84 58 85 54 86
REMARK SMILES IDX 55 87 57 88 59 89 56 90
REMARK H PARENT 9 13 12 15 76 52 50 63
REMARK Flexibility Score: inf
ROOT
ATOM      1  C   UNL     1      -0.990   2.673  -3.550  1.00  0.00     0.188 C 
ENDROOT
BRANCH   1   2
ATOM      2  O   UNL     1      -2.016   2.950  -4.475  1.00  0.00    -0.376 OA
BRANCH   2   3
ATOM      3  C   UNL     1      -3.357   3.020  -4.010  1.00  0.00     0.202 C 
BRANCH   3   4
ATOM      4  C   UNL     1      -3.748   3.221  -2.527  1.00  0.00     0.261 C 
BRANCH   4   5
ATOM      5  O   UNL     1      -2.673   3.444  -1.595  1.00  0.00    -0.461 OA
BRANCH   5   6
ATOM      6  C   UNL     1      -2.983   3.135  -0.305  1.00  0.00     0.341 C 
ATOM      7  O   UNL     1      -4.144   3.104   0.097  1.00  0.00    -0.249 OA
BRANCH   6   8
ATOM      8  C   UNL     1      -1.795   2.506   0.482  1.00  0.00     0.232 C 
ATOM      9  C   UNL     1      -2.235   2.590   1.955  1.00  0.00     0.058 C 
BRANCH   8  10
ATOM     10  N   UNL     1      -0.471   3.230   0.430  1.00  0.00    -0.314 N 
ATOM     11  N   UNL     1       1.536   1.969   0.992  1.00  0.00    -0.308 N 
ATOM     12  C   UNL     1       0.812   3.075   0.774  1.00  0.00     0.320 C 
ATOM     13  H   UNL     1       2.477   2.206   1.159  1.00  0.00     0.171 HD
ATOM     14  O   UNL     1       1.466   4.130   0.782  1.00  0.00    -0.248 OA
ATOM     15  H   UNL     1      -0.593   4.108   0.001  1.00  0.00     0.166 HD
BRANCH  11  16
ATOM     16  C   UNL     1       1.368   0.577   1.055  1.00  0.00     0.047 A 
ATOM     17  C   UNL     1       3.739   0.132   0.120  1.00  0.00     0.046 C 
ATOM     18  C   UNL     1       2.328  -0.275   0.458  1.00  0.00    -0.027 A 
ATOM     19  C   UNL     1       2.016  -1.634   0.258  1.00  0.00     0.007 A 
ATOM     20  C   UNL     1       0.850  -2.177   0.778  1.00  0.00     0.021 A 
ATOM     21  C   UNL     1       0.312  -0.016   1.734  1.00  0.00     0.047 A 
ATOM     22  C   UNL     1       0.057  -1.387   1.596  1.00  0.00     0.043 A 
ATOM     23  Cl  UNL     1      -1.269  -2.111   2.426  1.00  0.00    -0.084 Cl
ENDBRANCH  11  16
ENDBRANCH   8  10
BRANCH   8  24
ATOM     24  C   UNL     1      -1.836   1.092  -0.142  1.00  0.00     0.422 C 
ATOM     25  F   UNL     1      -0.671   0.783  -0.760  1.00  0.00    -0.168 F 
ATOM     26  F   UNL     1      -2.103   0.157   0.789  1.00  0.00    -0.168 F 
ATOM     27  F   UNL     1      -2.781   0.904  -1.095  1.00  0.00    -0.168 F 
ENDBRANCH   8  24
ENDBRANCH   6   8
ENDBRANCH   5   6
ENDBRANCH   4   5
ENDBRANCH   3   4
ENDBRANCH   2   3
ENDBRANCH   1   2
BRANCH   1  28
ATOM     28  C   UNL     1      -0.356   3.922  -2.903  1.00  0.00     0.188 C 
BRANCH  28  29
ATOM     29  O   UNL     1      -0.940   5.203  -3.067  1.00  0.00    -0.376 OA
BRANCH  29  30
ATOM     30  C   UNL     1      -1.190   5.663  -4.388  1.00  0.00     0.202 C 
BRANCH  30  31
ATOM     31  C   UNL     1      -0.118   5.538  -5.487  1.00  0.00     0.261 C 
BRANCH  31  32
ATOM     32  O   UNL     1       0.622   4.303  -5.520  1.00  0.00    -0.460 OA
BRANCH  32  33
ATOM     33  C   UNL     1       1.914   4.386  -5.124  1.00  0.00     0.338 C 
ATOM     34  O   UNL     1       2.526   5.399  -4.796  1.00  0.00    -0.246 OA
BRANCH  33  35
ATOM     35  C   UNL     1       2.476   3.034  -4.930  1.00  0.00     0.060 A 
ATOM     36  C   UNL     1       2.841   2.636  -3.636  1.00  0.00     0.016 A 
ATOM     37  C   UNL     1       2.715   2.193  -6.016  1.00  0.00     0.016 A 
ATOM     38  C   UNL     1       3.456   1.404  -3.428  1.00  0.00     0.010 A 
ATOM     39  C   UNL     1       3.370   0.972  -5.807  1.00  0.00     0.010 A 
ATOM     40  C   UNL     1       3.768   0.583  -4.515  1.00  0.00    -0.014 A 
BRANCH  40  41
ATOM     41  C   UNL     1       4.689  -0.566  -4.322  1.00  0.00     0.031 A 
ATOM     42  C   UNL     1       6.152  -0.364  -4.607  1.00  0.00     0.074 A 
ATOM     43  C   UNL     1       4.253  -1.760  -3.885  1.00  0.00     0.049 A 
ATOM     44  N   UNL     1       7.126  -1.237  -4.617  1.00  0.00    -0.248 NA
ATOM     45  C   UNL     1       6.570   1.011  -4.925  1.00  0.00     0.031 C 
ATOM     46  C   UNL     1       2.878  -2.074  -3.506  1.00  0.00     0.029 A 
ATOM     47  N   UNL     1       4.932  -2.941  -3.701  1.00  0.00    -0.354 N 
ATOM     48  C   UNL     1       8.266  -0.524  -4.969  1.00  0.00     0.074 A 
ATOM     49  C   UNL     1       7.862   0.850  -5.169  1.00  0.00     0.031 C 
ATOM     50  C   UNL     1       2.808  -3.373  -3.162  1.00  0.00     0.029 A 
ATOM     51  C   UNL     1       4.125  -3.988  -3.332  1.00  0.00     0.049 A 
ATOM     52  H   UNL     1       5.905  -3.027  -3.824  1.00  0.00     0.167 HD
ATOM     53  C   UNL     1       9.534  -0.975  -5.119  1.00  0.00     0.037 A 
ATOM     54  C   UNL     1       4.409  -5.298  -3.184  1.00  0.00     0.037 A 
ATOM     55  C   UNL     1       9.940  -2.342  -4.923  1.00  0.00     0.049 A 
ATOM     56  C   UNL     1       5.813  -5.792  -3.434  1.00  0.00     0.074 A 
ATOM     57  C   UNL     1      11.205  -2.890  -5.045  1.00  0.00     0.029 A 
ATOM     58  N   UNL     1       9.087  -3.378  -4.575  1.00  0.00    -0.354 N 
ATOM     59  N   UNL     1       6.885  -5.112  -3.762  1.00  0.00    -0.248 NA
ATOM     60  C   UNL     1       6.043  -7.239  -3.299  1.00  0.00     0.031 C 
ATOM     61  C   UNL     1      11.107  -4.268  -4.827  1.00  0.00     0.029 A 
ATOM     62  C   UNL     1       9.794  -4.567  -4.505  1.00  0.00     0.049 A 
ATOM     63  H   UNL     1       8.122  -3.282  -4.403  1.00  0.00     0.167 HD
ATOM     64  C   UNL     1       7.918  -6.042  -3.845  1.00  0.00     0.074 A 
ATOM     65  C   UNL     1       7.348  -7.330  -3.517  1.00  0.00     0.031 C 
ATOM     66  C   UNL     1       9.221  -5.845  -4.164  1.00  0.00     0.037 A 
BRANCH  53  67
ATOM     67  C   UNL     1      10.571   0.015  -5.563  1.00  0.00     0.057 A 
ATOM     68  C   UNL     1      11.047   1.026  -4.719  1.00  0.00     0.134 A 
ATOM     69  C   UNL     1      11.124  -0.069  -6.848  1.00  0.00     0.134 A 
ATOM     70  F   UNL     1      10.547   1.170  -3.482  1.00  0.00    -0.206 F 
ATOM     71  C   UNL     1      12.020   1.932  -5.144  1.00  0.00     0.040 A 
ATOM     72  C   UNL     1      12.118   0.813  -7.274  1.00  0.00     0.040 A 
ATOM     73  F   UNL     1      10.716  -1.017  -7.705  1.00  0.00    -0.206 F 
ATOM     74  C   UNL     1      12.564   1.821  -6.423  1.00  0.00     0.006 A 
ENDBRANCH  53  67
BRANCH  54  75
ATOM     75  C   UNL     1       3.337  -6.260  -2.813  1.00  0.00     0.057 A 
ATOM     76  C   UNL     1       3.358  -6.935  -1.587  1.00  0.00     0.134 A 
ATOM     77  C   UNL     1       2.290  -6.560  -3.694  1.00  0.00     0.134 A 
ATOM     78  F   UNL     1       4.349  -6.712  -0.711  1.00  0.00    -0.206 F 
ATOM     79  C   UNL     1       2.393  -7.889  -1.259  1.00  0.00     0.040 A 
ATOM     80  C   UNL     1       1.301  -7.489  -3.367  1.00  0.00     0.040 A 
ATOM     81  F   UNL     1       2.212  -5.952  -4.887  1.00  0.00    -0.206 F 
ATOM     82  C   UNL     1       1.357  -8.164  -2.150  1.00  0.00     0.006 A 
ENDBRANCH  54  75
BRANCH  66  83
ATOM     83  C   UNL     1      10.137  -7.036  -4.129  1.00  0.00     0.057 A 
ATOM     84  C   UNL     1      10.072  -8.056  -5.086  1.00  0.00     0.134 A 
ATOM     85  C   UNL     1      11.134  -7.137  -3.148  1.00  0.00     0.134 A 
ATOM     86  F   UNL     1       9.136  -8.028  -6.047  1.00  0.00    -0.206 F 
ATOM     87  C   UNL     1      10.948  -9.144  -5.056  1.00  0.00     0.040 A 
ATOM     88  C   UNL     1      12.034  -8.203  -3.126  1.00  0.00     0.040 A 
ATOM     89  F   UNL     1      11.262  -6.190  -2.207  1.00  0.00    -0.206 F 
ATOM     90  C   UNL     1      11.938  -9.215  -4.078  1.00  0.00     0.006 A 
ENDBRANCH  66  83
ENDBRANCH  40  41
ENDBRANCH  33  35
ENDBRANCH  32  33
ENDBRANCH  31  32
ENDBRANCH  30  31
ENDBRANCH  29  30
ENDBRANCH  28  29
ENDBRANCH   1  28
TORSDOF 20
