REMARK SMILES C[C@]1(C(=O)N2CCC(CC(=O)OCCOCCOCCOC(=O)c3ccc(-c4c5nc(c(-c6c(F)cccc6F)c6ccc([nH]6)c(-c6c(F)cccc6F)c6nc(c(-c7c(F)cccc7F)c7ccc4[nH]7)C=C6)C=C5)cc3)CC2)CCC[NH2+]C1
REMARK SMILES IDX 16 1 15 2 14 3 13 4 12 5 10 6 11 7 9 8 8 9 3 10 4 11 5 12
REMARK SMILES IDX 6 13 79 14 7 15 78 16 2 17 1 18 80 19 84 20 81 21 83 22
REMARK SMILES IDX 82 23 17 26 18 27 19 28 20 29 21 30 22 31 23 32 24 33 25 34
REMARK SMILES IDX 77 35 26 36 76 37 27 38 28 39 29 40 70 41 30 42 75 43 69 44
REMARK SMILES IDX 71 45 31 46 74 47 68 48 67 49 32 51 58 52 41 53 57 54 42 55
REMARK SMILES IDX 45 56 56 57 72 58 43 59 44 60 55 62 73 63 46 64 33 65 34 66
REMARK SMILES IDX 39 67 35 68 36 69 38 70 40 71 37 72 59 73 60 74 65 75 61 76
REMARK SMILES IDX 62 77 64 78 66 79 63 80 47 81 48 82 53 83 49 84 50 85 52 86
REMARK SMILES IDX 54 87 51 88
REMARK H PARENT 83 24 83 25 71 50 45 61
REMARK Flexibility Score: inf
ROOT
ATOM      1  C   UNL     1       8.943   0.831  -0.079  1.00  0.00     0.188 C 
ENDROOT
BRANCH   1   2
ATOM      2  O   UNL     1       9.876   0.736   0.993  1.00  0.00    -0.376 OA
BRANCH   2   3
ATOM      3  C   UNL     1       9.423   0.073   2.173  1.00  0.00     0.202 C 
BRANCH   3   4
ATOM      4  C   UNL     1       8.277   0.757   2.933  1.00  0.00     0.261 C 
BRANCH   4   5
ATOM      5  O   UNL     1       7.125   1.037   2.111  1.00  0.00    -0.463 OA
BRANCH   5   6
ATOM      6  C   UNL     1       6.754   2.337   2.010  1.00  0.00     0.306 C 
ATOM      7  O   UNL     1       7.277   3.260   2.627  1.00  0.00    -0.252 OA
BRANCH   6   8
ATOM      8  C   UNL     1       5.655   2.601   0.994  1.00  0.00     0.126 C 
BRANCH   8   9
ATOM      9  C   UNL     1       4.964   1.446   0.243  1.00  0.00     0.003 C 
ATOM     10  C   UNL     1       1.078  -0.121  -0.111  1.00  0.00     0.234 C 
ATOM     11  O   UNL     1       0.436  -0.459  -1.106  1.00  0.00    -0.274 OA
ATOM     12  N   UNL     1       2.431   0.155  -0.225  1.00  0.00    -0.342 N 
ATOM     13  C   UNL     1       2.913   1.015  -1.290  1.00  0.00     0.120 C 
ATOM     14  C   UNL     1       3.471  -0.582   0.460  1.00  0.00     0.120 C 
ATOM     15  C   UNL     1       3.869   2.051  -0.689  1.00  0.00     0.026 C 
ATOM     16  C   UNL     1       4.365   0.398   1.201  1.00  0.00     0.026 C 
BRANCH  10  17
ATOM     17  C   UNL     1       0.411   0.200   1.266  1.00  0.00     0.095 C 
ATOM     18  C   UNL     1       0.984  -0.678   2.393  1.00  0.00     0.028 C 
ATOM     19  C   UNL     1       0.638   1.689   1.625  1.00  0.00     0.028 C 
ATOM     20  C   UNL     1      -1.118  -0.071   1.212  1.00  0.00     0.277 C 
ATOM     21  C   UNL     1      -0.183   2.619   0.733  1.00  0.00     0.063 C 
ATOM     22  N   UNL     1      -1.898   0.884   0.420  1.00  0.00    -0.345 N 
ATOM     23  C   UNL     1      -1.665   2.268   0.807  1.00  0.00     0.260 C 
ATOM     24  H   UNL     1      -1.647   0.774  -0.562  1.00  0.00     0.346 HD
ATOM     25  H   UNL     1      -2.884   0.684   0.586  1.00  0.00     0.346 HD
ENDBRANCH  10  17
ENDBRANCH   8   9
ENDBRANCH   6   8
ENDBRANCH   5   6
ENDBRANCH   4   5
ENDBRANCH   3   4
ENDBRANCH   2   3
ENDBRANCH   1   2
BRANCH   1  26
ATOM     26  C   UNL     1       8.373  -0.492  -0.587  1.00  0.00     0.188 C 
BRANCH  26  27
ATOM     27  O   UNL     1       7.800  -1.348   0.390  1.00  0.00    -0.376 OA
BRANCH  27  28
ATOM     28  C   UNL     1       7.356  -2.631  -0.066  1.00  0.00     0.202 C 
BRANCH  28  29
ATOM     29  C   UNL     1       8.288  -3.443  -0.996  1.00  0.00     0.261 C 
BRANCH  29  30
ATOM     30  O   UNL     1       8.706  -2.798  -2.221  1.00  0.00    -0.460 OA
BRANCH  30  31
ATOM     31  C   UNL     1       7.755  -2.251  -3.013  1.00  0.00     0.338 C 
ATOM     32  O   UNL     1       6.553  -2.435  -2.925  1.00  0.00    -0.246 OA
BRANCH  31  33
ATOM     33  C   UNL     1       8.374  -1.161  -3.825  1.00  0.00     0.060 A 
ATOM     34  C   UNL     1       7.629   0.010  -4.030  1.00  0.00     0.016 A 
ATOM     35  C   UNL     1       9.682  -1.237  -4.316  1.00  0.00     0.016 A 
ATOM     36  C   UNL     1       8.161   1.076  -4.762  1.00  0.00     0.010 A 
ATOM     37  C   UNL     1      10.211  -0.173  -5.063  1.00  0.00     0.010 A 
ATOM     38  C   UNL     1       9.440   0.975  -5.325  1.00  0.00    -0.014 A 
BRANCH  38  39
ATOM     39  C   UNL     1       9.868   1.954  -6.361  1.00  0.00     0.031 A 
ATOM     40  C   UNL     1       9.714   1.567  -7.810  1.00  0.00     0.074 A 
ATOM     41  C   UNL     1      10.342   3.176  -6.051  1.00  0.00     0.049 A 
ATOM     42  N   UNL     1      10.038   2.229  -8.892  1.00  0.00    -0.248 NA
ATOM     43  C   UNL     1       9.110   0.250  -8.069  1.00  0.00     0.031 C 
ATOM     44  C   UNL     1      10.502   3.709  -4.701  1.00  0.00     0.029 A 
ATOM     45  N   UNL     1      10.783   4.191  -6.868  1.00  0.00    -0.354 N 
ATOM     46  C   UNL     1       9.687   1.407  -9.956  1.00  0.00     0.074 A 
ATOM     47  C   UNL     1       9.155   0.186  -9.390  1.00  0.00     0.031 C 
ATOM     48  C   UNL     1      11.016   4.950  -4.781  1.00  0.00     0.029 A 
ATOM     49  C   UNL     1      11.252   5.288  -6.186  1.00  0.00     0.049 A 
ATOM     50  H   UNL     1      10.764   4.138  -7.851  1.00  0.00     0.167 HD
ATOM     51  C   UNL     1       9.786   1.645 -11.285  1.00  0.00     0.037 A 
ATOM     52  C   UNL     1      11.825   6.422  -6.639  1.00  0.00     0.037 A 
ATOM     53  C   UNL     1      10.311   2.856 -11.858  1.00  0.00     0.049 A 
ATOM     54  C   UNL     1      11.999   6.634  -8.124  1.00  0.00     0.074 A 
ATOM     55  C   UNL     1      10.434   3.192 -13.195  1.00  0.00     0.029 A 
ATOM     56  N   UNL     1      10.809   3.925 -11.130  1.00  0.00    -0.354 N 
ATOM     57  N   UNL     1      11.643   5.860  -9.120  1.00  0.00    -0.248 NA
ATOM     58  C   UNL     1      12.655   7.883  -8.546  1.00  0.00     0.031 C 
ATOM     59  C   UNL     1      11.062   4.439 -13.278  1.00  0.00     0.029 A 
ATOM     60  C   UNL     1      11.268   4.909 -11.992  1.00  0.00     0.049 A 
ATOM     61  H   UNL     1      10.834   3.977 -10.148  1.00  0.00     0.167 HD
ATOM     62  C   UNL     1      11.997   6.542 -10.281  1.00  0.00     0.074 A 
ATOM     63  C   UNL     1      12.586   7.796  -9.866  1.00  0.00     0.031 C 
ATOM     64  C   UNL     1      11.844   6.162 -11.574  1.00  0.00     0.037 A 
BRANCH  51  65
ATOM     65  C   UNL     1       9.345   0.553 -12.216  1.00  0.00     0.057 A 
ATOM     66  C   UNL     1       7.995   0.209 -12.374  1.00  0.00     0.134 A 
ATOM     67  C   UNL     1      10.283  -0.145 -12.986  1.00  0.00     0.134 A 
ATOM     68  F   UNL     1       7.047   0.828 -11.654  1.00  0.00    -0.206 F 
ATOM     69  C   UNL     1       7.599  -0.807 -13.245  1.00  0.00     0.040 A 
ATOM     70  C   UNL     1       9.896  -1.142 -13.883  1.00  0.00     0.040 A 
ATOM     71  F   UNL     1      11.591   0.137 -12.887  1.00  0.00    -0.206 F 
ATOM     72  C   UNL     1       8.551  -1.480 -14.008  1.00  0.00     0.006 A 
ENDBRANCH  51  65
BRANCH  52  73
ATOM     73  C   UNL     1      12.305   7.454  -5.680  1.00  0.00     0.057 A 
ATOM     74  C   UNL     1      11.707   8.717  -5.605  1.00  0.00     0.134 A 
ATOM     75  C   UNL     1      13.406   7.215  -4.848  1.00  0.00     0.134 A 
ATOM     76  F   UNL     1      10.669   9.021  -6.400  1.00  0.00    -0.206 F 
ATOM     77  C   UNL     1      12.195   9.710  -4.753  1.00  0.00     0.040 A 
ATOM     78  C   UNL     1      13.887   8.188  -3.970  1.00  0.00     0.040 A 
ATOM     79  F   UNL     1      14.031   6.029  -4.876  1.00  0.00    -0.206 F 
ATOM     80  C   UNL     1      13.285   9.444  -3.928  1.00  0.00     0.006 A 
ENDBRANCH  52  73
BRANCH  64  81
ATOM     81  C   UNL     1      12.273   7.129 -12.643  1.00  0.00     0.057 A 
ATOM     82  C   UNL     1      13.620   7.418 -12.893  1.00  0.00     0.134 A 
ATOM     83  C   UNL     1      11.320   7.747 -13.465  1.00  0.00     0.134 A 
ATOM     84  F   UNL     1      14.585   6.868 -12.139  1.00  0.00    -0.206 F 
ATOM     85  C   UNL     1      14.003   8.306 -13.901  1.00  0.00     0.040 A 
ATOM     86  C   UNL     1      11.691   8.613 -14.495  1.00  0.00     0.040 A 
ATOM     87  F   UNL     1      10.011   7.507 -13.291  1.00  0.00    -0.206 F 
ATOM     88  C   UNL     1      13.037   8.900 -14.711  1.00  0.00     0.006 A 
ENDBRANCH  64  81
ENDBRANCH  38  39
ENDBRANCH  31  33
ENDBRANCH  30  31
ENDBRANCH  29  30
ENDBRANCH  28  29
ENDBRANCH  27  28
ENDBRANCH  26  27
ENDBRANCH   1  26
TORSDOF 19
