REMARK SMILES Cc1ccccc1[C@@H](Cc1c(Cl)cccc1Cl)C(=O)OCCOCCOCCOC(=O)c1ccc(-c2c3nc(c(-c4c(F)cccc4F)c4ccc([nH]4)c(-c4c(F)cccc4F)c4nc(c(-c5c(F)cccc5F)c5ccc2[nH]5)C=C4)C=C3)cc1
REMARK SMILES IDX 24 1 23 2 22 3 21 4 20 5 18 6 19 7 8 8 7 9 1 10 2 11 3 12
REMARK SMILES IDX 4 13 6 14 5 15 9 16 10 17 11 18 16 19 12 20 13 21 15 22
REMARK SMILES IDX 17 23 14 24 25 25 26 26 27 27 28 28 29 29 30 30 31 31 32 32
REMARK SMILES IDX 33 33 85 34 34 35 84 36 35 37 36 38 37 39 78 40 38 41 83 42
REMARK SMILES IDX 77 43 79 44 39 45 82 46 76 47 75 48 40 50 66 51 49 52 65 53
REMARK SMILES IDX 50 54 53 55 64 56 80 57 51 58 52 59 63 61 81 62 54 63 41 64
REMARK SMILES IDX 42 65 47 66 43 67 44 68 46 69 48 70 45 71 67 72 68 73 73 74
REMARK SMILES IDX 69 75 70 76 72 77 74 78 71 79 55 80 56 81 61 82 57 83 58 84
REMARK SMILES IDX 60 85 62 86 59 87
REMARK H PARENT 79 49 53 60
REMARK Flexibility Score: inf
ROOT
ATOM      1  C   UNL     1      -1.180   2.973   5.260  1.00  0.00     0.188 C 
ENDROOT
BRANCH   1   2
ATOM      2  O   UNL     1      -2.093   3.578   4.316  1.00  0.00    -0.376 OA
BRANCH   2   3
ATOM      3  C   UNL     1      -2.963   2.881   3.407  1.00  0.00     0.202 C 
BRANCH   3   4
ATOM      4  C   UNL     1      -2.903   2.871   1.692  1.00  0.00     0.261 C 
BRANCH   4   5
ATOM      5  O   UNL     1      -1.780   2.197   0.567  1.00  0.00    -0.463 OA
BRANCH   5   6
ATOM      6  C   UNL     1      -0.553   2.553  -0.087  1.00  0.00     0.313 C 
ATOM      7  O   UNL     1       0.102   3.583   0.079  1.00  0.00    -0.252 OA
BRANCH   6   8
ATOM      8  C   UNL     1       0.188   1.718  -1.082  1.00  0.00     0.134 C 
BRANCH   8   9
ATOM      9  C   UNL     1      -0.311   0.316  -1.218  1.00  0.00    -0.031 A 
ATOM     10  C   UNL     1       2.049  -0.693  -0.895  1.00  0.00     0.044 C 
ATOM     11  C   UNL     1       0.542  -0.781  -0.959  1.00  0.00    -0.047 A 
ATOM     12  C   UNL     1      -0.039  -2.040  -0.785  1.00  0.00     0.004 A 
ATOM     13  C   UNL     1      -1.421  -2.210  -0.865  1.00  0.00     0.000 A 
ATOM     14  C   UNL     1      -1.688   0.114  -1.404  1.00  0.00     0.005 A 
ATOM     15  C   UNL     1      -2.243  -1.139  -1.194  1.00  0.00     0.000 A 
ENDBRANCH   8   9
BRANCH   8  16
ATOM     16  C   UNL     1       0.571   2.538  -2.396  1.00  0.00     0.058 C 
BRANCH  16  17
ATOM     17  C   UNL     1       1.259   3.941  -2.313  1.00  0.00    -0.010 A 
ATOM     18  C   UNL     1       0.735   5.068  -2.998  1.00  0.00     0.045 A 
ATOM     19  C   UNL     1       2.425   4.200  -1.550  1.00  0.00     0.045 A 
ATOM     20  Cl  UNL     1      -0.546   4.934  -4.158  1.00  0.00    -0.084 Cl
ATOM     21  C   UNL     1       1.252   6.371  -2.821  1.00  0.00     0.021 A 
ATOM     22  C   UNL     1       2.926   5.507  -1.359  1.00  0.00     0.021 A 
ATOM     23  Cl  UNL     1       3.385   2.947  -0.848  1.00  0.00    -0.084 Cl
ATOM     24  C   UNL     1       2.327   6.598  -1.973  1.00  0.00     0.003 A 
ENDBRANCH  16  17
ENDBRANCH   8  16
ENDBRANCH   6   8
ENDBRANCH   5   6
ENDBRANCH   4   5
ENDBRANCH   3   4
ENDBRANCH   2   3
ENDBRANCH   1   2
BRANCH   1  25
ATOM     25  C   UNL     1      -1.427   1.652   5.993  1.00  0.00     0.188 C 
BRANCH  25  26
ATOM     26  O   UNL     1      -1.959   0.680   5.117  1.00  0.00    -0.376 OA
BRANCH  26  27
ATOM     27  C   UNL     1      -2.178  -0.598   5.695  1.00  0.00     0.202 C 
BRANCH  27  28
ATOM     28  C   UNL     1      -0.898  -1.455   5.795  1.00  0.00     0.261 C 
BRANCH  28  29
ATOM     29  O   UNL     1      -0.193  -1.482   4.532  1.00  0.00    -0.460 OA
BRANCH  29  30
ATOM     30  C   UNL     1       1.055  -0.883   4.484  1.00  0.00     0.338 C 
ATOM     31  O   UNL     1       1.926  -1.031   5.286  1.00  0.00    -0.246 OA
BRANCH  30  32
ATOM     32  C   UNL     1       1.038   0.191   3.419  1.00  0.00     0.060 A 
ATOM     33  C   UNL     1       1.939   1.264   3.323  1.00  0.00     0.016 A 
ATOM     34  C   UNL     1      -0.129   0.346   2.763  1.00  0.00     0.016 A 
ATOM     35  C   UNL     1       1.542   2.559   2.783  1.00  0.00     0.010 A 
ATOM     36  C   UNL     1      -0.522   1.659   2.537  1.00  0.00     0.010 A 
ATOM     37  C   UNL     1       0.214   2.872   2.476  1.00  0.00    -0.014 A 
BRANCH  37  38
ATOM     38  C   UNL     1      -0.417   4.421   2.250  1.00  0.00     0.031 A 
ATOM     39  C   UNL     1      -1.250   5.215   0.960  1.00  0.00     0.074 A 
ATOM     40  C   UNL     1      -0.097   5.314   3.215  1.00  0.00     0.049 A 
ATOM     41  N   UNL     1      -1.205   6.520   0.757  1.00  0.00    -0.248 NA
ATOM     42  C   UNL     1      -2.034   4.673  -0.235  1.00  0.00     0.031 C 
ATOM     43  C   UNL     1      -0.636   6.655   3.418  1.00  0.00     0.029 A 
ATOM     44  N   UNL     1       0.940   5.229   4.152  1.00  0.00    -0.354 N 
ATOM     45  C   UNL     1      -2.059   6.827  -0.301  1.00  0.00     0.074 A 
ATOM     46  C   UNL     1      -2.231   5.673  -1.066  1.00  0.00     0.031 C 
ATOM     47  C   UNL     1       0.249   7.367   4.128  1.00  0.00     0.029 A 
ATOM     48  C   UNL     1       1.424   6.538   4.309  1.00  0.00     0.049 A 
ATOM     49  H   UNL     1       1.263   4.418   4.607  1.00  0.00     0.167 HD
ATOM     50  C   UNL     1      -2.778   7.970  -0.401  1.00  0.00     0.037 A 
ATOM     51  C   UNL     1       2.710   6.839   3.984  1.00  0.00     0.037 A 
ATOM     52  C   UNL     1      -2.088   9.015   0.303  1.00  0.00     0.049 A 
ATOM     53  C   UNL     1       2.817   7.916   2.922  1.00  0.00     0.074 A 
ATOM     54  C   UNL     1      -2.241   9.714   1.478  1.00  0.00     0.029 A 
ATOM     55  N   UNL     1      -0.788   9.228  -0.103  1.00  0.00    -0.354 N 
ATOM     56  N   UNL     1       1.826   8.650   2.487  1.00  0.00    -0.248 NA
ATOM     57  C   UNL     1       4.058   8.179   2.193  1.00  0.00     0.031 C 
ATOM     58  C   UNL     1      -0.950  10.250   1.819  1.00  0.00     0.029 A 
ATOM     59  C   UNL     1      -0.048   9.927   0.815  1.00  0.00     0.049 A 
ATOM     60  H   UNL     1      -0.428   8.911  -0.963  1.00  0.00     0.167 HD
ATOM     61  C   UNL     1       2.226   9.331   1.367  1.00  0.00     0.074 A 
ATOM     62  C   UNL     1       3.642   9.029   1.243  1.00  0.00     0.031 C 
ATOM     63  C   UNL     1       1.380  10.027   0.547  1.00  0.00     0.037 A 
BRANCH  50  64
ATOM     64  C   UNL     1      -4.098   8.050  -1.163  1.00  0.00     0.057 A 
ATOM     65  C   UNL     1      -4.657   9.292  -1.486  1.00  0.00     0.134 A 
ATOM     66  C   UNL     1      -4.925   6.944  -1.520  1.00  0.00     0.134 A 
ATOM     67  F   UNL     1      -4.029  10.430  -1.164  1.00  0.00    -0.206 F 
ATOM     68  C   UNL     1      -5.902   9.423  -2.131  1.00  0.00     0.040 A 
ATOM     69  C   UNL     1      -6.125   7.059  -2.237  1.00  0.00     0.040 A 
ATOM     70  F   UNL     1      -4.663   5.686  -1.138  1.00  0.00    -0.206 F 
ATOM     71  C   UNL     1      -6.630   8.309  -2.532  1.00  0.00     0.006 A 
ENDBRANCH  50  64
BRANCH  51  72
ATOM     72  C   UNL     1       3.650   5.697   4.230  1.00  0.00     0.057 A 
ATOM     73  C   UNL     1       3.679   5.130   5.525  1.00  0.00     0.134 A 
ATOM     74  C   UNL     1       4.257   4.949   3.216  1.00  0.00     0.134 A 
ATOM     75  F   UNL     1       3.109   5.774   6.557  1.00  0.00    -0.206 F 
ATOM     76  C   UNL     1       4.178   3.847   5.775  1.00  0.00     0.040 A 
ATOM     77  C   UNL     1       4.796   3.675   3.463  1.00  0.00     0.040 A 
ATOM     78  F   UNL     1       4.230   5.365   1.943  1.00  0.00    -0.206 F 
ATOM     79  C   UNL     1       4.724   3.108   4.735  1.00  0.00     0.006 A 
ENDBRANCH  51  72
BRANCH  63  80
ATOM     80  C   UNL     1       1.895  10.740  -0.683  1.00  0.00     0.057 A 
ATOM     81  C   UNL     1       3.031  11.559  -0.625  1.00  0.00     0.134 A 
ATOM     82  C   UNL     1       1.258  10.689  -1.942  1.00  0.00     0.134 A 
ATOM     83  F   UNL     1       3.682  11.751   0.532  1.00  0.00    -0.206 F 
ATOM     84  C   UNL     1       3.549  12.207  -1.753  1.00  0.00     0.040 A 
ATOM     85  C   UNL     1       1.729  11.381  -3.061  1.00  0.00     0.040 A 
ATOM     86  F   UNL     1       0.175   9.933  -2.168  1.00  0.00    -0.206 F 
ATOM     87  C   UNL     1       2.895  12.124  -2.976  1.00  0.00     0.006 A 
ENDBRANCH  63  80
ENDBRANCH  37  38
ENDBRANCH  30  32
ENDBRANCH  29  30
ENDBRANCH  28  29
ENDBRANCH  27  28
ENDBRANCH  26  27
ENDBRANCH  25  26
ENDBRANCH   1  25
TORSDOF 20
