REMARK SMILES O=C(OCCOCCOCCOC(=O)c1ccccc1C(=O)c1cccc(S(=O)(=O)N2CCOCC2)c1)c1ccc(-c2c3nc(c(-c4c(F)cccc4F)c4ccc([nH]4)c(-c4c(F)cccc4F)c4nc(c(-c5c(F)cccc5F)c5ccc2[nH]5)C=C4)C=C3)cc1
REMARK SMILES IDX 8 1 7 2 6 3 5 4 4 5 3 6 2 7 1 8 38 9 39 10 91 11 40 12 90 13
REMARK SMILES IDX 41 14 42 15 43 16 84 17 44 18 89 19 83 20 85 21 45 22 88 23
REMARK SMILES IDX 82 24 81 25 46 27 72 28 55 29 71 30 56 31 59 32 70 33 86 34
REMARK SMILES IDX 57 35 58 36 69 38 87 39 60 40 47 41 48 42 53 43 49 44 50 45
REMARK SMILES IDX 52 46 54 47 51 48 73 49 74 50 79 51 75 52 76 53 78 54 80 55
REMARK SMILES IDX 77 56 61 57 62 58 67 59 63 60 64 61 66 62 68 63 65 64 9 65
REMARK SMILES IDX 10 66 11 67 12 68 13 69 14 70 15 71 16 72 20 73 17 74 19 75
REMARK SMILES IDX 18 76 21 77 22 78 23 79 24 80 37 81 25 82 27 83 26 84 28 85
REMARK SMILES IDX 29 86 30 87 31 88 32 89 36 90 33 91 35 92 34 93
REMARK H PARENT 85 26 59 37
REMARK Flexibility Score: inf
ROOT
ATOM      1  C   UNL     1       2.093  -1.007   2.595  1.00  0.00     0.188 C 
ENDROOT
BRANCH   1   2
ATOM      2  C   UNL     1       2.485   0.273   1.866  1.00  0.00     0.188 C 
BRANCH   2   3
ATOM      3  O   UNL     1       3.712   0.095   1.158  1.00  0.00    -0.376 OA
BRANCH   3   4
ATOM      4  C   UNL     1       4.629   1.185   1.324  1.00  0.00     0.202 C 
BRANCH   4   5
ATOM      5  C   UNL     1       4.207   2.414   0.524  1.00  0.00     0.261 C 
BRANCH   5   6
ATOM      6  O   UNL     1       4.181   2.045  -0.860  1.00  0.00    -0.460 OA
BRANCH   6   7
ATOM      7  C   UNL     1       3.010   1.514  -1.294  1.00  0.00     0.338 C 
ATOM      8  O   UNL     1       1.882   1.837  -0.975  1.00  0.00    -0.246 OA
BRANCH   7   9
ATOM      9  C   UNL     1       3.358   0.421  -2.221  1.00  0.00     0.060 A 
ATOM     10  C   UNL     1       4.446  -0.407  -1.912  1.00  0.00     0.016 A 
ATOM     11  C   UNL     1       2.648   0.253  -3.410  1.00  0.00     0.016 A 
ATOM     12  C   UNL     1       4.921  -1.304  -2.843  1.00  0.00     0.010 A 
ATOM     13  C   UNL     1       3.118  -0.667  -4.348  1.00  0.00     0.010 A 
ATOM     14  C   UNL     1       4.290  -1.398  -4.083  1.00  0.00    -0.014 A 
BRANCH  14  15
ATOM     15  C   UNL     1       5.000  -2.124  -5.149  1.00  0.00     0.031 A 
ATOM     16  C   UNL     1       5.774  -1.334  -6.152  1.00  0.00     0.074 A 
ATOM     17  C   UNL     1       5.094  -3.462  -5.111  1.00  0.00     0.049 A 
ATOM     18  N   UNL     1       6.428  -1.755  -7.198  1.00  0.00    -0.248 NA
ATOM     19  C   UNL     1       5.860   0.119  -5.923  1.00  0.00     0.031 C 
ATOM     20  C   UNL     1       4.564  -4.295  -4.039  1.00  0.00     0.029 A 
ATOM     21  N   UNL     1       5.679  -4.352  -5.968  1.00  0.00    -0.354 N 
ATOM     22  C   UNL     1       7.001  -0.623  -7.755  1.00  0.00     0.074 A 
ATOM     23  C   UNL     1       6.612   0.507  -6.941  1.00  0.00     0.031 C 
ATOM     24  C   UNL     1       4.817  -5.580  -4.317  1.00  0.00     0.029 A 
ATOM     25  C   UNL     1       5.444  -5.659  -5.622  1.00  0.00     0.049 A 
ATOM     26  H   UNL     1       6.213  -4.084  -6.750  1.00  0.00     0.167 HD
ATOM     27  C   UNL     1       7.785  -0.550  -8.853  1.00  0.00     0.037 A 
ATOM     28  C   UNL     1       5.645  -6.793  -6.311  1.00  0.00     0.037 A 
ATOM     29  C   UNL     1       8.150  -1.697  -9.637  1.00  0.00     0.049 A 
ATOM     30  C   UNL     1       6.330  -6.675  -7.634  1.00  0.00     0.074 A 
ATOM     31  C   UNL     1       8.904  -1.752 -10.793  1.00  0.00     0.029 A 
ATOM     32  N   UNL     1       7.772  -3.001  -9.338  1.00  0.00    -0.354 N 
ATOM     33  N   UNL     1       6.814  -5.597  -8.205  1.00  0.00    -0.248 NA
ATOM     34  C   UNL     1       6.502  -7.905  -8.410  1.00  0.00     0.031 C 
ATOM     35  C   UNL     1       8.938  -3.084 -11.222  1.00  0.00     0.029 A 
ATOM     36  C   UNL     1       8.238  -3.864 -10.313  1.00  0.00     0.049 A 
ATOM     37  H   UNL     1       7.249  -3.270  -8.549  1.00  0.00     0.167 HD
ATOM     38  C   UNL     1       7.372  -6.019  -9.398  1.00  0.00     0.074 A 
ATOM     39  C   UNL     1       7.167  -7.455  -9.466  1.00  0.00     0.031 C 
ATOM     40  C   UNL     1       8.004  -5.287 -10.347  1.00  0.00     0.037 A 
BRANCH  27  41
ATOM     41  C   UNL     1       8.209   0.816  -9.290  1.00  0.00     0.057 A 
ATOM     42  C   UNL     1       9.207   1.539  -8.625  1.00  0.00     0.134 A 
ATOM     43  C   UNL     1       7.572   1.434 -10.372  1.00  0.00     0.134 A 
ATOM     44  F   UNL     1       9.831   1.016  -7.558  1.00  0.00    -0.206 F 
ATOM     45  C   UNL     1       9.545   2.837  -9.013  1.00  0.00     0.040 A 
ATOM     46  C   UNL     1       7.912   2.724 -10.780  1.00  0.00     0.040 A 
ATOM     47  F   UNL     1       6.595   0.800 -11.038  1.00  0.00    -0.206 F 
ATOM     48  C   UNL     1       8.898   3.432 -10.096  1.00  0.00     0.006 A 
ENDBRANCH  27  41
BRANCH  28  49
ATOM     49  C   UNL     1       5.102  -8.079  -5.803  1.00  0.00     0.057 A 
ATOM     50  C   UNL     1       5.933  -9.124  -5.393  1.00  0.00     0.134 A 
ATOM     51  C   UNL     1       3.716  -8.283  -5.704  1.00  0.00     0.134 A 
ATOM     52  F   UNL     1       7.265  -9.000  -5.476  1.00  0.00    -0.206 F 
ATOM     53  C   UNL     1       5.408 -10.329  -4.915  1.00  0.00     0.040 A 
ATOM     54  C   UNL     1       3.179  -9.472  -5.211  1.00  0.00     0.040 A 
ATOM     55  F   UNL     1       2.859  -7.318  -6.072  1.00  0.00    -0.206 F 
ATOM     56  C   UNL     1       4.028 -10.504  -4.820  1.00  0.00     0.006 A 
ENDBRANCH  28  49
BRANCH  40  57
ATOM     57  C   UNL     1       8.526  -6.043 -11.523  1.00  0.00     0.057 A 
ATOM     58  C   UNL     1       7.674  -6.495 -12.537  1.00  0.00     0.134 A 
ATOM     59  C   UNL     1       9.897  -6.291 -11.656  1.00  0.00     0.134 A 
ATOM     60  F   UNL     1       6.349  -6.304 -12.447  1.00  0.00    -0.206 F 
ATOM     61  C   UNL     1       8.170  -7.182 -13.643  1.00  0.00     0.040 A 
ATOM     62  C   UNL     1      10.406  -6.956 -12.768  1.00  0.00     0.040 A 
ATOM     63  F   UNL     1      10.759  -5.878 -10.714  1.00  0.00    -0.206 F 
ATOM     64  C   UNL     1       9.541  -7.407 -13.764  1.00  0.00     0.006 A 
ENDBRANCH  40  57
ENDBRANCH  14  15
ENDBRANCH   7   9
ENDBRANCH   6   7
ENDBRANCH   5   6
ENDBRANCH   4   5
ENDBRANCH   3   4
ENDBRANCH   2   3
ENDBRANCH   1   2
BRANCH   1  65
ATOM     65  O   UNL     1       2.986  -1.450   3.608  1.00  0.00    -0.376 OA
BRANCH  65  66
ATOM     66  C   UNL     1       4.354  -1.664   3.279  1.00  0.00     0.202 C 
BRANCH  66  67
ATOM     67  C   UNL     1       4.730  -2.877   2.421  1.00  0.00     0.261 C 
BRANCH  67  68
ATOM     68  O   UNL     1       4.325  -2.961   1.036  1.00  0.00    -0.460 OA
BRANCH  68  69
ATOM     69  C   UNL     1       3.228  -3.728   0.872  1.00  0.00     0.338 C 
ATOM     70  O   UNL     1       2.429  -4.020   1.747  1.00  0.00    -0.246 OA
BRANCH  69  71
ATOM     71  C   UNL     1       2.998  -4.333  -0.439  1.00  0.00     0.071 A 
ATOM     72  C   UNL     1       1.956  -3.754  -1.188  1.00  0.00     0.016 A 
ATOM     73  C   UNL     1       3.428  -5.640  -0.733  1.00  0.00     0.037 A 
ATOM     74  C   UNL     1       1.334  -4.473  -2.212  1.00  0.00     0.001 A 
ATOM     75  C   UNL     1       2.757  -6.362  -1.738  1.00  0.00     0.013 A 
ATOM     76  C   UNL     1       1.716  -5.787  -2.468  1.00  0.00     0.001 A 
BRANCH  73  77
ATOM     77  C   UNL     1       4.626  -6.317  -0.163  1.00  0.00     0.193 C 
ATOM     78  O   UNL     1       5.332  -6.984  -0.918  1.00  0.00    -0.289 OA
BRANCH  77  79
ATOM     79  C   UNL     1       5.023  -6.250   1.253  1.00  0.00     0.024 A 
ATOM     80  C   UNL     1       6.369  -6.027   1.568  1.00  0.00     0.012 A 
ATOM     81  C   UNL     1       4.078  -6.417   2.265  1.00  0.00     0.034 A 
ATOM     82  C   UNL     1       6.760  -5.901   2.902  1.00  0.00     0.002 A 
ATOM     83  C   UNL     1       4.462  -6.243   3.594  1.00  0.00     0.083 A 
ATOM     84  C   UNL     1       5.804  -5.991   3.917  1.00  0.00     0.022 A 
BRANCH  83  85
ATOM     85  S   UNL     1       3.255  -6.148   4.907  1.00  0.00     0.243 S 
ATOM     86  O   UNL     1       3.567  -7.247   5.797  1.00  0.00    -0.207 OA
ATOM     87  O   UNL     1       3.275  -4.776   5.361  1.00  0.00    -0.207 OA
BRANCH  85  88
ATOM     88  N   UNL     1       1.785  -6.466   4.183  1.00  0.00    -0.193 NA
ATOM     89  C   UNL     1       1.212  -7.820   4.150  1.00  0.00     0.131 C 
ATOM     90  C   UNL     1       0.860  -5.401   3.735  1.00  0.00     0.131 C 
ATOM     91  C   UNL     1       0.585  -8.087   2.777  1.00  0.00     0.177 C 
ATOM     92  C   UNL     1       0.245  -5.786   2.376  1.00  0.00     0.177 C 
ATOM     93  O   UNL     1      -0.380  -7.081   2.432  1.00  0.00    -0.379 OA
ENDBRANCH  85  88
ENDBRANCH  83  85
ENDBRANCH  77  79
ENDBRANCH  73  77
ENDBRANCH  69  71
ENDBRANCH  68  69
ENDBRANCH  67  68
ENDBRANCH  66  67
ENDBRANCH  65  66
ENDBRANCH   1  65
TORSDOF 21
