REMARK SMILES O=C1O[C@@H](c2ccc(O)c(O)c2)[C@H](C(=O)OCCOCCOCCOC(=O)c2ccc(-c3c4nc(c(-c5c(F)cccc5F)c5ccc([nH]5)c(-c5c(F)cccc5F)c5nc(c(-c6c(F)cccc6F)c6ccc3[nH]6)C=C5)C=C4)cc2)/C1=C\c1ccc(O)c(O)c1
REMARK SMILES IDX 20 1 19 2 18 3 17 4 16 5 14 6 15 7 13 8 1 9 2 10 3 11 82 12
REMARK SMILES IDX 4 13 83 14 5 15 6 16 12 17 7 18 10 19 8 20 11 21 9 23 84 25
REMARK SMILES IDX 85 26 91 27 86 28 89 29 87 30 90 31 88 33 21 35 22 36 23 37
REMARK SMILES IDX 24 38 25 39 26 40 27 41 28 42 29 43 81 44 30 45 80 46 31 47
REMARK SMILES IDX 32 48 33 49 74 50 34 51 79 52 73 53 75 54 35 55 78 56 72 57
REMARK SMILES IDX 71 58 36 60 62 61 45 62 61 63 46 64 49 65 60 66 76 67 47 68
REMARK SMILES IDX 48 69 59 71 77 72 50 73 37 74 38 75 43 76 39 77 40 78 42 79
REMARK SMILES IDX 44 80 41 81 63 82 64 83 69 84 65 85 66 86 68 87 70 88 67 89
REMARK SMILES IDX 51 90 52 91 57 92 53 93 54 94 56 95 58 96 55 97
REMARK H PARENT 11 22 9 24 90 32 88 34 75 59 49 70
REMARK Flexibility Score: inf
ROOT
ATOM      1  C   UNL     1       2.059   3.350   2.606  1.00  0.00     0.188 C 
ENDROOT
BRANCH   1   2
ATOM      2  O   UNL     1       2.275   3.192   3.985  1.00  0.00    -0.376 OA
BRANCH   2   3
ATOM      3  C   UNL     1       2.918   2.041   4.481  1.00  0.00     0.202 C 
BRANCH   3   4
ATOM      4  C   UNL     1       2.766   0.659   3.827  1.00  0.00     0.261 C 
BRANCH   4   5
ATOM      5  O   UNL     1       2.563   0.636   2.405  1.00  0.00    -0.463 OA
BRANCH   5   6
ATOM      6  C   UNL     1       1.305   0.315   1.973  1.00  0.00     0.317 C 
ATOM      7  O   UNL     1       0.390  -0.039   2.700  1.00  0.00    -0.251 OA
BRANCH   6   8
ATOM      8  C   UNL     1       1.210   0.500   0.460  1.00  0.00     0.182 C 
ATOM      9  O   UNL     1      -1.853  -1.078  -0.311  1.00  0.00    -0.247 OA
ATOM     10  C   UNL     1      -0.693  -0.736  -0.189  1.00  0.00     0.335 C 
ATOM     11  O   UNL     1       0.387  -1.570  -0.222  1.00  0.00    -0.453 OA
ATOM     12  C   UNL     1      -0.197   0.650   0.006  1.00  0.00     0.056 C 
ATOM     13  C   UNL     1       1.613  -0.815  -0.179  1.00  0.00     0.226 C 
ATOM     14  C   UNL     1      -0.953   1.717  -0.309  1.00  0.00     0.020 C 
BRANCH  13  15
ATOM     15  C   UNL     1       2.250  -0.690  -1.559  1.00  0.00    -0.002 A 
ATOM     16  C   UNL     1       3.357   0.160  -1.771  1.00  0.00     0.012 A 
ATOM     17  C   UNL     1       1.799  -1.473  -2.635  1.00  0.00     0.057 A 
ATOM     18  C   UNL     1       3.971   0.254  -3.027  1.00  0.00     0.050 A 
ATOM     19  C   UNL     1       2.419  -1.380  -3.874  1.00  0.00     0.157 A 
ATOM     20  C   UNL     1       3.495  -0.523  -4.074  1.00  0.00     0.157 A 
BRANCH  19  21
ATOM     21  O   UNL     1       1.965  -2.158  -4.900  1.00  0.00    -0.504 OA
ATOM     22  H   UNL     1       2.373  -2.107  -5.742  1.00  0.00     0.293 HD
ENDBRANCH  19  21
BRANCH  20  23
ATOM     23  O   UNL     1       4.061  -0.494  -5.318  1.00  0.00    -0.504 OA
ATOM     24  H   UNL     1       4.788   0.072  -5.489  1.00  0.00     0.293 HD
ENDBRANCH  20  23
ENDBRANCH  13  15
BRANCH  14  25
ATOM     25  C   UNL     1      -0.595   3.152  -0.264  1.00  0.00    -0.021 A 
ATOM     26  C   UNL     1       0.041   3.920  -1.732  1.00  0.00     0.012 A 
ATOM     27  C   UNL     1      -0.985   4.052   1.187  1.00  0.00     0.058 A 
ATOM     28  C   UNL     1       0.357   5.652  -1.882  1.00  0.00     0.051 A 
ATOM     29  C   UNL     1      -0.726   5.839   1.212  1.00  0.00     0.157 A 
ATOM     30  C   UNL     1       0.013   6.719  -0.459  1.00  0.00     0.157 A 
BRANCH  29  31
ATOM     31  O   UNL     1      -1.043   6.224   2.523  1.00  0.00    -0.504 OA
ATOM     32  H   UNL     1      -0.981   7.125   2.774  1.00  0.00     0.293 HD
ENDBRANCH  29  31
BRANCH  30  33
ATOM     33  O   UNL     1       0.476   7.994  -0.802  1.00  0.00    -0.504 OA
ATOM     34  H   UNL     1       0.779   8.165  -1.672  1.00  0.00     0.293 HD
ENDBRANCH  30  33
ENDBRANCH  14  25
ENDBRANCH   6   8
ENDBRANCH   5   6
ENDBRANCH   4   5
ENDBRANCH   3   4
ENDBRANCH   2   3
ENDBRANCH   1   2
BRANCH   1  35
ATOM     35  C   UNL     1       3.240   3.342   1.603  1.00  0.00     0.188 C 
BRANCH  35  36
ATOM     36  O   UNL     1       4.566   3.264   2.066  1.00  0.00    -0.376 OA
BRANCH  36  37
ATOM     37  C   UNL     1       5.053   4.322   2.875  1.00  0.00     0.202 C 
BRANCH  37  38
ATOM     38  C   UNL     1       4.620   5.782   2.649  1.00  0.00     0.261 C 
BRANCH  38  39
ATOM     39  O   UNL     1       3.205   5.979   2.504  1.00  0.00    -0.460 OA
BRANCH  39  40
ATOM     40  C   UNL     1       2.806   6.488   1.316  1.00  0.00     0.338 C 
ATOM     41  O   UNL     1       3.499   6.893   0.397  1.00  0.00    -0.246 OA
BRANCH  40  42
ATOM     42  C   UNL     1       1.357   6.367   1.169  1.00  0.00     0.060 A 
ATOM     43  C   UNL     1       0.622   5.051   0.155  1.00  0.00     0.016 A 
ATOM     44  C   UNL     1       0.401   7.796   1.523  1.00  0.00     0.016 A 
ATOM     45  C   UNL     1      -1.263   5.327  -0.524  1.00  0.00     0.010 A 
ATOM     46  C   UNL     1      -1.253   8.028   0.916  1.00  0.00     0.010 A 
ATOM     47  C   UNL     1      -2.103   6.862  -0.096  1.00  0.00    -0.014 A 
BRANCH  47  48
ATOM     48  C   UNL     1      -3.432   7.200  -0.632  1.00  0.00     0.031 A 
ATOM     49  C   UNL     1      -3.617   8.442  -1.459  1.00  0.00     0.074 A 
ATOM     50  C   UNL     1      -4.468   6.410  -0.307  1.00  0.00     0.049 A 
ATOM     51  N   UNL     1      -4.714   8.960  -1.949  1.00  0.00    -0.248 NA
ATOM     52  C   UNL     1      -2.414   9.227  -1.759  1.00  0.00     0.031 C 
ATOM     53  C   UNL     1      -4.386   5.217   0.534  1.00  0.00     0.029 A 
ATOM     54  N   UNL     1      -5.796   6.499  -0.622  1.00  0.00    -0.354 N 
ATOM     55  C   UNL     1      -4.324  10.130  -2.596  1.00  0.00     0.074 A 
ATOM     56  C   UNL     1      -2.905  10.277  -2.395  1.00  0.00     0.031 C 
ATOM     57  C   UNL     1      -5.603   4.669   0.652  1.00  0.00     0.029 A 
ATOM     58  C   UNL     1      -6.559   5.504  -0.060  1.00  0.00     0.049 A 
ATOM     59  H   UNL     1      -6.169   7.207  -1.194  1.00  0.00     0.167 HD
ATOM     60  C   UNL     1      -5.085  10.998  -3.304  1.00  0.00     0.037 A 
ATOM     61  C   UNL     1      -7.888   5.305  -0.100  1.00  0.00     0.037 A 
ATOM     62  C   UNL     1      -6.503  10.831  -3.470  1.00  0.00     0.049 A 
ATOM     63  C   UNL     1      -8.715   6.285  -0.879  1.00  0.00     0.074 A 
ATOM     64  C   UNL     1      -7.395  11.619  -4.172  1.00  0.00     0.029 A 
ATOM     65  N   UNL     1      -7.235   9.792  -2.908  1.00  0.00    -0.354 N 
ATOM     66  N   UNL     1      -8.329   7.362  -1.523  1.00  0.00    -0.248 NA
ATOM     67  C   UNL     1     -10.156   6.024  -0.944  1.00  0.00     0.031 C 
ATOM     68  C   UNL     1      -8.676  11.086  -3.988  1.00  0.00     0.029 A 
ATOM     69  C   UNL     1      -8.573   9.929  -3.229  1.00  0.00     0.049 A 
ATOM     70  H   UNL     1      -6.857   9.066  -2.361  1.00  0.00     0.167 HD
ATOM     71  C   UNL     1      -9.475   7.897  -2.091  1.00  0.00     0.074 A 
ATOM     72  C   UNL     1     -10.565   7.009  -1.731  1.00  0.00     0.031 C 
ATOM     73  C   UNL     1      -9.622   9.018  -2.840  1.00  0.00     0.037 A 
BRANCH  60  74
ATOM     74  C   UNL     1      -4.400  12.195  -3.909  1.00  0.00     0.057 A 
ATOM     75  C   UNL     1      -3.460  12.074  -4.944  1.00  0.00     0.134 A 
ATOM     76  C   UNL     1      -4.672  13.489  -3.445  1.00  0.00     0.134 A 
ATOM     77  F   UNL     1      -3.134  10.866  -5.429  1.00  0.00    -0.206 F 
ATOM     78  C   UNL     1      -2.794  13.185  -5.467  1.00  0.00     0.040 A 
ATOM     79  C   UNL     1      -4.035  14.611  -3.981  1.00  0.00     0.040 A 
ATOM     80  F   UNL     1      -5.558  13.686  -2.457  1.00  0.00    -0.206 F 
ATOM     81  C   UNL     1      -3.085  14.460  -4.988  1.00  0.00     0.006 A 
ENDBRANCH  60  74
BRANCH  61  82
ATOM     82  C   UNL     1      -8.488   4.138   0.598  1.00  0.00     0.057 A 
ATOM     83  C   UNL     1      -9.059   3.081  -0.120  1.00  0.00     0.134 A 
ATOM     84  C   UNL     1      -8.470   4.029   1.995  1.00  0.00     0.134 A 
ATOM     85  F   UNL     1      -9.114   3.126  -1.459  1.00  0.00    -0.206 F 
ATOM     86  C   UNL     1      -9.605   1.968   0.524  1.00  0.00     0.040 A 
ATOM     87  C   UNL     1      -8.984   2.908   2.650  1.00  0.00     0.040 A 
ATOM     88  F   UNL     1      -7.920   4.997   2.743  1.00  0.00    -0.206 F 
ATOM     89  C   UNL     1      -9.561   1.876   1.914  1.00  0.00     0.006 A 
ENDBRANCH  61  82
BRANCH  73  90
ATOM     90  C   UNL     1     -11.005   9.309  -3.339  1.00  0.00     0.057 A 
ATOM     91  C   UNL     1     -12.030   9.726  -2.481  1.00  0.00     0.134 A 
ATOM     92  C   UNL     1     -11.303   9.185  -4.702  1.00  0.00     0.134 A 
ATOM     93  F   UNL     1     -11.807   9.850  -1.164  1.00  0.00    -0.206 F 
ATOM     94  C   UNL     1     -13.316   9.973  -2.957  1.00  0.00     0.040 A 
ATOM     95  C   UNL     1     -12.576   9.464  -5.194  1.00  0.00     0.040 A 
ATOM     96  F   UNL     1     -10.360   8.801  -5.575  1.00  0.00    -0.206 F 
ATOM     97  C   UNL     1     -13.590   9.849  -4.318  1.00  0.00     0.006 A 
ENDBRANCH  73  90
ENDBRANCH  47  48
ENDBRANCH  40  42
ENDBRANCH  39  40
ENDBRANCH  38  39
ENDBRANCH  37  38
ENDBRANCH  36  37
ENDBRANCH  35  36
ENDBRANCH   1  35
TORSDOF 23
