REMARK SMILES NS(=O)(=O)c1ccc(-c2cc(Cl)cc3c2O[C@H](C(F)(F)F)C(C(=O)OCCOCCOCCOC(=O)c2ccc(-c4c5nc(c(-c6c(F)cccc6F)c6ccc([nH]6)c(-c6c(F)cccc6F)c6nc(c(-c7c(F)cccc7F)c7ccc4[nH]7)C=C6)C=C5)cc2)=C3)cc1
REMARK SMILES IDX 29 1 28 2 27 3 26 4 25 5 23 6 24 7 22 8 9 9 10 10 15 11
REMARK SMILES IDX 11 12 14 13 16 14 12 15 13 16 91 17 17 18 8 19 5 20 6 21
REMARK SMILES IDX 93 22 7 23 92 24 2 25 3 26 4 27 1 28 18 31 19 32 20 33 21 34
REMARK SMILES IDX 30 35 31 36 32 37 33 38 34 39 35 40 36 41 37 42 38 43 90 44
REMARK SMILES IDX 39 45 89 46 40 47 41 48 42 49 83 50 43 51 88 52 82 53 84 54
REMARK SMILES IDX 44 55 87 56 81 57 80 58 45 60 71 61 54 62 70 63 55 64 58 65
REMARK SMILES IDX 69 66 85 67 56 68 57 69 68 71 86 72 59 73 46 74 47 75 52 76
REMARK SMILES IDX 48 77 49 78 51 79 53 80 50 81 72 82 73 83 78 84 74 85 75 86
REMARK SMILES IDX 77 87 79 88 76 89 60 90 61 91 66 92 62 93 63 94 65 95 67 96
REMARK SMILES IDX 64 97
REMARK H PARENT 1 29 1 30 84 59 58 70
REMARK Flexibility Score: inf
ROOT
ATOM      1  C   UNL     1       1.652   8.358   7.386  1.00  0.00     0.188 C 
ENDROOT
BRANCH   1   2
ATOM      2  O   UNL     1       2.751   8.848   8.129  1.00  0.00    -0.376 OA
BRANCH   2   3
ATOM      3  C   UNL     1       3.264  10.120   7.738  1.00  0.00     0.202 C 
BRANCH   3   4
ATOM      4  C   UNL     1       2.240  11.260   7.602  1.00  0.00     0.261 C 
BRANCH   4   5
ATOM      5  O   UNL     1       1.290  11.033   6.525  1.00  0.00    -0.460 OA
BRANCH   5   6
ATOM      6  C   UNL     1       1.678  11.480   5.312  1.00  0.00     0.338 C 
ATOM      7  O   UNL     1       2.697  12.129   5.111  1.00  0.00    -0.246 OA
BRANCH   6   8
ATOM      8  C   UNL     1       0.801  10.998   4.207  1.00  0.00     0.087 C 
ATOM      9  C   UNL     1       0.901   7.134   2.716  1.00  0.00     0.026 A 
ATOM     10  C   UNL     1       2.189   6.673   3.082  1.00  0.00     0.033 A 
ATOM     11  C   UNL     1       0.677   8.496   2.953  1.00  0.00     0.135 A 
ATOM     12  C   UNL     1       3.225   7.520   3.477  1.00  0.00     0.042 A 
ATOM     13  C   UNL     1       1.788   9.358   3.085  1.00  0.00     0.019 A 
ATOM     14  O   UNL     1      -0.555   9.074   3.256  1.00  0.00    -0.475 OA
ATOM     15  Cl  UNL     1       4.739   6.906   3.998  1.00  0.00    -0.084 Cl
ATOM     16  C   UNL     1       3.052   8.882   3.394  1.00  0.00     0.032 A 
ATOM     17  C   UNL     1       1.526  10.812   3.093  1.00  0.00     0.027 C 
ATOM     18  C   UNL     1      -0.414  10.088   4.382  1.00  0.00     0.316 C 
BRANCH   9  19
ATOM     19  C   UNL     1       0.148   6.162   1.857  1.00  0.00    -0.015 A 
ATOM     20  C   UNL     1      -0.220   3.881   0.159  1.00  0.00     0.082 A 
ATOM     21  C   UNL     1      -0.432   3.775   1.529  1.00  0.00     0.022 A 
ATOM     22  C   UNL     1       0.112   5.125  -0.384  1.00  0.00     0.022 A 
ATOM     23  C   UNL     1      -0.263   4.909   2.351  1.00  0.00     0.010 A 
ATOM     24  C   UNL     1       0.280   6.250   0.455  1.00  0.00     0.010 A 
BRANCH  20  25
ATOM     25  S   UNL     1      -0.267   2.442  -0.891  1.00  0.00     0.238 S 
ATOM     26  O   UNL     1       0.827   2.514  -1.829  1.00  0.00    -0.207 OA
ATOM     27  O   UNL     1      -1.633   2.255  -1.323  1.00  0.00    -0.207 OA
BRANCH  25  28
ATOM     28  N   UNL     1       0.089   1.158   0.125  1.00  0.00    -0.225 NA
ATOM     29  H   UNL     1       0.081   0.289  -0.409  1.00  0.00     0.137 HD
ATOM     30  H   UNL     1      -0.610   1.107   0.867  1.00  0.00     0.137 HD
ENDBRANCH  25  28
ENDBRANCH  20  25
ENDBRANCH   9  19
BRANCH  18  31
ATOM     31  C   UNL     1      -1.657  10.974   4.531  1.00  0.00     0.430 C 
ATOM     32  F   UNL     1      -1.884  11.720   3.426  1.00  0.00    -0.167 F 
ATOM     33  F   UNL     1      -2.768  10.249   4.782  1.00  0.00    -0.167 F 
ATOM     34  F   UNL     1      -1.509  11.836   5.570  1.00  0.00    -0.167 F 
ENDBRANCH  18  31
ENDBRANCH   6   8
ENDBRANCH   5   6
ENDBRANCH   4   5
ENDBRANCH   3   4
ENDBRANCH   2   3
ENDBRANCH   1   2
BRANCH   1  35
ATOM     35  C   UNL     1       0.276   8.572   8.056  1.00  0.00     0.188 C 
BRANCH  35  36
ATOM     36  O   UNL     1       0.186   9.283   9.281  1.00  0.00    -0.376 OA
BRANCH  36  37
ATOM     37  C   UNL     1       1.040   8.917  10.358  1.00  0.00     0.202 C 
BRANCH  37  38
ATOM     38  C   UNL     1       1.122   7.444  10.789  1.00  0.00     0.261 C 
BRANCH  38  39
ATOM     39  O   UNL     1       1.483   6.515   9.746  1.00  0.00    -0.460 OA
BRANCH  39  40
ATOM     40  C   UNL     1       0.556   5.565   9.466  1.00  0.00     0.338 C 
ATOM     41  O   UNL     1      -0.536   5.423   9.989  1.00  0.00    -0.246 OA
BRANCH  40  42
ATOM     42  C   UNL     1       0.951   4.787   8.272  1.00  0.00     0.060 A 
ATOM     43  C   UNL     1       0.139   4.882   7.142  1.00  0.00     0.016 A 
ATOM     44  C   UNL     1       2.021   3.889   8.283  1.00  0.00     0.016 A 
ATOM     45  C   UNL     1       0.397   4.076   6.032  1.00  0.00     0.010 A 
ATOM     46  C   UNL     1       2.276   3.083   7.155  1.00  0.00     0.010 A 
ATOM     47  C   UNL     1       1.468   3.169   6.012  1.00  0.00    -0.014 A 
BRANCH  47  48
ATOM     48  C   UNL     1       1.631   2.244   4.847  1.00  0.00     0.031 A 
ATOM     49  C   UNL     1       0.740   1.044   4.732  1.00  0.00     0.074 A 
ATOM     50  C   UNL     1       2.528   2.468   3.865  1.00  0.00     0.049 A 
ATOM     51  N   UNL     1       0.714   0.121   3.804  1.00  0.00    -0.248 NA
ATOM     52  C   UNL     1      -0.223   0.839   5.822  1.00  0.00     0.031 C 
ATOM     53  C   UNL     1       3.466   3.574   3.850  1.00  0.00     0.029 A 
ATOM     54  N   UNL     1       2.763   1.821   2.669  1.00  0.00    -0.354 N 
ATOM     55  C   UNL     1      -0.204  -0.821   4.242  1.00  0.00     0.074 A 
ATOM     56  C   UNL     1      -0.762  -0.322   5.481  1.00  0.00     0.031 C 
ATOM     57  C   UNL     1       4.074   3.619   2.651  1.00  0.00     0.029 A 
ATOM     58  C   UNL     1       3.645   2.485   1.841  1.00  0.00     0.049 A 
ATOM     59  H   UNL     1       2.341   0.964   2.429  1.00  0.00     0.167 HD
ATOM     60  C   UNL     1      -0.505  -2.021   3.691  1.00  0.00     0.037 A 
ATOM     61  C   UNL     1       4.066   2.220   0.583  1.00  0.00     0.037 A 
ATOM     62  C   UNL     1       0.053  -2.521   2.461  1.00  0.00     0.049 A 
ATOM     63  C   UNL     1       3.673   0.907  -0.047  1.00  0.00     0.074 A 
ATOM     64  C   UNL     1      -0.214  -3.721   1.825  1.00  0.00     0.029 A 
ATOM     65  N   UNL     1       1.006  -1.867   1.694  1.00  0.00    -0.354 N 
ATOM     66  N   UNL     1       2.818   0.009   0.385  1.00  0.00    -0.248 NA
ATOM     67  C   UNL     1       4.342   0.533  -1.304  1.00  0.00     0.031 C 
ATOM     68  C   UNL     1       0.609  -3.812   0.698  1.00  0.00     0.029 A 
ATOM     69  C   UNL     1       1.337  -2.638   0.589  1.00  0.00     0.049 A 
ATOM     70  H   UNL     1       1.391  -0.985   1.903  1.00  0.00     0.167 HD
ATOM     71  C   UNL     1       2.896  -1.055  -0.507  1.00  0.00     0.074 A 
ATOM     72  C   UNL     1       3.811  -0.657  -1.554  1.00  0.00     0.031 C 
ATOM     73  C   UNL     1       2.269  -2.256  -0.445  1.00  0.00     0.037 A 
BRANCH  60  74
ATOM     74  C   UNL     1      -1.405  -2.920   4.485  1.00  0.00     0.057 A 
ATOM     75  C   UNL     1      -2.772  -2.668   4.650  1.00  0.00     0.134 A 
ATOM     76  C   UNL     1      -0.875  -4.056   5.114  1.00  0.00     0.134 A 
ATOM     77  F   UNL     1      -3.335  -1.585   4.093  1.00  0.00    -0.206 F 
ATOM     78  C   UNL     1      -3.573  -3.495   5.441  1.00  0.00     0.040 A 
ATOM     79  C   UNL     1      -1.671  -4.905   5.881  1.00  0.00     0.040 A 
ATOM     80  F   UNL     1       0.428  -4.353   4.995  1.00  0.00    -0.206 F 
ATOM     81  C   UNL     1      -3.023  -4.619   6.055  1.00  0.00     0.006 A 
ENDBRANCH  60  74
BRANCH  61  82
ATOM     82  C   UNL     1       4.926   3.183  -0.174  1.00  0.00     0.057 A 
ATOM     83  C   UNL     1       4.479   3.748  -1.378  1.00  0.00     0.134 A 
ATOM     84  C   UNL     1       6.206   3.557   0.248  1.00  0.00     0.134 A 
ATOM     85  F   UNL     1       3.286   3.411  -1.878  1.00  0.00    -0.206 F 
ATOM     86  C   UNL     1       5.255   4.639  -2.124  1.00  0.00     0.040 A 
ATOM     87  C   UNL     1       6.981   4.478  -0.466  1.00  0.00     0.040 A 
ATOM     88  F   UNL     1       6.725   3.044   1.373  1.00  0.00    -0.206 F 
ATOM     89  C   UNL     1       6.508   5.018  -1.659  1.00  0.00     0.006 A 
ENDBRANCH  61  82
BRANCH  73  90
ATOM     90  C   UNL     1       2.543  -3.241  -1.547  1.00  0.00     0.057 A 
ATOM     91  C   UNL     1       3.770  -3.909  -1.659  1.00  0.00     0.134 A 
ATOM     92  C   UNL     1       1.544  -3.571  -2.472  1.00  0.00     0.134 A 
ATOM     93  F   UNL     1       4.774  -3.633  -0.813  1.00  0.00    -0.206 F 
ATOM     94  C   UNL     1       3.996  -4.858  -2.659  1.00  0.00     0.040 A 
ATOM     95  C   UNL     1       1.748  -4.537  -3.458  1.00  0.00     0.040 A 
ATOM     96  F   UNL     1       0.343  -2.975  -2.414  1.00  0.00    -0.206 F 
ATOM     97  C   UNL     1       2.979  -5.182  -3.555  1.00  0.00     0.006 A 
ENDBRANCH  73  90
ENDBRANCH  47  48
ENDBRANCH  40  42
ENDBRANCH  39  40
ENDBRANCH  38  39
ENDBRANCH  37  38
ENDBRANCH  36  37
ENDBRANCH  35  36
ENDBRANCH   1  35
TORSDOF 21
