REMARK SMILES NS(=O)(=O)c1ccc(-n2nc(C(=O)OCCOCCOCCOC(=O)c3ccc(-c4c5nc(c(-c6c(F)cccc6F)c6ccc([nH]6)c(-c6c(F)cccc6F)c6nc(c(-c7c(F)cccc7F)c7ccc4[nH]7)C=C6)C=C5)cc3)cc2-c2ccc(Cl)s2)cc1
REMARK SMILES IDX 18 1 17 2 16 3 15 4 14 5 12 6 13 7 11 8 9 9 10 10 81 11
REMARK SMILES IDX 80 12 8 13 5 14 6 15 89 16 7 17 88 18 2 19 3 20 4 21 1 22
REMARK SMILES IDX 82 25 83 26 87 27 84 28 85 29 86 30 19 31 20 32 21 33 22 34
REMARK SMILES IDX 23 35 24 36 25 37 26 38 27 39 79 40 28 41 78 42 29 43 30 44
REMARK SMILES IDX 31 45 72 46 32 47 77 48 71 49 73 50 33 51 76 52 70 53 69 54
REMARK SMILES IDX 34 56 60 57 43 58 59 59 44 60 47 61 58 62 74 63 45 64 46 65
REMARK SMILES IDX 57 67 75 68 48 69 35 70 36 71 41 72 37 73 38 74 40 75 42 76
REMARK SMILES IDX 39 77 61 78 62 79 67 80 63 81 64 82 66 83 68 84 65 85 49 86
REMARK SMILES IDX 50 87 55 88 51 89 52 90 54 91 56 92 53 93
REMARK H PARENT 1 23 1 24 73 55 47 66
REMARK Flexibility Score: inf
ROOT
ATOM      1  C   UNL     1       5.253  -8.617   5.044  1.00  0.00     0.188 C 
ENDROOT
BRANCH   1   2
ATOM      2  O   UNL     1       5.380  -9.714   5.932  1.00  0.00    -0.376 OA
BRANCH   2   3
ATOM      3  C   UNL     1       4.970 -11.018   5.552  1.00  0.00     0.202 C 
BRANCH   3   4
ATOM      4  C   UNL     1       3.698 -11.310   4.726  1.00  0.00     0.261 C 
BRANCH   4   5
ATOM      5  O   UNL     1       3.407 -10.419   3.645  1.00  0.00    -0.458 OA
BRANCH   5   6
ATOM      6  C   UNL     1       2.424  -9.499   3.873  1.00  0.00     0.358 C 
ATOM      7  O   UNL     1       1.711  -9.486   4.870  1.00  0.00    -0.244 OA
BRANCH   6   8
ATOM      8  C   UNL     1       2.392  -8.460   2.833  1.00  0.00     0.171 A 
ATOM      9  N   UNL     1       2.187  -6.515   1.959  1.00  0.00    -0.231 N 
ATOM     10  N   UNL     1       2.292  -7.152   3.147  1.00  0.00    -0.160 NA
ATOM     11  C   UNL     1       2.363  -7.373   0.887  1.00  0.00     0.085 A 
ATOM     12  C   UNL     1       2.541  -8.627   1.433  1.00  0.00     0.068 A 
BRANCH   9  13
ATOM     13  C   UNL     1       1.807  -5.153   1.928  1.00  0.00     0.065 A 
ATOM     14  C   UNL     1       1.105  -2.472   1.769  1.00  0.00     0.082 A 
ATOM     15  C   UNL     1       0.313  -3.431   1.129  1.00  0.00     0.024 A 
ATOM     16  C   UNL     1       2.228  -2.850   2.516  1.00  0.00     0.024 A 
ATOM     17  C   UNL     1       0.677  -4.774   1.191  1.00  0.00     0.030 A 
ATOM     18  C   UNL     1       2.569  -4.202   2.617  1.00  0.00     0.030 A 
BRANCH  14  19
ATOM     19  S   UNL     1       0.630  -0.770   1.679  1.00  0.00     0.238 S 
ATOM     20  O   UNL     1       1.317  -0.025   2.712  1.00  0.00    -0.207 OA
ATOM     21  O   UNL     1      -0.796  -0.687   1.482  1.00  0.00    -0.207 OA
BRANCH  19  22
ATOM     22  N   UNL     1       1.327  -0.289   0.229  1.00  0.00    -0.225 NA
ATOM     23  H   UNL     1       1.119   0.696   0.062  1.00  0.00     0.137 HD
ATOM     24  H   UNL     1       0.947  -0.851  -0.534  1.00  0.00     0.137 HD
ENDBRANCH  19  22
ENDBRANCH  14  19
ENDBRANCH   9  13
BRANCH  11  25
ATOM     25  C   UNL     1       2.357  -6.990  -0.495  1.00  0.00     0.054 A 
ATOM     26  C   UNL     1       1.566  -7.537  -1.488  1.00  0.00     0.024 A 
ATOM     27  S   UNL     1       3.373  -5.752  -1.114  1.00  0.00    -0.122 S 
ATOM     28  C   UNL     1       1.742  -6.880  -2.743  1.00  0.00     0.033 A 
ATOM     29  C   UNL     1       2.687  -5.892  -2.654  1.00  0.00     0.094 A 
ATOM     30  Cl  UNL     1       3.195  -4.845  -3.916  1.00  0.00    -0.072 Cl
ENDBRANCH  11  25
ENDBRANCH   6   8
ENDBRANCH   5   6
ENDBRANCH   4   5
ENDBRANCH   3   4
ENDBRANCH   2   3
ENDBRANCH   1   2
BRANCH   1  31
ATOM     31  C   UNL     1       5.799  -8.699   3.600  1.00  0.00     0.188 C 
BRANCH  31  32
ATOM     32  O   UNL     1       6.016  -9.998   3.095  1.00  0.00    -0.376 OA
BRANCH  32  33
ATOM     33  C   UNL     1       7.286 -10.632   3.113  1.00  0.00     0.202 C 
BRANCH  33  34
ATOM     34  C   UNL     1       8.433 -10.292   4.064  1.00  0.00     0.261 C 
BRANCH  34  35
ATOM     35  O   UNL     1       8.210  -9.216   4.944  1.00  0.00    -0.460 OA
BRANCH  35  36
ATOM     36  C   UNL     1       8.625  -8.031   4.459  1.00  0.00     0.338 C 
ATOM     37  O   UNL     1       8.964  -7.778   3.315  1.00  0.00    -0.246 OA
BRANCH  36  38
ATOM     38  C   UNL     1       8.707  -7.080   5.565  1.00  0.00     0.060 A 
ATOM     39  C   UNL     1       9.008  -5.767   5.207  1.00  0.00     0.016 A 
ATOM     40  C   UNL     1       8.883  -7.575   6.866  1.00  0.00     0.016 A 
ATOM     41  C   UNL     1       9.774  -5.040   6.079  1.00  0.00     0.010 A 
ATOM     42  C   UNL     1       9.661  -6.852   7.729  1.00  0.00     0.010 A 
ATOM     43  C   UNL     1      10.182  -5.646   7.273  1.00  0.00    -0.014 A 
BRANCH  43  44
ATOM     44  C   UNL     1      11.141  -4.924   8.072  1.00  0.00     0.031 A 
ATOM     45  C   UNL     1      10.524  -3.771   8.742  1.00  0.00     0.074 A 
ATOM     46  C   UNL     1      12.419  -5.324   8.200  1.00  0.00     0.049 A 
ATOM     47  N   UNL     1      10.707  -2.523   8.478  1.00  0.00    -0.248 NA
ATOM     48  C   UNL     1       9.420  -4.040   9.678  1.00  0.00     0.031 C 
ATOM     49  C   UNL     1      12.979  -6.621   7.801  1.00  0.00     0.029 A 
ATOM     50  N   UNL     1      13.468  -4.707   8.815  1.00  0.00    -0.354 N 
ATOM     51  C   UNL     1       9.944  -1.850   9.425  1.00  0.00     0.074 A 
ATOM     52  C   UNL     1       9.007  -2.802   9.952  1.00  0.00     0.031 C 
ATOM     53  C   UNL     1      14.181  -6.785   8.398  1.00  0.00     0.029 A 
ATOM     54  C   UNL     1      14.532  -5.556   9.088  1.00  0.00     0.049 A 
ATOM     55  H   UNL     1      13.470  -3.750   9.044  1.00  0.00     0.167 HD
ATOM     56  C   UNL     1      10.424  -0.700   9.964  1.00  0.00     0.037 A 
ATOM     57  C   UNL     1      15.588  -5.282   9.890  1.00  0.00     0.037 A 
ATOM     58  C   UNL     1      11.463  -0.136   9.139  1.00  0.00     0.049 A 
ATOM     59  C   UNL     1      15.705  -3.810  10.014  1.00  0.00     0.074 A 
ATOM     60  C   UNL     1      11.548   0.613   7.988  1.00  0.00     0.029 A 
ATOM     61  N   UNL     1      12.697  -0.686   9.358  1.00  0.00    -0.354 N 
ATOM     62  N   UNL     1      16.031  -3.026   9.024  1.00  0.00    -0.248 NA
ATOM     63  C   UNL     1      15.129  -3.139  11.178  1.00  0.00     0.031 C 
ATOM     64  C   UNL     1      12.874   0.444   7.487  1.00  0.00     0.029 A 
ATOM     65  C   UNL     1      13.574  -0.393   8.350  1.00  0.00     0.049 A 
ATOM     66  H   UNL     1      12.926  -1.228  10.147  1.00  0.00     0.167 HD
ATOM     67  C   UNL     1      15.330  -1.862   9.267  1.00  0.00     0.074 A 
ATOM     68  C   UNL     1      14.947  -1.918  10.670  1.00  0.00     0.031 C 
ATOM     69  C   UNL     1      14.813  -1.128   8.242  1.00  0.00     0.037 A 
BRANCH  56  70
ATOM     70  C   UNL     1      10.378  -0.393  11.447  1.00  0.00     0.057 A 
ATOM     71  C   UNL     1      10.857   0.856  11.882  1.00  0.00     0.134 A 
ATOM     72  C   UNL     1      10.201  -1.350  12.470  1.00  0.00     0.134 A 
ATOM     73  F   UNL     1      11.076   1.850  11.009  1.00  0.00    -0.206 F 
ATOM     74  C   UNL     1      11.208   1.103  13.215  1.00  0.00     0.040 A 
ATOM     75  C   UNL     1      10.502  -1.097  13.811  1.00  0.00     0.040 A 
ATOM     76  F   UNL     1       9.829  -2.612  12.232  1.00  0.00    -0.206 F 
ATOM     77  C   UNL     1      11.039   0.122  14.183  1.00  0.00     0.006 A 
ENDBRANCH  56  70
BRANCH  57  78
ATOM     78  C   UNL     1      16.328  -6.206  10.776  1.00  0.00     0.057 A 
ATOM     79  C   UNL     1      17.588  -5.865  11.285  1.00  0.00     0.134 A 
ATOM     80  C   UNL     1      15.700  -7.316  11.369  1.00  0.00     0.134 A 
ATOM     81  F   UNL     1      18.249  -4.801  10.807  1.00  0.00    -0.206 F 
ATOM     82  C   UNL     1      18.177  -6.565  12.346  1.00  0.00     0.040 A 
ATOM     83  C   UNL     1      16.279  -8.028  12.422  1.00  0.00     0.040 A 
ATOM     84  F   UNL     1      14.464  -7.689  11.007  1.00  0.00    -0.206 F 
ATOM     85  C   UNL     1      17.515  -7.643  12.927  1.00  0.00     0.006 A 
ENDBRANCH  57  78
BRANCH  69  86
ATOM     86  C   UNL     1      15.469  -1.238   6.906  1.00  0.00     0.057 A 
ATOM     87  C   UNL     1      15.436  -2.380   6.097  1.00  0.00     0.134 A 
ATOM     88  C   UNL     1      16.103  -0.102   6.389  1.00  0.00     0.134 A 
ATOM     89  F   UNL     1      14.794  -3.489   6.491  1.00  0.00    -0.206 F 
ATOM     90  C   UNL     1      16.039  -2.397   4.836  1.00  0.00     0.040 A 
ATOM     91  C   UNL     1      16.681  -0.096   5.120  1.00  0.00     0.040 A 
ATOM     92  F   UNL     1      16.140   1.035   7.102  1.00  0.00    -0.206 F 
ATOM     93  C   UNL     1      16.659  -1.250   4.342  1.00  0.00     0.006 A 
ENDBRANCH  69  86
ENDBRANCH  43  44
ENDBRANCH  36  38
ENDBRANCH  35  36
ENDBRANCH  34  35
ENDBRANCH  33  34
ENDBRANCH  32  33
ENDBRANCH  31  32
ENDBRANCH   1  31
TORSDOF 21
