REMARK SMILES NS(=O)(=O)c1ccc(-c2coc(=O)n2-c2ccc(C(=O)OCCOCCOCCOC(=O)c3ccc(-c4c5nc(c(-c6c(F)cccc6F)c6ccc([nH]6)c(-c6c(F)cccc6F)c6nc(c(-c7c(F)cccc7F)c7ccc4[nH]7)C=C6)C=C5)cc3)cc2)cc1
REMARK SMILES IDX 25 1 24 2 23 3 22 4 21 5 19 6 20 7 18 8 15 9 16 10 88 11
REMARK SMILES IDX 17 12 87 13 14 14 9 15 10 16 11 17 12 18 13 19 8 20 5 21
REMARK SMILES IDX 6 22 90 23 7 24 89 25 2 26 3 27 4 28 1 29 26 32 27 33 28 34
REMARK SMILES IDX 29 35 30 36 31 37 32 38 33 39 34 40 86 41 35 42 85 43 36 44
REMARK SMILES IDX 37 45 38 46 79 47 39 48 84 49 78 50 80 51 40 52 83 53 77 54
REMARK SMILES IDX 76 55 41 57 67 58 50 59 66 60 51 61 54 62 65 63 81 64 52 65
REMARK SMILES IDX 53 66 64 68 82 69 55 70 42 71 43 72 48 73 44 74 45 75 47 76
REMARK SMILES IDX 49 77 46 78 68 79 69 80 74 81 70 82 71 83 73 84 75 85 72 86
REMARK SMILES IDX 56 87 57 88 62 89 58 90 59 91 61 92 63 93 60 94
REMARK H PARENT 1 30 1 31 80 56 54 67
REMARK Flexibility Score: inf
ROOT
ATOM      1  C   UNL     1      -5.572  -5.952  -5.953  1.00  0.00     0.188 C 
ENDROOT
BRANCH   1   2
ATOM      2  O   UNL     1      -6.817  -5.295  -5.960  1.00  0.00    -0.376 OA
BRANCH   2   3
ATOM      3  C   UNL     1      -7.215  -4.516  -4.841  1.00  0.00     0.202 C 
BRANCH   3   4
ATOM      4  C   UNL     1      -6.251  -3.845  -3.836  1.00  0.00     0.261 C 
BRANCH   4   5
ATOM      5  O   UNL     1      -4.855  -4.121  -3.961  1.00  0.00    -0.460 OA
BRANCH   5   6
ATOM      6  C   UNL     1      -4.344  -5.037  -3.105  1.00  0.00     0.338 C 
ATOM      7  O   UNL     1      -4.947  -5.645  -2.237  1.00  0.00    -0.246 OA
BRANCH   6   8
ATOM      8  C   UNL     1      -2.959  -5.357  -3.513  1.00  0.00     0.060 A 
ATOM      9  C   UNL     1      -0.330  -6.059  -4.157  1.00  0.00     0.053 A 
ATOM     10  C   UNL     1      -1.282  -7.060  -3.947  1.00  0.00     0.028 A 
ATOM     11  C   UNL     1      -0.735  -4.713  -4.164  1.00  0.00     0.028 A 
ATOM     12  C   UNL     1      -2.586  -6.707  -3.591  1.00  0.00     0.018 A 
ATOM     13  C   UNL     1      -2.047  -4.357  -3.852  1.00  0.00     0.018 A 
BRANCH   9  14
ATOM     14  N   UNL     1       1.045  -6.385  -4.162  1.00  0.00    -0.242 N 
ATOM     15  C   UNL     1       2.025  -5.806  -3.399  1.00  0.00     0.095 A 
ATOM     16  C   UNL     1       3.144  -6.465  -3.667  1.00  0.00     0.228 A 
ATOM     17  O   UNL     1       2.990  -7.497  -4.592  1.00  0.00    -0.415 OA
ATOM     18  C   UNL     1       1.621  -7.444  -4.858  1.00  0.00     0.424 A 
ATOM     19  O   UNL     1       1.067  -8.235  -5.616  1.00  0.00    -0.223 OA
BRANCH  15  20
ATOM     20  C   UNL     1       1.786  -4.809  -2.358  1.00  0.00     0.002 A 
ATOM     21  C   UNL     1       1.041  -2.840  -0.518  1.00  0.00     0.082 A 
ATOM     22  C   UNL     1       0.523  -4.129  -0.392  1.00  0.00     0.022 A 
ATOM     23  C   UNL     1       1.950  -2.534  -1.536  1.00  0.00     0.022 A 
ATOM     24  C   UNL     1       0.907  -5.112  -1.302  1.00  0.00     0.012 A 
ATOM     25  C   UNL     1       2.325  -3.522  -2.453  1.00  0.00     0.012 A 
BRANCH  21  26
ATOM     26  S   UNL     1       0.476  -1.616   0.625  1.00  0.00     0.238 S 
ATOM     27  O   UNL     1       1.116  -1.850   1.892  1.00  0.00    -0.207 OA
ATOM     28  O   UNL     1      -0.959  -1.488   0.477  1.00  0.00    -0.207 OA
BRANCH  26  29
ATOM     29  N   UNL     1       1.107  -0.167   0.052  1.00  0.00    -0.225 NA
ATOM     30  H   UNL     1       0.821   0.595   0.667  1.00  0.00     0.137 HD
ATOM     31  H   UNL     1       0.758   0.007  -0.890  1.00  0.00     0.137 HD
ENDBRANCH  26  29
ENDBRANCH  21  26
ENDBRANCH  15  20
ENDBRANCH   9  14
ENDBRANCH   6   8
ENDBRANCH   5   6
ENDBRANCH   4   5
ENDBRANCH   3   4
ENDBRANCH   2   3
ENDBRANCH   1   2
BRANCH   1  32
ATOM     32  C   UNL     1      -4.436  -5.195  -6.675  1.00  0.00     0.188 C 
BRANCH  32  33
ATOM     33  O   UNL     1      -4.476  -3.789  -6.884  1.00  0.00    -0.376 OA
BRANCH  33  34
ATOM     34  C   UNL     1      -5.591  -3.130  -7.467  1.00  0.00     0.202 C 
BRANCH  34  35
ATOM     35  C   UNL     1      -6.294  -3.646  -8.721  1.00  0.00     0.261 C 
BRANCH  35  36
ATOM     36  O   UNL     1      -6.535  -5.038  -8.718  1.00  0.00    -0.460 OA
BRANCH  36  37
ATOM     37  C   UNL     1      -5.626  -5.747  -9.412  1.00  0.00     0.338 C 
ATOM     38  O   UNL     1      -4.620  -5.329  -9.961  1.00  0.00    -0.246 OA
BRANCH  37  39
ATOM     39  C   UNL     1      -6.064  -7.143  -9.479  1.00  0.00     0.060 A 
ATOM     40  C   UNL     1      -5.165  -8.035 -10.065  1.00  0.00     0.016 A 
ATOM     41  C   UNL     1      -7.423  -7.443  -9.305  1.00  0.00     0.016 A 
ATOM     42  C   UNL     1      -5.685  -9.094 -10.764  1.00  0.00     0.010 A 
ATOM     43  C   UNL     1      -7.943  -8.496 -10.012  1.00  0.00     0.010 A 
ATOM     44  C   UNL     1      -7.076  -9.219 -10.826  1.00  0.00    -0.014 A 
BRANCH  44  45
ATOM     45  C   UNL     1      -7.610 -10.070 -11.863  1.00  0.00     0.031 A 
ATOM     46  C   UNL     1      -7.543 -11.511 -11.561  1.00  0.00     0.074 A 
ATOM     47  C   UNL     1      -8.171  -9.541 -12.966  1.00  0.00     0.049 A 
ATOM     48  N   UNL     1      -6.886 -12.429 -12.187  1.00  0.00    -0.248 NA
ATOM     49  C   UNL     1      -8.191 -11.959 -10.320  1.00  0.00     0.031 C 
ATOM     50  C   UNL     1      -8.544  -8.145 -13.226  1.00  0.00     0.029 A 
ATOM     51  N   UNL     1      -8.624 -10.187 -14.068  1.00  0.00    -0.354 N 
ATOM     52  C   UNL     1      -7.175 -13.611 -11.516  1.00  0.00     0.074 A 
ATOM     53  C   UNL     1      -7.848 -13.245 -10.297  1.00  0.00     0.031 C 
ATOM     54  C   UNL     1      -9.367  -8.100 -14.299  1.00  0.00     0.029 A 
ATOM     55  C   UNL     1      -9.465  -9.433 -14.869  1.00  0.00     0.049 A 
ATOM     56  H   UNL     1      -8.375 -11.116 -14.282  1.00  0.00     0.167 HD
ATOM     57  C   UNL     1      -7.032 -14.823 -12.111  1.00  0.00     0.037 A 
ATOM     58  C   UNL     1     -10.251  -9.919 -15.859  1.00  0.00     0.037 A 
ATOM     59  C   UNL     1      -6.170 -14.757 -13.260  1.00  0.00     0.049 A 
ATOM     60  C   UNL     1      -9.730 -11.264 -16.224  1.00  0.00     0.074 A 
ATOM     61  C   UNL     1      -4.839 -14.442 -13.451  1.00  0.00     0.029 A 
ATOM     62  N   UNL     1      -6.751 -14.694 -14.502  1.00  0.00    -0.354 N 
ATOM     63  N   UNL     1      -8.588 -11.467 -16.820  1.00  0.00    -0.248 NA
ATOM     64  C   UNL     1     -10.274 -12.414 -15.514  1.00  0.00     0.031 C 
ATOM     65  C   UNL     1      -4.794 -13.754 -14.698  1.00  0.00     0.029 A 
ATOM     66  C   UNL     1      -6.092 -13.720 -15.210  1.00  0.00     0.049 A 
ATOM     67  H   UNL     1      -7.501 -15.244 -14.825  1.00  0.00     0.167 HD
ATOM     68  C   UNL     1      -8.075 -12.617 -16.233  1.00  0.00     0.074 A 
ATOM     69  C   UNL     1      -9.194 -13.200 -15.497  1.00  0.00     0.031 C 
ATOM     70  C   UNL     1      -6.730 -12.839 -16.162  1.00  0.00     0.037 A 
BRANCH  57  71
ATOM     71  C   UNL     1      -7.936 -15.990 -11.831  1.00  0.00     0.057 A 
ATOM     72  C   UNL     1      -7.590 -17.264 -12.308  1.00  0.00     0.134 A 
ATOM     73  C   UNL     1      -9.254 -15.863 -11.346  1.00  0.00     0.134 A 
ATOM     74  F   UNL     1      -6.374 -17.501 -12.821  1.00  0.00    -0.206 F 
ATOM     75  C   UNL     1      -8.507 -18.321 -12.342  1.00  0.00     0.040 A 
ATOM     76  C   UNL     1     -10.159 -16.926 -11.324  1.00  0.00     0.040 A 
ATOM     77  F   UNL     1      -9.768 -14.687 -10.963  1.00  0.00    -0.206 F 
ATOM     78  C   UNL     1      -9.796 -18.154 -11.851  1.00  0.00     0.006 A 
ENDBRANCH  57  71
BRANCH  58  79
ATOM     79  C   UNL     1     -11.608  -9.463 -16.232  1.00  0.00     0.057 A 
ATOM     80  C   UNL     1     -12.179  -9.814 -17.462  1.00  0.00     0.134 A 
ATOM     81  C   UNL     1     -12.481  -8.894 -15.286  1.00  0.00     0.134 A 
ATOM     82  F   UNL     1     -11.438 -10.405 -18.411  1.00  0.00    -0.206 F 
ATOM     83  C   UNL     1     -13.541  -9.623 -17.732  1.00  0.00     0.040 A 
ATOM     84  C   UNL     1     -13.839  -8.691 -15.544  1.00  0.00     0.040 A 
ATOM     85  F   UNL     1     -12.064  -8.598 -14.046  1.00  0.00    -0.206 F 
ATOM     86  C   UNL     1     -14.378  -9.068 -16.767  1.00  0.00     0.006 A 
ENDBRANCH  58  79
BRANCH  70  87
ATOM     87  C   UNL     1      -5.826 -11.913 -16.929  1.00  0.00     0.057 A 
ATOM     88  C   UNL     1      -5.690 -10.547 -16.639  1.00  0.00     0.134 A 
ATOM     89  C   UNL     1      -4.945 -12.449 -17.873  1.00  0.00     0.134 A 
ATOM     90  F   UNL     1      -6.418  -9.968 -15.676  1.00  0.00    -0.206 F 
ATOM     91  C   UNL     1      -4.747  -9.743 -17.288  1.00  0.00     0.040 A 
ATOM     92  C   UNL     1      -3.976 -11.665 -18.505  1.00  0.00     0.040 A 
ATOM     93  F   UNL     1      -4.974 -13.760 -18.158  1.00  0.00    -0.206 F 
ATOM     94  C   UNL     1      -3.880 -10.305 -18.220  1.00  0.00     0.006 A 
ENDBRANCH  70  87
ENDBRANCH  44  45
ENDBRANCH  37  39
ENDBRANCH  36  37
ENDBRANCH  35  36
ENDBRANCH  34  35
ENDBRANCH  33  34
ENDBRANCH  32  33
ENDBRANCH   1  32
TORSDOF 21
