REMARK SMILES C[C@@](NC(=O)CCOC1CC[NH2+]CC1)(C(=O)OCCOCCOCCOC(=O)c1ccc(-c2c3nc(c(-c4c(F)cccc4F)c4ccc([nH]4)c(-c4c(F)cccc4F)c4nc(c(-c5c(F)cccc5F)c5ccc2[nH]5)C=C4)C=C3)cc1)C(F)(F)F
REMARK SMILES IDX 20 1 19 2 18 3 17 4 15 5 16 6 2 7 1 8 3 9 4 10 5 12 6 13
REMARK SMILES IDX 7 14 8 15 9 16 10 17 14 18 11 19 13 20 12 21 83 24 84 25
REMARK SMILES IDX 85 26 86 27 21 28 22 29 23 30 24 31 25 32 26 33 27 34 28 35
REMARK SMILES IDX 29 36 30 37 82 38 31 39 81 40 32 41 33 42 34 43 75 44 35 45
REMARK SMILES IDX 80 46 74 47 76 48 36 49 79 50 73 51 72 52 37 54 63 55 46 56
REMARK SMILES IDX 62 57 47 58 50 59 61 60 77 61 48 62 49 63 60 65 78 66 51 67
REMARK SMILES IDX 38 68 39 69 44 70 40 71 41 72 43 73 45 74 42 75 64 76 65 77
REMARK SMILES IDX 70 78 66 79 67 80 69 81 71 82 68 83 52 84 53 85 58 86 54 87
REMARK SMILES IDX 55 88 57 89 59 90 56 91
REMARK H PARENT 3 11 12 22 12 23 76 53 50 64
REMARK Flexibility Score: inf
ROOT
ATOM      1  O   UNL     1      -4.675  -0.842  -2.326  1.00  0.00    -0.376 OA
ENDROOT
BRANCH   1   2
ATOM      2  C   UNL     1      -4.984  -1.199  -0.978  1.00  0.00     0.202 C 
BRANCH   2   3
ATOM      3  C   UNL     1      -4.276  -2.452  -0.447  1.00  0.00     0.261 C 
BRANCH   3   4
ATOM      4  O   UNL     1      -2.847  -2.324  -0.522  1.00  0.00    -0.461 OA
BRANCH   4   5
ATOM      5  C   UNL     1      -2.142  -3.353  -1.077  1.00  0.00     0.341 C 
ATOM      6  O   UNL     1      -2.632  -4.435  -1.369  1.00  0.00    -0.249 OA
BRANCH   5   7
ATOM      7  C   UNL     1      -0.649  -3.023  -1.181  1.00  0.00     0.231 C 
ATOM      8  C   UNL     1      -0.316  -1.536  -1.022  1.00  0.00     0.058 C 
BRANCH   7   9
ATOM      9  N   UNL     1       0.130  -3.876  -0.222  1.00  0.00    -0.333 N 
ATOM     10  C   UNL     1       0.215  -3.890   1.135  1.00  0.00     0.223 C 
ATOM     11  H   UNL     1       0.687  -4.558  -0.661  1.00  0.00     0.164 HD
ATOM     12  O   UNL     1       1.046  -4.638   1.653  1.00  0.00    -0.275 OA
BRANCH  10  13
ATOM     13  C   UNL     1      -0.673  -3.017   1.987  1.00  0.00     0.128 C 
BRANCH  13  14
ATOM     14  C   UNL     1       0.121  -1.861   2.578  1.00  0.00     0.170 C 
BRANCH  14  15
ATOM     15  O   UNL     1       0.801  -1.181   1.526  1.00  0.00    -0.377 OA
BRANCH  15  16
ATOM     16  C   UNL     1       2.089  -0.662   1.865  1.00  0.00     0.129 C 
ATOM     17  C   UNL     1       1.975   0.844   2.062  1.00  0.00     0.093 C 
ATOM     18  C   UNL     1       3.087  -1.028   0.755  1.00  0.00     0.093 C 
ATOM     19  C   UNL     1       1.817   1.567   0.730  1.00  0.00     0.263 C 
ATOM     20  C   UNL     1       3.103  -0.089  -0.456  1.00  0.00     0.263 C 
ATOM     21  N   UNL     1       2.992   1.323  -0.105  1.00  0.00    -0.346 N 
ATOM     22  H   UNL     1       3.829   1.606   0.405  1.00  0.00     0.346 HD
ATOM     23  H   UNL     1       2.896   1.864  -0.965  1.00  0.00     0.346 HD
ENDBRANCH  15  16
ENDBRANCH  14  15
ENDBRANCH  13  14
ENDBRANCH  10  13
ENDBRANCH   7   9
BRANCH   7  24
ATOM     24  C   UNL     1      -0.281  -3.370  -2.641  1.00  0.00     0.422 C 
ATOM     25  F   UNL     1      -1.008  -2.665  -3.538  1.00  0.00    -0.168 F 
ATOM     26  F   UNL     1       1.024  -3.058  -2.874  1.00  0.00    -0.168 F 
ATOM     27  F   UNL     1      -0.410  -4.681  -2.929  1.00  0.00    -0.168 F 
ENDBRANCH   7  24
ENDBRANCH   5   7
ENDBRANCH   4   5
ENDBRANCH   3   4
ENDBRANCH   2   3
ENDBRANCH   1   2
BRANCH   1  28
ATOM     28  C   UNL     1      -3.369  -0.334  -2.560  1.00  0.00     0.188 C 
BRANCH  28  29
ATOM     29  C   UNL     1      -3.043   1.035  -1.965  1.00  0.00     0.188 C 
BRANCH  29  30
ATOM     30  O   UNL     1      -3.334   1.222  -0.585  1.00  0.00    -0.376 OA
BRANCH  30  31
ATOM     31  C   UNL     1      -2.889   2.480  -0.048  1.00  0.00     0.202 C 
BRANCH  31  32
ATOM     32  C   UNL     1      -3.351   3.741  -0.812  1.00  0.00     0.261 C 
BRANCH  32  33
ATOM     33  O   UNL     1      -2.833   3.838  -2.159  1.00  0.00    -0.460 OA
BRANCH  33  34
ATOM     34  C   UNL     1      -1.483   3.815  -2.303  1.00  0.00     0.338 C 
ATOM     35  O   UNL     1      -0.667   4.012  -1.428  1.00  0.00    -0.246 OA
BRANCH  34  36
ATOM     36  C   UNL     1      -1.152   3.240  -3.643  1.00  0.00     0.060 A 
ATOM     37  C   UNL     1       0.024   2.482  -3.754  1.00  0.00     0.016 A 
ATOM     38  C   UNL     1      -2.005   3.350  -4.747  1.00  0.00     0.016 A 
ATOM     39  C   UNL     1       0.375   1.888  -4.972  1.00  0.00     0.010 A 
ATOM     40  C   UNL     1      -1.653   2.755  -5.967  1.00  0.00     0.010 A 
ATOM     41  C   UNL     1      -0.442   2.053  -6.099  1.00  0.00    -0.014 A 
BRANCH  41  42
ATOM     42  C   UNL     1       0.065   1.687  -7.451  1.00  0.00     0.031 A 
ATOM     43  C   UNL     1       0.643   2.780  -8.313  1.00  0.00     0.074 A 
ATOM     44  C   UNL     1       0.051   0.424  -7.915  1.00  0.00     0.049 A 
ATOM     45  N   UNL     1       1.093   2.725  -9.541  1.00  0.00    -0.248 NA
ATOM     46  C   UNL     1       0.726   4.115  -7.700  1.00  0.00     0.031 C 
ATOM     47  C   UNL     1      -0.420  -0.750  -7.185  1.00  0.00     0.029 A 
ATOM     48  N   UNL     1       0.449  -0.076  -9.135  1.00  0.00    -0.354 N 
ATOM     49  C   UNL     1       1.506   4.016  -9.849  1.00  0.00     0.074 A 
ATOM     50  C   UNL     1       1.226   4.837  -8.691  1.00  0.00     0.031 C 
ATOM     51  C   UNL     1      -0.294  -1.833  -7.975  1.00  0.00     0.029 A 
ATOM     52  C   UNL     1       0.235  -1.426  -9.277  1.00  0.00     0.049 A 
ATOM     53  H   UNL     1       0.850   0.482  -9.840  1.00  0.00     0.167 HD
ATOM     54  C   UNL     1       2.076   4.481 -10.985  1.00  0.00     0.037 A 
ATOM     55  C   UNL     1       0.422  -2.234 -10.342  1.00  0.00     0.037 A 
ATOM     56  C   UNL     1       2.363   3.682 -12.146  1.00  0.00     0.049 A 
ATOM     57  C   UNL     1       0.965  -1.673 -11.634  1.00  0.00     0.074 A 
ATOM     58  C   UNL     1       2.945   4.076 -13.338  1.00  0.00     0.029 A 
ATOM     59  N   UNL     1       2.083   2.331 -12.264  1.00  0.00    -0.354 N 
ATOM     60  N   UNL     1       1.361  -0.455 -11.910  1.00  0.00    -0.248 NA
ATOM     61  C   UNL     1       1.081  -2.606 -12.768  1.00  0.00     0.031 C 
ATOM     62  C   UNL     1       2.974   2.973 -14.197  1.00  0.00     0.029 A 
ATOM     63  C   UNL     1       2.455   1.882 -13.520  1.00  0.00     0.049 A 
ATOM     64  H   UNL     1       1.679   1.773 -11.561  1.00  0.00     0.167 HD
ATOM     65  C   UNL     1       1.800  -0.483 -13.230  1.00  0.00     0.074 A 
ATOM     66  C   UNL     1       1.630  -1.841 -13.701  1.00  0.00     0.031 C 
ATOM     67  C   UNL     1       2.300   0.527 -13.983  1.00  0.00     0.037 A 
BRANCH  54  68
ATOM     68  C   UNL     1       2.404   5.943 -11.035  1.00  0.00     0.057 A 
ATOM     69  C   UNL     1       3.472   6.486 -10.309  1.00  0.00     0.134 A 
ATOM     70  C   UNL     1       1.656   6.812 -11.838  1.00  0.00     0.134 A 
ATOM     71  F   UNL     1       4.214   5.708  -9.507  1.00  0.00    -0.206 F 
ATOM     72  C   UNL     1       3.769   7.848 -10.363  1.00  0.00     0.040 A 
ATOM     73  C   UNL     1       1.960   8.171 -11.920  1.00  0.00     0.040 A 
ATOM     74  F   UNL     1       0.622   6.353 -12.560  1.00  0.00    -0.206 F 
ATOM     75  C   UNL     1       3.016   8.693 -11.176  1.00  0.00     0.006 A 
ENDBRANCH  54  68
BRANCH  55  76
ATOM     76  C   UNL     1       0.065  -3.675 -10.259  1.00  0.00     0.057 A 
ATOM     77  C   UNL     1       1.048  -4.671 -10.309  1.00  0.00     0.134 A 
ATOM     78  C   UNL     1      -1.270  -4.090 -10.192  1.00  0.00     0.134 A 
ATOM     79  F   UNL     1       2.343  -4.337 -10.411  1.00  0.00    -0.206 F 
ATOM     80  C   UNL     1       0.716  -6.027 -10.312  1.00  0.00     0.040 A 
ATOM     81  C   UNL     1      -1.615  -5.442 -10.168  1.00  0.00     0.040 A 
ATOM     82  F   UNL     1      -2.259  -3.186 -10.154  1.00  0.00    -0.206 F 
ATOM     83  C   UNL     1      -0.620  -6.416 -10.238  1.00  0.00     0.006 A 
ENDBRANCH  55  76
BRANCH  67  84
ATOM     84  C   UNL     1       2.743   0.208 -15.383  1.00  0.00     0.057 A 
ATOM     85  C   UNL     1       1.827  -0.043 -16.412  1.00  0.00     0.134 A 
ATOM     86  C   UNL     1       4.104   0.214 -15.718  1.00  0.00     0.134 A 
ATOM     87  F   UNL     1       0.510  -0.073 -16.158  1.00  0.00    -0.206 F 
ATOM     88  C   UNL     1       2.249  -0.294 -17.720  1.00  0.00     0.040 A 
ATOM     89  C   UNL     1       4.537  -0.011 -17.026  1.00  0.00     0.040 A 
ATOM     90  F   UNL     1       5.035   0.459 -14.783  1.00  0.00    -0.206 F 
ATOM     91  C   UNL     1       3.608  -0.270 -18.031  1.00  0.00     0.006 A 
ENDBRANCH  67  84
ENDBRANCH  41  42
ENDBRANCH  34  36
ENDBRANCH  33  34
ENDBRANCH  32  33
ENDBRANCH  31  32
ENDBRANCH  30  31
ENDBRANCH  29  30
ENDBRANCH  28  29
ENDBRANCH   1  28
TORSDOF 23
