REMARK SMILES O=C(OCCOCCOCCOC(=O)[C@@H](Cc1ccccc1)/N=C1\C(=O)c2ccccc2C(=O)[C@H]1Cl)c1ccc(-c2c3nc(c(-c4c(F)cccc4F)c4ccc([nH]4)c(-c4c(F)cccc4F)c4nc(c(-c5c(F)cccc5F)c5ccc2[nH]5)C=C4)C=C3)cc1
REMARK SMILES IDX 7 1 6 2 5 3 4 4 3 5 2 6 1 7 37 8 38 9 90 10 39 11 89 12
REMARK SMILES IDX 40 13 41 14 42 15 83 16 43 17 88 18 82 19 84 20 44 21 87 22
REMARK SMILES IDX 81 23 80 24 45 26 71 27 54 28 70 29 55 30 58 31 69 32 85 33
REMARK SMILES IDX 56 34 57 35 68 37 86 38 59 39 46 40 47 41 52 42 48 43 49 44
REMARK SMILES IDX 51 45 53 46 50 47 72 48 73 49 78 50 74 51 75 52 77 53 79 54
REMARK SMILES IDX 76 55 60 56 61 57 66 58 62 59 63 60 65 61 67 62 64 63 8 64
REMARK SMILES IDX 9 65 10 66 11 67 12 68 13 69 14 70 15 71 16 72 17 73 18 74
REMARK SMILES IDX 22 75 19 76 21 77 20 78 23 79 24 80 25 81 35 82 26 83 27 84
REMARK SMILES IDX 33 85 36 86 28 87 32 88 34 89 29 90 31 91 30 92
REMARK H PARENT 84 25 58 36
REMARK Flexibility Score: inf
ROOT
ATOM      1  C   UNL     1       2.277  -1.886  -1.103  1.00  0.00     0.188 C 
ENDROOT
BRANCH   1   2
ATOM      2  O   UNL     1       3.565  -1.311  -0.814  1.00  0.00    -0.376 OA
BRANCH   2   3
ATOM      3  C   UNL     1       4.070  -1.741   0.458  1.00  0.00     0.202 C 
BRANCH   3   4
ATOM      4  C   UNL     1       3.803  -0.735   1.583  1.00  0.00     0.261 C 
BRANCH   4   5
ATOM      5  O   UNL     1       2.394  -0.433   1.655  1.00  0.00    -0.460 OA
BRANCH   5   6
ATOM      6  C   UNL     1       1.774   0.726   1.329  1.00  0.00     0.338 C 
ATOM      7  O   UNL     1       0.548   0.778   1.274  1.00  0.00    -0.246 OA
BRANCH   6   8
ATOM      8  C   UNL     1       2.535   1.986   1.159  1.00  0.00     0.060 A 
ATOM      9  C   UNL     1       3.614   2.114   0.285  1.00  0.00     0.016 A 
ATOM     10  C   UNL     1       2.077   3.117   1.854  1.00  0.00     0.016 A 
ATOM     11  C   UNL     1       4.309   3.323   0.212  1.00  0.00     0.010 A 
ATOM     12  C   UNL     1       2.733   4.346   1.726  1.00  0.00     0.010 A 
ATOM     13  C   UNL     1       3.878   4.449   0.929  1.00  0.00    -0.014 A 
BRANCH  13  14
ATOM     14  C   UNL     1       4.654   5.711   0.846  1.00  0.00     0.031 A 
ATOM     15  C   UNL     1       5.541   6.128   1.984  1.00  0.00     0.074 A 
ATOM     16  C   UNL     1       4.620   6.450  -0.278  1.00  0.00     0.049 A 
ATOM     17  N   UNL     1       6.353   7.153   2.065  1.00  0.00    -0.248 NA
ATOM     18  C   UNL     1       5.512   5.286   3.190  1.00  0.00     0.031 C 
ATOM     19  C   UNL     1       3.805   6.161  -1.458  1.00  0.00     0.029 A 
ATOM     20  N   UNL     1       5.327   7.574  -0.626  1.00  0.00    -0.354 N 
ATOM     21  C   UNL     1       6.910   7.095   3.334  1.00  0.00     0.074 A 
ATOM     22  C   UNL     1       6.351   5.930   3.989  1.00  0.00     0.031 C 
ATOM     23  C   UNL     1       4.120   7.035  -2.430  1.00  0.00     0.029 A 
ATOM     24  C   UNL     1       5.140   7.952  -1.931  1.00  0.00     0.049 A 
ATOM     25  H   UNL     1       5.911   8.060   0.000  1.00  0.00     0.167 HD
ATOM     26  C   UNL     1       7.804   7.933   3.908  1.00  0.00     0.037 A 
ATOM     27  C   UNL     1       5.747   8.912  -2.652  1.00  0.00     0.037 A 
ATOM     28  C   UNL     1       8.390   9.078   3.267  1.00  0.00     0.049 A 
ATOM     29  C   UNL     1       6.756   9.813  -2.005  1.00  0.00     0.074 A 
ATOM     30  C   UNL     1       9.292   9.992   3.784  1.00  0.00     0.029 A 
ATOM     31  N   UNL     1       8.141   9.455   1.959  1.00  0.00    -0.354 N 
ATOM     32  N   UNL     1       7.248   9.764  -0.792  1.00  0.00    -0.248 NA
ATOM     33  C   UNL     1       7.275  10.919  -2.824  1.00  0.00     0.031 C 
ATOM     34  C   UNL     1       9.591  10.926   2.783  1.00  0.00     0.029 A 
ATOM     35  C   UNL     1       8.875  10.587   1.647  1.00  0.00     0.049 A 
ATOM     36  H   UNL     1       7.532   8.989   1.342  1.00  0.00     0.167 HD
ATOM     37  C   UNL     1       8.122  10.838  -0.697  1.00  0.00     0.074 A 
ATOM     38  C   UNL     1       8.113  11.508  -1.981  1.00  0.00     0.031 C 
ATOM     39  C   UNL     1       8.855  11.241   0.367  1.00  0.00     0.037 A 
BRANCH  26  40
ATOM     40  C   UNL     1       8.191   7.638   5.321  1.00  0.00     0.057 A 
ATOM     41  C   UNL     1       9.248   6.771   5.617  1.00  0.00     0.134 A 
ATOM     42  C   UNL     1       7.503   8.225   6.389  1.00  0.00     0.134 A 
ATOM     43  F   UNL     1       9.930   6.168   4.632  1.00  0.00    -0.206 F 
ATOM     44  C   UNL     1       9.606   6.492   6.937  1.00  0.00     0.040 A 
ATOM     45  C   UNL     1       7.854   7.956   7.712  1.00  0.00     0.040 A 
ATOM     46  F   UNL     1       6.474   9.055   6.161  1.00  0.00    -0.206 F 
ATOM     47  C   UNL     1       8.909   7.087   7.988  1.00  0.00     0.006 A 
ENDBRANCH  26  40
BRANCH  27  48
ATOM     48  C   UNL     1       5.457   9.048  -4.096  1.00  0.00     0.057 A 
ATOM     49  C   UNL     1       6.335   8.509  -5.042  1.00  0.00     0.134 A 
ATOM     50  C   UNL     1       4.331   9.732  -4.561  1.00  0.00     0.134 A 
ATOM     51  F   UNL     1       7.429   7.843  -4.642  1.00  0.00    -0.206 F 
ATOM     52  C   UNL     1       6.110   8.663  -6.408  1.00  0.00     0.040 A 
ATOM     53  C   UNL     1       4.086   9.878  -5.926  1.00  0.00     0.040 A 
ATOM     54  F   UNL     1       3.464  10.273  -3.694  1.00  0.00    -0.206 F 
ATOM     55  C   UNL     1       4.980   9.345  -6.854  1.00  0.00     0.006 A 
ENDBRANCH  27  48
BRANCH  39  56
ATOM     56  C   UNL     1       9.692  12.466   0.187  1.00  0.00     0.057 A 
ATOM     57  C   UNL     1       9.149  13.742   0.377  1.00  0.00     0.134 A 
ATOM     58  C   UNL     1      11.044  12.373  -0.157  1.00  0.00     0.134 A 
ATOM     59  F   UNL     1       7.855  13.889   0.697  1.00  0.00    -0.206 F 
ATOM     60  C   UNL     1       9.926  14.890   0.225  1.00  0.00     0.040 A 
ATOM     61  C   UNL     1      11.833  13.514  -0.308  1.00  0.00     0.040 A 
ATOM     62  F   UNL     1      11.615  11.176  -0.358  1.00  0.00    -0.206 F 
ATOM     63  C   UNL     1      11.273  14.778  -0.117  1.00  0.00     0.006 A 
ENDBRANCH  39  56
ENDBRANCH  13  14
ENDBRANCH   6   8
ENDBRANCH   5   6
ENDBRANCH   4   5
ENDBRANCH   3   4
ENDBRANCH   2   3
ENDBRANCH   1   2
BRANCH   1  64
ATOM     64  C   UNL     1       1.844  -1.570  -2.536  1.00  0.00     0.188 C 
BRANCH  64  65
ATOM     65  O   UNL     1       2.305  -2.568  -3.452  1.00  0.00    -0.376 OA
BRANCH  65  66
ATOM     66  C   UNL     1       3.631  -2.369  -3.951  1.00  0.00     0.202 C 
BRANCH  66  67
ATOM     67  C   UNL     1       3.633  -1.447  -5.170  1.00  0.00     0.261 C 
BRANCH  67  68
ATOM     68  O   UNL     1       3.597  -0.084  -4.724  1.00  0.00    -0.462 OA
BRANCH  68  69
ATOM     69  C   UNL     1       3.498   0.835  -5.721  1.00  0.00     0.331 C 
ATOM     70  O   UNL     1       3.346   0.561  -6.908  1.00  0.00    -0.250 OA
BRANCH  69  71
ATOM     71  C   UNL     1       3.504   2.261  -5.171  1.00  0.00     0.219 C 
BRANCH  71  72
ATOM     72  C   UNL     1       3.817   2.487  -3.684  1.00  0.00     0.074 C 
BRANCH  72  73
ATOM     73  C   UNL     1       5.261   2.579  -3.255  1.00  0.00    -0.045 A 
ATOM     74  C   UNL     1       5.945   1.453  -2.781  1.00  0.00     0.004 A 
ATOM     75  C   UNL     1       5.918   3.820  -3.253  1.00  0.00     0.004 A 
ATOM     76  C   UNL     1       7.248   1.571  -2.294  1.00  0.00     0.000 A 
ATOM     77  C   UNL     1       7.217   3.939  -2.762  1.00  0.00     0.000 A 
ATOM     78  C   UNL     1       7.881   2.814  -2.278  1.00  0.00     0.000 A 
ENDBRANCH  72  73
ENDBRANCH  71  72
BRANCH  71  79
ATOM     79  N   UNL     1       4.151   3.244  -6.062  1.00  0.00    -0.268 NA
ATOM     80  C   UNL     1       5.346   3.168  -6.538  1.00  0.00     0.110 C 
ATOM     81  C   UNL     1       6.395   2.112  -6.240  1.00  0.00     0.209 C 
ATOM     82  C   UNL     1       5.816   4.260  -7.453  1.00  0.00     0.205 C 
ATOM     83  O   UNL     1       6.111   0.945  -6.089  1.00  0.00    -0.287 OA
ATOM     84  C   UNL     1       7.793   2.576  -6.116  1.00  0.00     0.035 A 
ATOM     85  C   UNL     1       7.194   4.778  -7.151  1.00  0.00     0.187 C 
ATOM     86  Cl  UNL     1       5.811   3.639  -9.122  1.00  0.00    -0.107 Cl
ATOM     87  C   UNL     1       8.749   1.705  -5.578  1.00  0.00     0.013 A 
ATOM     88  C   UNL     1       8.158   3.868  -6.490  1.00  0.00     0.031 A 
ATOM     89  O   UNL     1       7.561   5.899  -7.497  1.00  0.00    -0.292 OA
ATOM     90  C   UNL     1      10.059   2.141  -5.379  1.00  0.00     0.001 A 
ATOM     91  C   UNL     1       9.474   4.304  -6.283  1.00  0.00     0.012 A 
ATOM     92  C   UNL     1      10.419   3.443  -5.723  1.00  0.00     0.001 A 
ENDBRANCH  71  79
ENDBRANCH  69  71
ENDBRANCH  68  69
ENDBRANCH  67  68
ENDBRANCH  66  67
ENDBRANCH  65  66
ENDBRANCH  64  65
ENDBRANCH   1  64
TORSDOF 20
