REMARK SMILES C[C@@H]1c2ccccc2-c2ccc(C(=O)OCCOCCOCCOC(=O)c3ccc(-c4c5nc(c(-c6c(F)cccc6F)c6ccc([nH]6)c(-c6c(F)cccc6F)c6nc(c(-c7c(F)cccc7F)c7ccc4[nH]7)C=C6)C=C5)cc3)cc21
REMARK SMILES IDX 20 1 19 2 18 3 17 4 16 5 15 6 13 7 14 8 12 9 1 10 2 11 3 12
REMARK SMILES IDX 82 13 4 14 8 15 9 16 81 17 5 18 7 19 10 20 6 21 11 22 21 23
REMARK SMILES IDX 22 24 23 25 24 26 25 27 26 28 27 29 28 30 80 31 29 32 79 33
REMARK SMILES IDX 30 34 31 35 32 36 73 37 33 38 78 39 72 40 74 41 34 42 77 43
REMARK SMILES IDX 71 44 70 45 35 47 61 48 44 49 60 50 45 51 48 52 59 53 75 54
REMARK SMILES IDX 46 55 47 56 58 58 76 59 49 60 36 61 37 62 42 63 38 64 39 65
REMARK SMILES IDX 41 66 43 67 40 68 62 69 63 70 68 71 64 72 65 73 67 74 69 75
REMARK SMILES IDX 66 76 50 77 51 78 56 79 52 80 53 81 55 82 57 83 54 84
REMARK H PARENT 74 46 48 57
REMARK Flexibility Score: inf
ROOT
ATOM      1  C   UNL     1      -5.203  -0.174   2.277  1.00  0.00     0.188 C 
ENDROOT
BRANCH   1   2
ATOM      2  C   UNL     1      -6.147   0.662   1.387  1.00  0.00     0.188 C 
BRANCH   2   3
ATOM      3  O   UNL     1      -7.436   0.187   1.044  1.00  0.00    -0.376 OA
BRANCH   3   4
ATOM      4  C   UNL     1      -7.585  -1.104   0.473  1.00  0.00     0.202 C 
BRANCH   4   5
ATOM      5  C   UNL     1      -6.734  -1.525  -0.728  1.00  0.00     0.261 C 
BRANCH   5   6
ATOM      6  O   UNL     1      -5.322  -1.390  -0.510  1.00  0.00    -0.460 OA
BRANCH   6   7
ATOM      7  C   UNL     1      -4.692  -0.562  -1.378  1.00  0.00     0.338 C 
ATOM      8  O   UNL     1      -5.185   0.004  -2.340  1.00  0.00    -0.246 OA
BRANCH   7   9
ATOM      9  C   UNL     1      -3.322  -0.263  -0.906  1.00  0.00     0.060 A 
ATOM     10  C   UNL     1      -0.121  -2.443   1.570  1.00  0.00     0.018 C 
ATOM     11  C   UNL     1       0.042  -1.766   0.215  1.00  0.00     0.047 C 
ATOM     12  C   UNL     1       1.188  -0.760   0.213  1.00  0.00    -0.033 A 
ATOM     13  C   UNL     1      -1.146  -0.883  -0.155  1.00  0.00    -0.032 A 
ATOM     14  C   UNL     1       2.546  -0.999   0.357  1.00  0.00     0.005 A 
ATOM     15  C   UNL     1       0.698   0.539  -0.032  1.00  0.00    -0.014 A 
ATOM     16  C   UNL     1      -0.729   0.467  -0.257  1.00  0.00    -0.014 A 
ATOM     17  C   UNL     1      -2.446  -1.263  -0.467  1.00  0.00     0.020 A 
ATOM     18  C   UNL     1       3.420   0.087   0.260  1.00  0.00     0.000 A 
ATOM     19  C   UNL     1       1.562   1.619  -0.111  1.00  0.00     0.009 A 
ATOM     20  C   UNL     1      -1.618   1.462  -0.621  1.00  0.00     0.010 A 
ATOM     21  C   UNL     1       2.932   1.385   0.035  1.00  0.00     0.001 A 
ATOM     22  C   UNL     1      -2.919   1.089  -0.959  1.00  0.00     0.016 A 
ENDBRANCH   7   9
ENDBRANCH   6   7
ENDBRANCH   5   6
ENDBRANCH   4   5
ENDBRANCH   3   4
ENDBRANCH   2   3
ENDBRANCH   1   2
BRANCH   1  23
ATOM     23  O   UNL     1      -5.609  -1.430   2.767  1.00  0.00    -0.376 OA
BRANCH  23  24
ATOM     24  C   UNL     1      -6.626  -1.556   3.746  1.00  0.00     0.202 C 
BRANCH  24  25
ATOM     25  C   UNL     1      -7.046  -0.459   4.735  1.00  0.00     0.261 C 
BRANCH  25  26
ATOM     26  O   UNL     1      -6.876   0.895   4.318  1.00  0.00    -0.460 OA
BRANCH  26  27
ATOM     27  C   UNL     1      -5.914   1.577   4.987  1.00  0.00     0.338 C 
ATOM     28  O   UNL     1      -5.174   1.162   5.859  1.00  0.00    -0.246 OA
BRANCH  27  29
ATOM     29  C   UNL     1      -5.776   2.914   4.388  1.00  0.00     0.060 A 
ATOM     30  C   UNL     1      -4.565   3.246   3.768  1.00  0.00     0.016 A 
ATOM     31  C   UNL     1      -6.808   3.847   4.495  1.00  0.00     0.016 A 
ATOM     32  C   UNL     1      -4.370   4.534   3.274  1.00  0.00     0.010 A 
ATOM     33  C   UNL     1      -6.603   5.142   4.017  1.00  0.00     0.010 A 
ATOM     34  C   UNL     1      -5.374   5.498   3.434  1.00  0.00    -0.014 A 
BRANCH  34  35
ATOM     35  C   UNL     1      -5.077   6.924   3.164  1.00  0.00     0.031 A 
ATOM     36  C   UNL     1      -4.672   7.801   4.315  1.00  0.00     0.074 A 
ATOM     37  C   UNL     1      -5.166   7.431   1.923  1.00  0.00     0.049 A 
ATOM     38  N   UNL     1      -4.441   9.088   4.338  1.00  0.00    -0.248 NA
ATOM     39  C   UNL     1      -4.509   7.134   5.617  1.00  0.00     0.031 C 
ATOM     40  C   UNL     1      -5.509   6.674   0.721  1.00  0.00     0.029 A 
ATOM     41  N   UNL     1      -4.989   8.716   1.477  1.00  0.00    -0.354 N 
ATOM     42  C   UNL     1      -4.115   9.387   5.654  1.00  0.00     0.074 A 
ATOM     43  C   UNL     1      -4.201   8.153   6.405  1.00  0.00     0.031 C 
ATOM     44  C   UNL     1      -5.536   7.515  -0.327  1.00  0.00     0.029 A 
ATOM     45  C   UNL     1      -5.246   8.871   0.137  1.00  0.00     0.049 A 
ATOM     46  H   UNL     1      -4.705   9.456   2.061  1.00  0.00     0.167 HD
ATOM     47  C   UNL     1      -3.769  10.582   6.189  1.00  0.00     0.037 A 
ATOM     48  C   UNL     1      -5.270   9.987  -0.617  1.00  0.00     0.037 A 
ATOM     49  C   UNL     1      -3.692  11.809   5.444  1.00  0.00     0.049 A 
ATOM     50  C   UNL     1      -4.961  11.318   0.017  1.00  0.00     0.074 A 
ATOM     51  C   UNL     1      -3.337  13.069   5.892  1.00  0.00     0.029 A 
ATOM     52  N   UNL     1      -3.985  11.932   4.094  1.00  0.00    -0.354 N 
ATOM     53  N   UNL     1      -4.630  11.589   1.256  1.00  0.00    -0.248 NA
ATOM     54  C   UNL     1      -5.029  12.500  -0.856  1.00  0.00     0.031 C 
ATOM     55  C   UNL     1      -3.462  13.964   4.824  1.00  0.00     0.029 A 
ATOM     56  C   UNL     1      -3.844  13.251   3.698  1.00  0.00     0.049 A 
ATOM     57  H   UNL     1      -4.253  11.190   3.505  1.00  0.00     0.167 HD
ATOM     58  C   UNL     1      -4.424  12.963   1.305  1.00  0.00     0.074 A 
ATOM     59  C   UNL     1      -4.657  13.469  -0.032  1.00  0.00     0.031 C 
ATOM     60  C   UNL     1      -4.072  13.737   2.361  1.00  0.00     0.037 A 
BRANCH  47  61
ATOM     61  C   UNL     1      -3.480  10.617   7.660  1.00  0.00     0.057 A 
ATOM     62  C   UNL     1      -2.317  10.053   8.199  1.00  0.00     0.134 A 
ATOM     63  C   UNL     1      -4.370  11.237   8.546  1.00  0.00     0.134 A 
ATOM     64  F   UNL     1      -1.433   9.428   7.406  1.00  0.00    -0.206 F 
ATOM     65  C   UNL     1      -2.060  10.083   9.571  1.00  0.00     0.040 A 
ATOM     66  C   UNL     1      -4.112  11.296   9.916  1.00  0.00     0.040 A 
ATOM     67  F   UNL     1      -5.501  11.798   8.094  1.00  0.00    -0.206 F 
ATOM     68  C   UNL     1      -2.957  10.711  10.433  1.00  0.00     0.006 A 
ENDBRANCH  47  61
BRANCH  48  69
ATOM     69  C   UNL     1      -5.620   9.903  -2.057  1.00  0.00     0.057 A 
ATOM     70  C   UNL     1      -4.665  10.148  -3.050  1.00  0.00     0.134 A 
ATOM     71  C   UNL     1      -6.923   9.604  -2.474  1.00  0.00     0.134 A 
ATOM     72  F   UNL     1      -3.407  10.466  -2.713  1.00  0.00    -0.206 F 
ATOM     73  C   UNL     1      -4.996  10.116  -4.406  1.00  0.00     0.040 A 
ATOM     74  C   UNL     1      -7.262   9.544  -3.826  1.00  0.00     0.040 A 
ATOM     75  F   UNL     1      -7.885   9.363  -1.571  1.00  0.00    -0.206 F 
ATOM     76  C   UNL     1      -6.298   9.807  -4.797  1.00  0.00     0.006 A 
ENDBRANCH  48  69
BRANCH  60  77
ATOM     77  C   UNL     1      -3.878  15.204   2.109  1.00  0.00     0.057 A 
ATOM     78  C   UNL     1      -4.957  16.067   1.883  1.00  0.00     0.134 A 
ATOM     79  C   UNL     1      -2.595  15.768   2.140  1.00  0.00     0.134 A 
ATOM     80  F   UNL     1      -6.210  15.589   1.829  1.00  0.00    -0.206 F 
ATOM     81  C   UNL     1      -4.767  17.435   1.676  1.00  0.00     0.040 A 
ATOM     82  C   UNL     1      -2.394  17.137   1.961  1.00  0.00     0.040 A 
ATOM     83  F   UNL     1      -1.518  15.000   2.363  1.00  0.00    -0.206 F 
ATOM     84  C   UNL     1      -3.482  17.974   1.722  1.00  0.00     0.006 A 
ENDBRANCH  60  77
ENDBRANCH  34  35
ENDBRANCH  27  29
ENDBRANCH  26  27
ENDBRANCH  25  26
ENDBRANCH  24  25
ENDBRANCH  23  24
ENDBRANCH   1  23
TORSDOF 17
