REMARK SMILES O=C(OCCOCCOCCOC(=O)c1ccc(-c2c3nc(c(-c4c(F)cccc4F)c4ccc([nH]4)c(-c4c(F)cccc4F)c4nc(c(-c5c(F)cccc5F)c5ccc2[nH]5)C=C4)C=C3)cc1)c1ccc(NC(=O)[C@@H]2CC=CC[C@H]2C(=O)Nc2cccc([N+](=O)[O-])c2)cc1
REMARK SMILES IDX 6 1 5 2 4 3 3 4 2 5 1 6 69 7 70 8 95 9 71 10 94 11 72 12
REMARK SMILES IDX 73 13 74 14 75 16 76 17 77 18 81 19 78 20 80 21 79 22 82 23
REMARK SMILES IDX 83 24 84 25 85 27 86 28 93 29 87 30 89 31 88 32 90 33 91 34
REMARK SMILES IDX 92 35 7 36 8 37 9 38 10 39 11 40 12 41 13 42 14 43 15 44
REMARK SMILES IDX 16 45 68 46 17 47 67 48 18 49 19 50 20 51 61 52 21 53 66 54
REMARK SMILES IDX 60 55 62 56 22 57 65 58 59 59 58 60 23 62 49 63 32 64 48 65
REMARK SMILES IDX 33 66 36 67 47 68 63 69 34 70 35 71 46 73 64 74 37 75 24 76
REMARK SMILES IDX 25 77 30 78 26 79 27 80 29 81 31 82 28 83 50 84 51 85 56 86
REMARK SMILES IDX 52 87 53 88 55 89 57 90 54 91 38 92 39 93 44 94 40 95 41 96
REMARK SMILES IDX 43 97 45 98 42 99
REMARK H PARENT 73 15 84 26 62 61 36 72
REMARK Flexibility Score: inf
ROOT
ATOM      1  O   UNL     1      11.437  -5.244  -3.734  1.00  0.00    -0.376 OA
ENDROOT
BRANCH   1   2
ATOM      2  C   UNL     1      12.250  -4.530  -2.806  1.00  0.00     0.202 C 
BRANCH   2   3
ATOM      3  C   UNL     1      12.301  -5.126  -1.393  1.00  0.00     0.261 C 
BRANCH   3   4
ATOM      4  O   UNL     1      11.707  -6.427  -1.242  1.00  0.00    -0.460 OA
BRANCH   4   5
ATOM      5  C   UNL     1      10.418  -6.831  -1.195  1.00  0.00     0.338 C 
ATOM      6  O   UNL     1      10.203  -8.038  -1.073  1.00  0.00    -0.246 OA
BRANCH   5   7
ATOM      7  C   UNL     1       9.225  -5.932  -1.321  1.00  0.00     0.060 A 
ATOM      8  C   UNL     1       9.239  -4.542  -1.307  1.00  0.00     0.018 A 
ATOM      9  C   UNL     1       7.970  -6.559  -1.461  1.00  0.00     0.018 A 
ATOM     10  C   UNL     1       8.074  -3.804  -1.545  1.00  0.00     0.027 A 
ATOM     11  C   UNL     1       6.798  -5.820  -1.675  1.00  0.00     0.027 A 
ATOM     12  C   UNL     1       6.865  -4.435  -1.803  1.00  0.00     0.041 A 
BRANCH  12  13
ATOM     13  N   UNL     1       5.710  -3.758  -2.203  1.00  0.00    -0.326 N 
ATOM     14  C   UNL     1       5.508  -2.624  -2.927  1.00  0.00     0.228 C 
ATOM     15  H   UNL     1       4.876  -4.187  -1.902  1.00  0.00     0.169 HD
ATOM     16  O   UNL     1       4.345  -2.203  -2.984  1.00  0.00    -0.274 OA
BRANCH  14  17
ATOM     17  C   UNL     1       6.584  -1.875  -3.718  1.00  0.00     0.095 C 
ATOM     18  C   UNL     1       7.609  -2.733  -4.478  1.00  0.00     0.041 C 
ATOM     19  C   UNL     1       7.079  -0.632  -2.962  1.00  0.00     0.095 C 
ATOM     20  C   UNL     1       8.961  -2.123  -4.653  1.00  0.00    -0.030 C 
ATOM     21  C   UNL     1       8.388  -0.000  -3.468  1.00  0.00     0.041 C 
ATOM     22  C   UNL     1       9.307  -0.912  -4.210  1.00  0.00    -0.030 C 
BRANCH  19  23
ATOM     23  C   UNL     1       6.022   0.471  -2.723  1.00  0.00     0.228 C 
ATOM     24  O   UNL     1       5.651   0.691  -1.562  1.00  0.00    -0.274 OA
ATOM     25  N   UNL     1       5.590   1.348  -3.683  1.00  0.00    -0.326 N 
ATOM     26  H   UNL     1       5.051   2.098  -3.341  1.00  0.00     0.169 HD
BRANCH  25  27
ATOM     27  C   UNL     1       5.784   1.358  -5.068  1.00  0.00     0.048 A 
ATOM     28  C   UNL     1       6.378   2.475  -5.659  1.00  0.00     0.026 A 
ATOM     29  C   UNL     1       5.363   0.305  -5.872  1.00  0.00     0.111 A 
ATOM     30  C   UNL     1       6.702   2.461  -7.020  1.00  0.00     0.009 A 
ATOM     31  C   UNL     1       5.743   0.262  -7.216  1.00  0.00     0.271 A 
ATOM     32  C   UNL     1       6.422   1.336  -7.797  1.00  0.00     0.086 A 
BRANCH  31  33
ATOM     33  N   UNL     1       5.490  -0.955  -7.993  1.00  0.00     0.062 N 
ATOM     34  O   UNL     1       6.031  -1.053  -9.104  1.00  0.00    -0.258 OA
ATOM     35  O   UNL     1       4.794  -1.838  -7.473  1.00  0.00    -0.258 OA
ENDBRANCH  31  33
ENDBRANCH  25  27
ENDBRANCH  19  23
ENDBRANCH  14  17
ENDBRANCH  12  13
ENDBRANCH   5   7
ENDBRANCH   4   5
ENDBRANCH   3   4
ENDBRANCH   2   3
ENDBRANCH   1   2
BRANCH   1  36
ATOM     36  C   UNL     1      12.063  -6.443  -4.210  1.00  0.00     0.188 C 
BRANCH  36  37
ATOM     37  C   UNL     1      12.215  -6.440  -5.732  1.00  0.00     0.188 C 
BRANCH  37  38
ATOM     38  O   UNL     1      13.203  -5.535  -6.224  1.00  0.00    -0.376 OA
BRANCH  38  39
ATOM     39  C   UNL     1      12.822  -4.162  -6.328  1.00  0.00     0.202 C 
BRANCH  39  40
ATOM     40  C   UNL     1      11.878  -3.831  -7.488  1.00  0.00     0.261 C 
BRANCH  40  41
ATOM     41  O   UNL     1      10.520  -4.221  -7.203  1.00  0.00    -0.460 OA
BRANCH  41  42
ATOM     42  C   UNL     1       9.966  -5.073  -8.096  1.00  0.00     0.338 C 
ATOM     43  O   UNL     1      10.476  -5.538  -9.099  1.00  0.00    -0.246 OA
BRANCH  42  44
ATOM     44  C   UNL     1       8.610  -5.446  -7.663  1.00  0.00     0.060 A 
ATOM     45  C   UNL     1       8.385  -6.740  -7.181  1.00  0.00     0.016 A 
ATOM     46  C   UNL     1       7.542  -4.587  -7.924  1.00  0.00     0.016 A 
ATOM     47  C   UNL     1       7.077  -7.202  -7.016  1.00  0.00     0.010 A 
ATOM     48  C   UNL     1       6.235  -5.049  -7.747  1.00  0.00     0.010 A 
ATOM     49  C   UNL     1       5.994  -6.373  -7.341  1.00  0.00    -0.014 A 
BRANCH  49  50
ATOM     50  C   UNL     1       4.618  -6.926  -7.426  1.00  0.00     0.031 A 
ATOM     51  C   UNL     1       4.022  -7.207  -8.782  1.00  0.00     0.074 A 
ATOM     52  C   UNL     1       3.897  -7.171  -6.318  1.00  0.00     0.049 A 
ATOM     53  N   UNL     1       2.816  -7.613  -9.093  1.00  0.00    -0.248 NA
ATOM     54  C   UNL     1       4.904  -6.998  -9.942  1.00  0.00     0.031 C 
ATOM     55  C   UNL     1       4.356  -6.970  -4.945  1.00  0.00     0.029 A 
ATOM     56  N   UNL     1       2.610  -7.631  -6.181  1.00  0.00    -0.354 N 
ATOM     57  C   UNL     1       2.789  -7.688 -10.480  1.00  0.00     0.074 A 
ATOM     58  C   UNL     1       4.090  -7.267 -10.953  1.00  0.00     0.031 C 
ATOM     59  C   UNL     1       3.360  -7.293  -4.103  1.00  0.00     0.029 A 
ATOM     60  C   UNL     1       2.185  -7.692  -4.878  1.00  0.00     0.049 A 
ATOM     61  H   UNL     1       2.047  -7.893  -6.944  1.00  0.00     0.167 HD
ATOM     62  C   UNL     1       1.777  -8.081 -11.290  1.00  0.00     0.037 A 
ATOM     63  C   UNL     1       0.979  -8.009  -4.369  1.00  0.00     0.037 A 
ATOM     64  C   UNL     1       0.485  -8.516 -10.831  1.00  0.00     0.049 A 
ATOM     65  C   UNL     1      -0.148  -8.390  -5.291  1.00  0.00     0.074 A 
ATOM     66  C   UNL     1      -0.589  -8.968 -11.578  1.00  0.00     0.029 A 
ATOM     67  N   UNL     1       0.091  -8.548  -9.503  1.00  0.00    -0.354 N 
ATOM     68  N   UNL     1      -0.153  -8.489  -6.598  1.00  0.00    -0.248 NA
ATOM     69  C   UNL     1      -1.442  -8.705  -4.664  1.00  0.00     0.031 C 
ATOM     70  C   UNL     1      -1.647  -9.239 -10.704  1.00  0.00     0.029 A 
ATOM     71  C   UNL     1      -1.217  -8.993  -9.410  1.00  0.00     0.049 A 
ATOM     72  H   UNL     1       0.657  -8.292  -8.739  1.00  0.00     0.167 HD
ATOM     73  C   UNL     1      -1.434  -8.900  -6.946  1.00  0.00     0.074 A 
ATOM     74  C   UNL     1      -2.179  -9.042  -5.713  1.00  0.00     0.031 C 
ATOM     75  C   UNL     1      -1.946  -9.141  -8.178  1.00  0.00     0.037 A 
BRANCH  62  76
ATOM     76  C   UNL     1       2.025  -8.046 -12.769  1.00  0.00     0.057 A 
ATOM     77  C   UNL     1       2.834  -8.996 -13.404  1.00  0.00     0.134 A 
ATOM     78  C   UNL     1       1.417  -7.072 -13.571  1.00  0.00     0.134 A 
ATOM     79  F   UNL     1       3.453  -9.948 -12.689  1.00  0.00    -0.206 F 
ATOM     80  C   UNL     1       3.046  -8.967 -14.783  1.00  0.00     0.040 A 
ATOM     81  C   UNL     1       1.604  -7.046 -14.954  1.00  0.00     0.040 A 
ATOM     82  F   UNL     1       0.624  -6.137 -13.025  1.00  0.00    -0.206 F 
ATOM     83  C   UNL     1       2.425  -7.993 -15.563  1.00  0.00     0.006 A 
ENDBRANCH  62  76
BRANCH  63  84
ATOM     84  C   UNL     1       0.761  -7.969  -2.902  1.00  0.00     0.057 A 
ATOM     85  C   UNL     1       0.596  -9.146  -2.164  1.00  0.00     0.134 A 
ATOM     86  C   UNL     1       0.690  -6.755  -2.210  1.00  0.00     0.134 A 
ATOM     87  F   UNL     1       0.630 -10.338  -2.778  1.00  0.00    -0.206 F 
ATOM     88  C   UNL     1       0.352  -9.117  -0.790  1.00  0.00     0.040 A 
ATOM     89  C   UNL     1       0.467  -6.712  -0.834  1.00  0.00     0.040 A 
ATOM     90  F   UNL     1       0.844  -5.594  -2.863  1.00  0.00    -0.206 F 
ATOM     91  C   UNL     1       0.291  -7.896  -0.121  1.00  0.00     0.006 A 
ENDBRANCH  63  84
BRANCH  75  92
ATOM     92  C   UNL     1      -3.365  -9.619  -8.255  1.00  0.00     0.057 A 
ATOM     93  C   UNL     1      -4.447  -8.754  -8.050  1.00  0.00     0.134 A 
ATOM     94  C   UNL     1      -3.653 -10.950  -8.583  1.00  0.00     0.134 A 
ATOM     95  F   UNL     1      -4.239  -7.470  -7.721  1.00  0.00    -0.206 F 
ATOM     96  C   UNL     1      -5.766  -9.201  -8.152  1.00  0.00     0.040 A 
ATOM     97  C   UNL     1      -4.967 -11.403  -8.709  1.00  0.00     0.040 A 
ATOM     98  F   UNL     1      -2.661 -11.827  -8.801  1.00  0.00    -0.206 F 
ATOM     99  C   UNL     1      -6.028 -10.528  -8.489  1.00  0.00     0.006 A 
ENDBRANCH  75  92
ENDBRANCH  49  50
ENDBRANCH  42  44
ENDBRANCH  41  42
ENDBRANCH  40  41
ENDBRANCH  39  40
ENDBRANCH  38  39
ENDBRANCH  37  38
ENDBRANCH  36  37
ENDBRANCH   1  36
TORSDOF 22
