REMARK SMILES Cc1cc(C(=O)Nc2cccc(C(=O)NCC(=O)OCCOCCOCCOC(=O)c3ccc(-c4c5nc(c(-c6c(F)cccc6F)c6ccc([nH]6)c(-c6c(F)cccc6F)c6nc(c(-c7c(F)cccc7F)c7ccc4[nH]7)C=C6)C=C5)cc3)c2)no1
REMARK SMILES IDX 23 1 22 2 21 3 20 4 19 5 17 6 18 7 16 8 15 9 13 10 14 11
REMARK SMILES IDX 12 13 8 14 9 15 85 16 10 17 11 18 7 19 5 20 6 21 4 23 1 24
REMARK SMILES IDX 2 25 3 26 87 27 86 28 24 29 25 30 26 31 27 32 28 33 29 34
REMARK SMILES IDX 30 35 31 36 32 37 84 38 33 39 83 40 34 41 35 42 36 43 77 44
REMARK SMILES IDX 37 45 82 46 76 47 78 48 38 49 81 50 75 51 74 52 39 54 65 55
REMARK SMILES IDX 48 56 64 57 49 58 52 59 63 60 79 61 50 62 51 63 62 65 80 66
REMARK SMILES IDX 53 67 40 68 41 69 46 70 42 71 43 72 45 73 47 74 44 75 66 76
REMARK SMILES IDX 67 77 72 78 68 79 69 80 71 81 73 82 70 83 54 84 55 85 60 86
REMARK SMILES IDX 56 87 57 88 59 89 61 90 58 91
REMARK H PARENT 15 12 7 22 78 53 52 64
REMARK Flexibility Score: inf
ROOT
ATOM      1  C   UNL     1       0.223  -0.282   6.084  1.00  0.00     0.188 C 
ENDROOT
BRANCH   1   2
ATOM      2  O   UNL     1      -0.831  -0.622   6.972  1.00  0.00    -0.376 OA
BRANCH   2   3
ATOM      3  C   UNL     1      -1.480  -1.886   6.847  1.00  0.00     0.202 C 
BRANCH   3   4
ATOM      4  C   UNL     1      -1.975  -2.358   5.468  1.00  0.00     0.261 C 
BRANCH   4   5
ATOM      5  O   UNL     1      -0.936  -2.478   4.475  1.00  0.00    -0.462 OA
BRANCH   5   6
ATOM      6  C   UNL     1      -1.025  -1.643   3.408  1.00  0.00     0.325 C 
ATOM      7  O   UNL     1      -1.977  -0.906   3.183  1.00  0.00    -0.250 OA
BRANCH   6   8
ATOM      8  C   UNL     1       0.271  -1.582   2.579  1.00  0.00     0.239 C 
BRANCH   8   9
ATOM      9  N   UNL     1       1.254  -2.664   2.652  1.00  0.00    -0.341 N 
ATOM     10  C   UNL     1       1.426  -3.818   1.937  1.00  0.00     0.251 C 
ATOM     11  O   UNL     1       2.456  -4.461   2.142  1.00  0.00    -0.269 OA
ATOM     12  H   UNL     1       1.928  -2.535   3.358  1.00  0.00     0.164 HD
BRANCH  10  13
ATOM     13  C   UNL     1       0.480  -4.279   0.886  1.00  0.00     0.041 A 
ATOM     14  C   UNL     1      -1.505  -3.973  -0.469  1.00  0.00     0.042 A 
ATOM     15  C   UNL     1      -1.146  -5.043  -1.277  1.00  0.00     0.026 A 
ATOM     16  C   UNL     1      -0.770  -3.708   0.679  1.00  0.00     0.040 A 
ATOM     17  C   UNL     1       0.056  -5.711  -1.029  1.00  0.00     0.003 A 
ATOM     18  C   UNL     1       0.888  -5.298   0.017  1.00  0.00     0.014 A 
BRANCH  14  19
ATOM     19  N   UNL     1      -2.580  -3.147  -0.822  1.00  0.00    -0.321 N 
ATOM     20  C   UNL     1      -2.703  -1.766  -0.671  1.00  0.00     0.277 C 
ATOM     21  O   UNL     1      -3.840  -1.292  -0.714  1.00  0.00    -0.267 OA
ATOM     22  H   UNL     1      -3.351  -3.602  -1.231  1.00  0.00     0.170 HD
BRANCH  20  23
ATOM     23  C   UNL     1      -1.496  -0.909  -0.575  1.00  0.00     0.171 A 
ATOM     24  C   UNL     1       2.014   0.227  -0.432  1.00  0.00     0.091 C 
ATOM     25  C   UNL     1       0.573  -0.079  -0.537  1.00  0.00     0.134 A 
ATOM     26  C   UNL     1      -0.158  -1.135  -1.028  1.00  0.00     0.082 A 
ATOM     27  O   UNL     1      -0.278   0.803   0.048  1.00  0.00    -0.361 OA
ATOM     28  N   UNL     1      -1.564   0.302   0.011  1.00  0.00    -0.074 NA
ENDBRANCH  20  23
ENDBRANCH  14  19
ENDBRANCH  10  13
ENDBRANCH   8   9
ENDBRANCH   6   8
ENDBRANCH   5   6
ENDBRANCH   4   5
ENDBRANCH   3   4
ENDBRANCH   2   3
ENDBRANCH   1   2
BRANCH   1  29
ATOM     29  C   UNL     1       1.317  -1.318   5.796  1.00  0.00     0.188 C 
BRANCH  29  30
ATOM     30  O   UNL     1       1.131  -2.578   6.373  1.00  0.00    -0.376 OA
BRANCH  30  31
ATOM     31  C   UNL     1       1.966  -2.977   7.442  1.00  0.00     0.202 C 
BRANCH  31  32
ATOM     32  C   UNL     1       2.533  -1.982   8.477  1.00  0.00     0.261 C 
BRANCH  32  33
ATOM     33  O   UNL     1       2.728  -0.614   8.081  1.00  0.00    -0.460 OA
BRANCH  33  34
ATOM     34  C   UNL     1       3.862  -0.311   7.405  1.00  0.00     0.338 C 
ATOM     35  O   UNL     1       4.758  -1.082   7.092  1.00  0.00    -0.246 OA
BRANCH  34  36
ATOM     36  C   UNL     1       3.714   1.062   6.863  1.00  0.00     0.060 A 
ATOM     37  C   UNL     1       3.724   1.263   5.471  1.00  0.00     0.016 A 
ATOM     38  C   UNL     1       3.544   2.145   7.725  1.00  0.00     0.016 A 
ATOM     39  C   UNL     1       3.594   2.550   4.941  1.00  0.00     0.010 A 
ATOM     40  C   UNL     1       3.447   3.435   7.195  1.00  0.00     0.010 A 
ATOM     41  C   UNL     1       3.505   3.648   5.804  1.00  0.00    -0.014 A 
BRANCH  41  42
ATOM     42  C   UNL     1       3.712   5.029   5.300  1.00  0.00     0.031 A 
ATOM     43  C   UNL     1       5.084   5.630   5.449  1.00  0.00     0.074 A 
ATOM     44  C   UNL     1       2.717   5.755   4.761  1.00  0.00     0.049 A 
ATOM     45  N   UNL     1       5.483   6.861   5.259  1.00  0.00    -0.248 NA
ATOM     46  C   UNL     1       6.148   4.711   5.888  1.00  0.00     0.031 C 
ATOM     47  C   UNL     1       1.361   5.279   4.502  1.00  0.00     0.029 A 
ATOM     48  N   UNL     1       2.697   7.069   4.359  1.00  0.00    -0.354 N 
ATOM     49  C   UNL     1       6.835   6.869   5.578  1.00  0.00     0.074 A 
ATOM     50  C   UNL     1       7.183   5.528   5.994  1.00  0.00     0.031 C 
ATOM     51  C   UNL     1       0.630   6.297   4.011  1.00  0.00     0.029 A 
ATOM     52  C   UNL     1       1.455   7.504   3.967  1.00  0.00     0.049 A 
ATOM     53  H   UNL     1       3.497   7.643   4.354  1.00  0.00     0.167 HD
ATOM     54  C   UNL     1       7.709   7.902   5.530  1.00  0.00     0.037 A 
ATOM     55  C   UNL     1       1.027   8.743   3.648  1.00  0.00     0.037 A 
ATOM     56  C   UNL     1       7.360   9.236   5.121  1.00  0.00     0.049 A 
ATOM     57  C   UNL     1       1.997   9.899   3.687  1.00  0.00     0.074 A 
ATOM     58  C   UNL     1       8.177  10.349   5.027  1.00  0.00     0.029 A 
ATOM     59  N   UNL     1       6.088   9.639   4.746  1.00  0.00    -0.354 N 
ATOM     60  N   UNL     1       3.275   9.901   3.982  1.00  0.00    -0.248 NA
ATOM     61  C   UNL     1       1.462  11.227   3.348  1.00  0.00     0.031 C 
ATOM     62  C   UNL     1       7.386  11.439   4.652  1.00  0.00     0.029 A 
ATOM     63  C   UNL     1       6.091  10.991   4.445  1.00  0.00     0.049 A 
ATOM     64  H   UNL     1       5.299   9.051   4.701  1.00  0.00     0.167 HD
ATOM     65  C   UNL     1       3.703  11.216   3.825  1.00  0.00     0.074 A 
ATOM     66  C   UNL     1       2.550  11.982   3.404  1.00  0.00     0.031 C 
ATOM     67  C   UNL     1       4.940  11.740   4.008  1.00  0.00     0.037 A 
BRANCH  54  68
ATOM     68  C   UNL     1       9.120   7.634   5.969  1.00  0.00     0.057 A 
ATOM     69  C   UNL     1       9.994   6.836   5.219  1.00  0.00     0.134 A 
ATOM     70  C   UNL     1       9.616   8.201   7.149  1.00  0.00     0.134 A 
ATOM     71  F   UNL     1       9.577   6.247   4.087  1.00  0.00    -0.206 F 
ATOM     72  C   UNL     1      11.302   6.591   5.641  1.00  0.00     0.040 A 
ATOM     73  C   UNL     1      10.931   7.989   7.565  1.00  0.00     0.040 A 
ATOM     74  F   UNL     1       8.834   8.977   7.914  1.00  0.00    -0.206 F 
ATOM     75  C   UNL     1      11.776   7.176   6.814  1.00  0.00     0.006 A 
ENDBRANCH  54  68
BRANCH  55  76
ATOM     76  C   UNL     1      -0.397   8.974   3.288  1.00  0.00     0.057 A 
ATOM     77  C   UNL     1      -0.763   9.361   1.994  1.00  0.00     0.134 A 
ATOM     78  C   UNL     1      -1.421   8.851   4.236  1.00  0.00     0.134 A 
ATOM     79  F   UNL     1       0.174   9.527   1.049  1.00  0.00    -0.206 F 
ATOM     80  C   UNL     1      -2.090   9.637   1.659  1.00  0.00     0.040 A 
ATOM     81  C   UNL     1      -2.756   9.095   3.908  1.00  0.00     0.040 A 
ATOM     82  F   UNL     1      -1.138   8.490   5.496  1.00  0.00    -0.206 F 
ATOM     83  C   UNL     1      -3.092   9.498   2.617  1.00  0.00     0.006 A 
ENDBRANCH  55  76
BRANCH  67  84
ATOM     84  C   UNL     1       5.136  13.197   3.694  1.00  0.00     0.057 A 
ATOM     85  C   UNL     1       4.606  14.214   4.497  1.00  0.00     0.134 A 
ATOM     86  C   UNL     1       5.917  13.585   2.596  1.00  0.00     0.134 A 
ATOM     87  F   UNL     1       3.841  13.914   5.559  1.00  0.00    -0.206 F 
ATOM     88  C   UNL     1       4.825  15.562   4.207  1.00  0.00     0.040 A 
ATOM     89  C   UNL     1       6.169  14.928   2.314  1.00  0.00     0.040 A 
ATOM     90  F   UNL     1       6.467  12.663   1.791  1.00  0.00    -0.206 F 
ATOM     91  C   UNL     1       5.616  15.922   3.117  1.00  0.00     0.006 A 
ENDBRANCH  67  84
ENDBRANCH  41  42
ENDBRANCH  34  36
ENDBRANCH  33  34
ENDBRANCH  32  33
ENDBRANCH  31  32
ENDBRANCH  30  31
ENDBRANCH  29  30
ENDBRANCH   1  29
TORSDOF 21
