REMARK SMILES CCC([NH3+])(CC)C(=O)N1CCC(CC(=O)OCCOCCOCCOC(=O)c2ccc(-c3c4nc(c(-c5c(F)cccc5F)c5ccc([nH]5)c(-c5c(F)cccc5F)c5nc(c(-c6c(F)cccc6F)c6ccc3[nH]6)C=C5)C=C4)cc2)CC1
REMARK SMILES IDX 20 1 19 2 18 3 17 4 16 5 14 6 15 7 13 8 12 9 7 10 8 11 9 12
REMARK SMILES IDX 10 13 83 14 11 15 82 16 3 17 2 18 1 19 4 20 5 24 6 25 21 26
REMARK SMILES IDX 22 27 23 28 24 29 25 30 26 31 27 32 28 33 29 34 81 35 30 36
REMARK SMILES IDX 80 37 31 38 32 39 33 40 74 41 34 42 79 43 73 44 75 45 35 46
REMARK SMILES IDX 78 47 72 48 71 49 36 51 62 52 45 53 61 54 46 55 49 56 60 57
REMARK SMILES IDX 76 58 47 59 48 60 59 62 77 63 50 64 37 65 38 66 43 67 39 68
REMARK SMILES IDX 40 69 42 70 44 71 41 72 63 73 64 74 69 75 65 76 66 77 68 78
REMARK SMILES IDX 70 79 67 80 51 81 52 82 57 83 53 84 54 85 56 86 58 87 55 88
REMARK H PARENT 4 21 4 22 4 23 75 50 49 61
REMARK Flexibility Score: inf
ROOT
ATOM      1  C   UNL     1       8.605  -2.903  -6.827  1.00  0.00     0.188 C 
ENDROOT
BRANCH   1   2
ATOM      2  O   UNL     1       9.978  -2.943  -6.454  1.00  0.00    -0.376 OA
BRANCH   2   3
ATOM      3  C   UNL     1      10.260  -2.834  -5.058  1.00  0.00     0.202 C 
BRANCH   3   4
ATOM      4  C   UNL     1       9.864  -1.508  -4.392  1.00  0.00     0.261 C 
BRANCH   4   5
ATOM      5  O   UNL     1       8.469  -1.172  -4.551  1.00  0.00    -0.463 OA
BRANCH   5   6
ATOM      6  C   UNL     1       8.204   0.021  -5.142  1.00  0.00     0.306 C 
ATOM      7  O   UNL     1       9.058   0.834  -5.482  1.00  0.00    -0.252 OA
BRANCH   6   8
ATOM      8  C   UNL     1       6.738   0.254  -5.464  1.00  0.00     0.126 C 
BRANCH   8   9
ATOM      9  C   UNL     1       5.645  -0.701  -4.950  1.00  0.00     0.003 C 
ATOM     10  C   UNL     1       2.571  -0.128  -2.525  1.00  0.00     0.283 C 
ATOM     11  O   UNL     1       3.256   0.545  -1.749  1.00  0.00    -0.268 OA
ATOM     12  N   UNL     1       3.187  -1.036  -3.393  1.00  0.00    -0.337 N 
ATOM     13  C   UNL     1       4.433  -1.642  -2.943  1.00  0.00     0.120 C 
ATOM     14  C   UNL     1       3.078  -0.952  -4.843  1.00  0.00     0.120 C 
ATOM     15  C   UNL     1       5.644  -0.843  -3.420  1.00  0.00     0.026 C 
ATOM     16  C   UNL     1       4.264  -0.172  -5.426  1.00  0.00     0.026 C 
BRANCH  10  17
ATOM     17  C   UNL     1       0.992  -0.111  -2.451  1.00  0.00     0.173 C 
BRANCH  17  18
ATOM     18  C   UNL     1       0.525   0.619  -1.151  1.00  0.00     0.075 C 
ATOM     19  C   UNL     1       0.904  -0.031   0.180  1.00  0.00     0.011 C 
ENDBRANCH  17  18
BRANCH  17  20
ATOM     20  N   UNL     1       0.509  -1.520  -2.415  1.00  0.00    -0.345 N 
ATOM     21  H   UNL     1      -0.510  -1.529  -2.367  1.00  0.00     0.345 HD
ATOM     22  H   UNL     1       0.892  -1.990  -1.594  1.00  0.00     0.345 HD
ATOM     23  H   UNL     1       0.814  -2.006  -3.258  1.00  0.00     0.345 HD
ENDBRANCH  17  20
BRANCH  17  24
ATOM     24  C   UNL     1       0.298   0.568  -3.655  1.00  0.00     0.075 C 
ATOM     25  C   UNL     1       0.828   1.956  -3.995  1.00  0.00     0.011 C 
ENDBRANCH  17  24
ENDBRANCH  10  17
ENDBRANCH   8   9
ENDBRANCH   6   8
ENDBRANCH   5   6
ENDBRANCH   4   5
ENDBRANCH   3   4
ENDBRANCH   2   3
ENDBRANCH   1   2
BRANCH   1  26
ATOM     26  C   UNL     1       7.715  -3.972  -6.193  1.00  0.00     0.188 C 
BRANCH  26  27
ATOM     27  O   UNL     1       7.770  -4.064  -4.778  1.00  0.00    -0.376 OA
BRANCH  27  28
ATOM     28  C   UNL     1       7.042  -5.133  -4.168  1.00  0.00     0.202 C 
BRANCH  28  29
ATOM     29  C   UNL     1       7.149  -6.545  -4.789  1.00  0.00     0.261 C 
BRANCH  29  30
ATOM     30  O   UNL     1       6.785  -6.672  -6.182  1.00  0.00    -0.460 OA
BRANCH  30  31
ATOM     31  C   UNL     1       5.602  -6.157  -6.590  1.00  0.00     0.338 C 
ATOM     32  O   UNL     1       4.688  -5.787  -5.872  1.00  0.00    -0.246 OA
BRANCH  31  33
ATOM     33  C   UNL     1       5.702  -5.837  -8.045  1.00  0.00     0.060 A 
ATOM     34  C   UNL     1       5.108  -4.649  -8.500  1.00  0.00     0.016 A 
ATOM     35  C   UNL     1       6.433  -6.625  -8.940  1.00  0.00     0.016 A 
ATOM     36  C   UNL     1       5.210  -4.269  -9.842  1.00  0.00     0.010 A 
ATOM     37  C   UNL     1       6.520  -6.253 -10.290  1.00  0.00     0.010 A 
ATOM     38  C   UNL     1       5.882  -5.089 -10.757  1.00  0.00    -0.014 A 
BRANCH  38  39
ATOM     39  C   UNL     1       5.736  -4.847 -12.218  1.00  0.00     0.031 A 
ATOM     40  C   UNL     1       4.707  -5.651 -12.971  1.00  0.00     0.074 A 
ATOM     41  C   UNL     1       6.462  -3.922 -12.874  1.00  0.00     0.049 A 
ATOM     42  N   UNL     1       4.426  -5.661 -14.248  1.00  0.00    -0.248 NA
ATOM     43  C   UNL     1       3.885  -6.568 -12.166  1.00  0.00     0.031 C 
ATOM     44  C   UNL     1       7.452  -3.035 -12.271  1.00  0.00     0.029 A 
ATOM     45  N   UNL     1       6.475  -3.586 -14.208  1.00  0.00    -0.354 N 
ATOM     46  C   UNL     1       3.402  -6.588 -14.401  1.00  0.00     0.074 A 
ATOM     47  C   UNL     1       3.133  -7.141 -13.092  1.00  0.00     0.031 C 
ATOM     48  C   UNL     1       7.988  -2.263 -13.235  1.00  0.00     0.029 A 
ATOM     49  C   UNL     1       7.405  -2.625 -14.527  1.00  0.00     0.049 A 
ATOM     50  H   UNL     1       5.875  -3.996 -14.872  1.00  0.00     0.167 HD
ATOM     51  C   UNL     1       2.737  -6.943 -15.526  1.00  0.00     0.037 A 
ATOM     52  C   UNL     1       7.761  -2.117 -15.725  1.00  0.00     0.037 A 
ATOM     53  C   UNL     1       2.999  -6.402 -16.833  1.00  0.00     0.049 A 
ATOM     54  C   UNL     1       7.072  -2.598 -16.980  1.00  0.00     0.074 A 
ATOM     55  C   UNL     1       2.368  -6.696 -18.029  1.00  0.00     0.029 A 
ATOM     56  N   UNL     1       3.979  -5.464 -17.118  1.00  0.00    -0.354 N 
ATOM     57  N   UNL     1       6.093  -3.460 -17.110  1.00  0.00    -0.248 NA
ATOM     58  C   UNL     1       7.541  -2.032 -18.255  1.00  0.00     0.031 C 
ATOM     59  C   UNL     1       3.004  -5.980 -19.047  1.00  0.00     0.029 A 
ATOM     60  C   UNL     1       3.989  -5.191 -18.477  1.00  0.00     0.049 A 
ATOM     61  H   UNL     1       4.579  -5.053 -16.454  1.00  0.00     0.167 HD
ATOM     62  C   UNL     1       5.808  -3.514 -18.472  1.00  0.00     0.074 A 
ATOM     63  C   UNL     1       6.710  -2.590 -19.125  1.00  0.00     0.031 C 
ATOM     64  C   UNL     1       4.880  -4.260 -19.120  1.00  0.00     0.037 A 
BRANCH  51  65
ATOM     65  C   UNL     1       1.676  -7.997 -15.394  1.00  0.00     0.057 A 
ATOM     66  C   UNL     1       0.458  -7.750 -14.749  1.00  0.00     0.134 A 
ATOM     67  C   UNL     1       1.868  -9.271 -15.945  1.00  0.00     0.134 A 
ATOM     68  F   UNL     1       0.218  -6.556 -14.184  1.00  0.00    -0.206 F 
ATOM     69  C   UNL     1      -0.521  -8.738 -14.634  1.00  0.00     0.040 A 
ATOM     70  C   UNL     1       0.885 -10.258 -15.864  1.00  0.00     0.040 A 
ATOM     71  F   UNL     1       3.011  -9.573 -16.580  1.00  0.00    -0.206 F 
ATOM     72  C   UNL     1      -0.311  -9.994 -15.200  1.00  0.00     0.006 A 
ENDBRANCH  51  65
BRANCH  52  73
ATOM     73  C   UNL     1       8.847  -1.104 -15.818  1.00  0.00     0.057 A 
ATOM     74  C   UNL     1       8.586   0.210 -16.224  1.00  0.00     0.134 A 
ATOM     75  C   UNL     1      10.180  -1.440 -15.550  1.00  0.00     0.134 A 
ATOM     76  F   UNL     1       7.335   0.587 -16.527  1.00  0.00    -0.206 F 
ATOM     77  C   UNL     1       9.610   1.147 -16.377  1.00  0.00     0.040 A 
ATOM     78  C   UNL     1      11.210  -0.506 -15.671  1.00  0.00     0.040 A 
ATOM     79  F   UNL     1      10.501  -2.685 -15.166  1.00  0.00    -0.206 F 
ATOM     80  C   UNL     1      10.927   0.791 -16.095  1.00  0.00     0.006 A 
ENDBRANCH  52  73
BRANCH  64  81
ATOM     81  C   UNL     1       4.752  -4.081 -20.608  1.00  0.00     0.057 A 
ATOM     82  C   UNL     1       5.726  -4.544 -21.502  1.00  0.00     0.134 A 
ATOM     83  C   UNL     1       3.609  -3.481 -21.155  1.00  0.00     0.134 A 
ATOM     84  F   UNL     1       6.849  -5.119 -21.046  1.00  0.00    -0.206 F 
ATOM     85  C   UNL     1       5.579  -4.396 -22.883  1.00  0.00     0.040 A 
ATOM     86  C   UNL     1       3.437  -3.355 -22.535  1.00  0.00     0.040 A 
ATOM     87  F   UNL     1       2.630  -3.026 -20.358  1.00  0.00    -0.206 F 
ATOM     88  C   UNL     1       4.428  -3.808 -23.403  1.00  0.00     0.006 A 
ENDBRANCH  64  81
ENDBRANCH  38  39
ENDBRANCH  31  33
ENDBRANCH  30  31
ENDBRANCH  29  30
ENDBRANCH  28  29
ENDBRANCH  27  28
ENDBRANCH  26  27
ENDBRANCH   1  26
TORSDOF 22
