REMARK SMILES CN(C)c1ccc(CCC(=O)N2C[C@@H](C(=O)OCCOCCOCCOC(=O)c3ccc(-c4c5nc(c(-c6c(F)cccc6F)c6ccc([nH]6)c(-c6c(F)cccc6F)c6nc(c(-c7c(F)cccc7F)c7ccc4[nH]7)C=C6)C=C5)cc3)[C@H](c3cccnc3)C2)cc1
REMARK SMILES IDX 20 1 19 2 18 3 17 4 15 5 16 6 14 7 12 8 13 9 90 10 83 11
REMARK SMILES IDX 10 12 11 13 9 14 8 15 7 16 4 17 5 18 92 19 6 20 91 21 2 22
REMARK SMILES IDX 1 23 3 24 84 25 85 26 89 27 86 28 88 29 87 30 21 31 22 32
REMARK SMILES IDX 23 33 24 34 25 35 26 36 27 37 28 38 29 39 30 40 82 41 31 42
REMARK SMILES IDX 81 43 32 44 33 45 34 46 75 47 35 48 80 49 74 50 76 51 36 52
REMARK SMILES IDX 79 53 73 54 72 55 37 57 63 58 46 59 62 60 47 61 50 62 61 63
REMARK SMILES IDX 77 64 48 65 49 66 60 68 78 69 51 70 38 71 39 72 44 73 40 74
REMARK SMILES IDX 41 75 43 76 45 77 42 78 64 79 65 80 70 81 66 82 67 83 69 84
REMARK SMILES IDX 71 85 68 86 52 87 53 88 58 89 54 90 55 91 57 92 59 93 56 94
REMARK H PARENT 76 56 50 67
REMARK Flexibility Score: inf
ROOT
ATOM      1  O   UNL     1      -3.084   0.598   0.591  1.00  0.00    -0.376 OA
ENDROOT
BRANCH   1   2
ATOM      2  C   UNL     1      -2.262   0.571  -0.568  1.00  0.00     0.202 C 
BRANCH   2   3
ATOM      3  C   UNL     1      -0.801   0.901  -0.285  1.00  0.00     0.261 C 
BRANCH   3   4
ATOM      4  O   UNL     1      -0.573   2.237   0.207  1.00  0.00    -0.463 OA
BRANCH   4   5
ATOM      5  C   UNL     1      -0.494   3.241  -0.689  1.00  0.00     0.311 C 
ATOM      6  O   UNL     1      -0.760   3.100  -1.877  1.00  0.00    -0.252 OA
BRANCH   5   7
ATOM      7  C   UNL     1      -0.078   4.577  -0.078  1.00  0.00     0.128 C 
ATOM      8  N   UNL     1       0.147   5.704   2.009  1.00  0.00    -0.341 N 
ATOM      9  C   UNL     1       0.579   4.525   1.291  1.00  0.00     0.135 C 
ATOM     10  C   UNL     1      -1.104   6.198   1.469  1.00  0.00     0.128 C 
ATOM     11  C   UNL     1      -1.260   5.564   0.069  1.00  0.00     0.056 C 
BRANCH   8  12
ATOM     12  C   UNL     1       0.621   6.137   3.234  1.00  0.00     0.222 C 
ATOM     13  O   UNL     1      -0.059   6.877   3.950  1.00  0.00    -0.275 OA
BRANCH  12  14
ATOM     14  C   UNL     1       2.050   5.790   3.651  1.00  0.00     0.105 C 
BRANCH  14  15
ATOM     15  C   UNL     1       2.243   4.500   4.468  1.00  0.00     0.045 C 
BRANCH  15  16
ATOM     16  C   UNL     1       2.532   3.303   3.593  1.00  0.00    -0.047 A 
ATOM     17  C   UNL     1       2.630   1.517   1.416  1.00  0.00     0.036 A 
ATOM     18  C   UNL     1       1.694   1.347   2.446  1.00  0.00     0.026 A 
ATOM     19  C   UNL     1       3.651   2.449   1.622  1.00  0.00     0.026 A 
ATOM     20  C   UNL     1       1.633   2.238   3.524  1.00  0.00     0.006 A 
ATOM     21  C   UNL     1       3.621   3.319   2.713  1.00  0.00     0.006 A 
BRANCH  17  22
ATOM     22  N   UNL     1       2.451   0.892   0.191  1.00  0.00    -0.378 N 
ATOM     23  C   UNL     1       2.459  -0.558   0.126  1.00  0.00     0.143 C 
ATOM     24  C   UNL     1       2.679   1.642  -1.037  1.00  0.00     0.143 C 
ENDBRANCH  17  22
ENDBRANCH  15  16
ENDBRANCH  14  15
ENDBRANCH  12  14
ENDBRANCH   8  12
BRANCH  11  25
ATOM     25  C   UNL     1      -1.242   6.497  -1.129  1.00  0.00    -0.024 A 
ATOM     26  C   UNL     1      -1.755   6.040  -2.351  1.00  0.00     0.007 A 
ATOM     27  C   UNL     1      -0.601   7.733  -1.146  1.00  0.00     0.115 A 
ATOM     28  C   UNL     1      -1.575   6.782  -3.513  1.00  0.00     0.020 A 
ATOM     29  N   UNL     1      -0.434   8.488  -2.258  1.00  0.00    -0.264 NA
ATOM     30  C   UNL     1      -0.911   7.989  -3.417  1.00  0.00     0.111 A 
ENDBRANCH  11  25
ENDBRANCH   5   7
ENDBRANCH   4   5
ENDBRANCH   3   4
ENDBRANCH   2   3
ENDBRANCH   1   2
BRANCH   1  31
ATOM     31  C   UNL     1      -3.347   1.892   1.110  1.00  0.00     0.188 C 
BRANCH  31  32
ATOM     32  C   UNL     1      -2.520   2.273   2.354  1.00  0.00     0.188 C 
BRANCH  32  33
ATOM     33  O   UNL     1      -1.859   1.277   3.120  1.00  0.00    -0.376 OA
BRANCH  33  34
ATOM     34  C   UNL     1      -2.543   0.067   3.418  1.00  0.00     0.202 C 
BRANCH  34  35
ATOM     35  C   UNL     1      -3.833   0.149   4.245  1.00  0.00     0.261 C 
BRANCH  35  36
ATOM     36  O   UNL     1      -4.811   1.029   3.673  1.00  0.00    -0.460 OA
BRANCH  36  37
ATOM     37  C   UNL     1      -5.070   2.159   4.376  1.00  0.00     0.338 C 
ATOM     38  O   UNL     1      -4.678   2.447   5.495  1.00  0.00    -0.246 OA
BRANCH  37  39
ATOM     39  C   UNL     1      -5.711   3.134   3.466  1.00  0.00     0.060 A 
ATOM     40  C   UNL     1      -5.148   4.418   3.373  1.00  0.00     0.016 A 
ATOM     41  C   UNL     1      -6.803   2.778   2.673  1.00  0.00     0.016 A 
ATOM     42  C   UNL     1      -5.690   5.360   2.503  1.00  0.00     0.010 A 
ATOM     43  C   UNL     1      -7.375   3.735   1.834  1.00  0.00     0.010 A 
ATOM     44  C   UNL     1      -6.846   5.038   1.781  1.00  0.00    -0.014 A 
BRANCH  44  45
ATOM     45  C   UNL     1      -7.709   6.126   1.273  1.00  0.00     0.031 A 
ATOM     46  C   UNL     1      -8.696   6.711   2.246  1.00  0.00     0.074 A 
ATOM     47  C   UNL     1      -7.660   6.556   0.002  1.00  0.00     0.049 A 
ATOM     48  N   UNL     1      -9.663   7.565   2.044  1.00  0.00    -0.248 NA
ATOM     49  C   UNL     1      -8.575   6.255   3.643  1.00  0.00     0.031 C 
ATOM     50  C   UNL     1      -6.708   6.112  -1.013  1.00  0.00     0.029 A 
ATOM     51  N   UNL     1      -8.458   7.460  -0.651  1.00  0.00    -0.354 N 
ATOM     52  C   UNL     1     -10.268   7.738   3.282  1.00  0.00     0.074 A 
ATOM     53  C   UNL     1      -9.575   6.893   4.225  1.00  0.00     0.031 C 
ATOM     54  C   UNL     1      -6.992   6.734  -2.173  1.00  0.00     0.029 A 
ATOM     55  C   UNL     1      -8.168   7.585  -1.987  1.00  0.00     0.049 A 
ATOM     56  H   UNL     1      -9.171   7.971  -0.204  1.00  0.00     0.167 HD
ATOM     57  C   UNL     1     -11.317   8.525   3.608  1.00  0.00     0.037 A 
ATOM     58  C   UNL     1      -8.806   8.284  -2.945  1.00  0.00     0.037 A 
ATOM     59  C   UNL     1     -12.028   9.336   2.664  1.00  0.00     0.049 A 
ATOM     60  C   UNL     1     -10.036   9.079  -2.584  1.00  0.00     0.074 A 
ATOM     61  C   UNL     1     -13.120  10.156   2.877  1.00  0.00     0.029 A 
ATOM     62  N   UNL     1     -11.719   9.414   1.314  1.00  0.00    -0.354 N 
ATOM     63  N   UNL     1     -10.606   9.239  -1.413  1.00  0.00    -0.248 NA
ATOM     64  C   UNL     1     -10.719   9.782  -3.681  1.00  0.00     0.031 C 
ATOM     65  C   UNL     1     -13.498  10.700   1.645  1.00  0.00     0.029 A 
ATOM     66  C   UNL     1     -12.612  10.254   0.676  1.00  0.00     0.049 A 
ATOM     67  H   UNL     1     -10.975   8.941   0.876  1.00  0.00     0.167 HD
ATOM     68  C   UNL     1     -11.687  10.088  -1.624  1.00  0.00     0.074 A 
ATOM     69  C   UNL     1     -11.698  10.404  -3.037  1.00  0.00     0.031 C 
ATOM     70  C   UNL     1     -12.585  10.569  -0.730  1.00  0.00     0.037 A 
BRANCH  57  71
ATOM     71  C   UNL     1     -11.772   8.482   5.035  1.00  0.00     0.057 A 
ATOM     72  C   UNL     1     -11.017   9.053   6.069  1.00  0.00     0.134 A 
ATOM     73  C   UNL     1     -12.950   7.813   5.384  1.00  0.00     0.134 A 
ATOM     74  F   UNL     1      -9.861   9.679   5.801  1.00  0.00    -0.206 F 
ATOM     75  C   UNL     1     -11.403   8.931   7.404  1.00  0.00     0.040 A 
ATOM     76  C   UNL     1     -13.359   7.706   6.714  1.00  0.00     0.040 A 
ATOM     77  F   UNL     1     -13.711   7.235   4.443  1.00  0.00    -0.206 F 
ATOM     78  C   UNL     1     -12.579   8.257   7.729  1.00  0.00     0.006 A 
ENDBRANCH  57  71
BRANCH  58  79
ATOM     79  C   UNL     1      -8.311   8.258  -4.345  1.00  0.00     0.057 A 
ATOM     80  C   UNL     1      -7.725   9.390  -4.923  1.00  0.00     0.134 A 
ATOM     81  C   UNL     1      -8.429   7.115  -5.144  1.00  0.00     0.134 A 
ATOM     82  F   UNL     1      -7.610  10.524  -4.216  1.00  0.00    -0.206 F 
ATOM     83  C   UNL     1      -7.284   9.391  -6.247  1.00  0.00     0.040 A 
ATOM     84  C   UNL     1      -7.974   7.095  -6.464  1.00  0.00     0.040 A 
ATOM     85  F   UNL     1      -8.985   5.998  -4.652  1.00  0.00    -0.206 F 
ATOM     86  C   UNL     1      -7.403   8.238  -7.021  1.00  0.00     0.006 A 
ENDBRANCH  58  79
BRANCH  70  87
ATOM     87  C   UNL     1     -13.620  11.531  -1.231  1.00  0.00     0.057 A 
ATOM     88  C   UNL     1     -14.727  11.109  -1.975  1.00  0.00     0.134 A 
ATOM     89  C   UNL     1     -13.545  12.887  -0.888  1.00  0.00     0.134 A 
ATOM     90  F   UNL     1     -14.851   9.825  -2.341  1.00  0.00    -0.206 F 
ATOM     91  C   UNL     1     -15.722  12.006  -2.368  1.00  0.00     0.040 A 
ATOM     92  C   UNL     1     -14.544  13.788  -1.255  1.00  0.00     0.040 A 
ATOM     93  F   UNL     1     -12.514  13.351  -0.166  1.00  0.00    -0.206 F 
ATOM     94  C   UNL     1     -15.636  13.348  -1.999  1.00  0.00     0.006 A 
ENDBRANCH  70  87
ENDBRANCH  44  45
ENDBRANCH  37  39
ENDBRANCH  36  37
ENDBRANCH  35  36
ENDBRANCH  34  35
ENDBRANCH  33  34
ENDBRANCH  32  33
ENDBRANCH  31  32
ENDBRANCH   1  31
TORSDOF 23
