REMARK SMILES O=C(OCCOCCOCCOC(=O)c1ccc(-c2c3nc(c(-c4c(F)cccc4F)c4ccc([nH]4)c(-c4c(F)cccc4F)c4nc(c(-c5c(F)cccc5F)c5ccc2[nH]5)C=C4)C=C3)cc1)c1ccc(Cc2nc3ccccc3s2)cc1
REMARK SMILES IDX 7 1 6 2 5 3 4 4 3 5 2 6 1 7 69 8 70 9 84 10 71 11 83 12
REMARK SMILES IDX 72 13 73 14 74 15 75 16 82 17 76 18 81 19 77 20 80 21 78 22
REMARK SMILES IDX 79 23 8 24 9 25 10 26 11 27 12 28 13 29 14 30 15 31 16 32
REMARK SMILES IDX 68 33 17 34 67 35 18 36 19 37 20 38 61 39 21 40 66 41 60 42
REMARK SMILES IDX 62 43 22 44 65 45 59 46 58 47 23 49 49 50 32 51 48 52 33 53
REMARK SMILES IDX 36 54 47 55 63 56 34 57 35 58 46 60 64 61 37 62 24 63 25 64
REMARK SMILES IDX 30 65 26 66 27 67 29 68 31 69 28 70 50 71 51 72 56 73 52 74
REMARK SMILES IDX 53 75 55 76 57 77 54 78 38 79 39 80 44 81 40 82 41 83 43 84
REMARK SMILES IDX 45 85 42 86
REMARK H PARENT 62 48 36 59
REMARK Flexibility Score: inf
ROOT
ATOM      1  C   UNL     1       2.691   0.038   2.208  1.00  0.00     0.188 C 
ENDROOT
BRANCH   1   2
ATOM      2  O   UNL     1       3.776  -0.576   1.500  1.00  0.00    -0.376 OA
BRANCH   2   3
ATOM      3  C   UNL     1       4.727   0.338   0.965  1.00  0.00     0.202 C 
BRANCH   3   4
ATOM      4  C   UNL     1       4.323   1.009  -0.353  1.00  0.00     0.261 C 
BRANCH   4   5
ATOM      5  O   UNL     1       2.914   0.919  -0.630  1.00  0.00    -0.460 OA
BRANCH   5   6
ATOM      6  C   UNL     1       2.326  -0.038  -1.391  1.00  0.00     0.338 C 
ATOM      7  O   UNL     1       1.122  -0.018  -1.617  1.00  0.00    -0.246 OA
BRANCH   6   8
ATOM      8  C   UNL     1       3.154  -1.077  -2.037  1.00  0.00     0.060 A 
ATOM      9  C   UNL     1       3.827  -2.053  -1.298  1.00  0.00     0.016 A 
ATOM     10  C   UNL     1       3.179  -1.119  -3.433  1.00  0.00     0.016 A 
ATOM     11  C   UNL     1       4.609  -3.006  -1.949  1.00  0.00     0.005 A 
ATOM     12  C   UNL     1       3.942  -2.088  -4.086  1.00  0.00     0.005 A 
ATOM     13  C   UNL     1       4.686  -3.022  -3.348  1.00  0.00    -0.041 A 
BRANCH  13  14
ATOM     14  C   UNL     1       5.664  -3.947  -4.045  1.00  0.00     0.103 C 
BRANCH  14  15
ATOM     15  C   UNL     1       7.026  -3.316  -4.158  1.00  0.00     0.098 A 
ATOM     16  N   UNL     1       7.252  -2.021  -4.069  1.00  0.00    -0.241 NA
ATOM     17  S   UNL     1       8.419  -4.287  -4.412  1.00  0.00    -0.118 S 
ATOM     18  C   UNL     1       8.602  -1.762  -4.145  1.00  0.00     0.082 A 
ATOM     19  C   UNL     1       9.414  -2.879  -4.340  1.00  0.00     0.055 A 
ATOM     20  C   UNL     1       9.197  -0.490  -4.039  1.00  0.00     0.030 A 
ATOM     21  C   UNL     1      10.809  -2.764  -4.442  1.00  0.00     0.021 A 
ATOM     22  C   UNL     1      10.584  -0.365  -4.132  1.00  0.00     0.002 A 
ATOM     23  C   UNL     1      11.378  -1.490  -4.334  1.00  0.00     0.002 A 
ENDBRANCH  14  15
ENDBRANCH  13  14
ENDBRANCH   6   8
ENDBRANCH   5   6
ENDBRANCH   4   5
ENDBRANCH   3   4
ENDBRANCH   2   3
ENDBRANCH   1   2
BRANCH   1  24
ATOM     24  C   UNL     1       2.090  -0.986   3.174  1.00  0.00     0.188 C 
BRANCH  24  25
ATOM     25  O   UNL     1       2.794  -1.112   4.413  1.00  0.00    -0.376 OA
BRANCH  25  26
ATOM     26  C   UNL     1       4.179  -1.440   4.339  1.00  0.00     0.202 C 
BRANCH  26  27
ATOM     27  C   UNL     1       4.502  -2.918   4.109  1.00  0.00     0.261 C 
BRANCH  27  28
ATOM     28  O   UNL     1       4.096  -3.425   2.825  1.00  0.00    -0.460 OA
BRANCH  28  29
ATOM     29  C   UNL     1       3.096  -4.332   2.864  1.00  0.00     0.338 C 
ATOM     30  O   UNL     1       2.438  -4.683   3.838  1.00  0.00    -0.246 OA
BRANCH  29  31
ATOM     31  C   UNL     1       2.898  -4.948   1.546  1.00  0.00     0.060 A 
ATOM     32  C   UNL     1       1.764  -4.629   0.792  1.00  0.00     0.016 A 
ATOM     33  C   UNL     1       3.729  -6.006   1.171  1.00  0.00     0.016 A 
ATOM     34  C   UNL     1       1.428  -5.410  -0.319  1.00  0.00     0.010 A 
ATOM     35  C   UNL     1       3.393  -6.780   0.059  1.00  0.00     0.010 A 
ATOM     36  C   UNL     1       2.217  -6.515  -0.668  1.00  0.00    -0.014 A 
BRANCH  36  37
ATOM     37  C   UNL     1       1.788  -7.492  -1.701  1.00  0.00     0.031 A 
ATOM     38  C   UNL     1       1.264  -8.835  -1.275  1.00  0.00     0.074 A 
ATOM     39  C   UNL     1       1.940  -7.226  -3.010  1.00  0.00     0.049 A 
ATOM     40  N   UNL     1       1.041  -9.907  -1.993  1.00  0.00    -0.248 NA
ATOM     41  C   UNL     1       0.958  -8.991   0.155  1.00  0.00     0.031 C 
ATOM     42  C   UNL     1       2.386  -5.953  -3.564  1.00  0.00     0.029 A 
ATOM     43  N   UNL     1       1.774  -8.036  -4.106  1.00  0.00    -0.354 N 
ATOM     44  C   UNL     1       0.591 -10.872  -1.101  1.00  0.00     0.074 A 
ATOM     45  C   UNL     1       0.587 -10.262   0.213  1.00  0.00     0.031 C 
ATOM     46  C   UNL     1       2.512  -6.080  -4.895  1.00  0.00     0.029 A 
ATOM     47  C   UNL     1       2.189  -7.454  -5.277  1.00  0.00     0.049 A 
ATOM     48  H   UNL     1       1.395  -8.943  -4.057  1.00  0.00     0.167 HD
ATOM     49  C   UNL     1       0.214 -12.149  -1.353  1.00  0.00     0.037 A 
ATOM     50  C   UNL     1       2.336  -7.977  -6.509  1.00  0.00     0.037 A 
ATOM     51  C   UNL     1       0.202 -12.754  -2.659  1.00  0.00     0.049 A 
ATOM     52  C   UNL     1       1.976  -9.415  -6.762  1.00  0.00     0.074 A 
ATOM     53  C   UNL     1      -0.207 -14.027  -3.016  1.00  0.00     0.029 A 
ATOM     54  N   UNL     1       0.624 -12.128  -3.821  1.00  0.00    -0.354 N 
ATOM     55  N   UNL     1       1.538 -10.316  -5.918  1.00  0.00    -0.248 NA
ATOM     56  C   UNL     1       2.130  -9.909  -8.139  1.00  0.00     0.031 C 
ATOM     57  C   UNL     1       0.008 -14.186  -4.390  1.00  0.00     0.029 A 
ATOM     58  C   UNL     1       0.512 -12.998  -4.893  1.00  0.00     0.049 A 
ATOM     59  H   UNL     1       0.955 -11.203  -3.877  1.00  0.00     0.167 HD
ATOM     60  C   UNL     1       1.334 -11.472  -6.663  1.00  0.00     0.074 A 
ATOM     61  C   UNL     1       1.701 -11.159  -8.028  1.00  0.00     0.031 C 
ATOM     62  C   UNL     1       0.875 -12.678  -6.251  1.00  0.00     0.037 A 
BRANCH  49  63
ATOM     63  C   UNL     1      -0.188 -12.990  -0.178  1.00  0.00     0.057 A 
ATOM     64  C   UNL     1      -1.407 -12.805   0.485  1.00  0.00     0.134 A 
ATOM     65  C   UNL     1       0.653 -14.010   0.284  1.00  0.00     0.134 A 
ATOM     66  F   UNL     1      -2.251 -11.837   0.097  1.00  0.00    -0.206 F 
ATOM     67  C   UNL     1      -1.765 -13.588   1.584  1.00  0.00     0.040 A 
ATOM     68  C   UNL     1       0.296 -14.815   1.367  1.00  0.00     0.040 A 
ATOM     69  F   UNL     1       1.832 -14.244  -0.311  1.00  0.00    -0.206 F 
ATOM     70  C   UNL     1      -0.913 -14.599   2.025  1.00  0.00     0.006 A 
ENDBRANCH  49  63
BRANCH  50  71
ATOM     71  C   UNL     1       2.882  -7.128  -7.595  1.00  0.00     0.057 A 
ATOM     72  C   UNL     1       2.060  -6.645  -8.618  1.00  0.00     0.134 A 
ATOM     73  C   UNL     1       4.233  -6.761  -7.619  1.00  0.00     0.134 A 
ATOM     74  F   UNL     1       0.762  -6.979  -8.656  1.00  0.00    -0.206 F 
ATOM     75  C   UNL     1       2.564  -5.829  -9.632  1.00  0.00     0.040 A 
ATOM     76  C   UNL     1       4.747  -5.933  -8.617  1.00  0.00     0.040 A 
ATOM     77  F   UNL     1       5.068  -7.184  -6.657  1.00  0.00    -0.206 F 
ATOM     78  C   UNL     1       3.911  -5.466  -9.629  1.00  0.00     0.006 A 
ENDBRANCH  50  71
BRANCH  62  79
ATOM     79  C   UNL     1       0.706 -13.748  -7.288  1.00  0.00     0.057 A 
ATOM     80  C   UNL     1       1.799 -14.449  -7.812  1.00  0.00     0.134 A 
ATOM     81  C   UNL     1      -0.572 -14.121  -7.724  1.00  0.00     0.134 A 
ATOM     82  F   UNL     1       3.049 -14.131  -7.444  1.00  0.00    -0.206 F 
ATOM     83  C   UNL     1       1.627 -15.478  -8.740  1.00  0.00     0.040 A 
ATOM     84  C   UNL     1      -0.758 -15.160  -8.637  1.00  0.00     0.040 A 
ATOM     85  F   UNL     1      -1.661 -13.493  -7.256  1.00  0.00    -0.206 F 
ATOM     86  C   UNL     1       0.345 -15.841  -9.149  1.00  0.00     0.006 A 
ENDBRANCH  62  79
ENDBRANCH  36  37
ENDBRANCH  29  31
ENDBRANCH  28  29
ENDBRANCH  27  28
ENDBRANCH  26  27
ENDBRANCH  25  26
ENDBRANCH  24  25
ENDBRANCH   1  24
TORSDOF 19
