REMARK SMILES C=CCN(CC(=O)OCCOCCOCCOC(=O)c1ccc(-c2c3nc(c(-c4c(F)cccc4F)c4ccc([nH]4)c(-c4c(F)cccc4F)c4nc(c(-c5c(F)cccc5F)c5ccc2[nH]5)C=C4)C=C3)cc1)C(=O)C1C[NH2+]C1
REMARK SMILES IDX 12 1 11 2 10 3 9 4 8 5 6 6 7 7 5 8 4 9 3 10 2 11 1 12 74 13
REMARK SMILES IDX 75 14 76 15 77 16 79 17 78 18 13 21 14 22 15 23 16 24 17 25
REMARK SMILES IDX 18 26 19 27 20 28 21 29 73 30 22 31 72 32 23 33 24 34 25 35
REMARK SMILES IDX 66 36 26 37 71 38 65 39 67 40 27 41 70 42 64 43 63 44 28 46
REMARK SMILES IDX 54 47 37 48 53 49 38 50 41 51 52 52 68 53 39 54 40 55 51 57
REMARK SMILES IDX 69 58 42 59 29 60 30 61 35 62 31 63 32 64 34 65 36 66 33 67
REMARK SMILES IDX 55 68 56 69 61 70 57 71 58 72 60 73 62 74 59 75 43 76 44 77
REMARK SMILES IDX 49 78 45 79 46 80 48 81 50 82 47 83
REMARK H PARENT 78 19 78 20 67 45 41 56
REMARK Flexibility Score: inf
ROOT
ATOM      1  C   UNL     1      -4.954   2.209  -3.143  1.00  0.00     0.188 C 
ENDROOT
BRANCH   1   2
ATOM      2  O   UNL     1      -6.334   1.882  -3.012  1.00  0.00    -0.376 OA
BRANCH   2   3
ATOM      3  C   UNL     1      -6.689   1.086  -1.885  1.00  0.00     0.202 C 
BRANCH   3   4
ATOM      4  C   UNL     1      -6.193  -0.367  -1.921  1.00  0.00     0.261 C 
BRANCH   4   5
ATOM      5  O   UNL     1      -4.751  -0.476  -1.983  1.00  0.00    -0.462 OA
BRANCH   5   6
ATOM      6  C   UNL     1      -4.269  -1.473  -2.778  1.00  0.00     0.325 C 
ATOM      7  O   UNL     1      -4.973  -2.278  -3.380  1.00  0.00    -0.250 OA
BRANCH   6   8
ATOM      8  C   UNL     1      -2.739  -1.463  -2.952  1.00  0.00     0.242 C 
BRANCH   8   9
ATOM      9  N   UNL     1      -1.959  -0.606  -2.059  1.00  0.00    -0.327 N 
BRANCH   9  10
ATOM     10  C   UNL     1      -1.647  -1.114  -0.730  1.00  0.00     0.147 C 
BRANCH  10  11
ATOM     11  C   UNL     1      -0.158  -1.355  -0.681  1.00  0.00    -0.014 C 
ATOM     12  C   UNL     1       0.691  -0.664   0.093  1.00  0.00     0.006 C 
ENDBRANCH  10  11
ENDBRANCH   9  10
BRANCH   9  13
ATOM     13  C   UNL     1      -1.514   0.678  -2.359  1.00  0.00     0.237 C 
ATOM     14  O   UNL     1      -1.307   1.481  -1.435  1.00  0.00    -0.274 OA
BRANCH  13  15
ATOM     15  C   UNL     1      -1.106   1.017  -3.799  1.00  0.00     0.188 C 
ATOM     16  C   UNL     1      -2.047   1.103  -5.006  1.00  0.00     0.280 C 
ATOM     17  C   UNL     1      -0.855   2.514  -4.031  1.00  0.00     0.280 C 
ATOM     18  N   UNL     1      -1.932   2.553  -5.024  1.00  0.00    -0.345 N 
ATOM     19  H   UNL     1      -2.771   3.037  -4.702  1.00  0.00     0.346 HD
ATOM     20  H   UNL     1      -1.785   3.037  -5.910  1.00  0.00     0.346 HD
ENDBRANCH  13  15
ENDBRANCH   9  13
ENDBRANCH   8   9
ENDBRANCH   6   8
ENDBRANCH   5   6
ENDBRANCH   4   5
ENDBRANCH   3   4
ENDBRANCH   2   3
ENDBRANCH   1   2
BRANCH   1  21
ATOM     21  C   UNL     1      -4.220   2.685  -1.882  1.00  0.00     0.188 C 
BRANCH  21  22
ATOM     22  O   UNL     1      -4.910   3.676  -1.132  1.00  0.00    -0.376 OA
BRANCH  22  23
ATOM     23  C   UNL     1      -5.151   4.909  -1.808  1.00  0.00     0.202 C 
BRANCH  23  24
ATOM     24  C   UNL     1      -3.881   5.719  -2.085  1.00  0.00     0.261 C 
BRANCH  24  25
ATOM     25  O   UNL     1      -3.406   5.495  -3.430  1.00  0.00    -0.460 OA
BRANCH  25  26
ATOM     26  C   UNL     1      -2.328   6.278  -3.735  1.00  0.00     0.338 C 
ATOM     27  O   UNL     1      -1.768   7.063  -3.007  1.00  0.00    -0.246 OA
BRANCH  26  28
ATOM     28  C   UNL     1      -1.832   5.928  -5.082  1.00  0.00     0.060 A 
ATOM     29  C   UNL     1      -0.568   5.348  -5.166  1.00  0.00     0.016 A 
ATOM     30  C   UNL     1      -2.580   6.157  -6.240  1.00  0.00     0.016 A 
ATOM     31  C   UNL     1      -0.105   4.867  -6.391  1.00  0.00     0.010 A 
ATOM     32  C   UNL     1      -2.064   5.767  -7.487  1.00  0.00     0.010 A 
ATOM     33  C   UNL     1      -0.831   5.098  -7.569  1.00  0.00    -0.014 A 
BRANCH  33  34
ATOM     34  C   UNL     1      -0.164   4.823  -8.871  1.00  0.00     0.031 A 
ATOM     35  C   UNL     1       1.022   5.676  -9.239  1.00  0.00     0.074 A 
ATOM     36  C   UNL     1      -0.530   3.808  -9.678  1.00  0.00     0.049 A 
ATOM     37  N   UNL     1       1.812   5.605 -10.278  1.00  0.00    -0.248 NA
ATOM     38  C   UNL     1       1.392   6.728  -8.275  1.00  0.00     0.031 C 
ATOM     39  C   UNL     1      -1.576   2.828  -9.395  1.00  0.00     0.029 A 
ATOM     40  N   UNL     1      -0.042   3.428 -10.908  1.00  0.00    -0.354 N 
ATOM     41  C   UNL     1       2.788   6.571 -10.070  1.00  0.00     0.074 A 
ATOM     42  C   UNL     1       2.506   7.203  -8.802  1.00  0.00     0.031 C 
ATOM     43  C   UNL     1      -1.668   1.974 -10.432  1.00  0.00     0.029 A 
ATOM     44  C   UNL     1      -0.710   2.363 -11.467  1.00  0.00     0.049 A 
ATOM     45  H   UNL     1       0.716   3.877 -11.347  1.00  0.00     0.167 HD
ATOM     46  C   UNL     1       3.811   6.936 -10.875  1.00  0.00     0.037 A 
ATOM     47  C   UNL     1      -0.577   1.794 -12.685  1.00  0.00     0.037 A 
ATOM     48  C   UNL     1       4.025   6.408 -12.190  1.00  0.00     0.049 A 
ATOM     49  C   UNL     1       0.461   2.337 -13.642  1.00  0.00     0.074 A 
ATOM     50  C   UNL     1       4.957   6.795 -13.135  1.00  0.00     0.029 A 
ATOM     51  N   UNL     1       3.261   5.402 -12.761  1.00  0.00    -0.354 N 
ATOM     52  N   UNL     1       1.367   3.265 -13.444  1.00  0.00    -0.248 NA
ATOM     53  C   UNL     1       0.486   1.764 -14.998  1.00  0.00     0.031 C 
ATOM     54  C   UNL     1       4.719   6.061 -14.302  1.00  0.00     0.029 A 
ATOM     55  C   UNL     1       3.679   5.176 -14.060  1.00  0.00     0.049 A 
ATOM     56  H   UNL     1       2.531   4.920 -12.310  1.00  0.00     0.167 HD
ATOM     57  C   UNL     1       2.077   3.371 -14.636  1.00  0.00     0.074 A 
ATOM     58  C   UNL     1       1.510   2.402 -15.548  1.00  0.00     0.031 C 
ATOM     59  C   UNL     1       3.105   4.199 -14.949  1.00  0.00     0.037 A 
BRANCH  46  60
ATOM     60  C   UNL     1       4.684   8.045 -10.374  1.00  0.00     0.057 A 
ATOM     61  C   UNL     1       5.616   7.847  -9.347  1.00  0.00     0.134 A 
ATOM     62  C   UNL     1       4.529   9.344 -10.872  1.00  0.00     0.134 A 
ATOM     63  F   UNL     1       5.781   6.632  -8.803  1.00  0.00    -0.206 F 
ATOM     64  C   UNL     1       6.344   8.912  -8.813  1.00  0.00     0.040 A 
ATOM     65  C   UNL     1       5.266  10.411 -10.360  1.00  0.00     0.040 A 
ATOM     66  F   UNL     1       3.639   9.599 -11.843  1.00  0.00    -0.206 F 
ATOM     67  C   UNL     1       6.169  10.198  -9.321  1.00  0.00     0.006 A 
ENDBRANCH  46  60
BRANCH  47  68
ATOM     68  C   UNL     1      -1.483   0.693 -13.119  1.00  0.00     0.057 A 
ATOM     69  C   UNL     1      -0.999  -0.587 -13.417  1.00  0.00     0.134 A 
ATOM     70  C   UNL     1      -2.851   0.919 -13.323  1.00  0.00     0.134 A 
ATOM     71  F   UNL     1       0.307  -0.864 -13.282  1.00  0.00    -0.206 F 
ATOM     72  C   UNL     1      -1.833  -1.592 -13.918  1.00  0.00     0.040 A 
ATOM     73  C   UNL     1      -3.702  -0.083 -13.796  1.00  0.00     0.040 A 
ATOM     74  F   UNL     1      -3.383   2.125 -13.075  1.00  0.00    -0.206 F 
ATOM     75  C   UNL     1      -3.191  -1.342 -14.104  1.00  0.00     0.006 A 
ENDBRANCH  47  68
BRANCH  59  76
ATOM     76  C   UNL     1       3.707   4.080 -16.319  1.00  0.00     0.057 A 
ATOM     77  C   UNL     1       3.048   4.549 -17.462  1.00  0.00     0.134 A 
ATOM     78  C   UNL     1       5.000   3.565 -16.483  1.00  0.00     0.134 A 
ATOM     79  F   UNL     1       1.805   5.047 -17.374  1.00  0.00    -0.206 F 
ATOM     80  C   UNL     1       3.649   4.499 -18.721  1.00  0.00     0.040 A 
ATOM     81  C   UNL     1       5.621   3.534 -17.732  1.00  0.00     0.040 A 
ATOM     82  F   UNL     1       5.691   3.111 -15.426  1.00  0.00    -0.206 F 
ATOM     83  C   UNL     1       4.944   4.000 -18.856  1.00  0.00     0.006 A 
ENDBRANCH  59  76
ENDBRANCH  33  34
ENDBRANCH  26  28
ENDBRANCH  25  26
ENDBRANCH  24  25
ENDBRANCH  23  24
ENDBRANCH  22  23
ENDBRANCH  21  22
ENDBRANCH   1  21
TORSDOF 22
