REMARK SMILES CC(C)Cc1cc2c(cc1Cl)C=C(C(=O)OCCOCCOCCOC(=O)c1ccc(-c3c4nc(c(-c5c(F)cccc5F)c5ccc([nH]5)c(-c5c(F)cccc5F)c5nc(c(-c6c(F)cccc6F)c6ccc3[nH]6)C=C5)C=C4)cc1)[C@H](C(F)(F)F)O2
REMARK SMILES IDX 20 1 19 2 18 3 17 4 16 5 14 6 15 7 13 8 5 9 6 10 10 11 7 12
REMARK SMILES IDX 9 13 11 14 8 15 87 16 12 17 82 18 4 19 2 20 1 21 3 22 83 23
REMARK SMILES IDX 84 24 85 25 86 26 21 27 22 28 23 29 24 30 25 31 26 32 27 33
REMARK SMILES IDX 28 34 29 35 81 36 30 37 80 38 31 39 32 40 33 41 74 42 34 43
REMARK SMILES IDX 79 44 73 45 75 46 35 47 78 48 72 49 71 50 36 52 62 53 45 54
REMARK SMILES IDX 61 55 46 56 49 57 60 58 76 59 47 60 48 61 59 63 77 64 50 65
REMARK SMILES IDX 37 66 38 67 43 68 39 69 40 70 42 71 44 72 41 73 63 74 64 75
REMARK SMILES IDX 69 76 65 77 66 78 68 79 70 80 67 81 51 82 52 83 57 84 53 85
REMARK SMILES IDX 54 86 56 87 58 88 55 89
REMARK H PARENT 75 51 49 62
REMARK Flexibility Score: inf
ROOT
ATOM      1  C   UNL     1      -2.514   0.076   8.445  1.00  0.00     0.188 C 
ENDROOT
BRANCH   1   2
ATOM      2  O   UNL     1      -3.179  -0.426   9.585  1.00  0.00    -0.376 OA
BRANCH   2   3
ATOM      3  C   UNL     1      -3.860  -1.670   9.530  1.00  0.00     0.202 C 
BRANCH   3   4
ATOM      4  C   UNL     1      -4.593  -2.161   8.275  1.00  0.00     0.261 C 
BRANCH   4   5
ATOM      5  O   UNL     1      -3.856  -2.039   7.049  1.00  0.00    -0.460 OA
BRANCH   5   6
ATOM      6  C   UNL     1      -4.469  -1.329   6.077  1.00  0.00     0.338 C 
ATOM      7  O   UNL     1      -5.588  -0.844   6.129  1.00  0.00    -0.246 OA
BRANCH   6   8
ATOM      8  C   UNL     1      -3.546  -1.061   4.962  1.00  0.00     0.087 C 
ATOM      9  C   UNL     1      -1.527   1.105   0.902  1.00  0.00    -0.025 A 
ATOM     10  C   UNL     1      -1.797  -0.220   1.293  1.00  0.00     0.052 A 
ATOM     11  C   UNL     1      -1.826   2.140   1.802  1.00  0.00     0.045 A 
ATOM     12  C   UNL     1      -2.368  -0.502   2.532  1.00  0.00     0.128 A 
ATOM     13  C   UNL     1      -2.409   1.858   3.042  1.00  0.00     0.032 A 
ATOM     14  Cl  UNL     1      -1.535   3.799   1.417  1.00  0.00    -0.084 Cl
ATOM     15  C   UNL     1      -2.690   0.537   3.405  1.00  0.00     0.019 A 
ATOM     16  O   UNL     1      -2.663  -1.815   2.782  1.00  0.00    -0.475 OA
ATOM     17  C   UNL     1      -3.419   0.231   4.623  1.00  0.00     0.027 C 
ATOM     18  C   UNL     1      -2.949  -2.188   4.163  1.00  0.00     0.316 C 
BRANCH   9  19
ATOM     19  C   UNL     1      -0.951   1.343  -0.476  1.00  0.00     0.040 C 
BRANCH  19  20
ATOM     20  C   UNL     1       0.587   1.422  -0.527  1.00  0.00    -0.013 C 
ATOM     21  C   UNL     1       1.256   0.117  -0.086  1.00  0.00     0.008 C 
ATOM     22  C   UNL     1       1.029   1.762  -1.953  1.00  0.00     0.008 C 
ENDBRANCH  19  20
ENDBRANCH   9  19
BRANCH  18  23
ATOM     23  C   UNL     1      -1.695  -2.852   4.762  1.00  0.00     0.430 C 
ATOM     24  F   UNL     1      -0.703  -1.963   4.996  1.00  0.00    -0.167 F 
ATOM     25  F   UNL     1      -1.968  -3.500   5.914  1.00  0.00    -0.167 F 
ATOM     26  F   UNL     1      -1.195  -3.787   3.913  1.00  0.00    -0.167 F 
ENDBRANCH  18  23
ENDBRANCH   6   8
ENDBRANCH   5   6
ENDBRANCH   4   5
ENDBRANCH   3   4
ENDBRANCH   2   3
ENDBRANCH   1   2
BRANCH   1  27
ATOM     27  C   UNL     1      -1.352  -0.712   7.812  1.00  0.00     0.188 C 
BRANCH  27  28
ATOM     28  O   UNL     1      -1.024  -2.005   8.258  1.00  0.00    -0.376 OA
BRANCH  28  29
ATOM     29  C   UNL     1      -0.483  -2.212   9.551  1.00  0.00     0.202 C 
BRANCH  29  30
ATOM     30  C   UNL     1       0.416  -1.204  10.281  1.00  0.00     0.261 C 
BRANCH  30  31
ATOM     31  O   UNL     1       0.129   0.178  10.064  1.00  0.00    -0.460 OA
BRANCH  31  32
ATOM     32  C   UNL     1       1.051   0.847   9.319  1.00  0.00     0.338 C 
ATOM     33  O   UNL     1       2.066   0.412   8.826  1.00  0.00    -0.246 OA
BRANCH  32  34
ATOM     34  C   UNL     1       0.501   2.185   9.026  1.00  0.00     0.060 A 
ATOM     35  C   UNL     1       0.198   3.062  10.066  1.00  0.00     0.016 A 
ATOM     36  C   UNL     1       0.278   2.548   7.690  1.00  0.00     0.016 A 
ATOM     37  C   UNL     1      -0.315   4.322   9.763  1.00  0.00     0.010 A 
ATOM     38  C   UNL     1      -0.252   3.804   7.391  1.00  0.00     0.010 A 
ATOM     39  C   UNL     1      -0.529   4.706   8.426  1.00  0.00    -0.014 A 
BRANCH  39  40
ATOM     40  C   UNL     1      -0.865   6.116   8.125  1.00  0.00     0.031 A 
ATOM     41  C   UNL     1      -2.258   6.551   7.793  1.00  0.00     0.074 A 
ATOM     42  C   UNL     1       0.134   7.016   8.176  1.00  0.00     0.049 A 
ATOM     43  N   UNL     1      -2.720   7.766   7.636  1.00  0.00    -0.248 NA
ATOM     44  C   UNL     1      -3.258   5.492   7.606  1.00  0.00     0.031 C 
ATOM     45  C   UNL     1       1.536   6.696   8.452  1.00  0.00     0.029 A 
ATOM     46  N   UNL     1       0.124   8.376   8.015  1.00  0.00    -0.354 N 
ATOM     47  C   UNL     1      -4.073   7.625   7.360  1.00  0.00     0.074 A 
ATOM     48  C   UNL     1      -4.343   6.201   7.316  1.00  0.00     0.031 C 
ATOM     49  C   UNL     1       2.247   7.833   8.476  1.00  0.00     0.029 A 
ATOM     50  C   UNL     1       1.357   8.954   8.194  1.00  0.00     0.049 A 
ATOM     51  H   UNL     1      -0.686   8.889   7.794  1.00  0.00     0.167 HD
ATOM     52  C   UNL     1      -5.002   8.597   7.179  1.00  0.00     0.037 A 
ATOM     53  C   UNL     1       1.726  10.246   8.144  1.00  0.00     0.037 A 
ATOM     54  C   UNL     1      -4.713  10.011   7.189  1.00  0.00     0.049 A 
ATOM     55  C   UNL     1       0.684  11.296   7.885  1.00  0.00     0.074 A 
ATOM     56  C   UNL     1      -5.591  11.073   7.048  1.00  0.00     0.029 A 
ATOM     57  N   UNL     1      -3.447  10.563   7.326  1.00  0.00    -0.354 N 
ATOM     58  N   UNL     1      -0.609  11.158   7.721  1.00  0.00    -0.248 NA
ATOM     59  C   UNL     1       1.156  12.686   7.815  1.00  0.00     0.031 C 
ATOM     60  C   UNL     1      -4.851  12.261   7.041  1.00  0.00     0.029 A 
ATOM     61  C   UNL     1      -3.517  11.946   7.239  1.00  0.00     0.049 A 
ATOM     62  H   UNL     1      -2.619  10.047   7.464  1.00  0.00     0.167 HD
ATOM     63  C   UNL     1      -1.110  12.443   7.558  1.00  0.00     0.074 A 
ATOM     64  C   UNL     1       0.018  13.347   7.664  1.00  0.00     0.031 C 
ATOM     65  C   UNL     1      -2.389  12.838   7.342  1.00  0.00     0.037 A 
BRANCH  52  66
ATOM     66  C   UNL     1      -6.422   8.163   6.949  1.00  0.00     0.057 A 
ATOM     67  C   UNL     1      -7.050   8.375   5.715  1.00  0.00     0.134 A 
ATOM     68  C   UNL     1      -7.186   7.576   7.967  1.00  0.00     0.134 A 
ATOM     69  F   UNL     1      -6.384   8.945   4.700  1.00  0.00    -0.206 F 
ATOM     70  C   UNL     1      -8.383   8.017   5.501  1.00  0.00     0.040 A 
ATOM     71  C   UNL     1      -8.511   7.189   7.757  1.00  0.00     0.040 A 
ATOM     72  F   UNL     1      -6.647   7.343   9.174  1.00  0.00    -0.206 F 
ATOM     73  C   UNL     1      -9.115   7.414   6.522  1.00  0.00     0.006 A 
ENDBRANCH  52  66
BRANCH  53  74
ATOM     74  C   UNL     1       3.144  10.623   8.367  1.00  0.00     0.057 A 
ATOM     75  C   UNL     1       4.139  10.291   7.440  1.00  0.00     0.134 A 
ATOM     76  C   UNL     1       3.531  11.344   9.502  1.00  0.00     0.134 A 
ATOM     77  F   UNL     1       3.833   9.590   6.338  1.00  0.00    -0.206 F 
ATOM     78  C   UNL     1       5.469  10.665   7.632  1.00  0.00     0.040 A 
ATOM     79  C   UNL     1       4.853  11.750   9.692  1.00  0.00     0.040 A 
ATOM     80  F   UNL     1       2.620  11.701  10.419  1.00  0.00    -0.206 F 
ATOM     81  C   UNL     1       5.826  11.407   8.756  1.00  0.00     0.006 A 
ENDBRANCH  53  74
BRANCH  65  82
ATOM     82  C   UNL     1      -2.636  14.317   7.241  1.00  0.00     0.057 A 
ATOM     83  C   UNL     1      -3.334  14.994   8.250  1.00  0.00     0.134 A 
ATOM     84  C   UNL     1      -2.188  15.074   6.149  1.00  0.00     0.134 A 
ATOM     85  F   UNL     1      -3.796  14.331   9.321  1.00  0.00    -0.206 F 
ATOM     86  C   UNL     1      -3.576  16.367   8.178  1.00  0.00     0.040 A 
ATOM     87  C   UNL     1      -2.397  16.453   6.081  1.00  0.00     0.040 A 
ATOM     88  F   UNL     1      -1.498  14.493   5.156  1.00  0.00    -0.206 F 
ATOM     89  C   UNL     1      -3.098  17.102   7.096  1.00  0.00     0.006 A 
ENDBRANCH  65  82
ENDBRANCH  39  40
ENDBRANCH  32  34
ENDBRANCH  31  32
ENDBRANCH  30  31
ENDBRANCH  29  30
ENDBRANCH  28  29
ENDBRANCH  27  28
ENDBRANCH   1  27
TORSDOF 20
