REMARK SMILES CCCCCNC(=O)Oc1cccc(-c2ccc([C@@H](C)C(=O)OCCOCCOCCOC(=O)c3ccc(-c4c5nc(c(-c6c(F)cccc6F)c6ccc([nH]6)c(-c6c(F)cccc6F)c6nc(c(-c7c(F)cccc7F)c7ccc4[nH]7)C=C6)C=C5)cc3)cc2F)c1
REMARK SMILES IDX 24 1 23 2 21 3 22 4 19 5 20 6 18 7 15 8 16 9 90 10 17 11
REMARK SMILES IDX 89 12 91 13 14 14 10 15 11 16 92 17 12 18 13 19 9 20 7 21
REMARK SMILES IDX 6 22 8 24 5 25 4 26 3 27 2 28 1 29 25 30 26 31 27 32 28 33
REMARK SMILES IDX 29 34 30 35 31 36 32 37 33 38 34 39 35 40 36 41 88 42 37 43
REMARK SMILES IDX 87 44 38 45 39 46 40 47 81 48 41 49 86 50 80 51 82 52 42 53
REMARK SMILES IDX 85 54 79 55 78 56 43 58 69 59 52 60 68 61 53 62 56 63 67 64
REMARK SMILES IDX 83 65 54 66 55 67 66 69 84 70 57 71 44 72 45 73 50 74 46 75
REMARK SMILES IDX 47 76 49 77 51 78 48 79 70 80 71 81 76 82 72 83 73 84 75 85
REMARK SMILES IDX 77 86 74 87 58 88 59 89 64 90 60 91 61 92 63 93 65 94 62 95
REMARK H PARENT 6 23 82 57 56 68
REMARK Flexibility Score: inf
ROOT
ATOM      1  C   UNL     1      -3.706  -6.702 -12.718  1.00  0.00     0.261 C 
ENDROOT
BRANCH   1   2
ATOM      2  O   UNL     1      -3.605  -7.499 -11.514  1.00  0.00    -0.463 OA
BRANCH   2   3
ATOM      3  C   UNL     1      -2.968  -8.692 -11.627  1.00  0.00     0.313 C 
ATOM      4  O   UNL     1      -2.527  -9.121 -12.692  1.00  0.00    -0.252 OA
BRANCH   3   5
ATOM      5  C   UNL     1      -2.794  -9.498 -10.334  1.00  0.00     0.126 C 
ATOM      6  C   UNL     1      -3.478 -10.853 -10.504  1.00  0.00     0.025 C 
BRANCH   5   7
ATOM      7  C   UNL     1      -3.127  -8.898  -8.969  1.00  0.00    -0.031 A 
ATOM      8  C   UNL     1      -3.612  -7.739  -6.387  1.00  0.00     0.018 A 
ATOM      9  C   UNL     1      -4.606  -7.771  -7.383  1.00  0.00     0.012 A 
ATOM     10  C   UNL     1      -2.382  -8.323  -6.707  1.00  0.00     0.131 A 
ATOM     11  C   UNL     1      -4.374  -8.346  -8.649  1.00  0.00     0.005 A 
ATOM     12  C   UNL     1      -2.143  -8.899  -7.960  1.00  0.00     0.044 A 
ATOM     13  F   UNL     1      -1.387  -8.345  -5.805  1.00  0.00    -0.206 F 
BRANCH   8  14
ATOM     14  C   UNL     1      -3.873  -7.135  -5.066  1.00  0.00    -0.012 A 
ATOM     15  C   UNL     1      -3.389  -5.505  -3.324  1.00  0.00     0.133 A 
ATOM     16  C   UNL     1      -4.409  -6.011  -2.523  1.00  0.00     0.047 A 
ATOM     17  C   UNL     1      -3.105  -6.062  -4.577  1.00  0.00     0.056 A 
ATOM     18  C   UNL     1      -5.174  -7.076  -2.990  1.00  0.00     0.004 A 
ATOM     19  C   UNL     1      -4.907  -7.630  -4.248  1.00  0.00     0.009 A 
BRANCH  15  20
ATOM     20  O   UNL     1      -2.584  -4.496  -2.767  1.00  0.00    -0.410 OA
BRANCH  20  21
ATOM     21  C   UNL     1      -2.506  -3.289  -3.446  1.00  0.00     0.412 C 
ATOM     22  N   UNL     1      -1.687  -2.375  -2.837  1.00  0.00    -0.321 N 
ATOM     23  H   UNL     1      -1.509  -1.545  -3.334  1.00  0.00     0.167 HD
ATOM     24  O   UNL     1      -3.112  -3.000  -4.474  1.00  0.00    -0.224 OA
BRANCH  22  25
ATOM     25  C   UNL     1      -1.053  -2.498  -1.538  1.00  0.00     0.119 C 
BRANCH  25  26
ATOM     26  C   UNL     1       0.471  -2.402  -1.606  1.00  0.00     0.021 C 
BRANCH  26  27
ATOM     27  C   UNL     1       1.024  -1.068  -2.124  1.00  0.00     0.002 C 
BRANCH  27  28
ATOM     28  C   UNL     1       0.599   0.181  -1.347  1.00  0.00    -0.003 C 
ATOM     29  C   UNL     1       1.043   0.177   0.108  1.00  0.00     0.004 C 
ENDBRANCH  27  28
ENDBRANCH  26  27
ENDBRANCH  25  26
ENDBRANCH  22  25
ENDBRANCH  20  21
ENDBRANCH  15  20
ENDBRANCH   8  14
ENDBRANCH   5   7
ENDBRANCH   3   5
ENDBRANCH   2   3
ENDBRANCH   1   2
BRANCH   1  30
ATOM     30  C   UNL     1      -3.030  -5.321 -12.667  1.00  0.00     0.202 C 
BRANCH  30  31
ATOM     31  O   UNL     1      -1.650  -5.259 -12.331  1.00  0.00    -0.376 OA
BRANCH  31  32
ATOM     32  C   UNL     1      -1.206  -5.812 -11.097  1.00  0.00     0.188 C 
BRANCH  32  33
ATOM     33  C   UNL     1      -2.108  -5.723  -9.857  1.00  0.00     0.188 C 
BRANCH  33  34
ATOM     34  O   UNL     1      -3.216  -4.862 -10.003  1.00  0.00    -0.376 OA
BRANCH  34  35
ATOM     35  C   UNL     1      -3.366  -3.846  -9.032  1.00  0.00     0.202 C 
BRANCH  35  36
ATOM     36  C   UNL     1      -2.282  -2.759  -9.061  1.00  0.00     0.261 C 
BRANCH  36  37
ATOM     37  O   UNL     1      -0.921  -3.229  -9.086  1.00  0.00    -0.460 OA
BRANCH  37  38
ATOM     38  C   UNL     1      -0.420  -3.734  -7.939  1.00  0.00     0.338 C 
ATOM     39  O   UNL     1      -0.986  -3.825  -6.858  1.00  0.00    -0.246 OA
BRANCH  38  40
ATOM     40  C   UNL     1       0.877  -4.373  -8.242  1.00  0.00     0.060 A 
ATOM     41  C   UNL     1       1.041  -5.742  -7.986  1.00  0.00     0.016 A 
ATOM     42  C   UNL     1       1.929  -3.622  -8.770  1.00  0.00     0.016 A 
ATOM     43  C   UNL     1       2.269  -6.359  -8.232  1.00  0.00     0.010 A 
ATOM     44  C   UNL     1       3.163  -4.236  -8.995  1.00  0.00     0.010 A 
ATOM     45  C   UNL     1       3.350  -5.599  -8.698  1.00  0.00    -0.014 A 
BRANCH  45  46
ATOM     46  C   UNL     1       4.720  -6.167  -8.700  1.00  0.00     0.031 A 
ATOM     47  C   UNL     1       5.640  -5.823  -7.561  1.00  0.00     0.074 A 
ATOM     48  C   UNL     1       5.152  -6.961  -9.694  1.00  0.00     0.049 A 
ATOM     49  N   UNL     1       6.904  -6.112  -7.393  1.00  0.00    -0.248 NA
ATOM     50  C   UNL     1       5.049  -5.034  -6.469  1.00  0.00     0.031 C 
ATOM     51  C   UNL     1       4.353  -7.400 -10.834  1.00  0.00     0.029 A 
ATOM     52  N   UNL     1       6.388  -7.521  -9.908  1.00  0.00    -0.354 N 
ATOM     53  C   UNL     1       7.264  -5.531  -6.183  1.00  0.00     0.074 A 
ATOM     54  C   UNL     1       6.094  -4.843  -5.679  1.00  0.00     0.031 C 
ATOM     55  C   UNL     1       5.127  -8.143 -11.645  1.00  0.00     0.029 A 
ATOM     56  C   UNL     1       6.482  -8.200 -11.098  1.00  0.00     0.049 A 
ATOM     57  H   UNL     1       7.134  -7.443  -9.271  1.00  0.00     0.167 HD
ATOM     58  C   UNL     1       8.458  -5.572  -5.544  1.00  0.00     0.037 A 
ATOM     59  C   UNL     1       7.548  -8.773 -11.691  1.00  0.00     0.037 A 
ATOM     60  C   UNL     1       9.624  -6.245  -6.054  1.00  0.00     0.049 A 
ATOM     61  C   UNL     1       8.889  -8.742 -11.005  1.00  0.00     0.074 A 
ATOM     62  C   UNL     1      10.876  -6.358  -5.476  1.00  0.00     0.029 A 
ATOM     63  N   UNL     1       9.685  -6.907  -7.272  1.00  0.00    -0.354 N 
ATOM     64  N   UNL     1       9.217  -8.213  -9.851  1.00  0.00    -0.248 NA
ATOM     65  C   UNL     1      10.007  -9.392 -11.704  1.00  0.00     0.031 C 
ATOM     66  C   UNL     1      11.711  -7.035  -6.371  1.00  0.00     0.029 A 
ATOM     67  C   UNL     1      10.963  -7.403  -7.478  1.00  0.00     0.049 A 
ATOM     68  H   UNL     1       8.932  -7.008  -7.898  1.00  0.00     0.167 HD
ATOM     69  C   UNL     1      10.569  -8.488  -9.672  1.00  0.00     0.074 A 
ATOM     70  C   UNL     1      10.996  -9.242 -10.833  1.00  0.00     0.031 C 
ATOM     71  C   UNL     1      11.380  -8.152  -8.638  1.00  0.00     0.037 A 
BRANCH  58  72
ATOM     72  C   UNL     1       8.562  -4.831  -4.242  1.00  0.00     0.057 A 
ATOM     73  C   UNL     1       7.876  -5.245  -3.091  1.00  0.00     0.134 A 
ATOM     74  C   UNL     1       9.354  -3.680  -4.139  1.00  0.00     0.134 A 
ATOM     75  F   UNL     1       7.087  -6.330  -3.123  1.00  0.00    -0.206 F 
ATOM     76  C   UNL     1       7.941  -4.519  -1.900  1.00  0.00     0.040 A 
ATOM     77  C   UNL     1       9.454  -2.965  -2.944  1.00  0.00     0.040 A 
ATOM     78  F   UNL     1      10.043  -3.229  -5.198  1.00  0.00    -0.206 F 
ATOM     79  C   UNL     1       8.736  -3.377  -1.823  1.00  0.00     0.006 A 
ENDBRANCH  58  72
BRANCH  59  80
ATOM     80  C   UNL     1       7.391  -9.411 -13.023  1.00  0.00     0.057 A 
ATOM     81  C   UNL     1       7.478 -10.798 -13.180  1.00  0.00     0.134 A 
ATOM     82  C   UNL     1       7.144  -8.646 -14.171  1.00  0.00     0.134 A 
ATOM     83  F   UNL     1       7.740 -11.582 -12.124  1.00  0.00    -0.206 F 
ATOM     84  C   UNL     1       7.332 -11.403 -14.430  1.00  0.00     0.040 A 
ATOM     85  C   UNL     1       6.968  -9.240 -15.422  1.00  0.00     0.040 A 
ATOM     86  F   UNL     1       7.051  -7.311 -14.088  1.00  0.00    -0.206 F 
ATOM     87  C   UNL     1       7.067 -10.623 -15.554  1.00  0.00     0.006 A 
ENDBRANCH  59  80
BRANCH  71  88
ATOM     88  C   UNL     1      12.806  -8.626  -8.691  1.00  0.00     0.057 A 
ATOM     89  C   UNL     1      13.738  -8.090  -9.589  1.00  0.00     0.134 A 
ATOM     90  C   UNL     1      13.264  -9.603  -7.795  1.00  0.00     0.134 A 
ATOM     91  F   UNL     1      13.366  -7.160 -10.480  1.00  0.00    -0.206 F 
ATOM     92  C   UNL     1      15.065  -8.525  -9.611  1.00  0.00     0.040 A 
ATOM     93  C   UNL     1      14.594 -10.024  -7.788  1.00  0.00     0.040 A 
ATOM     94  F   UNL     1      12.429 -10.152  -6.900  1.00  0.00    -0.206 F 
ATOM     95  C   UNL     1      15.498  -9.489  -8.703  1.00  0.00     0.006 A 
ENDBRANCH  71  88
ENDBRANCH  45  46
ENDBRANCH  38  40
ENDBRANCH  37  38
ENDBRANCH  36  37
ENDBRANCH  35  36
ENDBRANCH  34  35
ENDBRANCH  33  34
ENDBRANCH  32  33
ENDBRANCH  31  32
ENDBRANCH  30  31
ENDBRANCH   1  30
TORSDOF 25
