REMARK SMILES CC(C)(C)N(CC(=O)OCCOCCOCCOC(=O)c1ccc(-c2c3nc(c(-c4c(F)cccc4F)c4ccc([nH]4)c(-c4c(F)cccc4F)c4nc(c(-c5c(F)cccc5F)c5ccc2[nH]5)C=C4)C=C3)cc1)C(=O)C1(c2ccccc2)CCC1
REMARK SMILES IDX 13 1 12 2 11 3 10 4 9 5 7 6 8 7 6 8 5 9 2 10 1 11 3 12 4 13
REMARK SMILES IDX 75 14 76 15 77 16 84 17 86 18 85 19 78 20 79 21 83 22 80 23
REMARK SMILES IDX 82 24 81 25 14 26 15 27 16 28 17 29 18 30 19 31 20 32 21 33
REMARK SMILES IDX 22 34 74 35 23 36 73 37 24 38 25 39 26 40 67 41 27 42 72 43
REMARK SMILES IDX 66 44 68 45 28 46 71 47 65 48 64 49 29 51 55 52 38 53 54 54
REMARK SMILES IDX 39 55 42 56 53 57 69 58 40 59 41 60 52 62 70 63 43 64 30 65
REMARK SMILES IDX 31 66 36 67 32 68 33 69 35 70 37 71 34 72 56 73 57 74 62 75
REMARK SMILES IDX 58 76 59 77 61 78 63 79 60 80 44 81 45 82 50 83 46 84 47 85
REMARK SMILES IDX 49 86 51 87 48 88
REMARK H PARENT 68 50 42 61
REMARK Flexibility Score: inf
ROOT
ATOM      1  C   UNL     1       4.707   3.398  -3.532  1.00  0.00     0.188 C 
ENDROOT
BRANCH   1   2
ATOM      2  O   UNL     1       5.931   3.014  -2.914  1.00  0.00    -0.376 OA
BRANCH   2   3
ATOM      3  C   UNL     1       6.063   1.660  -2.501  1.00  0.00     0.202 C 
BRANCH   3   4
ATOM      4  C   UNL     1       5.271   1.268  -1.248  1.00  0.00     0.261 C 
BRANCH   4   5
ATOM      5  O   UNL     1       3.827   1.243  -1.413  1.00  0.00    -0.462 OA
BRANCH   5   6
ATOM      6  C   UNL     1       3.129   1.956  -0.489  1.00  0.00     0.325 C 
ATOM      7  O   UNL     1       3.650   2.708   0.332  1.00  0.00    -0.250 OA
BRANCH   6   8
ATOM      8  C   UNL     1       1.596   1.781  -0.507  1.00  0.00     0.242 C 
BRANCH   8   9
ATOM      9  N   UNL     1       0.825   0.886  -1.392  1.00  0.00    -0.326 N 
BRANCH   9  10
ATOM     10  C   UNL     1       0.615  -0.546  -0.932  1.00  0.00     0.035 C 
ATOM     11  C   UNL     1       1.408  -0.922   0.347  1.00  0.00     0.034 C 
ATOM     12  C   UNL     1       1.085  -1.530  -2.026  1.00  0.00     0.034 C 
ATOM     13  C   UNL     1      -0.877  -0.798  -0.580  1.00  0.00     0.034 C 
ENDBRANCH   9  10
BRANCH   9  14
ATOM     14  C   UNL     1       0.032   1.335  -2.498  1.00  0.00     0.234 C 
ATOM     15  O   UNL     1      -0.809   0.544  -2.970  1.00  0.00    -0.274 OA
BRANCH  14  16
ATOM     16  C   UNL     1       0.109   2.768  -3.181  1.00  0.00     0.074 C 
ATOM     17  C   UNL     1      -1.000   3.758  -2.630  1.00  0.00     0.022 C 
ATOM     18  C   UNL     1       1.141   3.853  -2.792  1.00  0.00     0.022 C 
ATOM     19  C   UNL     1       0.088   4.619  -1.988  1.00  0.00     0.003 C 
BRANCH  16  20
ATOM     20  C   UNL     1       0.070   2.509  -4.856  1.00  0.00    -0.032 A 
ATOM     21  C   UNL     1      -0.542   3.410  -5.759  1.00  0.00     0.005 A 
ATOM     22  C   UNL     1       0.659   1.372  -5.459  1.00  0.00     0.005 A 
ATOM     23  C   UNL     1      -0.580   3.189  -7.143  1.00  0.00     0.000 A 
ATOM     24  C   UNL     1       0.615   1.137  -6.840  1.00  0.00     0.000 A 
ATOM     25  C   UNL     1      -0.002   2.050  -7.684  1.00  0.00     0.000 A 
ENDBRANCH  16  20
ENDBRANCH  14  16
ENDBRANCH   9  14
ENDBRANCH   8   9
ENDBRANCH   6   8
ENDBRANCH   5   6
ENDBRANCH   4   5
ENDBRANCH   3   4
ENDBRANCH   2   3
ENDBRANCH   1   2
BRANCH   1  26
ATOM     26  C   UNL     1       3.998   2.366  -4.418  1.00  0.00     0.188 C 
BRANCH  26  27
ATOM     27  O   UNL     1       4.904   1.805  -5.365  1.00  0.00    -0.376 OA
BRANCH  27  28
ATOM     28  C   UNL     1       4.447   1.853  -6.715  1.00  0.00     0.202 C 
BRANCH  28  29
ATOM     29  C   UNL     1       4.797   3.190  -7.364  1.00  0.00     0.261 C 
BRANCH  29  30
ATOM     30  O   UNL     1       3.945   4.242  -6.867  1.00  0.00    -0.460 OA
BRANCH  30  31
ATOM     31  C   UNL     1       3.092   4.812  -7.756  1.00  0.00     0.338 C 
ATOM     32  O   UNL     1       2.954   4.510  -8.928  1.00  0.00    -0.246 OA
BRANCH  31  33
ATOM     33  C   UNL     1       2.333   5.912  -7.104  1.00  0.00     0.060 A 
ATOM     34  C   UNL     1       2.073   5.890  -5.740  1.00  0.00     0.016 A 
ATOM     35  C   UNL     1       1.809   6.955  -7.867  1.00  0.00     0.016 A 
ATOM     36  C   UNL     1       1.207   6.824  -5.159  1.00  0.00     0.010 A 
ATOM     37  C   UNL     1       1.036   7.961  -7.258  1.00  0.00     0.010 A 
ATOM     38  C   UNL     1       0.691   7.896  -5.895  1.00  0.00    -0.014 A 
BRANCH  38  39
ATOM     39  C   UNL     1      -0.217   8.921  -5.274  1.00  0.00     0.031 A 
ATOM     40  C   UNL     1      -1.523   9.282  -5.944  1.00  0.00     0.074 A 
ATOM     41  C   UNL     1       0.077   9.536  -4.106  1.00  0.00     0.049 A 
ATOM     42  N   UNL     1      -2.283  10.336  -5.774  1.00  0.00    -0.248 NA
ATOM     43  C   UNL     1      -2.042   8.325  -6.934  1.00  0.00     0.031 C 
ATOM     44  C   UNL     1       1.223   9.246  -3.244  1.00  0.00     0.029 A 
ATOM     45  N   UNL     1      -0.581  10.548  -3.438  1.00  0.00    -0.354 N 
ATOM     46  C   UNL     1      -3.324  10.209  -6.688  1.00  0.00     0.074 A 
ATOM     47  C   UNL     1      -3.113   8.960  -7.391  1.00  0.00     0.031 C 
ATOM     48  C   UNL     1       1.161  10.015  -2.147  1.00  0.00     0.029 A 
ATOM     49  C   UNL     1       0.060  10.959  -2.291  1.00  0.00     0.049 A 
ATOM     50  H   UNL     1      -1.428  10.939  -3.751  1.00  0.00     0.167 HD
ATOM     51  C   UNL     1      -4.347  11.063  -6.934  1.00  0.00     0.037 A 
ATOM     52  C   UNL     1      -0.146  12.021  -1.486  1.00  0.00     0.037 A 
ATOM     53  C   UNL     1      -4.587  12.282  -6.204  1.00  0.00     0.049 A 
ATOM     54  C   UNL     1      -1.214  13.019  -1.837  1.00  0.00     0.074 A 
ATOM     55  C   UNL     1      -5.559  13.245  -6.420  1.00  0.00     0.029 A 
ATOM     56  N   UNL     1      -3.860  12.693  -5.098  1.00  0.00    -0.354 N 
ATOM     57  N   UNL     1      -2.098  12.979  -2.803  1.00  0.00    -0.248 NA
ATOM     58  C   UNL     1      -1.280  14.236  -1.013  1.00  0.00     0.031 C 
ATOM     59  C   UNL     1      -5.398  14.256  -5.465  1.00  0.00     0.029 A 
ATOM     60  C   UNL     1      -4.352  13.901  -4.630  1.00  0.00     0.049 A 
ATOM     61  H   UNL     1      -3.106  12.200  -4.703  1.00  0.00     0.167 HD
ATOM     62  C   UNL     1      -2.824  14.159  -2.701  1.00  0.00     0.074 A 
ATOM     63  C   UNL     1      -2.297  14.882  -1.563  1.00  0.00     0.031 C 
ATOM     64  C   UNL     1      -3.828  14.610  -3.492  1.00  0.00     0.037 A 
BRANCH  51  65
ATOM     65  C   UNL     1      -5.247  10.748  -8.093  1.00  0.00     0.057 A 
ATOM     66  C   UNL     1      -6.227   9.751  -8.035  1.00  0.00     0.134 A 
ATOM     67  C   UNL     1      -5.141  11.482  -9.283  1.00  0.00     0.134 A 
ATOM     68  F   UNL     1      -6.372   9.003  -6.931  1.00  0.00    -0.206 F 
ATOM     69  C   UNL     1      -7.055   9.480  -9.128  1.00  0.00     0.040 A 
ATOM     70  C   UNL     1      -5.977  11.236 -10.373  1.00  0.00     0.040 A 
ATOM     71  F   UNL     1      -4.228  12.458  -9.400  1.00  0.00    -0.206 F 
ATOM     72  C   UNL     1      -6.934  10.227 -10.299  1.00  0.00     0.006 A 
ENDBRANCH  51  65
BRANCH  52  73
ATOM     73  C   UNL     1       0.751  12.265  -0.324  1.00  0.00     0.057 A 
ATOM     74  C   UNL     1       0.269  12.219   0.989  1.00  0.00     0.134 A 
ATOM     75  C   UNL     1       2.107  12.575  -0.499  1.00  0.00     0.134 A 
ATOM     76  F   UNL     1      -1.027  11.966   1.223  1.00  0.00    -0.206 F 
ATOM     77  C   UNL     1       1.099  12.476   2.083  1.00  0.00     0.040 A 
ATOM     78  C   UNL     1       2.956  12.798   0.585  1.00  0.00     0.040 A 
ATOM     79  F   UNL     1       2.632  12.648  -1.731  1.00  0.00    -0.206 F 
ATOM     80  C   UNL     1       2.450  12.756   1.882  1.00  0.00     0.006 A 
ENDBRANCH  52  73
BRANCH  64  81
ATOM     81  C   UNL     1      -4.442  15.930  -3.133  1.00  0.00     0.057 A 
ATOM     82  C   UNL     1      -3.780  17.140  -3.376  1.00  0.00     0.134 A 
ATOM     83  C   UNL     1      -5.716  15.992  -2.557  1.00  0.00     0.134 A 
ATOM     84  F   UNL     1      -2.549  17.147  -3.909  1.00  0.00    -0.206 F 
ATOM     85  C   UNL     1      -4.357  18.366  -3.040  1.00  0.00     0.040 A 
ATOM     86  C   UNL     1      -6.313  17.213  -2.236  1.00  0.00     0.040 A 
ATOM     87  F   UNL     1      -6.404  14.869  -2.301  1.00  0.00    -0.206 F 
ATOM     88  C   UNL     1      -5.630  18.404  -2.473  1.00  0.00     0.006 A 
ENDBRANCH  64  81
ENDBRANCH  38  39
ENDBRANCH  31  33
ENDBRANCH  30  31
ENDBRANCH  29  30
ENDBRANCH  28  29
ENDBRANCH  27  28
ENDBRANCH  26  27
ENDBRANCH   1  26
TORSDOF 22
