REMARK SMILES COc1ccc(/C=C2\SC(=O)N(CC(=O)N[C@H](C)C(=O)OCCOCCOCCOC(=O)c3ccc(-c4c5nc(c(-c6c(F)cccc6F)c6ccc([nH]6)c(-c6c(F)cccc6F)c6nc(c(-c7c(F)cccc7F)c7ccc4[nH]7)C=C6)C=C5)cc3)C2=O)cc1OC
REMARK SMILES IDX 24 1 23 2 22 3 21 4 19 5 20 6 17 7 18 8 16 9 14 10 15 11
REMARK SMILES IDX 13 13 12 14 7 15 8 16 9 17 87 18 10 19 88 20 11 21 6 22 3 23
REMARK SMILES IDX 4 24 90 25 5 26 89 27 2 28 1 29 91 30 92 31 25 32 26 33
REMARK SMILES IDX 27 34 28 35 29 36 30 37 31 38 32 39 33 40 34 41 86 42 35 43
REMARK SMILES IDX 85 44 36 45 37 46 38 47 79 48 39 49 84 50 78 51 80 52 40 53
REMARK SMILES IDX 83 54 77 55 76 56 41 58 67 59 50 60 66 61 51 62 54 63 65 64
REMARK SMILES IDX 81 65 52 66 53 67 64 69 82 70 55 71 42 72 43 73 48 74 44 75
REMARK SMILES IDX 45 76 47 77 49 78 46 79 68 80 69 81 74 82 70 83 71 84 73 85
REMARK SMILES IDX 75 86 72 87 56 88 57 89 62 90 58 91 59 92 61 93 63 94 60 95
REMARK H PARENT 16 12 80 57 54 68
REMARK Flexibility Score: inf
ROOT
ATOM      1  O   UNL     1       5.684 -13.154   4.215  1.00  0.00    -0.376 OA
ENDROOT
BRANCH   1   2
ATOM      2  C   UNL     1       4.604 -13.641   4.988  1.00  0.00     0.202 C 
BRANCH   2   3
ATOM      3  C   UNL     1       3.373 -12.732   5.112  1.00  0.00     0.261 C 
BRANCH   3   4
ATOM      4  O   UNL     1       2.930 -12.074   3.904  1.00  0.00    -0.462 OA
BRANCH   4   5
ATOM      5  C   UNL     1       3.277 -10.764   3.780  1.00  0.00     0.328 C 
ATOM      6  O   UNL     1       3.960 -10.146   4.590  1.00  0.00    -0.250 OA
BRANCH   5   7
ATOM      7  C   UNL     1       2.699 -10.093   2.516  1.00  0.00     0.189 C 
ATOM      8  C   UNL     1       3.308 -10.519   1.194  1.00  0.00     0.043 C 
BRANCH   7   9
ATOM      9  N   UNL     1       1.242  -9.938   2.530  1.00  0.00    -0.341 N 
ATOM     10  C   UNL     1       0.160 -10.684   2.207  1.00  0.00     0.240 C 
ATOM     11  O   UNL     1      -0.924 -10.248   2.613  1.00  0.00    -0.273 OA
ATOM     12  H   UNL     1       0.978  -9.051   2.865  1.00  0.00     0.164 HD
BRANCH  10  13
ATOM     13  C   UNL     1       0.201 -12.037   1.502  1.00  0.00     0.229 C 
BRANCH  13  14
ATOM     14  N   UNL     1       0.741 -12.081   0.155  1.00  0.00    -0.259 N 
ATOM     15  C   UNL     1       0.849 -10.867  -3.261  1.00  0.00     0.029 C 
ATOM     16  C   UNL     1       0.994 -11.592  -2.137  1.00  0.00     0.083 C 
ATOM     17  S   UNL     1       1.974 -12.988  -1.894  1.00  0.00    -0.022 SA
ATOM     18  C   UNL     1       0.316 -11.240  -0.849  1.00  0.00     0.268 C 
ATOM     19  C   UNL     1       1.415 -13.194  -0.257  1.00  0.00     0.294 C 
ATOM     20  O   UNL     1      -0.490 -10.330  -0.736  1.00  0.00    -0.268 OA
ATOM     21  O   UNL     1       1.606 -14.221   0.381  1.00  0.00    -0.261 OA
BRANCH  15  22
ATOM     22  C   UNL     1       1.520 -11.091  -4.559  1.00  0.00    -0.020 A 
ATOM     23  C   UNL     1       2.945 -11.504  -6.962  1.00  0.00     0.160 A 
ATOM     24  C   UNL     1       2.767 -10.211  -6.450  1.00  0.00     0.051 A 
ATOM     25  C   UNL     1       2.387 -12.597  -6.295  1.00  0.00     0.161 A 
ATOM     26  C   UNL     1       2.055 -10.006  -5.260  1.00  0.00     0.012 A 
ATOM     27  C   UNL     1       1.647 -12.366  -5.125  1.00  0.00     0.058 A 
BRANCH  23  28
ATOM     28  O   UNL     1       3.782 -11.646  -8.035  1.00  0.00    -0.493 OA
ATOM     29  C   UNL     1       3.108 -11.438  -9.275  1.00  0.00     0.278 C 
ENDBRANCH  23  28
BRANCH  25  30
ATOM     30  O   UNL     1       2.478 -13.930  -6.585  1.00  0.00    -0.493 OA
ATOM     31  C   UNL     1       3.108 -14.344  -7.783  1.00  0.00     0.278 C 
ENDBRANCH  25  30
ENDBRANCH  15  22
ENDBRANCH  13  14
ENDBRANCH  10  13
ENDBRANCH   7   9
ENDBRANCH   5   7
ENDBRANCH   4   5
ENDBRANCH   3   4
ENDBRANCH   2   3
ENDBRANCH   1   2
BRANCH   1  32
ATOM     32  C   UNL     1       5.544 -13.046   2.803  1.00  0.00     0.188 C 
BRANCH  32  33
ATOM     33  C   UNL     1       4.425 -13.786   2.048  1.00  0.00     0.188 C 
BRANCH  33  34
ATOM     34  O   UNL     1       4.087 -15.038   2.615  1.00  0.00    -0.376 OA
BRANCH  34  35
ATOM     35  C   UNL     1       4.151 -16.139   1.722  1.00  0.00     0.202 C 
BRANCH  35  36
ATOM     36  C   UNL     1       5.577 -16.688   1.643  1.00  0.00     0.261 C 
BRANCH  36  37
ATOM     37  O   UNL     1       6.566 -15.726   1.222  1.00  0.00    -0.460 OA
BRANCH  37  38
ATOM     38  C   UNL     1       6.486 -15.281  -0.052  1.00  0.00     0.338 C 
ATOM     39  O   UNL     1       5.680 -15.617  -0.900  1.00  0.00    -0.246 OA
BRANCH  38  40
ATOM     40  C   UNL     1       7.443 -14.162  -0.209  1.00  0.00     0.060 A 
ATOM     41  C   UNL     1       6.975 -12.912  -0.639  1.00  0.00     0.016 A 
ATOM     42  C   UNL     1       8.800 -14.350   0.059  1.00  0.00     0.016 A 
ATOM     43  C   UNL     1       7.872 -11.853  -0.827  1.00  0.00     0.010 A 
ATOM     44  C   UNL     1       9.696 -13.297  -0.147  1.00  0.00     0.010 A 
ATOM     45  C   UNL     1       9.245 -12.050  -0.619  1.00  0.00    -0.014 A 
BRANCH  45  46
ATOM     46  C   UNL     1      10.241 -11.041  -1.069  1.00  0.00     0.031 A 
ATOM     47  C   UNL     1      10.955 -11.275  -2.374  1.00  0.00     0.074 A 
ATOM     48  C   UNL     1      10.538  -9.951  -0.336  1.00  0.00     0.049 A 
ATOM     49  N   UNL     1      11.958 -10.623  -2.906  1.00  0.00    -0.248 NA
ATOM     50  C   UNL     1      10.474 -12.406  -3.184  1.00  0.00     0.031 C 
ATOM     51  C   UNL     1       9.902  -9.576   0.925  1.00  0.00     0.029 A 
ATOM     52  N   UNL     1      11.479  -8.970  -0.543  1.00  0.00    -0.354 N 
ATOM     53  C   UNL     1      12.232 -11.268  -4.106  1.00  0.00     0.074 A 
ATOM     54  C   UNL     1      11.313 -12.382  -4.208  1.00  0.00     0.031 C 
ATOM     55  C   UNL     1      10.492  -8.461   1.394  1.00  0.00     0.029 A 
ATOM     56  C   UNL     1      11.572  -8.067   0.489  1.00  0.00     0.049 A 
ATOM     57  H   UNL     1      12.035  -8.919  -1.355  1.00  0.00     0.167 HD
ATOM     58  C   UNL     1      13.156 -10.958  -5.046  1.00  0.00     0.037 A 
ATOM     59  C   UNL     1      12.450  -7.064   0.698  1.00  0.00     0.037 A 
ATOM     60  C   UNL     1      14.078  -9.857  -4.948  1.00  0.00     0.049 A 
ATOM     61  C   UNL     1      13.530  -6.790  -0.322  1.00  0.00     0.074 A 
ATOM     62  C   UNL     1      15.053  -9.468  -5.850  1.00  0.00     0.029 A 
ATOM     63  N   UNL     1      14.141  -8.972  -3.884  1.00  0.00    -0.354 N 
ATOM     64  N   UNL     1      13.773  -7.397  -1.458  1.00  0.00    -0.248 NA
ATOM     65  C   UNL     1      14.460  -5.687  -0.028  1.00  0.00     0.031 C 
ATOM     66  C   UNL     1      15.741  -8.378  -5.308  1.00  0.00     0.029 A 
ATOM     67  C   UNL     1      15.151  -8.049  -4.099  1.00  0.00     0.049 A 
ATOM     68  H   UNL     1      13.556  -8.997  -3.092  1.00  0.00     0.167 HD
ATOM     69  C   UNL     1      14.851  -6.727  -2.029  1.00  0.00     0.074 A 
ATOM     70  C   UNL     1      15.210  -5.660  -1.121  1.00  0.00     0.031 C 
ATOM     71  C   UNL     1      15.485  -6.973  -3.202  1.00  0.00     0.037 A 
BRANCH  58  72
ATOM     72  C   UNL     1      13.229 -11.835  -6.262  1.00  0.00     0.057 A 
ATOM     73  C   UNL     1      12.226 -11.825  -7.240  1.00  0.00     0.134 A 
ATOM     74  C   UNL     1      14.337 -12.664  -6.482  1.00  0.00     0.134 A 
ATOM     75  F   UNL     1      11.132 -11.063  -7.084  1.00  0.00    -0.206 F 
ATOM     76  C   UNL     1      12.311 -12.623  -8.382  1.00  0.00     0.040 A 
ATOM     77  C   UNL     1      14.448 -13.443  -7.634  1.00  0.00     0.040 A 
ATOM     78  F   UNL     1      15.336 -12.716  -5.589  1.00  0.00    -0.206 F 
ATOM     79  C   UNL     1      13.430 -13.428  -8.585  1.00  0.00     0.006 A 
ENDBRANCH  58  72
BRANCH  59  80
ATOM     80  C   UNL     1      12.384  -6.251   1.943  1.00  0.00     0.057 A 
ATOM     81  C   UNL     1      12.075  -4.886   1.909  1.00  0.00     0.134 A 
ATOM     82  C   UNL     1      12.692  -6.808   3.191  1.00  0.00     0.134 A 
ATOM     83  F   UNL     1      11.800  -4.285   0.742  1.00  0.00    -0.206 F 
ATOM     84  C   UNL     1      12.104  -4.098   3.062  1.00  0.00     0.040 A 
ATOM     85  C   UNL     1      12.693  -6.039   4.357  1.00  0.00     0.040 A 
ATOM     86  F   UNL     1      13.001  -8.108   3.296  1.00  0.00    -0.206 F 
ATOM     87  C   UNL     1      12.411  -4.676   4.292  1.00  0.00     0.006 A 
ENDBRANCH  59  80
BRANCH  71  88
ATOM     88  C   UNL     1      16.589  -6.038  -3.612  1.00  0.00     0.057 A 
ATOM     89  C   UNL     1      17.832  -6.019  -2.967  1.00  0.00     0.134 A 
ATOM     90  C   UNL     1      16.421  -5.183  -4.710  1.00  0.00     0.134 A 
ATOM     91  F   UNL     1      18.058  -6.804  -1.904  1.00  0.00    -0.206 F 
ATOM     92  C   UNL     1      18.858  -5.167  -3.384  1.00  0.00     0.040 A 
ATOM     93  C   UNL     1      17.448  -4.349  -5.155  1.00  0.00     0.040 A 
ATOM     94  F   UNL     1      15.260  -5.158  -5.383  1.00  0.00    -0.206 F 
ATOM     95  C   UNL     1      18.670  -4.335  -4.486  1.00  0.00     0.006 A 
ENDBRANCH  71  88
ENDBRANCH  45  46
ENDBRANCH  38  40
ENDBRANCH  37  38
ENDBRANCH  36  37
ENDBRANCH  35  36
ENDBRANCH  34  35
ENDBRANCH  33  34
ENDBRANCH  32  33
ENDBRANCH   1  32
TORSDOF 23
