REMARK SMILES O=C(Cc1c(F)cc(Cl)cc1F)OCCOCCOCCOC(=O)c1ccc(-c2c3nc(c(-c4c(F)cccc4F)c4ccc([nH]4)c(-c4c(F)cccc4F)c4nc(c(-c5c(F)cccc5F)c5ccc2[nH]5)C=C4)C=C3)cc1
REMARK SMILES IDX 18 1 17 2 16 3 15 4 14 5 13 6 2 7 1 8 3 9 4 10 5 11 11 12
REMARK SMILES IDX 6 13 7 14 10 15 12 16 8 17 9 18 19 19 20 20 21 21 22 22
REMARK SMILES IDX 23 23 24 24 25 25 26 26 78 27 27 28 77 29 28 30 29 31 30 32
REMARK SMILES IDX 71 33 31 34 76 35 70 36 72 37 32 38 75 39 69 40 68 41 33 43
REMARK SMILES IDX 59 44 42 45 58 46 43 47 46 48 57 49 73 50 44 51 45 52 56 54
REMARK SMILES IDX 74 55 47 56 34 57 35 58 40 59 36 60 37 61 39 62 41 63 38 64
REMARK SMILES IDX 60 65 61 66 66 67 62 68 63 69 65 70 67 71 64 72 48 73 49 74
REMARK SMILES IDX 54 75 50 76 51 77 53 78 55 79 52 80
REMARK H PARENT 72 42 46 53
REMARK Flexibility Score: inf
ROOT
ATOM      1  C   UNL     1       2.029   2.759   1.371  1.00  0.00     0.188 C 
ENDROOT
BRANCH   1   2
ATOM      2  C   UNL     1       2.601   1.345   1.212  1.00  0.00     0.188 C 
BRANCH   2   3
ATOM      3  O   UNL     1       4.007   1.233   1.317  1.00  0.00    -0.376 OA
BRANCH   3   4
ATOM      4  C   UNL     1       4.786   0.852   0.186  1.00  0.00     0.202 C 
BRANCH   4   5
ATOM      5  C   UNL     1       4.166   0.837  -1.210  1.00  0.00     0.261 C 
BRANCH   5   6
ATOM      6  O   UNL     1       3.056  -0.046  -1.539  1.00  0.00    -0.463 OA
BRANCH   6   7
ATOM      7  C   UNL     1       2.518  -1.153  -1.002  1.00  0.00     0.310 C 
ATOM      8  O   UNL     1       1.431  -1.552  -1.424  1.00  0.00    -0.252 OA
BRANCH   7   9
ATOM      9  C   UNL     1       3.236  -1.931   0.063  1.00  0.00     0.164 C 
BRANCH   9  10
ATOM     10  C   UNL     1       4.060  -3.044  -0.511  1.00  0.00     0.035 A 
ATOM     11  C   UNL     1       5.261  -2.799  -1.177  1.00  0.00     0.131 A 
ATOM     12  C   UNL     1       3.610  -4.363  -0.446  1.00  0.00     0.131 A 
ATOM     13  F   UNL     1       5.739  -1.553  -1.264  1.00  0.00    -0.207 F 
ATOM     14  C   UNL     1       5.988  -3.821  -1.774  1.00  0.00     0.060 A 
ATOM     15  C   UNL     1       4.319  -5.402  -1.037  1.00  0.00     0.060 A 
ATOM     16  F   UNL     1       2.469  -4.648   0.196  1.00  0.00    -0.207 F 
ATOM     17  C   UNL     1       5.506  -5.122  -1.707  1.00  0.00     0.046 A 
ATOM     18  Cl  UNL     1       6.383  -6.393  -2.462  1.00  0.00    -0.084 Cl
ENDBRANCH   9  10
ENDBRANCH   7   9
ENDBRANCH   6   7
ENDBRANCH   5   6
ENDBRANCH   4   5
ENDBRANCH   3   4
ENDBRANCH   2   3
ENDBRANCH   1   2
BRANCH   1  19
ATOM     19  O   UNL     1       2.804   3.841   0.881  1.00  0.00    -0.376 OA
BRANCH  19  20
ATOM     20  C   UNL     1       4.067   4.087   1.499  1.00  0.00     0.202 C 
BRANCH  20  21
ATOM     21  C   UNL     1       4.160   4.116   3.036  1.00  0.00     0.261 C 
BRANCH  21  22
ATOM     22  O   UNL     1       3.879   2.849   3.670  1.00  0.00    -0.460 OA
BRANCH  22  23
ATOM     23  C   UNL     1       2.894   2.860   4.602  1.00  0.00     0.338 C 
ATOM     24  O   UNL     1       2.236   3.816   4.971  1.00  0.00    -0.246 OA
BRANCH  23  25
ATOM     25  C   UNL     1       2.595   1.486   5.051  1.00  0.00     0.060 A 
ATOM     26  C   UNL     1       1.384   0.899   4.660  1.00  0.00     0.016 A 
ATOM     27  C   UNL     1       3.421   0.845   5.974  1.00  0.00     0.016 A 
ATOM     28  C   UNL     1       0.993  -0.328   5.199  1.00  0.00     0.010 A 
ATOM     29  C   UNL     1       3.015  -0.374   6.535  1.00  0.00     0.010 A 
ATOM     30  C   UNL     1       1.784  -0.952   6.172  1.00  0.00    -0.014 A 
BRANCH  30  31
ATOM     31  C   UNL     1       1.223  -2.095   6.939  1.00  0.00     0.031 A 
ATOM     32  C   UNL     1       0.503  -1.812   8.231  1.00  0.00     0.074 A 
ATOM     33  C   UNL     1       1.302  -3.358   6.481  1.00  0.00     0.049 A 
ATOM     34  N   UNL     1      -0.096  -2.644   9.045  1.00  0.00    -0.248 NA
ATOM     35  C   UNL     1       0.446  -0.405   8.661  1.00  0.00     0.031 C 
ATOM     36  C   UNL     1       1.941  -3.768   5.232  1.00  0.00     0.029 A 
ATOM     37  N   UNL     1       0.836  -4.533   7.021  1.00  0.00    -0.354 N 
ATOM     38  C   UNL     1      -0.610  -1.861  10.072  1.00  0.00     0.074 A 
ATOM     39  C   UNL     1      -0.224  -0.495   9.801  1.00  0.00     0.031 C 
ATOM     40  C   UNL     1       1.834  -5.104   5.106  1.00  0.00     0.029 A 
ATOM     41  C   UNL     1       1.135  -5.646   6.272  1.00  0.00     0.049 A 
ATOM     42  H   UNL     1       0.333  -4.574   7.867  1.00  0.00     0.167 HD
ATOM     43  C   UNL     1      -1.354  -2.244  11.134  1.00  0.00     0.037 A 
ATOM     44  C   UNL     1       0.885  -6.951   6.507  1.00  0.00     0.037 A 
ATOM     45  C   UNL     1      -1.752  -3.599  11.407  1.00  0.00     0.049 A 
ATOM     46  C   UNL     1       0.130  -7.357   7.749  1.00  0.00     0.074 A 
ATOM     47  C   UNL     1      -2.546  -4.066  12.439  1.00  0.00     0.029 A 
ATOM     48  N   UNL     1      -1.380  -4.698  10.653  1.00  0.00    -0.354 N 
ATOM     49  N   UNL     1      -0.409  -6.601   8.674  1.00  0.00    -0.248 NA
ATOM     50  C   UNL     1      -0.050  -8.800   7.982  1.00  0.00     0.031 C 
ATOM     51  C   UNL     1      -2.610  -5.458  12.343  1.00  0.00     0.029 A 
ATOM     52  C   UNL     1      -1.893  -5.850  11.224  1.00  0.00     0.049 A 
ATOM     53  H   UNL     1      -0.833  -4.666   9.835  1.00  0.00     0.167 HD
ATOM     54  C   UNL     1      -1.004  -7.471   9.581  1.00  0.00     0.074 A 
ATOM     55  C   UNL     1      -0.779  -8.812   9.090  1.00  0.00     0.031 C 
ATOM     56  C   UNL     1      -1.671  -7.181  10.724  1.00  0.00     0.037 A 
BRANCH  43  57
ATOM     57  C   UNL     1      -1.804  -1.189  12.097  1.00  0.00     0.057 A 
ATOM     58  C   UNL     1      -2.859  -0.322  11.788  1.00  0.00     0.134 A 
ATOM     59  C   UNL     1      -1.255  -1.114  13.383  1.00  0.00     0.134 A 
ATOM     60  F   UNL     1      -3.421  -0.341  10.570  1.00  0.00    -0.206 F 
ATOM     61  C   UNL     1      -3.354   0.583  12.728  1.00  0.00     0.040 A 
ATOM     62  C   UNL     1      -1.754  -0.228  14.337  1.00  0.00     0.040 A 
ATOM     63  F   UNL     1      -0.247  -1.924  13.740  1.00  0.00    -0.206 F 
ATOM     64  C   UNL     1      -2.809   0.623  14.010  1.00  0.00     0.006 A 
ENDBRANCH  43  57
BRANCH  44  65
ATOM     65  C   UNL     1       1.371  -7.990   5.561  1.00  0.00     0.057 A 
ATOM     66  C   UNL     1       0.479  -8.768   4.813  1.00  0.00     0.134 A 
ATOM     67  C   UNL     1       2.736  -8.270   5.427  1.00  0.00     0.134 A 
ATOM     68  F   UNL     1      -0.843  -8.570   4.921  1.00  0.00    -0.206 F 
ATOM     69  C   UNL     1       0.924  -9.799   3.983  1.00  0.00     0.040 A 
ATOM     70  C   UNL     1       3.198  -9.280   4.582  1.00  0.00     0.040 A 
ATOM     71  F   UNL     1       3.644  -7.566   6.120  1.00  0.00    -0.206 F 
ATOM     72  C   UNL     1       2.289 -10.055   3.864  1.00  0.00     0.006 A 
ENDBRANCH  44  65
BRANCH  56  73
ATOM     73  C   UNL     1      -2.212  -8.319  11.539  1.00  0.00     0.057 A 
ATOM     74  C   UNL     1      -1.371  -9.121  12.318  1.00  0.00     0.134 A 
ATOM     75  C   UNL     1      -3.593  -8.539  11.640  1.00  0.00     0.134 A 
ATOM     76  F   UNL     1      -0.039  -8.966  12.261  1.00  0.00    -0.206 F 
ATOM     77  C   UNL     1      -1.882 -10.100  13.172  1.00  0.00     0.040 A 
ATOM     78  C   UNL     1      -4.117  -9.498  12.509  1.00  0.00     0.040 A 
ATOM     79  F   UNL     1      -4.455  -7.795  10.931  1.00  0.00    -0.206 F 
ATOM     80  C   UNL     1      -3.260 -10.280  13.279  1.00  0.00     0.006 A 
ENDBRANCH  56  73
ENDBRANCH  30  31
ENDBRANCH  23  25
ENDBRANCH  22  23
ENDBRANCH  21  22
ENDBRANCH  20  21
ENDBRANCH  19  20
ENDBRANCH   1  19
TORSDOF 18
