REMARK SMILES COc1cc(N)ccc1SCc1ccc(C(=O)OCCOCCOCCOC(=O)c2ccc(-c3c4nc(c(-c5c(F)cccc5F)c5ccc([nH]5)c(-c5c(F)cccc5F)c5nc(c(-c6c(F)cccc6F)c6ccc3[nH]6)C=C5)C=C4)cc2)s1
REMARK SMILES IDX 22 1 21 2 20 3 19 4 18 5 16 6 17 7 15 8 12 9 13 10 84 11
REMARK SMILES IDX 14 12 11 13 10 14 9 15 3 16 4 17 5 18 8 19 7 20 2 21 1 22
REMARK SMILES IDX 6 23 23 26 24 27 25 28 26 29 27 30 28 31 29 32 30 33 31 34
REMARK SMILES IDX 83 35 32 36 82 37 33 38 34 39 35 40 76 41 36 42 81 43 75 44
REMARK SMILES IDX 77 45 37 46 80 47 74 48 73 49 38 51 64 52 47 53 63 54 48 55
REMARK SMILES IDX 51 56 62 57 78 58 49 59 50 60 61 62 79 63 52 64 39 65 40 66
REMARK SMILES IDX 45 67 41 68 42 69 44 70 46 71 43 72 65 73 66 74 71 75 67 76
REMARK SMILES IDX 68 77 70 78 72 79 69 80 53 81 54 82 59 83 55 84 56 85 58 86
REMARK SMILES IDX 60 87 57 88
REMARK H PARENT 6 24 6 25 77 50 51 61
REMARK Flexibility Score: inf
ROOT
ATOM      1  C   UNL     1       1.985   1.454   6.677  1.00  0.00     0.188 C 
ENDROOT
BRANCH   1   2
ATOM      2  O   UNL     1       3.245   2.001   7.056  1.00  0.00    -0.376 OA
BRANCH   2   3
ATOM      3  C   UNL     1       3.602   3.302   6.599  1.00  0.00     0.202 C 
BRANCH   3   4
ATOM      4  C   UNL     1       3.754   3.465   5.087  1.00  0.00     0.261 C 
BRANCH   4   5
ATOM      5  O   UNL     1       2.484   3.358   4.423  1.00  0.00    -0.459 OA
BRANCH   5   6
ATOM      6  C   UNL     1       2.453   2.490   3.372  1.00  0.00     0.348 C 
ATOM      7  O   UNL     1       3.440   1.993   2.849  1.00  0.00    -0.245 OA
BRANCH   6   8
ATOM      8  C   UNL     1       1.081   2.159   3.055  1.00  0.00     0.112 A 
ATOM      9  C   UNL     1      -0.900   0.835   2.353  1.00  0.00     0.016 A 
ATOM     10  C   UNL     1      -1.182   2.184   2.511  1.00  0.00     0.017 A 
ATOM     11  S   UNL     1       0.701   0.512   2.853  1.00  0.00    -0.132 S 
ATOM     12  C   UNL     1      -0.045   2.946   2.930  1.00  0.00     0.028 A 
BRANCH   9  13
ATOM     13  C   UNL     1      -1.805  -0.215   1.752  1.00  0.00     0.121 C 
BRANCH  13  14
ATOM     14  S   UNL     1      -1.750  -1.908   2.419  1.00  0.00    -0.117 SA
BRANCH  14  15
ATOM     15  C   UNL     1      -0.194  -2.644   1.879  1.00  0.00     0.050 A 
ATOM     16  C   UNL     1       0.694  -2.194   0.882  1.00  0.00     0.134 A 
ATOM     17  C   UNL     1       1.943  -2.826   0.729  1.00  0.00     0.073 A 
ATOM     18  C   UNL     1       2.321  -3.907   1.527  1.00  0.00     0.035 A 
ATOM     19  C   UNL     1       0.155  -3.800   2.599  1.00  0.00     0.021 A 
ATOM     20  C   UNL     1       1.383  -4.438   2.402  1.00  0.00     0.027 A 
BRANCH  16  21
ATOM     21  O   UNL     1       0.292  -1.167   0.068  1.00  0.00    -0.496 OA
ATOM     22  C   UNL     1       1.309  -0.420  -0.594  1.00  0.00     0.278 C 
ENDBRANCH  16  21
BRANCH  18  23
ATOM     23  N   UNL     1       3.548  -4.527   1.343  1.00  0.00    -0.399 N 
ATOM     24  H   UNL     1       4.206  -4.142   0.720  1.00  0.00     0.156 HD
ATOM     25  H   UNL     1       3.762  -5.353   1.835  1.00  0.00     0.156 HD
ENDBRANCH  18  23
ENDBRANCH  14  15
ENDBRANCH  13  14
ENDBRANCH   9  13
ENDBRANCH   6   8
ENDBRANCH   5   6
ENDBRANCH   4   5
ENDBRANCH   3   4
ENDBRANCH   2   3
ENDBRANCH   1   2
BRANCH   1  26
ATOM     26  C   UNL     1       0.730   2.342   6.763  1.00  0.00     0.188 C 
BRANCH  26  27
ATOM     27  O   UNL     1       0.876   3.455   7.636  1.00  0.00    -0.376 OA
BRANCH  27  28
ATOM     28  C   UNL     1       0.049   3.445   8.791  1.00  0.00     0.202 C 
BRANCH  28  29
ATOM     29  C   UNL     1       0.602   2.550   9.902  1.00  0.00     0.261 C 
BRANCH  29  30
ATOM     30  O   UNL     1       0.644   1.151   9.573  1.00  0.00    -0.460 OA
BRANCH  30  31
ATOM     31  C   UNL     1      -0.543   0.539   9.366  1.00  0.00     0.338 C 
ATOM     32  O   UNL     1      -1.653   1.035   9.426  1.00  0.00    -0.246 OA
BRANCH  31  33
ATOM     33  C   UNL     1      -0.268  -0.837   8.913  1.00  0.00     0.060 A 
ATOM     34  C   UNL     1      -0.844  -1.289   7.720  1.00  0.00     0.016 A 
ATOM     35  C   UNL     1       0.542  -1.680   9.678  1.00  0.00     0.016 A 
ATOM     36  C   UNL     1      -0.631  -2.605   7.304  1.00  0.00     0.010 A 
ATOM     37  C   UNL     1       0.741  -2.998   9.269  1.00  0.00     0.010 A 
ATOM     38  C   UNL     1       0.135  -3.475   8.095  1.00  0.00    -0.014 A 
BRANCH  38  39
ATOM     39  C   UNL     1       0.188  -4.923   7.787  1.00  0.00     0.031 A 
ATOM     40  C   UNL     1      -0.791  -5.842   8.459  1.00  0.00     0.074 A 
ATOM     41  C   UNL     1       1.118  -5.420   6.954  1.00  0.00     0.049 A 
ATOM     42  N   UNL     1      -0.893  -7.144   8.385  1.00  0.00    -0.248 NA
ATOM     43  C   UNL     1      -1.783  -5.207   9.342  1.00  0.00     0.031 C 
ATOM     44  C   UNL     1       2.124  -4.636   6.244  1.00  0.00     0.029 A 
ATOM     45  N   UNL     1       1.371  -6.716   6.580  1.00  0.00    -0.354 N 
ATOM     46  C   UNL     1      -1.955  -7.485   9.212  1.00  0.00     0.074 A 
ATOM     47  C   UNL     1      -2.452  -6.257   9.794  1.00  0.00     0.031 C 
ATOM     48  C   UNL     1       2.900  -5.471   5.529  1.00  0.00     0.029 A 
ATOM     49  C   UNL     1       2.446  -6.846   5.737  1.00  0.00     0.049 A 
ATOM     50  H   UNL     1       0.833  -7.481   6.889  1.00  0.00     0.167 HD
ATOM     51  C   UNL     1      -2.474  -8.710   9.461  1.00  0.00     0.037 A 
ATOM     52  C   UNL     1       2.999  -7.950   5.200  1.00  0.00     0.037 A 
ATOM     53  C   UNL     1      -1.979  -9.936   8.896  1.00  0.00     0.049 A 
ATOM     54  C   UNL     1       2.426  -9.305   5.520  1.00  0.00     0.074 A 
ATOM     55  C   UNL     1      -2.453 -11.223   9.078  1.00  0.00     0.029 A 
ATOM     56  N   UNL     1      -0.890 -10.025   8.043  1.00  0.00    -0.354 N 
ATOM     57  N   UNL     1       1.397  -9.612   6.271  1.00  0.00    -0.248 NA
ATOM     58  C   UNL     1       3.099 -10.468   4.921  1.00  0.00     0.031 C 
ATOM     59  C   UNL     1      -1.628 -12.098   8.361  1.00  0.00     0.029 A 
ATOM     60  C   UNL     1      -0.663 -11.349   7.706  1.00  0.00     0.049 A 
ATOM     61  H   UNL     1      -0.357  -9.261   7.725  1.00  0.00     0.167 HD
ATOM     62  C   UNL     1       1.288 -10.997   6.221  1.00  0.00     0.074 A 
ATOM     63  C   UNL     1       2.348 -11.470   5.356  1.00  0.00     0.031 C 
ATOM     64  C   UNL     1       0.392 -11.804   6.840  1.00  0.00     0.037 A 
BRANCH  51  65
ATOM     65  C   UNL     1      -3.632  -8.780  10.409  1.00  0.00     0.057 A 
ATOM     66  C   UNL     1      -4.918  -8.379  10.026  1.00  0.00     0.134 A 
ATOM     67  C   UNL     1      -3.463  -9.269  11.709  1.00  0.00     0.134 A 
ATOM     68  F   UNL     1      -5.139  -7.886   8.798  1.00  0.00    -0.206 F 
ATOM     69  C   UNL     1      -5.994  -8.445  10.912  1.00  0.00     0.040 A 
ATOM     70  C   UNL     1      -4.535  -9.357  12.598  1.00  0.00     0.040 A 
ATOM     71  F   UNL     1      -2.255  -9.669  12.135  1.00  0.00    -0.206 F 
ATOM     72  C   UNL     1      -5.804  -8.940  12.201  1.00  0.00     0.006 A 
ENDBRANCH  51  65
BRANCH  52  73
ATOM     73  C   UNL     1       4.164  -7.828   4.291  1.00  0.00     0.057 A 
ATOM     74  C   UNL     1       4.032  -8.068   2.919  1.00  0.00     0.134 A 
ATOM     75  C   UNL     1       5.435  -7.491   4.771  1.00  0.00     0.134 A 
ATOM     76  F   UNL     1       2.843  -8.414   2.407  1.00  0.00    -0.206 F 
ATOM     77  C   UNL     1       5.125  -7.988   2.055  1.00  0.00     0.040 A 
ATOM     78  C   UNL     1       6.533  -7.389   3.916  1.00  0.00     0.040 A 
ATOM     79  F   UNL     1       5.624  -7.253   6.076  1.00  0.00    -0.206 F 
ATOM     80  C   UNL     1       6.380  -7.643   2.553  1.00  0.00     0.006 A 
ENDBRANCH  52  73
BRANCH  64  81
ATOM     81  C   UNL     1       0.503 -13.278   6.588  1.00  0.00     0.057 A 
ATOM     82  C   UNL     1       1.499 -14.054   7.193  1.00  0.00     0.134 A 
ATOM     83  C   UNL     1      -0.425 -13.935   5.771  1.00  0.00     0.134 A 
ATOM     84  F   UNL     1       2.425 -13.481   7.977  1.00  0.00    -0.206 F 
ATOM     85  C   UNL     1       1.576 -15.432   6.983  1.00  0.00     0.040 A 
ATOM     86  C   UNL     1      -0.370 -15.314   5.569  1.00  0.00     0.040 A 
ATOM     87  F   UNL     1      -1.408 -13.248   5.169  1.00  0.00    -0.206 F 
ATOM     88  C   UNL     1       0.635 -16.066   6.173  1.00  0.00     0.006 A 
ENDBRANCH  64  81
ENDBRANCH  38  39
ENDBRANCH  31  33
ENDBRANCH  30  31
ENDBRANCH  29  30
ENDBRANCH  28  29
ENDBRANCH  27  28
ENDBRANCH  26  27
ENDBRANCH   1  26
TORSDOF 22
