REMARK SMILES C[C@H]1N=N[C@H](S/C(=C/c2ccc(-c3cccc(Cl)c3)o2)C(=O)OCCOCCOCCOC(=O)c2ccc(-c3c4nc(c(-c5c(F)cccc5F)c5ccc([nH]5)c(-c5c(F)cccc5F)c5nc(c(-c6c(F)cccc6F)c6ccc3[nH]6)C=C5)C=C4)cc2)[NH2+]1
REMARK SMILES IDX 27 1 26 2 25 3 24 4 23 5 21 6 22 7 7 8 8 9 6 10 5 11 1 12
REMARK SMILES IDX 2 13 3 14 89 15 4 16 9 19 10 20 20 21 11 22 12 23 13 24
REMARK SMILES IDX 14 25 19 26 15 27 17 28 16 29 18 30 28 31 29 32 30 33 31 34
REMARK SMILES IDX 32 35 33 36 34 37 35 38 36 39 88 40 37 41 87 42 38 43 39 44
REMARK SMILES IDX 40 45 81 46 41 47 86 48 80 49 82 50 42 51 85 52 79 53 78 54
REMARK SMILES IDX 43 56 69 57 52 58 68 59 53 60 56 61 67 62 83 63 54 64 55 65
REMARK SMILES IDX 66 67 84 68 57 69 44 70 45 71 50 72 46 73 47 74 49 75 51 76
REMARK SMILES IDX 48 77 70 78 71 79 76 80 72 81 73 82 75 83 77 84 74 85 58 86
REMARK SMILES IDX 59 87 64 88 60 89 61 90 63 91 65 92 62 93
REMARK H PARENT 89 17 89 18 82 55 56 66
REMARK Flexibility Score: inf
ROOT
ATOM      1  C   UNL     1      -4.400  -5.938  -0.237  1.00  0.00     0.188 C 
ENDROOT
BRANCH   1   2
ATOM      2  O   UNL     1      -5.334  -6.907  -0.704  1.00  0.00    -0.376 OA
BRANCH   2   3
ATOM      3  C   UNL     1      -4.919  -8.270  -0.790  1.00  0.00     0.202 C 
BRANCH   3   4
ATOM      4  C   UNL     1      -3.569  -8.586  -1.451  1.00  0.00     0.261 C 
BRANCH   4   5
ATOM      5  O   UNL     1      -2.486  -7.897  -0.810  1.00  0.00    -0.459 OA
BRANCH   5   6
ATOM      6  C   UNL     1      -1.537  -7.324  -1.595  1.00  0.00     0.345 C 
ATOM      7  O   UNL     1      -1.442  -7.438  -2.807  1.00  0.00    -0.246 OA
BRANCH   6   8
ATOM      8  C   UNL     1      -0.681  -6.414  -0.753  1.00  0.00     0.104 C 
ATOM      9  C   UNL     1      -0.079  -6.836   0.377  1.00  0.00     0.070 C 
BRANCH   8  10
ATOM     10  S   UNL     1      -0.833  -4.743  -1.251  1.00  0.00    -0.028 SA
BRANCH  10  11
ATOM     11  C   UNL     1       0.657  -3.858  -0.695  1.00  0.00     0.393 C 
ATOM     12  C   UNL     1       0.826  -0.368  -0.029  1.00  0.00     0.106 C 
ATOM     13  C   UNL     1       0.327  -1.635  -0.712  1.00  0.00     0.324 C 
ATOM     14  N   UNL     1       1.260  -1.996  -1.791  1.00  0.00    -0.126 NA
ATOM     15  N   UNL     1       0.255  -2.773   0.213  1.00  0.00    -0.293 N 
ATOM     16  N   UNL     1       1.448  -3.238  -1.780  1.00  0.00    -0.115 NA
ATOM     17  H   UNL     1      -0.690  -2.910   0.573  1.00  0.00     0.350 HD
ATOM     18  H   UNL     1       0.822  -2.682   1.056  1.00  0.00     0.350 HD
ENDBRANCH  10  11
ENDBRANCH   8  10
BRANCH   9  19
ATOM     19  C   UNL     1      -0.093  -8.188   0.844  1.00  0.00     0.128 A 
ATOM     20  C   UNL     1      -0.113  -9.391   0.143  1.00  0.00     0.051 A 
ATOM     21  O   UNL     1      -0.099  -8.506   2.194  1.00  0.00    -0.457 OA
ATOM     22  C   UNL     1      -0.226 -10.443   1.073  1.00  0.00     0.051 A 
ATOM     23  C   UNL     1      -0.186  -9.861   2.317  1.00  0.00     0.134 A 
BRANCH  23  24
ATOM     24  C   UNL     1      -0.181 -10.429   3.655  1.00  0.00     0.019 A 
ATOM     25  C   UNL     1       0.613 -11.562   3.905  1.00  0.00     0.012 A 
ATOM     26  C   UNL     1      -0.997  -9.935   4.678  1.00  0.00     0.032 A 
ATOM     27  C   UNL     1       0.587 -12.201   5.144  1.00  0.00     0.002 A 
ATOM     28  C   UNL     1      -1.029 -10.587   5.915  1.00  0.00     0.041 A 
ATOM     29  C   UNL     1      -0.244 -11.716   6.150  1.00  0.00     0.020 A 
ATOM     30  Cl  UNL     1      -2.071 -10.013   7.160  1.00  0.00    -0.084 Cl
ENDBRANCH  23  24
ENDBRANCH   9  19
ENDBRANCH   6   8
ENDBRANCH   5   6
ENDBRANCH   4   5
ENDBRANCH   3   4
ENDBRANCH   2   3
ENDBRANCH   1   2
BRANCH   1  31
ATOM     31  C   UNL     1      -3.713  -6.154   1.131  1.00  0.00     0.188 C 
BRANCH  31  32
ATOM     32  O   UNL     1      -3.988  -7.395   1.732  1.00  0.00    -0.376 OA
BRANCH  32  33
ATOM     33  C   UNL     1      -4.994  -7.484   2.723  1.00  0.00     0.202 C 
BRANCH  33  34
ATOM     34  C   UNL     1      -6.198  -6.526   2.850  1.00  0.00     0.261 C 
BRANCH  34  35
ATOM     35  O   UNL     1      -6.203  -5.322   2.075  1.00  0.00    -0.460 OA
BRANCH  35  36
ATOM     36  C   UNL     1      -5.753  -4.200   2.688  1.00  0.00     0.338 C 
ATOM     37  O   UNL     1      -5.312  -4.099   3.816  1.00  0.00    -0.246 OA
BRANCH  36  38
ATOM     38  C   UNL     1      -5.706  -3.118   1.681  1.00  0.00     0.060 A 
ATOM     39  C   UNL     1      -4.463  -2.592   1.303  1.00  0.00     0.016 A 
ATOM     40  C   UNL     1      -6.885  -2.628   1.117  1.00  0.00     0.016 A 
ATOM     41  C   UNL     1      -4.397  -1.552   0.374  1.00  0.00     0.010 A 
ATOM     42  C   UNL     1      -6.819  -1.572   0.205  1.00  0.00     0.010 A 
ATOM     43  C   UNL     1      -5.578  -1.009  -0.148  1.00  0.00    -0.014 A 
BRANCH  43  44
ATOM     44  C   UNL     1      -5.542   0.265  -0.907  1.00  0.00     0.031 A 
ATOM     45  C   UNL     1      -5.854   1.541  -0.175  1.00  0.00     0.074 A 
ATOM     46  C   UNL     1      -5.245   0.296  -2.217  1.00  0.00     0.049 A 
ATOM     47  N   UNL     1      -5.959   2.762  -0.633  1.00  0.00    -0.248 NA
ATOM     48  C   UNL     1      -6.083   1.417   1.273  1.00  0.00     0.031 C 
ATOM     49  C   UNL     1      -4.878  -0.859  -3.031  1.00  0.00     0.029 A 
ATOM     50  N   UNL     1      -5.220   1.352  -3.094  1.00  0.00    -0.354 N 
ATOM     51  C   UNL     1      -6.273   3.549   0.467  1.00  0.00     0.074 A 
ATOM     52  C   UNL     1      -6.378   2.663   1.606  1.00  0.00     0.031 C 
ATOM     53  C   UNL     1      -4.674  -0.451  -4.296  1.00  0.00     0.029 A 
ATOM     54  C   UNL     1      -4.932   0.986  -4.386  1.00  0.00     0.049 A 
ATOM     55  H   UNL     1      -5.391   2.283  -2.823  1.00  0.00     0.167 HD
ATOM     56  C   UNL     1      -6.451   4.891   0.527  1.00  0.00     0.037 A 
ATOM     57  C   UNL     1      -4.903   1.726  -5.512  1.00  0.00     0.037 A 
ATOM     58  C   UNL     1      -6.366   5.768  -0.611  1.00  0.00     0.049 A 
ATOM     59  C   UNL     1      -5.204   3.200  -5.442  1.00  0.00     0.074 A 
ATOM     60  C   UNL     1      -6.522   7.143  -0.654  1.00  0.00     0.029 A 
ATOM     61  N   UNL     1      -6.117   5.353  -1.911  1.00  0.00    -0.354 N 
ATOM     62  N   UNL     1      -5.479   3.943  -4.397  1.00  0.00    -0.248 NA
ATOM     63  C   UNL     1      -5.192   3.940  -6.713  1.00  0.00     0.031 C 
ATOM     64  C   UNL     1      -6.425   7.551  -1.988  1.00  0.00     0.029 A 
ATOM     65  C   UNL     1      -6.145   6.441  -2.769  1.00  0.00     0.049 A 
ATOM     66  H   UNL     1      -5.946   4.423  -2.183  1.00  0.00     0.167 HD
ATOM     67  C   UNL     1      -5.635   5.239  -4.877  1.00  0.00     0.074 A 
ATOM     68  C   UNL     1      -5.419   5.181  -6.308  1.00  0.00     0.031 C 
ATOM     69  C   UNL     1      -5.922   6.374  -4.192  1.00  0.00     0.037 A 
BRANCH  56  70
ATOM     70  C   UNL     1      -6.796   5.473   1.867  1.00  0.00     0.057 A 
ATOM     71  C   UNL     1      -5.875   5.503   2.924  1.00  0.00     0.134 A 
ATOM     72  C   UNL     1      -8.070   6.002   2.109  1.00  0.00     0.134 A 
ATOM     73  F   UNL     1      -4.642   4.999   2.766  1.00  0.00    -0.206 F 
ATOM     74  C   UNL     1      -6.222   5.999   4.182  1.00  0.00     0.040 A 
ATOM     75  C   UNL     1      -8.419   6.530   3.353  1.00  0.00     0.040 A 
ATOM     76  F   UNL     1      -9.000   6.011   1.141  1.00  0.00    -0.206 F 
ATOM     77  C   UNL     1      -7.497   6.518   4.398  1.00  0.00     0.006 A 
ENDBRANCH  56  70
BRANCH  57  78
ATOM     78  C   UNL     1      -4.571   1.085  -6.810  1.00  0.00     0.057 A 
ATOM     79  C   UNL     1      -3.368   1.368  -7.467  1.00  0.00     0.134 A 
ATOM     80  C   UNL     1      -5.448   0.186  -7.429  1.00  0.00     0.134 A 
ATOM     81  F   UNL     1      -2.501   2.243  -6.938  1.00  0.00    -0.206 F 
ATOM     82  C   UNL     1      -3.052   0.788  -8.697  1.00  0.00     0.040 A 
ATOM     83  C   UNL     1      -5.133  -0.421  -8.647  1.00  0.00     0.040 A 
ATOM     84  F   UNL     1      -6.619  -0.123  -6.854  1.00  0.00    -0.206 F 
ATOM     85  C   UNL     1      -3.934  -0.116  -9.286  1.00  0.00     0.006 A 
ENDBRANCH  57  78
BRANCH  69  86
ATOM     86  C   UNL     1      -5.975   7.660  -4.970  1.00  0.00     0.057 A 
ATOM     87  C   UNL     1      -7.015   7.950  -5.862  1.00  0.00     0.134 A 
ATOM     88  C   UNL     1      -4.992   8.642  -4.785  1.00  0.00     0.134 A 
ATOM     89  F   UNL     1      -7.983   7.051  -6.095  1.00  0.00    -0.206 F 
ATOM     90  C   UNL     1      -7.062   9.160  -6.559  1.00  0.00     0.040 A 
ATOM     91  C   UNL     1      -5.044   9.866  -5.453  1.00  0.00     0.040 A 
ATOM     92  F   UNL     1      -3.973   8.434  -3.937  1.00  0.00    -0.206 F 
ATOM     93  C   UNL     1      -6.079  10.125  -6.348  1.00  0.00     0.006 A 
ENDBRANCH  69  86
ENDBRANCH  43  44
ENDBRANCH  36  38
ENDBRANCH  35  36
ENDBRANCH  34  35
ENDBRANCH  33  34
ENDBRANCH  32  33
ENDBRANCH  31  32
ENDBRANCH   1  31
TORSDOF 21
