REMARK SMILES O=C(OCCOCCOCCOC(=O)c1nccnc1C(=O)Nc1n[nH]c2ncccc12)c1ccc(-c2c3nc(c(-c4c(F)cccc4F)c4ccc([nH]4)c(-c4c(F)cccc4F)c4nc(c(-c5c(F)cccc5F)c5ccc2[nH]5)C=C4)C=C3)cc1
REMARK SMILES IDX 7 1 6 2 5 3 4 4 3 5 2 6 1 7 33 8 34 9 86 10 35 11 85 12
REMARK SMILES IDX 36 13 37 14 38 15 79 16 39 17 84 18 78 19 80 20 40 21 83 22
REMARK SMILES IDX 77 23 76 24 41 26 67 27 50 28 66 29 51 30 54 31 65 32 81 33
REMARK SMILES IDX 52 34 53 35 64 37 82 38 55 39 42 40 43 41 48 42 44 43 45 44
REMARK SMILES IDX 47 45 49 46 46 47 68 48 69 49 74 50 70 51 71 52 73 53 75 54
REMARK SMILES IDX 72 55 56 56 57 57 62 58 58 59 59 60 61 61 63 62 60 63 8 64
REMARK SMILES IDX 9 65 10 66 11 67 12 68 13 69 14 70 15 71 16 72 20 73 17 74
REMARK SMILES IDX 19 75 18 76 21 77 22 78 23 79 24 81 25 82 32 83 26 84 27 85
REMARK SMILES IDX 31 86 28 88 30 89 29 90
REMARK H PARENT 80 25 54 36 23 80 26 87
REMARK Flexibility Score: inf
ROOT
ATOM      1  C   UNL     1       2.959  -0.385   1.036  1.00  0.00     0.188 C 
ENDROOT
BRANCH   1   2
ATOM      2  O   UNL     1       4.376  -0.313   0.889  1.00  0.00    -0.376 OA
BRANCH   2   3
ATOM      3  C   UNL     1       4.982   0.959   1.071  1.00  0.00     0.202 C 
BRANCH   3   4
ATOM      4  C   UNL     1       4.626   2.067   0.064  1.00  0.00     0.261 C 
BRANCH   4   5
ATOM      5  O   UNL     1       3.284   2.041  -0.446  1.00  0.00    -0.460 OA
BRANCH   5   6
ATOM      6  C   UNL     1       2.877   1.614  -1.674  1.00  0.00     0.338 C 
ATOM      7  O   UNL     1       1.918   2.172  -2.202  1.00  0.00    -0.246 OA
BRANCH   6   8
ATOM      8  C   UNL     1       3.394   0.346  -2.304  1.00  0.00     0.060 A 
ATOM      9  C   UNL     1       4.632  -0.241  -2.043  1.00  0.00     0.016 A 
ATOM     10  C   UNL     1       2.551  -0.306  -3.229  1.00  0.00     0.016 A 
ATOM     11  C   UNL     1       5.017  -1.435  -2.656  1.00  0.00     0.010 A 
ATOM     12  C   UNL     1       2.950  -1.481  -3.889  1.00  0.00     0.010 A 
ATOM     13  C   UNL     1       4.200  -2.041  -3.614  1.00  0.00    -0.014 A 
BRANCH  13  14
ATOM     14  C   UNL     1       4.806  -3.092  -4.463  1.00  0.00     0.031 A 
ATOM     15  C   UNL     1       5.687  -2.642  -5.590  1.00  0.00     0.074 A 
ATOM     16  C   UNL     1       4.720  -4.398  -4.155  1.00  0.00     0.049 A 
ATOM     17  N   UNL     1       6.381  -3.360  -6.430  1.00  0.00    -0.248 NA
ATOM     18  C   UNL     1       5.825  -1.187  -5.776  1.00  0.00     0.031 C 
ATOM     19  C   UNL     1       3.982  -4.938  -3.023  1.00  0.00     0.029 A 
ATOM     20  N   UNL     1       5.298  -5.505  -4.728  1.00  0.00    -0.354 N 
ATOM     21  C   UNL     1       7.022  -2.447  -7.254  1.00  0.00     0.074 A 
ATOM     22  C   UNL     1       6.669  -1.124  -6.794  1.00  0.00     0.031 C 
ATOM     23  C   UNL     1       4.222  -6.255  -2.927  1.00  0.00     0.029 A 
ATOM     24  C   UNL     1       4.987  -6.682  -4.088  1.00  0.00     0.049 A 
ATOM     25  H   UNL     1       5.879  -5.460  -5.521  1.00  0.00     0.167 HD
ATOM     26  C   UNL     1       7.802  -2.698  -8.328  1.00  0.00     0.037 A 
ATOM     27  C   UNL     1       5.219  -7.963  -4.437  1.00  0.00     0.037 A 
ATOM     28  C   UNL     1       8.101  -4.019  -8.804  1.00  0.00     0.049 A 
ATOM     29  C   UNL     1       5.965  -8.213  -5.718  1.00  0.00     0.074 A 
ATOM     30  C   UNL     1       8.839  -4.386  -9.912  1.00  0.00     0.029 A 
ATOM     31  N   UNL     1       7.646  -5.189  -8.213  1.00  0.00    -0.354 N 
ATOM     32  N   UNL     1       6.543  -7.345  -6.513  1.00  0.00    -0.248 NA
ATOM     33  C   UNL     1       6.062  -9.606  -6.174  1.00  0.00     0.031 C 
ATOM     34  C   UNL     1       8.771  -5.777 -10.033  1.00  0.00     0.029 A 
ATOM     35  C   UNL     1       8.046  -6.279  -8.963  1.00  0.00     0.049 A 
ATOM     36  H   UNL     1       7.119  -5.235  -7.383  1.00  0.00     0.167 HD
ATOM     37  C   UNL     1       7.071  -8.084  -7.561  1.00  0.00     0.074 A 
ATOM     38  C   UNL     1       6.775  -9.475  -7.284  1.00  0.00     0.031 C 
ATOM     39  C   UNL     1       7.732  -7.652  -8.661  1.00  0.00     0.037 A 
BRANCH  26  40
ATOM     40  C   UNL     1       8.274  -1.519  -9.118  1.00  0.00     0.057 A 
ATOM     41  C   UNL     1       9.295  -0.673  -8.672  1.00  0.00     0.134 A 
ATOM     42  C   UNL     1       7.682  -1.230 -10.354  1.00  0.00     0.134 A 
ATOM     43  F   UNL     1       9.875  -0.875  -7.480  1.00  0.00    -0.206 F 
ATOM     44  C   UNL     1       9.708   0.426  -9.429  1.00  0.00     0.040 A 
ATOM     45  C   UNL     1       8.100  -0.149 -11.128  1.00  0.00     0.040 A 
ATOM     46  F   UNL     1       6.685  -1.994 -10.826  1.00  0.00    -0.206 F 
ATOM     47  C   UNL     1       9.115   0.684 -10.664  1.00  0.00     0.006 A 
ENDBRANCH  26  40
BRANCH  27  48
ATOM     48  C   UNL     1       4.621  -9.097  -3.675  1.00  0.00     0.057 A 
ATOM     49  C   UNL     1       5.409 -10.086  -3.075  1.00  0.00     0.134 A 
ATOM     50  C   UNL     1       3.230  -9.267  -3.609  1.00  0.00     0.134 A 
ATOM     51  F   UNL     1       6.747 -10.009  -3.130  1.00  0.00    -0.206 F 
ATOM     52  C   UNL     1       4.840 -11.206  -2.460  1.00  0.00     0.040 A 
ATOM     53  C   UNL     1       2.647 -10.367  -2.977  1.00  0.00     0.040 A 
ATOM     54  F   UNL     1       2.407  -8.355  -4.148  1.00  0.00    -0.206 F 
ATOM     55  C   UNL     1       3.454 -11.347  -2.408  1.00  0.00     0.006 A 
ENDBRANCH  27  48
BRANCH  39  56
ATOM     56  C   UNL     1       8.188  -8.693  -9.635  1.00  0.00     0.057 A 
ATOM     57  C   UNL     1       7.287  -9.359 -10.475  1.00  0.00     0.134 A 
ATOM     58  C   UNL     1       9.550  -8.985  -9.776  1.00  0.00     0.134 A 
ATOM     59  F   UNL     1       5.968  -9.133 -10.373  1.00  0.00    -0.206 F 
ATOM     60  C   UNL     1       7.726 -10.289 -11.416  1.00  0.00     0.040 A 
ATOM     61  C   UNL     1      10.003  -9.890 -10.733  1.00  0.00     0.040 A 
ATOM     62  F   UNL     1      10.461  -8.374  -9.003  1.00  0.00    -0.206 F 
ATOM     63  C   UNL     1       9.089 -10.547 -11.555  1.00  0.00     0.006 A 
ENDBRANCH  39  56
ENDBRANCH  13  14
ENDBRANCH   6   8
ENDBRANCH   5   6
ENDBRANCH   4   5
ENDBRANCH   3   4
ENDBRANCH   2   3
ENDBRANCH   1   2
BRANCH   1  64
ATOM     64  C   UNL     1       2.383   0.117   2.358  1.00  0.00     0.188 C 
BRANCH  64  65
ATOM     65  O   UNL     1       2.317  -0.835   3.414  1.00  0.00    -0.376 OA
BRANCH  65  66
ATOM     66  C   UNL     1       3.532  -1.401   3.906  1.00  0.00     0.202 C 
BRANCH  66  67
ATOM     67  C   UNL     1       4.118  -2.828   3.174  1.00  0.00     0.261 C 
BRANCH  67  68
ATOM     68  O   UNL     1       3.156  -4.694   2.921  1.00  0.00    -0.458 OA
BRANCH  68  69
ATOM     69  C   UNL     1       2.331  -5.738   2.435  1.00  0.00     0.359 C 
ATOM     70  O   UNL     1       2.128  -6.716   3.155  1.00  0.00    -0.244 OA
BRANCH  69  71
ATOM     71  C   UNL     1       1.789  -5.755   1.008  1.00  0.00     0.179 A 
ATOM     72  N   UNL     1       2.002  -6.981   0.419  1.00  0.00    -0.245 NA
ATOM     73  C   UNL     1       1.132  -4.746   0.288  1.00  0.00     0.161 A 
ATOM     74  C   UNL     1       1.554  -7.157  -0.842  1.00  0.00     0.132 A 
ATOM     75  N   UNL     1       0.760  -4.931  -1.026  1.00  0.00    -0.247 NA
ATOM     76  C   UNL     1       0.967  -6.145  -1.564  1.00  0.00     0.132 A 
BRANCH  73  77
ATOM     77  C   UNL     1       0.616  -3.433   0.805  1.00  0.00     0.278 C 
ATOM     78  O   UNL     1      -0.309  -2.851   0.238  1.00  0.00    -0.267 OA
ATOM     79  N   UNL     1       1.111  -2.908   1.951  1.00  0.00    -0.303 N 
ATOM     80  H   UNL     1       0.557  -2.264   2.449  1.00  0.00     0.172 HD
BRANCH  79  81
ATOM     81  C   UNL     1       2.335  -3.226   2.448  1.00  0.00     0.164 A 
ATOM     82  N   UNL     1       2.550  -3.548   4.147  1.00  0.00    -0.155 NA
ATOM     83  C   UNL     1       3.899  -3.908   1.467  1.00  0.00     0.063 A 
ATOM     84  N   UNL     1       4.167  -4.455   4.318  1.00  0.00    -0.259 N 
ATOM     85  C   UNL     1       4.975  -4.635   2.676  1.00  0.00     0.157 A 
ATOM     86  C   UNL     1       4.416  -3.850   0.175  1.00  0.00     0.017 A 
ATOM     87  H   UNL     1       4.536  -4.791   5.166  1.00  0.00     0.192 HD
ATOM     88  N   UNL     1       6.197  -5.108   2.396  1.00  0.00    -0.237 NA
ATOM     89  C   UNL     1       5.709  -4.386   0.014  1.00  0.00     0.021 A 
ATOM     90  C   UNL     1       6.479  -4.958   1.066  1.00  0.00     0.113 A 
ENDBRANCH  79  81
ENDBRANCH  73  77
ENDBRANCH  69  71
ENDBRANCH  68  69
ENDBRANCH  67  68
ENDBRANCH  66  67
ENDBRANCH  65  66
ENDBRANCH  64  65
ENDBRANCH   1  64
TORSDOF 19
