REMARK SMILES Cc1c(NC(=O)c2ccc(Br)cc2N)cccc1C(=O)OCCOCCOCCOC(=O)c1ccc(-c2c3nc(c(-c4c(F)cccc4F)c4ccc([nH]4)c(-c4c(F)cccc4F)c4nc(c(-c5c(F)cccc5F)c5ccc2[nH]5)C=C4)C=C3)cc1
REMARK SMILES IDX 25 1 24 2 23 3 22 4 21 5 19 6 20 7 18 8 1 9 2 10 3 11 15 12
REMARK SMILES IDX 17 13 16 14 4 15 5 16 6 18 7 19 8 20 13 21 9 22 12 23 10 24
REMARK SMILES IDX 11 25 14 26 26 29 27 30 28 31 29 32 30 33 31 34 32 35 33 36
REMARK SMILES IDX 34 37 86 38 35 39 85 40 36 41 37 42 38 43 79 44 39 45 84 46
REMARK SMILES IDX 78 47 80 48 40 49 83 50 77 51 76 52 41 54 67 55 50 56 66 57
REMARK SMILES IDX 51 58 54 59 65 60 81 61 52 62 53 63 64 65 82 66 55 67 42 68
REMARK SMILES IDX 43 69 48 70 44 71 45 72 47 73 49 74 46 75 68 76 69 77 74 78
REMARK SMILES IDX 70 79 71 80 73 81 75 82 72 83 56 84 57 85 62 86 58 87 59 88
REMARK SMILES IDX 61 89 63 90 60 91
REMARK H PARENT 4 17 14 27 14 28 80 53 54 64
REMARK Flexibility Score: inf
ROOT
ATOM      1  C   UNL     1       2.488   5.661  -2.082  1.00  0.00     0.188 C 
ENDROOT
BRANCH   1   2
ATOM      2  O   UNL     1       3.377   5.104  -1.092  1.00  0.00    -0.376 OA
BRANCH   2   3
ATOM      3  C   UNL     1       4.277   3.995  -1.257  1.00  0.00     0.202 C 
BRANCH   3   4
ATOM      4  C   UNL     1       4.160   2.377  -0.671  1.00  0.00     0.261 C 
BRANCH   4   5
ATOM      5  O   UNL     1       2.934   1.147  -0.807  1.00  0.00    -0.460 OA
BRANCH   5   6
ATOM      6  C   UNL     1       1.713   0.733  -0.145  1.00  0.00     0.338 C 
ATOM      7  O   UNL     1       1.208   1.163   0.898  1.00  0.00    -0.246 OA
BRANCH   6   8
ATOM      8  C   UNL     1       0.787  -0.340  -0.501  1.00  0.00     0.065 A 
ATOM      9  C   UNL     1       2.715  -1.907  -0.775  1.00  0.00     0.047 C 
ATOM     10  C   UNL     1       1.273  -1.632  -0.486  1.00  0.00    -0.013 A 
ATOM     11  C   UNL     1       0.360  -2.650  -0.154  1.00  0.00     0.045 A 
ATOM     12  C   UNL     1      -0.976  -2.392   0.215  1.00  0.00     0.026 A 
ATOM     13  C   UNL     1      -0.598  -0.091  -0.186  1.00  0.00     0.016 A 
ATOM     14  C   UNL     1      -1.468  -1.104   0.189  1.00  0.00     0.003 A 
BRANCH  11  15
ATOM     15  N   UNL     1       0.812  -3.962  -0.266  1.00  0.00    -0.322 N 
ATOM     16  C   UNL     1       0.183  -5.010  -0.894  1.00  0.00     0.257 C 
ATOM     17  H   UNL     1       1.680  -4.162   0.152  1.00  0.00     0.170 HD
ATOM     18  O   UNL     1       0.685  -6.131  -0.829  1.00  0.00    -0.269 OA
BRANCH  16  19
ATOM     19  C   UNL     1      -1.075  -4.811  -1.667  1.00  0.00     0.063 A 
ATOM     20  C   UNL     1      -2.080  -5.748  -1.381  1.00  0.00     0.017 A 
ATOM     21  C   UNL     1      -1.313  -3.774  -2.603  1.00  0.00     0.045 A 
ATOM     22  C   UNL     1      -3.319  -5.670  -2.011  1.00  0.00     0.016 A 
ATOM     23  C   UNL     1      -2.571  -3.712  -3.220  1.00  0.00     0.042 A 
ATOM     24  C   UNL     1      -3.560  -4.651  -2.925  1.00  0.00     0.020 A 
ATOM     25  Br  UNL     1      -5.229  -4.556  -3.805  1.00  0.00    -0.051 Br
BRANCH  21  26
ATOM     26  N   UNL     1      -0.340  -2.885  -3.067  1.00  0.00    -0.398 N 
ATOM     27  H   UNL     1       0.560  -2.888  -2.667  1.00  0.00     0.156 HD
ATOM     28  H   UNL     1      -0.554  -2.257  -3.794  1.00  0.00     0.156 HD
ENDBRANCH  21  26
ENDBRANCH  16  19
ENDBRANCH  11  15
ENDBRANCH   6   8
ENDBRANCH   5   6
ENDBRANCH   4   5
ENDBRANCH   3   4
ENDBRANCH   2   3
ENDBRANCH   1   2
BRANCH   1  29
ATOM     29  C   UNL     1       2.700   5.550  -3.590  1.00  0.00     0.188 C 
BRANCH  29  30
ATOM     30  O   UNL     1       3.247   4.294  -3.925  1.00  0.00    -0.376 OA
BRANCH  30  31
ATOM     31  C   UNL     1       3.459   4.060  -5.305  1.00  0.00     0.202 C 
BRANCH  31  32
ATOM     32  C   UNL     1       2.160   3.873  -6.121  1.00  0.00     0.261 C 
BRANCH  32  33
ATOM     33  O   UNL     1       1.332   2.812  -5.579  1.00  0.00    -0.460 OA
BRANCH  33  34
ATOM     34  C   UNL     1       0.126   3.147  -4.992  1.00  0.00     0.338 C 
ATOM     35  O   UNL     1      -0.710   3.866  -5.484  1.00  0.00    -0.246 OA
BRANCH  34  36
ATOM     36  C   UNL     1       0.132   2.704  -3.547  1.00  0.00     0.060 A 
ATOM     37  C   UNL     1      -0.709   3.152  -2.514  1.00  0.00     0.016 A 
ATOM     38  C   UNL     1       1.305   2.191  -3.144  1.00  0.00     0.016 A 
ATOM     39  C   UNL     1      -0.235   3.285  -1.133  1.00  0.00     0.010 A 
ATOM     40  C   UNL     1       1.778   2.743  -1.967  1.00  0.00     0.010 A 
ATOM     41  C   UNL     1       1.114   3.168  -0.796  1.00  0.00    -0.014 A 
BRANCH  41  42
ATOM     42  C   UNL     1       1.872   3.511   0.677  1.00  0.00     0.031 A 
ATOM     43  C   UNL     1       2.736   2.534   1.842  1.00  0.00     0.074 A 
ATOM     44  C   UNL     1       1.693   4.780   1.100  1.00  0.00     0.049 A 
ATOM     45  N   UNL     1       2.726   2.743   3.143  1.00  0.00    -0.248 NA
ATOM     46  C   UNL     1       3.481   1.190   1.684  1.00  0.00     0.031 C 
ATOM     47  C   UNL     1       2.295   5.462   2.240  1.00  0.00     0.029 A 
ATOM     48  N   UNL     1       0.784   5.718   0.593  1.00  0.00    -0.354 N 
ATOM     49  C   UNL     1       3.477   1.720   3.748  1.00  0.00     0.074 A 
ATOM     50  C   UNL     1       3.506   0.634   2.876  1.00  0.00     0.031 C 
ATOM     51  C   UNL     1       1.525   6.520   2.551  1.00  0.00     0.029 A 
ATOM     52  C   UNL     1       0.349   6.457   1.698  1.00  0.00     0.049 A 
ATOM     53  H   UNL     1       0.509   5.833  -0.346  1.00  0.00     0.167 HD
ATOM     54  C   UNL     1       4.259   1.876   4.844  1.00  0.00     0.037 A 
ATOM     55  C   UNL     1      -0.947   6.361   2.098  1.00  0.00     0.037 A 
ATOM     56  C   UNL     1       3.731   2.999   5.565  1.00  0.00     0.049 A 
ATOM     57  C   UNL     1      -1.026   5.824   3.510  1.00  0.00     0.074 A 
ATOM     58  C   UNL     1       4.024   4.345   5.552  1.00  0.00     0.029 A 
ATOM     59  N   UNL     1       2.414   2.873   5.987  1.00  0.00    -0.354 N 
ATOM     60  N   UNL     1      -0.071   5.147   4.099  1.00  0.00    -0.248 NA
ATOM     61  C   UNL     1      -2.151   6.085   4.398  1.00  0.00     0.031 C 
ATOM     62  C   UNL     1       2.787   5.031   5.769  1.00  0.00     0.029 A 
ATOM     63  C   UNL     1       1.781   4.098   5.993  1.00  0.00     0.049 A 
ATOM     64  H   UNL     1       1.990   2.023   6.248  1.00  0.00     0.167 HD
ATOM     65  C   UNL     1      -0.427   4.877   5.392  1.00  0.00     0.074 A 
ATOM     66  C   UNL     1      -1.729   5.503   5.532  1.00  0.00     0.031 C 
ATOM     67  C   UNL     1       0.345   4.159   6.262  1.00  0.00     0.037 A 
BRANCH  54  68
ATOM     68  C   UNL     1       5.515   1.044   5.152  1.00  0.00     0.057 A 
ATOM     69  C   UNL     1       6.207   1.250   6.356  1.00  0.00     0.134 A 
ATOM     70  C   UNL     1       6.177   0.120   4.288  1.00  0.00     0.134 A 
ATOM     71  F   UNL     1       5.764   2.136   7.258  1.00  0.00    -0.206 F 
ATOM     72  C   UNL     1       7.410   0.585   6.681  1.00  0.00     0.040 A 
ATOM     73  C   UNL     1       7.334  -0.601   4.631  1.00  0.00     0.040 A 
ATOM     74  F   UNL     1       5.809  -0.099   3.020  1.00  0.00    -0.206 F 
ATOM     75  C   UNL     1       7.967  -0.361   5.831  1.00  0.00     0.006 A 
ENDBRANCH  54  68
BRANCH  55  76
ATOM     76  C   UNL     1      -1.918   6.202   0.960  1.00  0.00     0.057 A 
ATOM     77  C   UNL     1      -1.825   7.118  -0.118  1.00  0.00     0.134 A 
ATOM     78  C   UNL     1      -2.690   5.063   0.719  1.00  0.00     0.134 A 
ATOM     79  F   UNL     1      -1.129   8.258   0.027  1.00  0.00    -0.206 F 
ATOM     80  C   UNL     1      -2.332   6.849  -1.396  1.00  0.00     0.040 A 
ATOM     81  C   UNL     1      -3.241   4.800  -0.555  1.00  0.00     0.040 A 
ATOM     82  F   UNL     1      -2.815   4.109   1.652  1.00  0.00    -0.206 F 
ATOM     83  C   UNL     1      -3.024   5.671  -1.625  1.00  0.00     0.006 A 
ENDBRANCH  55  76
BRANCH  67  84
ATOM     84  C   UNL     1      -0.223   3.433   7.468  1.00  0.00     0.057 A 
ATOM     85  C   UNL     1      -1.565   3.030   7.572  1.00  0.00     0.134 A 
ATOM     86  C   UNL     1       0.618   2.946   8.495  1.00  0.00     0.134 A 
ATOM     87  F   UNL     1      -2.460   3.285   6.609  1.00  0.00    -0.206 F 
ATOM     88  C   UNL     1      -2.051   2.284   8.652  1.00  0.00     0.040 A 
ATOM     89  C   UNL     1       0.161   2.122   9.528  1.00  0.00     0.040 A 
ATOM     90  F   UNL     1       1.931   3.215   8.524  1.00  0.00    -0.206 F 
ATOM     91  C   UNL     1      -1.185   1.811   9.626  1.00  0.00     0.006 A 
ENDBRANCH  67  84
ENDBRANCH  41  42
ENDBRANCH  34  36
ENDBRANCH  33  34
ENDBRANCH  32  33
ENDBRANCH  31  32
ENDBRANCH  30  31
ENDBRANCH  29  30
ENDBRANCH   1  29
TORSDOF 20
