REMARK SMILES O=C(OCCOCCOCCOC(=O)[C@@H]1[C@@H](C(=O)Nc2ccc(F)c(F)c2)[C@H]2C=C[C@@H]1O2)c1ccc(-c2c3nc(c(-c4c(F)cccc4F)c4ccc([nH]4)c(-c4c(F)cccc4F)c4nc(c(-c5c(F)cccc5F)c5ccc2[nH]5)C=C4)C=C3)cc1
REMARK SMILES IDX 7 1 6 2 5 3 4 4 3 5 2 6 1 7 33 8 34 9 86 10 35 11 85 12
REMARK SMILES IDX 36 13 37 14 38 15 79 16 39 17 84 18 78 19 80 20 40 21 83 22
REMARK SMILES IDX 77 23 76 24 41 26 67 27 50 28 66 29 51 30 54 31 65 32 81 33
REMARK SMILES IDX 52 34 53 35 64 37 82 38 55 39 42 40 43 41 48 42 44 43 45 44
REMARK SMILES IDX 47 45 49 46 46 47 68 48 69 49 74 50 70 51 71 52 73 53 75 54
REMARK SMILES IDX 72 55 56 56 57 57 62 58 58 59 59 60 61 61 63 62 60 63 8 64
REMARK SMILES IDX 9 65 10 66 11 67 12 68 13 69 14 70 15 71 16 72 31 73 28 74
REMARK SMILES IDX 30 75 32 76 29 77 17 78 18 79 19 80 20 82 21 83 27 84 22 85
REMARK SMILES IDX 25 86 23 87 26 88 24 89
REMARK H PARENT 80 25 54 36 19 81
REMARK Flexibility Score: inf
ROOT
ATOM      1  C   UNL     1       2.461  -1.622  -0.350  1.00  0.00     0.188 C 
ENDROOT
BRANCH   1   2
ATOM      2  O   UNL     1       3.813  -1.411  -0.785  1.00  0.00    -0.376 OA
BRANCH   2   3
ATOM      3  C   UNL     1       4.775  -1.443   0.278  1.00  0.00     0.202 C 
BRANCH   3   4
ATOM      4  C   UNL     1       4.711  -0.327   1.340  1.00  0.00     0.261 C 
BRANCH   4   5
ATOM      5  O   UNL     1       3.411   0.239   1.552  1.00  0.00    -0.460 OA
BRANCH   5   6
ATOM      6  C   UNL     1       2.772   1.226   0.883  1.00  0.00     0.338 C 
ATOM      7  O   UNL     1       1.661   1.565   1.293  1.00  0.00    -0.246 OA
BRANCH   6   8
ATOM      8  C   UNL     1       3.305   1.916  -0.340  1.00  0.00     0.060 A 
ATOM      9  C   UNL     1       4.488   1.607  -1.020  1.00  0.00     0.016 A 
ATOM     10  C   UNL     1       2.524   2.973  -0.845  1.00  0.00     0.016 A 
ATOM     11  C   UNL     1       4.930   2.361  -2.104  1.00  0.00     0.010 A 
ATOM     12  C   UNL     1       2.949   3.729  -1.940  1.00  0.00     0.010 A 
ATOM     13  C   UNL     1       4.181   3.447  -2.541  1.00  0.00    -0.014 A 
BRANCH  13  14
ATOM     14  C   UNL     1       4.788   4.414  -3.471  1.00  0.00     0.031 A 
ATOM     15  C   UNL     1       5.415   5.621  -2.878  1.00  0.00     0.074 A 
ATOM     16  C   UNL     1       4.808   4.202  -4.795  1.00  0.00     0.049 A 
ATOM     17  N   UNL     1       5.951   6.641  -3.482  1.00  0.00    -0.248 NA
ATOM     18  C   UNL     1       5.473   5.672  -1.408  1.00  0.00     0.031 C 
ATOM     19  C   UNL     1       4.359   2.975  -5.415  1.00  0.00     0.029 A 
ATOM     20  N   UNL     1       5.190   4.976  -5.854  1.00  0.00    -0.354 N 
ATOM     21  C   UNL     1       6.404   7.464  -2.468  1.00  0.00     0.074 A 
ATOM     22  C   UNL     1       6.064   6.837  -1.210  1.00  0.00     0.031 C 
ATOM     23  C   UNL     1       4.383   3.094  -6.747  1.00  0.00     0.029 A 
ATOM     24  C   UNL     1       4.886   4.412  -7.073  1.00  0.00     0.049 A 
ATOM     25  H   UNL     1       5.637   5.847  -5.756  1.00  0.00     0.167 HD
ATOM     26  C   UNL     1       7.043   8.646  -2.598  1.00  0.00     0.037 A 
ATOM     27  C   UNL     1       4.991   4.905  -8.319  1.00  0.00     0.037 A 
ATOM     28  C   UNL     1       7.300   9.250  -3.875  1.00  0.00     0.049 A 
ATOM     29  C   UNL     1       5.603   6.261  -8.444  1.00  0.00     0.074 A 
ATOM     30  C   UNL     1       7.875  10.473  -4.154  1.00  0.00     0.029 A 
ATOM     31  N   UNL     1       6.965   8.671  -5.098  1.00  0.00    -0.354 N 
ATOM     32  N   UNL     1       6.019   7.050  -7.481  1.00  0.00    -0.248 NA
ATOM     33  C   UNL     1       5.790   6.793  -9.794  1.00  0.00     0.031 C 
ATOM     34  C   UNL     1       7.830  10.660  -5.540  1.00  0.00     0.029 A 
ATOM     35  C   UNL     1       7.293   9.526  -6.135  1.00  0.00     0.049 A 
ATOM     36  H   UNL     1       6.555   7.783  -5.208  1.00  0.00     0.167 HD
ATOM     37  C   UNL     1       6.548   8.164  -8.103  1.00  0.00     0.074 A 
ATOM     38  C   UNL     1       6.398   7.944  -9.533  1.00  0.00     0.031 C 
ATOM     39  C   UNL     1       7.115   9.261  -7.545  1.00  0.00     0.037 A 
BRANCH  26  40
ATOM     40  C   UNL     1       7.368   9.355  -1.319  1.00  0.00     0.057 A 
ATOM     41  C   UNL     1       8.314   8.860  -0.408  1.00  0.00     0.134 A 
ATOM     42  C   UNL     1       6.620  10.472  -0.930  1.00  0.00     0.134 A 
ATOM     43  F   UNL     1       9.031   7.763  -0.701  1.00  0.00    -0.206 F 
ATOM     44  C   UNL     1       8.464   9.418   0.863  1.00  0.00     0.040 A 
ATOM     45  C   UNL     1       6.784  11.057   0.326  1.00  0.00     0.040 A 
ATOM     46  F   UNL     1       5.687  10.984  -1.746  1.00  0.00    -0.206 F 
ATOM     47  C   UNL     1       7.694  10.519   1.233  1.00  0.00     0.006 A 
ENDBRANCH  26  40
BRANCH  27  48
ATOM     48  C   UNL     1       4.545   4.094  -9.481  1.00  0.00     0.057 A 
ATOM     49  C   UNL     1       5.461   3.527 -10.373  1.00  0.00     0.134 A 
ATOM     50  C   UNL     1       3.190   3.785  -9.676  1.00  0.00     0.134 A 
ATOM     51  F   UNL     1       6.773   3.770 -10.237  1.00  0.00    -0.206 F 
ATOM     52  C   UNL     1       5.051   2.694 -11.419  1.00  0.00     0.040 A 
ATOM     53  C   UNL     1       2.767   2.936 -10.701  1.00  0.00     0.040 A 
ATOM     54  F   UNL     1       2.259   4.273  -8.842  1.00  0.00    -0.206 F 
ATOM     55  C   UNL     1       3.700   2.390 -11.580  1.00  0.00     0.006 A 
ENDBRANCH  27  48
BRANCH  39  56
ATOM     56  C   UNL     1       7.639  10.291  -8.492  1.00  0.00     0.057 A 
ATOM     57  C   UNL     1       6.786  11.146  -9.197  1.00  0.00     0.134 A 
ATOM     58  C   UNL     1       9.019  10.474  -8.633  1.00  0.00     0.134 A 
ATOM     59  F   UNL     1       5.454  11.001  -9.114  1.00  0.00    -0.206 F 
ATOM     60  C   UNL     1       7.291  12.152 -10.017  1.00  0.00     0.040 A 
ATOM     61  C   UNL     1       9.536  11.495  -9.426  1.00  0.00     0.040 A 
ATOM     62  F   UNL     1       9.882   9.682  -7.978  1.00  0.00    -0.206 F 
ATOM     63  C   UNL     1       8.669  12.337 -10.121  1.00  0.00     0.006 A 
ENDBRANCH  39  56
ENDBRANCH  13  14
ENDBRANCH   6   8
ENDBRANCH   5   6
ENDBRANCH   4   5
ENDBRANCH   3   4
ENDBRANCH   2   3
ENDBRANCH   1   2
BRANCH   1  64
ATOM     64  C   UNL     1       1.666  -2.660  -1.141  1.00  0.00     0.188 C 
BRANCH  64  65
ATOM     65  O   UNL     1       2.070  -4.019  -1.014  1.00  0.00    -0.376 OA
BRANCH  65  66
ATOM     66  C   UNL     1       3.409  -4.330  -1.366  1.00  0.00     0.202 C 
BRANCH  66  67
ATOM     67  C   UNL     1       3.798  -4.228  -2.843  1.00  0.00     0.261 C 
BRANCH  67  68
ATOM     68  O   UNL     1       3.445  -2.993  -3.485  1.00  0.00    -0.463 OA
BRANCH  68  69
ATOM     69  C   UNL     1       2.459  -3.055  -4.415  1.00  0.00     0.312 C 
ATOM     70  O   UNL     1       1.823  -4.072  -4.686  1.00  0.00    -0.252 OA
BRANCH  69  71
ATOM     71  C   UNL     1       2.199  -1.755  -5.127  1.00  0.00     0.147 C 
ATOM     72  C   UNL     1       3.204  -0.605  -4.859  1.00  0.00     0.129 C 
ATOM     73  C   UNL     1       0.870  -1.163  -4.627  1.00  0.00     0.157 C 
ATOM     74  C   UNL     1       2.233   0.503  -4.382  1.00  0.00     0.155 C 
ATOM     75  C   UNL     1       0.395  -0.094  -5.566  1.00  0.00     0.004 C 
ATOM     76  O   UNL     1       1.352  -0.308  -3.555  1.00  0.00    -0.365 OA
ATOM     77  C   UNL     1       1.238   0.936  -5.416  1.00  0.00     0.004 C 
BRANCH  72  78
ATOM     78  C   UNL     1       3.993  -0.262  -6.121  1.00  0.00     0.231 C 
ATOM     79  O   UNL     1       3.437  -0.055  -7.202  1.00  0.00    -0.274 OA
ATOM     80  N   UNL     1       5.348  -0.051  -6.049  1.00  0.00    -0.326 N 
ATOM     81  H   UNL     1       5.709   0.556  -6.734  1.00  0.00     0.169 HD
BRANCH  80  82
ATOM     82  C   UNL     1       6.299  -0.563  -5.158  1.00  0.00     0.044 A 
ATOM     83  C   UNL     1       6.179  -1.847  -4.623  1.00  0.00     0.029 A 
ATOM     84  C   UNL     1       7.444   0.190  -4.888  1.00  0.00     0.068 A 
ATOM     85  C   UNL     1       7.149  -2.350  -3.755  1.00  0.00     0.044 A 
ATOM     86  C   UNL     1       8.402  -0.312  -4.007  1.00  0.00     0.160 A 
ATOM     87  C   UNL     1       8.249  -1.569  -3.436  1.00  0.00     0.158 A 
ATOM     88  F   UNL     1       9.475   0.433  -3.709  1.00  0.00    -0.204 F 
ATOM     89  F   UNL     1       9.166  -2.046  -2.584  1.00  0.00    -0.204 F 
ENDBRANCH  80  82
ENDBRANCH  72  78
ENDBRANCH  69  71
ENDBRANCH  68  69
ENDBRANCH  67  68
ENDBRANCH  66  67
ENDBRANCH  65  66
ENDBRANCH  64  65
ENDBRANCH   1  64
TORSDOF 19
