REMARK SMILES CCOc1ccc(-c2cnc(N)cc2C(=O)OCCOCCOCCOC(=O)c2ccc(-c3c4nc(c(-c5c(F)cccc5F)c5ccc([nH]5)c(-c5c(F)cccc5F)c5nc(c(-c6c(F)cccc6F)c6ccc3[nH]6)C=C5)C=C4)cc2)c(Cl)c1
REMARK SMILES IDX 21 1 20 2 19 3 18 4 17 5 15 6 16 7 14 8 8 9 9 10 10 11 13 12
REMARK SMILES IDX 11 13 7 14 4 15 5 16 85 17 6 18 83 19 84 20 3 21 2 22 1 23
REMARK SMILES IDX 12 24 22 27 23 28 24 29 25 30 26 31 27 32 28 33 29 34 30 35
REMARK SMILES IDX 82 36 31 37 81 38 32 39 33 40 34 41 75 42 35 43 80 44 74 45
REMARK SMILES IDX 76 46 36 47 79 48 73 49 72 50 37 52 63 53 46 54 62 55 47 56
REMARK SMILES IDX 50 57 61 58 77 59 48 60 49 61 60 63 78 64 51 65 38 66 39 67
REMARK SMILES IDX 44 68 40 69 41 70 43 71 45 72 42 73 64 74 65 75 70 76 66 77
REMARK SMILES IDX 67 78 69 79 71 80 68 81 52 82 53 83 58 84 54 85 55 86 57 87
REMARK SMILES IDX 59 88 56 89
REMARK H PARENT 12 25 12 26 76 51 50 62
REMARK Flexibility Score: inf
ROOT
ATOM      1  C   UNL     1       5.381   0.508  -6.002  1.00  0.00     0.188 C 
ENDROOT
BRANCH   1   2
ATOM      2  O   UNL     1       5.190   1.835  -6.425  1.00  0.00    -0.376 OA
BRANCH   2   3
ATOM      3  C   UNL     1       6.073   2.865  -6.032  1.00  0.00     0.202 C 
BRANCH   3   4
ATOM      4  C   UNL     1       7.136   2.779  -4.919  1.00  0.00     0.261 C 
BRANCH   4   5
ATOM      5  O   UNL     1       7.550   1.490  -4.453  1.00  0.00    -0.460 OA
BRANCH   5   6
ATOM      6  C   UNL     1       7.202   1.168  -3.179  1.00  0.00     0.339 C 
ATOM      7  O   UNL     1       6.491   1.832  -2.443  1.00  0.00    -0.246 OA
BRANCH   6   8
ATOM      8  C   UNL     1       7.789  -0.145  -2.789  1.00  0.00     0.073 A 
ATOM      9  C   UNL     1       7.048  -1.071  -2.027  1.00  0.00     0.016 A 
ATOM     10  C   UNL     1       7.704  -2.245  -1.678  1.00  0.00     0.123 A 
ATOM     11  N   UNL     1       8.965  -2.556  -2.055  1.00  0.00    -0.239 NA
ATOM     12  C   UNL     1       9.085  -0.463  -3.205  1.00  0.00     0.062 A 
ATOM     13  C   UNL     1       9.625  -1.679  -2.827  1.00  0.00     0.124 A 
BRANCH   9  14
ATOM     14  C   UNL     1       5.595  -0.966  -1.862  1.00  0.00     0.003 A 
ATOM     15  C   UNL     1       2.829  -0.445  -1.792  1.00  0.00     0.120 A 
ATOM     16  C   UNL     1       3.602  -0.318  -0.641  1.00  0.00     0.047 A 
ATOM     17  C   UNL     1       3.422  -0.928  -2.952  1.00  0.00     0.067 A 
ATOM     18  C   UNL     1       4.988  -0.528  -0.685  1.00  0.00     0.014 A 
ATOM     19  C   UNL     1       4.761  -1.288  -2.939  1.00  0.00     0.052 A 
ATOM     20  Cl  UNL     1       5.360  -2.269  -4.222  1.00  0.00    -0.084 Cl
BRANCH  15  21
ATOM     21  O   UNL     1       1.473  -0.335  -1.844  1.00  0.00    -0.494 OA
BRANCH  21  22
ATOM     22  C   UNL     1       0.838   0.785  -1.236  1.00  0.00     0.226 C 
ATOM     23  C   UNL     1       0.656   0.635   0.263  1.00  0.00     0.049 C 
ENDBRANCH  21  22
ENDBRANCH  15  21
ENDBRANCH   9  14
BRANCH  13  24
ATOM     24  N   UNL     1      10.845  -2.095  -3.308  1.00  0.00    -0.384 N 
ATOM     25  H   UNL     1      11.214  -2.964  -3.028  1.00  0.00     0.158 HD
ATOM     26  H   UNL     1      11.349  -1.524  -3.932  1.00  0.00     0.158 HD
ENDBRANCH  13  24
ENDBRANCH   6   8
ENDBRANCH   5   6
ENDBRANCH   4   5
ENDBRANCH   3   4
ENDBRANCH   2   3
ENDBRANCH   1   2
BRANCH   1  27
ATOM     27  C   UNL     1       6.544  -0.314  -6.598  1.00  0.00     0.188 C 
BRANCH  27  28
ATOM     28  O   UNL     1       7.204   0.126  -7.771  1.00  0.00    -0.376 OA
BRANCH  28  29
ATOM     29  C   UNL     1       6.421   0.615  -8.846  1.00  0.00     0.202 C 
BRANCH  29  30
ATOM     30  C   UNL     1       5.348  -0.284  -9.476  1.00  0.00     0.261 C 
BRANCH  30  31
ATOM     31  O   UNL     1       4.395  -0.865  -8.566  1.00  0.00    -0.460 OA
BRANCH  31  32
ATOM     32  C   UNL     1       4.459  -2.219  -8.446  1.00  0.00     0.338 C 
ATOM     33  O   UNL     1       5.261  -2.956  -8.987  1.00  0.00    -0.246 OA
BRANCH  32  34
ATOM     34  C   UNL     1       3.466  -2.721  -7.462  1.00  0.00     0.060 A 
ATOM     35  C   UNL     1       3.867  -3.757  -6.611  1.00  0.00     0.016 A 
ATOM     36  C   UNL     1       2.150  -2.252  -7.400  1.00  0.00     0.016 A 
ATOM     37  C   UNL     1       2.974  -4.307  -5.684  1.00  0.00     0.010 A 
ATOM     38  C   UNL     1       1.237  -2.840  -6.505  1.00  0.00     0.010 A 
ATOM     39  C   UNL     1       1.640  -3.880  -5.648  1.00  0.00    -0.014 A 
BRANCH  39  40
ATOM     40  C   UNL     1       0.652  -4.682  -4.870  1.00  0.00     0.031 A 
ATOM     41  C   UNL     1       0.117  -5.933  -5.492  1.00  0.00     0.074 A 
ATOM     42  C   UNL     1       0.280  -4.376  -3.614  1.00  0.00     0.049 A 
ATOM     43  N   UNL     1      -0.694  -6.822  -4.984  1.00  0.00    -0.248 NA
ATOM     44  C   UNL     1       0.579  -6.234  -6.855  1.00  0.00     0.031 C 
ATOM     45  C   UNL     1       0.794  -3.248  -2.868  1.00  0.00     0.029 A 
ATOM     46  N   UNL     1      -0.593  -4.972  -2.736  1.00  0.00    -0.354 N 
ATOM     47  C   UNL     1      -0.811  -7.808  -5.949  1.00  0.00     0.074 A 
ATOM     48  C   UNL     1      -0.021  -7.390  -7.087  1.00  0.00     0.031 C 
ATOM     49  C   UNL     1       0.232  -3.208  -1.651  1.00  0.00     0.029 A 
ATOM     50  C   UNL     1      -0.723  -4.297  -1.542  1.00  0.00     0.049 A 
ATOM     51  H   UNL     1      -1.080  -5.803  -2.940  1.00  0.00     0.167 HD
ATOM     52  C   UNL     1      -1.510  -8.964  -5.885  1.00  0.00     0.037 A 
ATOM     53  C   UNL     1      -1.527  -4.512  -0.482  1.00  0.00     0.037 A 
ATOM     54  C   UNL     1      -2.350  -9.341  -4.780  1.00  0.00     0.049 A 
ATOM     55  C   UNL     1      -2.415  -5.721  -0.501  1.00  0.00     0.074 A 
ATOM     56  C   UNL     1      -3.143 -10.466  -4.649  1.00  0.00     0.029 A 
ATOM     57  N   UNL     1      -2.527  -8.590  -3.626  1.00  0.00    -0.354 N 
ATOM     58  N   UNL     1      -2.513  -6.652  -1.418  1.00  0.00    -0.248 NA
ATOM     59  C   UNL     1      -3.289  -5.926   0.662  1.00  0.00     0.031 C 
ATOM     60  C   UNL     1      -3.847 -10.366  -3.444  1.00  0.00     0.029 A 
ATOM     61  C   UNL     1      -3.439  -9.214  -2.790  1.00  0.00     0.049 A 
ATOM     62  H   UNL     1      -2.071  -7.739  -3.430  1.00  0.00     0.167 HD
ATOM     63  C   UNL     1      -3.421  -7.577  -0.926  1.00  0.00     0.074 A 
ATOM     64  C   UNL     1      -3.845  -7.094   0.373  1.00  0.00     0.031 C 
ATOM     65  C   UNL     1      -3.851  -8.727  -1.497  1.00  0.00     0.037 A 
BRANCH  52  66
ATOM     66  C   UNL     1      -1.429  -9.857  -7.084  1.00  0.00     0.057 A 
ATOM     67  C   UNL     1      -0.257 -10.555  -7.407  1.00  0.00     0.134 A 
ATOM     68  C   UNL     1      -2.524  -9.991  -7.944  1.00  0.00     0.134 A 
ATOM     69  F   UNL     1       0.837 -10.443  -6.638  1.00  0.00    -0.206 F 
ATOM     70  C   UNL     1      -0.170 -11.334  -8.562  1.00  0.00     0.040 A 
ATOM     71  C   UNL     1      -2.457 -10.789  -9.086  1.00  0.00     0.040 A 
ATOM     72  F   UNL     1      -3.670  -9.341  -7.695  1.00  0.00    -0.206 F 
ATOM     73  C   UNL     1      -1.275 -11.456  -9.402  1.00  0.00     0.006 A 
ENDBRANCH  52  66
BRANCH  53  74
ATOM     74  C   UNL     1      -1.552  -3.566   0.669  1.00  0.00     0.057 A 
ATOM     75  C   UNL     1      -1.115  -3.946   1.944  1.00  0.00     0.134 A 
ATOM     76  C   UNL     1      -2.070  -2.271   0.532  1.00  0.00     0.134 A 
ATOM     77  F   UNL     1      -0.633  -5.179   2.152  1.00  0.00    -0.206 F 
ATOM     78  C   UNL     1      -1.213  -3.086   3.042  1.00  0.00     0.040 A 
ATOM     79  C   UNL     1      -2.155  -1.393   1.617  1.00  0.00     0.040 A 
ATOM     80  F   UNL     1      -2.504  -1.835  -0.659  1.00  0.00    -0.206 F 
ATOM     81  C   UNL     1      -1.733  -1.804   2.879  1.00  0.00     0.006 A 
ENDBRANCH  53  74
BRANCH  65  82
ATOM     82  C   UNL     1      -4.791  -9.577  -0.693  1.00  0.00     0.057 A 
ATOM     83  C   UNL     1      -6.114  -9.196  -0.439  1.00  0.00     0.134 A 
ATOM     84  C   UNL     1      -4.365 -10.814  -0.190  1.00  0.00     0.134 A 
ATOM     85  F   UNL     1      -6.580  -8.017  -0.879  1.00  0.00    -0.206 F 
ATOM     86  C   UNL     1      -6.973 -10.002   0.310  1.00  0.00     0.040 A 
ATOM     87  C   UNL     1      -5.224 -11.643   0.531  1.00  0.00     0.040 A 
ATOM     88  F   UNL     1      -3.112 -11.241  -0.402  1.00  0.00    -0.206 F 
ATOM     89  C   UNL     1      -6.530 -11.233   0.790  1.00  0.00     0.006 A 
ENDBRANCH  65  82
ENDBRANCH  39  40
ENDBRANCH  32  34
ENDBRANCH  31  32
ENDBRANCH  30  31
ENDBRANCH  29  30
ENDBRANCH  28  29
ENDBRANCH  27  28
ENDBRANCH   1  27
TORSDOF 21
