REMARK SMILES CCCc1cc(OC(F)(F)F)cc2c1O[C@@H](C(F)(F)F)C(C(=O)OCCOCCOCCOC(=O)c1ccc(-c3c4nc(c(-c5c(F)cccc5F)c5ccc([nH]5)c(-c5c(F)cccc5F)c5nc(c(-c6c(F)cccc6F)c6ccc3[nH]6)C=C5)C=C4)cc1)=C2
REMARK SMILES IDX 28 1 27 2 26 3 25 4 24 5 22 6 23 7 21 8 4 9 5 10 14 11 6 12
REMARK SMILES IDX 13 13 15 14 12 15 90 16 16 17 3 18 2 19 1 20 7 21 8 22 9 23
REMARK SMILES IDX 10 24 11 25 17 26 18 27 19 28 20 29 29 30 30 31 31 32 32 33
REMARK SMILES IDX 33 34 34 35 35 36 36 37 37 38 89 39 38 40 88 41 39 42 40 43
REMARK SMILES IDX 41 44 82 45 42 46 87 47 81 48 83 49 43 50 86 51 80 52 79 53
REMARK SMILES IDX 44 55 70 56 53 57 69 58 54 59 57 60 68 61 84 62 55 63 56 64
REMARK SMILES IDX 67 66 85 67 58 68 45 69 46 70 51 71 47 72 48 73 50 74 52 75
REMARK SMILES IDX 49 76 71 77 72 78 77 79 73 80 74 81 76 82 78 83 75 84 59 85
REMARK SMILES IDX 60 86 65 87 61 88 62 89 64 90 66 91 63 92
REMARK H PARENT 83 54 57 65
REMARK Flexibility Score: inf
ROOT
ATOM      1  C   UNL     1      -3.478  -5.345   7.256  1.00  0.00     0.188 C 
ENDROOT
BRANCH   1   2
ATOM      2  O   UNL     1      -3.410  -5.639   8.641  1.00  0.00    -0.376 OA
BRANCH   2   3
ATOM      3  C   UNL     1      -2.140  -6.006   9.154  1.00  0.00     0.202 C 
BRANCH   3   4
ATOM      4  C   UNL     1      -1.120  -4.867   9.250  1.00  0.00     0.261 C 
BRANCH   4   5
ATOM      5  O   UNL     1      -0.948  -4.107   8.042  1.00  0.00    -0.460 OA
BRANCH   5   6
ATOM      6  C   UNL     1      -0.166  -4.634   7.074  1.00  0.00     0.338 C 
ATOM      7  O   UNL     1       0.393  -5.715   7.116  1.00  0.00    -0.246 OA
BRANCH   6   8
ATOM      8  C   UNL     1      -0.164  -3.736   5.899  1.00  0.00     0.087 C 
ATOM      9  C   UNL     1       0.658  -1.382   2.523  1.00  0.00    -0.002 A 
ATOM     10  C   UNL     1       0.696   0.015   2.683  1.00  0.00     0.054 A 
ATOM     11  C   UNL     1       0.349  -2.165   3.649  1.00  0.00     0.131 A 
ATOM     12  C   UNL     1       0.380   0.624   3.901  1.00  0.00     0.130 A 
ATOM     13  C   UNL     1       0.090  -1.568   4.894  1.00  0.00     0.021 A 
ATOM     14  O   UNL     1       0.406  -3.533   3.523  1.00  0.00    -0.475 OA
ATOM     15  C   UNL     1       0.072  -0.176   5.003  1.00  0.00     0.058 A 
ATOM     16  C   UNL     1      -0.015  -2.413   6.084  1.00  0.00     0.027 C 
ATOM     17  C   UNL     1      -0.365  -4.279   4.505  1.00  0.00     0.316 C 
BRANCH   9  18
ATOM     18  C   UNL     1       1.063  -2.014   1.205  1.00  0.00     0.039 C 
BRANCH  18  19
ATOM     19  C   UNL     1       0.303  -1.566  -0.054  1.00  0.00     0.001 C 
ATOM     20  C   UNL     1       0.746  -0.230  -0.638  1.00  0.00     0.004 C 
ENDBRANCH  18  19
ENDBRANCH   9  18
BRANCH  12  21
ATOM     21  O   UNL     1       0.371   1.968   4.152  1.00  0.00    -0.406 OA
BRANCH  21  22
ATOM     22  C   UNL     1       0.776   2.841   3.108  1.00  0.00     0.573 C 
ATOM     23  F   UNL     1       2.048   2.589   2.731  1.00  0.00    -0.132 F 
ATOM     24  F   UNL     1      -0.041   2.735   2.038  1.00  0.00    -0.132 F 
ATOM     25  F   UNL     1       0.716   4.113   3.558  1.00  0.00    -0.132 F 
ENDBRANCH  21  22
ENDBRANCH  12  21
BRANCH  17  26
ATOM     26  C   UNL     1      -0.132  -5.779   4.270  1.00  0.00     0.430 C 
ATOM     27  F   UNL     1      -0.985  -6.529   5.010  1.00  0.00    -0.167 F 
ATOM     28  F   UNL     1      -0.395  -6.096   2.974  1.00  0.00    -0.167 F 
ATOM     29  F   UNL     1       1.131  -6.170   4.528  1.00  0.00    -0.167 F 
ENDBRANCH  17  26
ENDBRANCH   6   8
ENDBRANCH   5   6
ENDBRANCH   4   5
ENDBRANCH   3   4
ENDBRANCH   2   3
ENDBRANCH   1   2
BRANCH   1  30
ATOM     30  C   UNL     1      -3.788  -3.863   6.960  1.00  0.00     0.188 C 
BRANCH  30  31
ATOM     31  O   UNL     1      -4.331  -3.030   7.977  1.00  0.00    -0.376 OA
BRANCH  31  32
ATOM     32  C   UNL     1      -5.318  -3.554   8.855  1.00  0.00     0.202 C 
BRANCH  32  33
ATOM     33  C   UNL     1      -6.649  -4.009   8.250  1.00  0.00     0.261 C 
BRANCH  33  34
ATOM     34  O   UNL     1      -6.519  -4.970   7.188  1.00  0.00    -0.460 OA
BRANCH  34  35
ATOM     35  C   UNL     1      -6.868  -4.520   5.958  1.00  0.00     0.338 C 
ATOM     36  O   UNL     1      -7.296  -3.417   5.664  1.00  0.00    -0.246 OA
BRANCH  35  37
ATOM     37  C   UNL     1      -6.505  -5.521   4.935  1.00  0.00     0.060 A 
ATOM     38  C   UNL     1      -5.666  -5.117   3.888  1.00  0.00     0.016 A 
ATOM     39  C   UNL     1      -7.049  -6.806   4.953  1.00  0.00     0.016 A 
ATOM     40  C   UNL     1      -5.392  -5.989   2.834  1.00  0.00     0.010 A 
ATOM     41  C   UNL     1      -6.795  -7.669   3.883  1.00  0.00     0.010 A 
ATOM     42  C   UNL     1      -5.992  -7.253   2.805  1.00  0.00    -0.014 A 
BRANCH  42  43
ATOM     43  C   UNL     1      -5.934  -8.070   1.570  1.00  0.00     0.031 A 
ATOM     44  C   UNL     1      -7.062  -7.960   0.581  1.00  0.00     0.074 A 
ATOM     45  C   UNL     1      -4.902  -8.896   1.328  1.00  0.00     0.049 A 
ATOM     46  N   UNL     1      -7.274  -8.638  -0.517  1.00  0.00    -0.248 NA
ATOM     47  C   UNL     1      -8.088  -6.945   0.872  1.00  0.00     0.031 C 
ATOM     48  C   UNL     1      -3.724  -9.053   2.177  1.00  0.00     0.029 A 
ATOM     49  N   UNL     1      -4.693  -9.773   0.292  1.00  0.00    -0.354 N 
ATOM     50  C   UNL     1      -8.457  -8.138  -1.045  1.00  0.00     0.074 A 
ATOM     51  C   UNL     1      -8.928  -7.113  -0.138  1.00  0.00     0.031 C 
ATOM     52  C   UNL     1      -2.923  -9.990   1.640  1.00  0.00     0.029 A 
ATOM     53  C   UNL     1      -3.550 -10.521   0.429  1.00  0.00     0.049 A 
ATOM     54  H   UNL     1      -5.305  -9.858  -0.475  1.00  0.00     0.167 HD
ATOM     55  C   UNL     1      -9.094  -8.498  -2.184  1.00  0.00     0.037 A 
ATOM     56  C   UNL     1      -3.082 -11.537  -0.322  1.00  0.00     0.037 A 
ATOM     57  C   UNL     1      -8.633  -9.523  -3.081  1.00  0.00     0.049 A 
ATOM     58  C   UNL     1      -3.854 -11.982  -1.536  1.00  0.00     0.074 A 
ATOM     59  C   UNL     1      -9.211  -9.961  -4.260  1.00  0.00     0.029 A 
ATOM     60  N   UNL     1      -7.485 -10.276  -2.892  1.00  0.00    -0.354 N 
ATOM     61  N   UNL     1      -4.968 -11.498  -2.032  1.00  0.00    -0.248 NA
ATOM     62  C   UNL     1      -3.305 -13.117  -2.293  1.00  0.00     0.031 C 
ATOM     63  C   UNL     1      -8.432 -11.008  -4.764  1.00  0.00     0.029 A 
ATOM     64  C   UNL     1      -7.347 -11.190  -3.923  1.00  0.00     0.049 A 
ATOM     65  H   UNL     1      -6.861 -10.176  -2.138  1.00  0.00     0.167 HD
ATOM     66  C   UNL     1      -5.232 -12.245  -3.174  1.00  0.00     0.074 A 
ATOM     67  C   UNL     1      -4.164 -13.213  -3.299  1.00  0.00     0.031 C 
ATOM     68  C   UNL     1      -6.266 -12.134  -4.044  1.00  0.00     0.037 A 
BRANCH  55  69
ATOM     69  C   UNL     1     -10.376  -7.793  -2.507  1.00  0.00     0.057 A 
ATOM     70  C   UNL     1     -10.395  -6.470  -2.967  1.00  0.00     0.134 A 
ATOM     71  C   UNL     1     -11.605  -8.453  -2.379  1.00  0.00     0.134 A 
ATOM     72  F   UNL     1      -9.253  -5.778  -3.094  1.00  0.00    -0.206 F 
ATOM     73  C   UNL     1     -11.593  -5.822  -3.272  1.00  0.00     0.040 A 
ATOM     74  C   UNL     1     -12.807  -7.823  -2.702  1.00  0.00     0.040 A 
ATOM     75  F   UNL     1     -11.655  -9.721  -1.945  1.00  0.00    -0.206 F 
ATOM     76  C   UNL     1     -12.804  -6.502  -3.145  1.00  0.00     0.006 A 
ENDBRANCH  55  69
BRANCH  56  77
ATOM     77  C   UNL     1      -1.825 -12.227   0.061  1.00  0.00     0.057 A 
ATOM     78  C   UNL     1      -0.663 -12.095  -0.708  1.00  0.00     0.134 A 
ATOM     79  C   UNL     1      -1.764 -13.057   1.187  1.00  0.00     0.134 A 
ATOM     80  F   UNL     1      -0.668 -11.336  -1.813  1.00  0.00    -0.206 F 
ATOM     81  C   UNL     1       0.510 -12.777  -0.380  1.00  0.00     0.040 A 
ATOM     82  C   UNL     1      -0.591 -13.726   1.539  1.00  0.00     0.040 A 
ATOM     83  F   UNL     1      -2.845 -13.228   1.962  1.00  0.00    -0.206 F 
ATOM     84  C   UNL     1       0.549 -13.592   0.750  1.00  0.00     0.006 A 
ENDBRANCH  56  77
BRANCH  68  85
ATOM     85  C   UNL     1      -6.271 -13.044  -5.236  1.00  0.00     0.057 A 
ATOM     86  C   UNL     1      -6.605 -14.399  -5.132  1.00  0.00     0.134 A 
ATOM     87  C   UNL     1      -5.997 -12.540  -6.514  1.00  0.00     0.134 A 
ATOM     88  F   UNL     1      -6.867 -14.945  -3.935  1.00  0.00    -0.206 F 
ATOM     89  C   UNL     1      -6.654 -15.225  -6.257  1.00  0.00     0.040 A 
ATOM     90  C   UNL     1      -6.064 -13.349  -7.648  1.00  0.00     0.040 A 
ATOM     91  F   UNL     1      -5.679 -11.247  -6.682  1.00  0.00    -0.206 F 
ATOM     92  C   UNL     1      -6.391 -14.698  -7.521  1.00  0.00     0.006 A 
ENDBRANCH  68  85
ENDBRANCH  42  43
ENDBRANCH  35  37
ENDBRANCH  34  35
ENDBRANCH  33  34
ENDBRANCH  32  33
ENDBRANCH  31  32
ENDBRANCH  30  31
ENDBRANCH   1  30
TORSDOF 22
