REMARK SMILES CCOc1cccc(OCC)c1-c1ccc([C@@H](C)C(=O)OCCOCCOCCOC(=O)c2ccc(-c3c4nc(c(-c5c(F)cccc5F)c5ccc([nH]5)c(-c5c(F)cccc5F)c5nc(c(-c6c(F)cccc6F)c6ccc3[nH]6)C=C5)C=C4)cc2)cc1F
REMARK SMILES IDX 25 1 24 2 23 3 22 4 21 5 19 6 20 7 17 8 18 9 16 10 13 11
REMARK SMILES IDX 14 12 88 13 15 14 87 15 89 16 12 17 4 18 5 19 6 20 8 21 7 22
REMARK SMILES IDX 3 23 2 24 1 25 9 26 10 27 11 28 26 29 27 30 28 31 29 32
REMARK SMILES IDX 30 33 31 34 32 35 33 36 34 37 86 38 35 39 85 40 36 41 37 42
REMARK SMILES IDX 38 43 79 44 39 45 84 46 78 47 80 48 40 49 83 50 77 51 76 52
REMARK SMILES IDX 41 54 67 55 50 56 66 57 51 58 54 59 65 60 81 61 52 62 53 63
REMARK SMILES IDX 64 65 82 66 55 67 42 68 43 69 48 70 44 71 45 72 47 73 49 74
REMARK SMILES IDX 46 75 68 76 69 77 74 78 70 79 71 80 73 81 75 82 72 83 56 84
REMARK SMILES IDX 57 85 62 86 58 87 59 88 61 89 63 90 60 91
REMARK H PARENT 80 53 54 64
REMARK Flexibility Score: inf
ROOT
ATOM      1  C   UNL     1      -1.183   3.038  -2.814  1.00  0.00     0.188 C 
ENDROOT
BRANCH   1   2
ATOM      2  O   UNL     1      -1.061   3.773  -4.025  1.00  0.00    -0.376 OA
BRANCH   2   3
ATOM      3  C   UNL     1       0.234   4.073  -4.527  1.00  0.00     0.202 C 
BRANCH   3   4
ATOM      4  C   UNL     1       1.141   4.943  -3.650  1.00  0.00     0.261 C 
BRANCH   4   5
ATOM      5  O   UNL     1       1.561   4.320  -2.412  1.00  0.00    -0.463 OA
BRANCH   5   6
ATOM      6  C   UNL     1       1.188   4.948  -1.269  1.00  0.00     0.313 C 
ATOM      7  O   UNL     1       0.516   5.978  -1.256  1.00  0.00    -0.252 OA
BRANCH   6   8
ATOM      8  C   UNL     1       1.709   4.356   0.038  1.00  0.00     0.126 C 
ATOM      9  C   UNL     1       2.861   5.235   0.528  1.00  0.00     0.025 C 
BRANCH   8  10
ATOM     10  C   UNL     1       2.067   2.880   0.216  1.00  0.00    -0.031 A 
ATOM     11  C   UNL     1       2.932   0.202   0.851  1.00  0.00     0.025 A 
ATOM     12  C   UNL     1       3.175   0.792  -0.406  1.00  0.00     0.012 A 
ATOM     13  C   UNL     1       2.176   0.956   1.751  1.00  0.00     0.131 A 
ATOM     14  C   UNL     1       2.801   2.120  -0.699  1.00  0.00     0.005 A 
ATOM     15  C   UNL     1       1.745   2.257   1.442  1.00  0.00     0.044 A 
ATOM     16  F   UNL     1       1.877   0.468   2.964  1.00  0.00    -0.206 F 
BRANCH  11  17
ATOM     17  C   UNL     1       3.479  -1.141   1.177  1.00  0.00     0.069 A 
ATOM     18  C   UNL     1       2.594  -2.251   1.276  1.00  0.00     0.130 A 
ATOM     19  C   UNL     1       3.033  -3.574   1.418  1.00  0.00     0.047 A 
ATOM     20  C   UNL     1       4.386  -3.842   1.475  1.00  0.00     0.008 A 
ATOM     21  C   UNL     1       4.854  -1.434   1.333  1.00  0.00     0.130 A 
ATOM     22  C   UNL     1       5.277  -2.777   1.461  1.00  0.00     0.047 A 
BRANCH  18  23
ATOM     23  O   UNL     1       1.241  -2.043   1.358  1.00  0.00    -0.493 OA
BRANCH  23  24
ATOM     24  C   UNL     1       0.546  -2.509   0.203  1.00  0.00     0.226 C 
ATOM     25  C   UNL     1       0.067  -1.276  -0.510  1.00  0.00     0.049 C 
ENDBRANCH  23  24
ENDBRANCH  18  23
BRANCH  21  26
ATOM     26  O   UNL     1       5.949  -0.620   1.420  1.00  0.00    -0.493 OA
BRANCH  26  27
ATOM     27  C   UNL     1       5.915   0.792   1.332  1.00  0.00     0.226 C 
ATOM     28  C   UNL     1       6.370   1.195  -0.059  1.00  0.00     0.049 C 
ENDBRANCH  26  27
ENDBRANCH  21  26
ENDBRANCH  11  17
ENDBRANCH   8  10
ENDBRANCH   6   8
ENDBRANCH   5   6
ENDBRANCH   4   5
ENDBRANCH   3   4
ENDBRANCH   2   3
ENDBRANCH   1   2
BRANCH   1  29
ATOM     29  C   UNL     1      -0.188   1.905  -2.523  1.00  0.00     0.188 C 
BRANCH  29  30
ATOM     30  O   UNL     1       0.472   1.367  -3.658  1.00  0.00    -0.376 OA
BRANCH  30  31
ATOM     31  C   UNL     1       0.187   0.006  -3.947  1.00  0.00     0.202 C 
BRANCH  31  32
ATOM     32  C   UNL     1      -1.244  -0.220  -4.433  1.00  0.00     0.261 C 
BRANCH  32  33
ATOM     33  O   UNL     1      -2.201   0.183  -3.433  1.00  0.00    -0.460 OA
BRANCH  33  34
ATOM     34  C   UNL     1      -2.788  -0.774  -2.694  1.00  0.00     0.338 C 
ATOM     35  O   UNL     1      -2.671  -1.985  -2.813  1.00  0.00    -0.246 OA
BRANCH  34  36
ATOM     36  C   UNL     1      -3.609  -0.120  -1.659  1.00  0.00     0.060 A 
ATOM     37  C   UNL     1      -3.015   0.508  -0.555  1.00  0.00     0.016 A 
ATOM     38  C   UNL     1      -4.995  -0.195  -1.755  1.00  0.00     0.016 A 
ATOM     39  C   UNL     1      -3.794   1.031   0.473  1.00  0.00     0.010 A 
ATOM     40  C   UNL     1      -5.780   0.350  -0.738  1.00  0.00     0.010 A 
ATOM     41  C   UNL     1      -5.184   0.940   0.393  1.00  0.00    -0.014 A 
BRANCH  41  42
ATOM     42  C   UNL     1      -6.034   1.332   1.536  1.00  0.00     0.031 A 
ATOM     43  C   UNL     1      -6.662   0.251   2.363  1.00  0.00     0.074 A 
ATOM     44  C   UNL     1      -6.277   2.626   1.804  1.00  0.00     0.049 A 
ATOM     45  N   UNL     1      -7.635   0.329   3.231  1.00  0.00    -0.248 NA
ATOM     46  C   UNL     1      -6.123  -1.105   2.172  1.00  0.00     0.031 C 
ATOM     47  C   UNL     1      -5.663   3.765   1.125  1.00  0.00     0.029 A 
ATOM     48  N   UNL     1      -7.142   3.194   2.705  1.00  0.00    -0.354 N 
ATOM     49  C   UNL     1      -7.854  -0.972   3.662  1.00  0.00     0.074 A 
ATOM     50  C   UNL     1      -6.915  -1.819   2.959  1.00  0.00     0.031 C 
ATOM     51  C   UNL     1      -6.202   4.898   1.604  1.00  0.00     0.029 A 
ATOM     52  C   UNL     1      -7.235   4.558   2.579  1.00  0.00     0.049 A 
ATOM     53  H   UNL     1      -7.644   2.675   3.375  1.00  0.00     0.167 HD
ATOM     54  C   UNL     1      -8.766  -1.417   4.558  1.00  0.00     0.037 A 
ATOM     55  C   UNL     1      -8.100   5.422   3.143  1.00  0.00     0.037 A 
ATOM     56  C   UNL     1      -9.688  -0.562   5.256  1.00  0.00     0.049 A 
ATOM     57  C   UNL     1      -9.156   4.900   4.078  1.00  0.00     0.074 A 
ATOM     58  C   UNL     1     -10.655  -0.906   6.183  1.00  0.00     0.029 A 
ATOM     59  N   UNL     1      -9.754   0.815   5.100  1.00  0.00    -0.354 N 
ATOM     60  N   UNL     1      -9.390   3.667   4.458  1.00  0.00    -0.248 NA
ATOM     61  C   UNL     1     -10.076   5.890   4.656  1.00  0.00     0.031 C 
ATOM     62  C   UNL     1     -11.331   0.259   6.561  1.00  0.00     0.029 A 
ATOM     63  C   UNL     1     -10.755   1.335   5.902  1.00  0.00     0.049 A 
ATOM     64  H   UNL     1      -9.174   1.345   4.507  1.00  0.00     0.167 HD
ATOM     65  C   UNL     1     -10.466   3.734   5.334  1.00  0.00     0.074 A 
ATOM     66  C   UNL     1     -10.832   5.132   5.437  1.00  0.00     0.031 C 
ATOM     67  C   UNL     1     -11.096   2.731   5.994  1.00  0.00     0.037 A 
BRANCH  54  68
ATOM     68  C   UNL     1      -8.832  -2.895   4.792  1.00  0.00     0.057 A 
ATOM     69  C   UNL     1      -7.837  -3.581   5.501  1.00  0.00     0.134 A 
ATOM     70  C   UNL     1      -9.909  -3.644   4.301  1.00  0.00     0.134 A 
ATOM     71  F   UNL     1      -6.768  -2.925   5.978  1.00  0.00    -0.206 F 
ATOM     72  C   UNL     1      -7.900  -4.962   5.693  1.00  0.00     0.040 A 
ATOM     73  C   UNL     1      -9.995  -5.021   4.508  1.00  0.00     0.040 A 
ATOM     74  F   UNL     1     -10.894  -3.049   3.612  1.00  0.00    -0.206 F 
ATOM     75  C   UNL     1      -8.985  -5.685   5.200  1.00  0.00     0.006 A 
ENDBRANCH  54  68
BRANCH  55  76
ATOM     76  C   UNL     1      -8.036   6.863   2.797  1.00  0.00     0.057 A 
ATOM     77  C   UNL     1      -7.608   7.812   3.731  1.00  0.00     0.134 A 
ATOM     78  C   UNL     1      -8.410   7.327   1.530  1.00  0.00     0.134 A 
ATOM     79  F   UNL     1      -7.262   7.432   4.969  1.00  0.00    -0.206 F 
ATOM     80  C   UNL     1      -7.564   9.173   3.422  1.00  0.00     0.040 A 
ATOM     81  C   UNL     1      -8.348   8.681   1.199  1.00  0.00     0.040 A 
ATOM     82  F   UNL     1      -8.830   6.466   0.591  1.00  0.00    -0.206 F 
ATOM     83  C   UNL     1      -7.929   9.609   2.149  1.00  0.00     0.006 A 
ENDBRANCH  55  76
BRANCH  67  84
ATOM     84  C   UNL     1     -12.215   3.116   6.916  1.00  0.00     0.057 A 
ATOM     85  C   UNL     1     -13.468   3.510   6.433  1.00  0.00     0.134 A 
ATOM     86  C   UNL     1     -12.045   3.053   8.305  1.00  0.00     0.134 A 
ATOM     87  F   UNL     1     -13.690   3.604   5.113  1.00  0.00    -0.206 F 
ATOM     88  C   UNL     1     -14.509   3.848   7.300  1.00  0.00     0.040 A 
ATOM     89  C   UNL     1     -13.085   3.364   9.181  1.00  0.00     0.040 A 
ATOM     90  F   UNL     1     -10.870   2.674   8.831  1.00  0.00    -0.206 F 
ATOM     91  C   UNL     1     -14.320   3.769   8.679  1.00  0.00     0.006 A 
ENDBRANCH  67  84
ENDBRANCH  41  42
ENDBRANCH  34  36
ENDBRANCH  33  34
ENDBRANCH  32  33
ENDBRANCH  31  32
ENDBRANCH  30  31
ENDBRANCH  29  30
ENDBRANCH   1  29
TORSDOF 23
