REMARK SMILES O=C(CCCc1nc(-c2cccc(Cl)c2)no1)OCCOCCOCCOC(=O)c1ccc(-c2c3nc(c(-c4c(F)cccc4F)c4ccc([nH]4)c(-c4c(F)cccc4F)c4nc(c(-c5c(F)cccc5F)c5ccc2[nH]5)C=C4)C=C3)cc1
REMARK SMILES IDX 22 1 21 2 20 3 19 4 18 5 2 6 1 7 3 8 4 9 5 10 6 11 7 12
REMARK SMILES IDX 17 13 8 14 16 15 9 16 10 17 15 18 11 19 13 20 12 21 14 22
REMARK SMILES IDX 23 23 24 24 25 25 26 26 27 27 28 28 29 29 30 30 31 31 83 32
REMARK SMILES IDX 32 33 82 34 33 35 34 36 35 37 76 38 36 39 81 40 75 41 77 42
REMARK SMILES IDX 37 43 80 44 74 45 73 46 38 48 64 49 47 50 63 51 48 52 51 53
REMARK SMILES IDX 62 54 78 55 49 56 50 57 61 59 79 60 52 61 39 62 40 63 45 64
REMARK SMILES IDX 41 65 42 66 44 67 46 68 43 69 65 70 66 71 71 72 67 73 68 74
REMARK SMILES IDX 70 75 72 76 69 77 53 78 54 79 59 80 55 81 56 82 58 83 60 84
REMARK SMILES IDX 57 85
REMARK H PARENT 77 47 51 58
REMARK Flexibility Score: inf
ROOT
ATOM      1  C   UNL     1       2.695   0.848  -1.780  1.00  0.00     0.188 C 
ENDROOT
BRANCH   1   2
ATOM      2  O   UNL     1       3.795   0.034  -1.392  1.00  0.00    -0.376 OA
BRANCH   2   3
ATOM      3  C   UNL     1       3.564  -1.367  -1.429  1.00  0.00     0.202 C 
BRANCH   3   4
ATOM      4  C   UNL     1       3.716  -1.922  -0.021  1.00  0.00     0.261 C 
BRANCH   4   5
ATOM      5  O   UNL     1       2.560  -1.619   0.787  1.00  0.00    -0.463 OA
BRANCH   5   6
ATOM      6  C   UNL     1       2.455  -0.618   1.685  1.00  0.00     0.305 C 
ATOM      7  O   UNL     1       1.498  -0.597   2.459  1.00  0.00    -0.252 OA
BRANCH   6   8
ATOM      8  C   UNL     1       3.475   0.495   1.719  1.00  0.00     0.123 C 
BRANCH   8   9
ATOM      9  C   UNL     1       4.528   0.372   2.818  1.00  0.00     0.022 C 
BRANCH   9  10
ATOM     10  C   UNL     1       5.866  -0.246   2.398  1.00  0.00     0.101 C 
BRANCH  10  11
ATOM     11  C   UNL     1       6.491   0.370   1.197  1.00  0.00     0.226 A 
ATOM     12  N   UNL     1       6.941  -0.207   0.104  1.00  0.00    -0.191 NA
ATOM     13  O   UNL     1       6.671   1.720   1.207  1.00  0.00    -0.339 OA
ATOM     14  C   UNL     1       7.473   0.856  -0.595  1.00  0.00     0.202 A 
ATOM     15  N   UNL     1       7.326   2.041   0.020  1.00  0.00    -0.057 NA
BRANCH  14  16
ATOM     16  C   UNL     1       8.201   0.684  -1.845  1.00  0.00     0.024 A 
ATOM     17  C   UNL     1       7.797  -0.273  -2.787  1.00  0.00     0.012 A 
ATOM     18  C   UNL     1       9.340   1.460  -2.108  1.00  0.00     0.032 A 
ATOM     19  C   UNL     1       8.511  -0.444  -3.977  1.00  0.00     0.002 A 
ATOM     20  C   UNL     1      10.061   1.269  -3.287  1.00  0.00     0.041 A 
ATOM     21  C   UNL     1       9.649   0.325  -4.225  1.00  0.00     0.020 A 
ATOM     22  Cl  UNL     1      11.480   2.198  -3.578  1.00  0.00    -0.084 Cl
ENDBRANCH  14  16
ENDBRANCH  10  11
ENDBRANCH   9  10
ENDBRANCH   8   9
ENDBRANCH   6   8
ENDBRANCH   5   6
ENDBRANCH   4   5
ENDBRANCH   3   4
ENDBRANCH   2   3
ENDBRANCH   1   2
BRANCH   1  23
ATOM     23  C   UNL     1       2.256   0.670  -3.237  1.00  0.00     0.188 C 
BRANCH  23  24
ATOM     24  O   UNL     1       3.260   0.329  -4.188  1.00  0.00    -0.376 OA
BRANCH  24  25
ATOM     25  C   UNL     1       4.519   0.995  -4.133  1.00  0.00     0.202 C 
BRANCH  25  26
ATOM     26  C   UNL     1       4.527   2.453  -4.586  1.00  0.00     0.261 C 
BRANCH  26  27
ATOM     27  O   UNL     1       4.022   3.330  -3.566  1.00  0.00    -0.460 OA
BRANCH  27  28
ATOM     28  C   UNL     1       2.849   3.935  -3.856  1.00  0.00     0.338 C 
ATOM     29  O   UNL     1       2.167   3.791  -4.855  1.00  0.00    -0.246 OA
BRANCH  28  30
ATOM     30  C   UNL     1       2.410   4.759  -2.718  1.00  0.00     0.060 A 
ATOM     31  C   UNL     1       1.109   4.567  -2.241  1.00  0.00     0.016 A 
ATOM     32  C   UNL     1       3.206   5.796  -2.227  1.00  0.00     0.016 A 
ATOM     33  C   UNL     1       0.574   5.459  -1.316  1.00  0.00     0.010 A 
ATOM     34  C   UNL     1       2.664   6.697  -1.304  1.00  0.00     0.010 A 
ATOM     35  C   UNL     1       1.331   6.557  -0.882  1.00  0.00    -0.014 A 
BRANCH  35  36
ATOM     36  C   UNL     1       0.662   7.635  -0.118  1.00  0.00     0.031 A 
ATOM     37  C   UNL     1       0.146   8.841  -0.856  1.00  0.00     0.074 A 
ATOM     38  C   UNL     1       0.466   7.514   1.205  1.00  0.00     0.049 A 
ATOM     39  N   UNL     1      -0.500   9.882  -0.395  1.00  0.00    -0.248 NA
ATOM     40  C   UNL     1       0.386   8.877  -2.308  1.00  0.00     0.031 C 
ATOM     41  C   UNL     1       0.899   6.383   2.023  1.00  0.00     0.029 A 
ATOM     42  N   UNL     1      -0.152   8.358   2.092  1.00  0.00    -0.354 N 
ATOM     43  C   UNL     1      -0.755  10.687  -1.498  1.00  0.00     0.074 A 
ATOM     44  C   UNL     1      -0.162  10.035  -2.645  1.00  0.00     0.031 C 
ATOM     45  C   UNL     1       0.541   6.608   3.300  1.00  0.00     0.029 A 
ATOM     46  C   UNL     1      -0.132   7.902   3.387  1.00  0.00     0.049 A 
ATOM     47  H   UNL     1      -0.570   9.209   1.826  1.00  0.00     0.167 HD
ATOM     48  C   UNL     1      -1.436  11.856  -1.553  1.00  0.00     0.037 A 
ATOM     49  C   UNL     1      -0.596   8.474   4.514  1.00  0.00     0.037 A 
ATOM     50  C   UNL     1      -2.015  12.513  -0.411  1.00  0.00     0.049 A 
ATOM     51  C   UNL     1      -1.303   9.800   4.434  1.00  0.00     0.074 A 
ATOM     52  C   UNL     1      -2.717  13.704  -0.363  1.00  0.00     0.029 A 
ATOM     53  N   UNL     1      -1.954  12.031   0.888  1.00  0.00    -0.354 N 
ATOM     54  N   UNL     1      -1.557  10.540   3.382  1.00  0.00    -0.248 NA
ATOM     55  C   UNL     1      -1.797  10.364   5.698  1.00  0.00     0.031 C 
ATOM     56  C   UNL     1      -3.054  13.960   0.972  1.00  0.00     0.029 A 
ATOM     57  C   UNL     1      -2.594  12.908   1.747  1.00  0.00     0.049 A 
ATOM     58  H   UNL     1      -1.520  11.190   1.159  1.00  0.00     0.167 HD
ATOM     59  C   UNL     1      -2.254  11.646   3.853  1.00  0.00     0.074 A 
ATOM     60  C   UNL     1      -2.401  11.468   5.283  1.00  0.00     0.031 C 
ATOM     61  C   UNL     1      -2.727  12.715   3.167  1.00  0.00     0.037 A 
BRANCH  48  62
ATOM     62  C   UNL     1      -1.585  12.504  -2.897  1.00  0.00     0.057 A 
ATOM     63  C   UNL     1      -2.471  12.001  -3.858  1.00  0.00     0.134 A 
ATOM     64  C   UNL     1      -0.867  13.661  -3.220  1.00  0.00     0.134 A 
ATOM     65  F   UNL     1      -3.177  10.886  -3.614  1.00  0.00    -0.206 F 
ATOM     66  C   UNL     1      -2.627  12.619  -5.100  1.00  0.00     0.040 A 
ATOM     67  C   UNL     1      -1.029  14.300  -4.451  1.00  0.00     0.040 A 
ATOM     68  F   UNL     1      -0.003  14.195  -2.343  1.00  0.00    -0.206 F 
ATOM     69  C   UNL     1      -1.910  13.776  -5.396  1.00  0.00     0.006 A 
ENDBRANCH  48  62
BRANCH  49  70
ATOM     70  C   UNL     1      -0.401   7.802   5.822  1.00  0.00     0.057 A 
ATOM     71  C   UNL     1      -1.477   7.251   6.526  1.00  0.00     0.134 A 
ATOM     72  C   UNL     1       0.866   7.722   6.411  1.00  0.00     0.134 A 
ATOM     73  F   UNL     1      -2.719   7.319   6.023  1.00  0.00    -0.206 F 
ATOM     74  C   UNL     1      -1.304   6.662   7.779  1.00  0.00     0.040 A 
ATOM     75  C   UNL     1       1.058   7.116   7.653  1.00  0.00     0.040 A 
ATOM     76  F   UNL     1       1.938   8.231   5.784  1.00  0.00    -0.206 F 
ATOM     77  C   UNL     1      -0.032   6.590   8.344  1.00  0.00     0.006 A 
ENDBRANCH  49  70
BRANCH  61  78
ATOM     78  C   UNL     1      -3.460  13.759   3.956  1.00  0.00     0.057 A 
ATOM     79  C   UNL     1      -2.788  14.643   4.809  1.00  0.00     0.134 A 
ATOM     80  C   UNL     1      -4.850  13.891   3.849  1.00  0.00     0.134 A 
ATOM     81  F   UNL     1      -1.458  14.559   4.964  1.00  0.00    -0.206 F 
ATOM     82  C   UNL     1      -3.476  15.605   5.549  1.00  0.00     0.040 A 
ATOM     83  C   UNL     1      -5.547  14.864   4.567  1.00  0.00     0.040 A 
ATOM     84  F   UNL     1      -5.552  13.080   3.043  1.00  0.00    -0.206 F 
ATOM     85  C   UNL     1      -4.860  15.720   5.426  1.00  0.00     0.006 A 
ENDBRANCH  61  78
ENDBRANCH  35  36
ENDBRANCH  28  30
ENDBRANCH  27  28
ENDBRANCH  26  27
ENDBRANCH  25  26
ENDBRANCH  24  25
ENDBRANCH  23  24
ENDBRANCH   1  23
TORSDOF 21
