REMARK SMILES CC[C@@](C)(NC(=O)Nc1c(C)cccc1Cl)C(=O)OCCOCCOCCOC(=O)c1ccc(-c2c3nc(c(-c4c(F)cccc4F)c4ccc([nH]4)c(-c4c(F)cccc4F)c4nc(c(-c5c(F)cccc5F)c5ccc2[nH]5)C=C4)C=C3)cc1
REMARK SMILES IDX 23 1 22 2 21 3 20 4 19 5 17 6 18 7 3 8 4 9 2 10 1 11 5 12
REMARK SMILES IDX 6 13 7 15 8 16 9 18 10 19 15 20 11 21 12 22 14 23 16 24
REMARK SMILES IDX 13 25 24 26 25 27 26 28 27 29 28 30 29 31 30 32 31 33 32 34
REMARK SMILES IDX 84 35 33 36 83 37 34 38 35 39 36 40 77 41 37 42 82 43 76 44
REMARK SMILES IDX 78 45 38 46 81 47 75 48 74 49 39 51 65 52 48 53 64 54 49 55
REMARK SMILES IDX 52 56 63 57 79 58 50 59 51 60 62 62 80 63 53 64 40 65 41 66
REMARK SMILES IDX 46 67 42 68 43 69 45 70 47 71 44 72 66 73 67 74 72 75 68 76
REMARK SMILES IDX 69 77 71 78 73 79 70 80 54 81 55 82 60 83 56 84 57 85 59 86
REMARK SMILES IDX 61 87 58 88
REMARK H PARENT 5 14 8 17 78 50 52 61
REMARK Flexibility Score: inf
ROOT
ATOM      1  C   UNL     1       4.707   4.147   0.931  1.00  0.00     0.188 C 
ENDROOT
BRANCH   1   2
ATOM      2  O   UNL     1       4.533   3.703  -0.429  1.00  0.00    -0.376 OA
BRANCH   2   3
ATOM      3  C   UNL     1       4.201   4.638  -1.474  1.00  0.00     0.202 C 
BRANCH   3   4
ATOM      4  C   UNL     1       3.253   4.159  -2.762  1.00  0.00     0.261 C 
BRANCH   4   5
ATOM      5  O   UNL     1       1.734   3.605  -2.838  1.00  0.00    -0.462 OA
BRANCH   5   6
ATOM      6  C   UNL     1       1.008   2.336  -2.786  1.00  0.00     0.331 C 
ATOM      7  O   UNL     1       0.887   1.569  -3.743  1.00  0.00    -0.249 OA
BRANCH   6   8
ATOM      8  C   UNL     1       0.027   2.144  -1.509  1.00  0.00     0.136 C 
ATOM      9  C   UNL     1      -1.394   2.334  -2.047  1.00  0.00     0.047 C 
BRANCH   8  10
ATOM     10  C   UNL     1      -0.050   1.127  -0.316  1.00  0.00     0.037 C 
ATOM     11  C   UNL     1       0.328  -0.319  -0.460  1.00  0.00     0.007 C 
ENDBRANCH   8  10
BRANCH   8  12
ATOM     12  N   UNL     1       0.489   3.275  -0.841  1.00  0.00    -0.322 N 
ATOM     13  C   UNL     1       1.781   3.328  -0.521  1.00  0.00     0.320 C 
ATOM     14  H   UNL     1      -0.121   4.013  -0.611  1.00  0.00     0.166 HD
ATOM     15  O   UNL     1       2.034   4.492  -0.226  1.00  0.00    -0.248 OA
ATOM     16  N   UNL     1       2.657   2.252  -0.558  1.00  0.00    -0.306 N 
ATOM     17  H   UNL     1       2.997   2.168   0.362  1.00  0.00     0.171 HD
BRANCH  16  18
ATOM     18  C   UNL     1       3.340   1.148  -1.332  1.00  0.00     0.064 A 
ATOM     19  C   UNL     1       3.516   0.750  -2.716  1.00  0.00    -0.026 A 
ATOM     20  C   UNL     1       4.084   0.307  -0.422  1.00  0.00     0.064 A 
ATOM     21  C   UNL     1       3.484   1.449  -4.082  1.00  0.00     0.046 C 
ATOM     22  C   UNL     1       4.144  -0.514  -3.015  1.00  0.00     0.005 A 
ATOM     23  C   UNL     1       4.814  -0.840  -0.788  1.00  0.00     0.023 A 
ATOM     24  Cl  UNL     1       4.111   0.618   1.297  1.00  0.00    -0.082 Cl
ATOM     25  C   UNL     1       4.789  -1.292  -2.082  1.00  0.00     0.002 A 
ENDBRANCH  16  18
ENDBRANCH   8  12
ENDBRANCH   6   8
ENDBRANCH   5   6
ENDBRANCH   4   5
ENDBRANCH   3   4
ENDBRANCH   2   3
ENDBRANCH   1   2
BRANCH   1  26
ATOM     26  C   UNL     1       3.596   4.880   1.712  1.00  0.00     0.188 C 
BRANCH  26  27
ATOM     27  O   UNL     1       3.538   6.295   1.573  1.00  0.00    -0.376 OA
BRANCH  27  28
ATOM     28  C   UNL     1       4.718   6.973   1.971  1.00  0.00     0.202 C 
BRANCH  28  29
ATOM     29  C   UNL     1       4.987   7.039   3.488  1.00  0.00     0.261 C 
BRANCH  29  30
ATOM     30  O   UNL     1       4.597   5.875   4.242  1.00  0.00    -0.460 OA
BRANCH  30  31
ATOM     31  C   UNL     1       3.311   5.909   4.712  1.00  0.00     0.338 C 
ATOM     32  O   UNL     1       2.567   6.854   4.715  1.00  0.00    -0.246 OA
BRANCH  31  33
ATOM     33  C   UNL     1       2.873   4.532   5.093  1.00  0.00     0.060 A 
ATOM     34  C   UNL     1       1.598   4.111   4.678  1.00  0.00     0.016 A 
ATOM     35  C   UNL     1       3.658   3.696   5.891  1.00  0.00     0.016 A 
ATOM     36  C   UNL     1       1.057   2.916   5.160  1.00  0.00     0.010 A 
ATOM     37  C   UNL     1       3.110   2.507   6.391  1.00  0.00     0.010 A 
ATOM     38  C   UNL     1       1.777   2.162   6.096  1.00  0.00    -0.014 A 
BRANCH  38  39
ATOM     39  C   UNL     1       1.014   1.322   7.062  1.00  0.00     0.031 A 
ATOM     40  C   UNL     1       0.549   2.006   8.328  1.00  0.00     0.074 A 
ATOM     41  C   UNL     1       0.697   0.036   6.835  1.00  0.00     0.049 A 
ATOM     42  N   UNL     1      -0.101   1.525   9.356  1.00  0.00    -0.248 NA
ATOM     43  C   UNL     1       0.873   3.440   8.447  1.00  0.00     0.031 C 
ATOM     44  C   UNL     1       1.028  -0.725   5.634  1.00  0.00     0.029 A 
ATOM     45  N   UNL     1       0.016  -0.859   7.625  1.00  0.00    -0.354 N 
ATOM     46  C   UNL     1      -0.250   2.592  10.237  1.00  0.00     0.074 A 
ATOM     47  C   UNL     1       0.406   3.733   9.647  1.00  0.00     0.031 C 
ATOM     48  C   UNL     1       0.555  -1.979   5.770  1.00  0.00     0.029 A 
ATOM     49  C   UNL     1      -0.088  -2.114   7.078  1.00  0.00     0.049 A 
ATOM     50  H   UNL     1      -0.362  -0.622   8.503  1.00  0.00     0.167 HD
ATOM     51  C   UNL     1      -0.884   2.628  11.432  1.00  0.00     0.037 A 
ATOM     52  C   UNL     1      -0.629  -3.239   7.587  1.00  0.00     0.037 A 
ATOM     53  C   UNL     1      -1.536   1.493  12.023  1.00  0.00     0.049 A 
ATOM     54  C   UNL     1      -1.267  -3.198   8.956  1.00  0.00     0.074 A 
ATOM     55  C   UNL     1      -2.209   1.416  13.228  1.00  0.00     0.029 A 
ATOM     56  N   UNL     1      -1.586   0.233  11.449  1.00  0.00    -0.354 N 
ATOM     57  N   UNL     1      -1.413  -2.183   9.776  1.00  0.00    -0.248 NA
ATOM     58  C   UNL     1      -1.823  -4.460   9.466  1.00  0.00     0.031 C 
ATOM     59  C   UNL     1      -2.620   0.091  13.409  1.00  0.00     0.029 A 
ATOM     60  C   UNL     1      -2.261  -0.638  12.286  1.00  0.00     0.049 A 
ATOM     61  H   UNL     1      -1.199  -0.007  10.576  1.00  0.00     0.167 HD
ATOM     62  C   UNL     1      -2.114  -2.674  10.873  1.00  0.00     0.074 A 
ATOM     63  C   UNL     1      -2.369  -4.074  10.611  1.00  0.00     0.031 C 
ATOM     64  C   UNL     1      -2.518  -2.025  11.995  1.00  0.00     0.037 A 
BRANCH  51  65
ATOM     65  C   UNL     1      -0.857   3.926  12.186  1.00  0.00     0.057 A 
ATOM     66  C   UNL     1      -1.563   5.057  11.752  1.00  0.00     0.134 A 
ATOM     67  C   UNL     1      -0.102   4.048  13.359  1.00  0.00     0.134 A 
ATOM     68  F   UNL     1      -2.285   5.017  10.622  1.00  0.00    -0.206 F 
ATOM     69  C   UNL     1      -1.494   6.270  12.441  1.00  0.00     0.040 A 
ATOM     70  C   UNL     1      -0.050   5.246  14.073  1.00  0.00     0.040 A 
ATOM     71  F   UNL     1       0.602   3.007  13.828  1.00  0.00    -0.206 F 
ATOM     72  C   UNL     1      -0.741   6.364  13.610  1.00  0.00     0.006 A 
ENDBRANCH  51  65
BRANCH  52  73
ATOM     73  C   UNL     1      -0.598  -4.510   6.813  1.00  0.00     0.057 A 
ATOM     74  C   UNL     1      -1.775  -5.100   6.334  1.00  0.00     0.134 A 
ATOM     75  C   UNL     1       0.602  -5.189   6.571  1.00  0.00     0.134 A 
ATOM     76  F   UNL     1      -2.962  -4.517   6.558  1.00  0.00    -0.206 F 
ATOM     77  C   UNL     1      -1.762  -6.326   5.664  1.00  0.00     0.040 A 
ATOM     78  C   UNL     1       0.633  -6.401   5.878  1.00  0.00     0.040 A 
ATOM     79  F   UNL     1       1.766  -4.684   7.007  1.00  0.00    -0.206 F 
ATOM     80  C   UNL     1      -0.553  -6.978   5.430  1.00  0.00     0.006 A 
ENDBRANCH  52  73
BRANCH  64  81
ATOM     81  C   UNL     1      -3.333  -2.803  12.989  1.00  0.00     0.057 A 
ATOM     82  C   UNL     1      -2.781  -3.822  13.776  1.00  0.00     0.134 A 
ATOM     83  C   UNL     1      -4.686  -2.496  13.187  1.00  0.00     0.134 A 
ATOM     84  F   UNL     1      -1.493  -4.170  13.634  1.00  0.00    -0.206 F 
ATOM     85  C   UNL     1      -3.555  -4.532  14.696  1.00  0.00     0.040 A 
ATOM     86  C   UNL     1      -5.461  -3.176  14.126  1.00  0.00     0.040 A 
ATOM     87  F   UNL     1      -5.274  -1.519  12.479  1.00  0.00    -0.206 F 
ATOM     88  C   UNL     1      -4.897  -4.205  14.877  1.00  0.00     0.006 A 
ENDBRANCH  64  81
ENDBRANCH  38  39
ENDBRANCH  31  33
ENDBRANCH  30  31
ENDBRANCH  29  30
ENDBRANCH  28  29
ENDBRANCH  27  28
ENDBRANCH  26  27
ENDBRANCH   1  26
TORSDOF 20
