REMARK SMILES O=C(COCC[NH+]1CCCC1)OCCOCCOCCOC(=O)c1ccc(-c2c3nc(c(-c4c(F)cccc4F)c4ccc([nH]4)c(-c4c(F)cccc4F)c4nc(c(-c5c(F)cccc5F)c5ccc2[nH]5)C=C4)C=C3)cc1
REMARK SMILES IDX 16 1 15 2 14 3 13 4 12 5 2 6 1 7 3 8 4 9 5 10 6 11 7 12 8 13
REMARK SMILES IDX 11 14 9 16 10 17 17 18 18 19 19 20 20 21 21 22 22 23 23 24
REMARK SMILES IDX 24 25 25 26 77 27 26 28 76 29 27 30 28 31 29 32 70 33 30 34
REMARK SMILES IDX 75 35 69 36 71 37 31 38 74 39 68 40 67 41 32 43 58 44 41 45
REMARK SMILES IDX 57 46 42 47 45 48 56 49 72 50 43 51 44 52 55 54 73 55 46 56
REMARK SMILES IDX 33 57 34 58 39 59 35 60 36 61 38 62 40 63 37 64 59 65 60 66
REMARK SMILES IDX 65 67 61 68 62 69 64 70 66 71 63 72 47 73 48 74 53 75 49 76
REMARK SMILES IDX 50 77 52 78 54 79 51 80
REMARK H PARENT 7 15 71 42 45 53
REMARK Flexibility Score: inf
ROOT
ATOM      1  C   UNL     1       3.648   1.224   1.378  1.00  0.00     0.188 C 
ENDROOT
BRANCH   1   2
ATOM      2  O   UNL     1       5.053   1.056   1.369  1.00  0.00    -0.376 OA
BRANCH   2   3
ATOM      3  C   UNL     1       5.812   1.142   0.172  1.00  0.00     0.202 C 
BRANCH   3   4
ATOM      4  C   UNL     1       5.453   0.306  -1.052  1.00  0.00     0.261 C 
BRANCH   4   5
ATOM      5  O   UNL     1       4.081   0.420  -1.439  1.00  0.00    -0.462 OA
BRANCH   5   6
ATOM      6  C   UNL     1       3.349  -0.719  -1.566  1.00  0.00     0.332 C 
ATOM      7  O   UNL     1       2.502  -0.824  -2.448  1.00  0.00    -0.250 OA
BRANCH   6   8
ATOM      8  C   UNL     1       3.498  -1.742  -0.431  1.00  0.00     0.282 C 
BRANCH   8   9
ATOM      9  O   UNL     1       3.519  -3.103  -0.806  1.00  0.00    -0.364 OA
BRANCH   9  10
ATOM     10  C   UNL     1       2.220  -3.699  -0.801  1.00  0.00     0.222 C 
BRANCH  10  11
ATOM     11  C   UNL     1       1.712  -4.010   0.632  1.00  0.00     0.291 C 
BRANCH  11  12
ATOM     12  N   UNL     1       0.552  -3.300   1.189  1.00  0.00    -0.333 N 
ATOM     13  C   UNL     1      -0.512  -2.924   0.265  1.00  0.00     0.262 C 
ATOM     14  C   UNL     1       0.831  -2.159   2.060  1.00  0.00     0.262 C 
ATOM     15  H   UNL     1       0.206  -4.066   1.766  1.00  0.00     0.348 HD
ATOM     16  C   UNL     1      -0.361  -1.424   0.093  1.00  0.00     0.067 C 
ATOM     17  C   UNL     1       0.107  -0.958   1.459  1.00  0.00     0.067 C 
ENDBRANCH  11  12
ENDBRANCH  10  11
ENDBRANCH   9  10
ENDBRANCH   8   9
ENDBRANCH   6   8
ENDBRANCH   5   6
ENDBRANCH   4   5
ENDBRANCH   3   4
ENDBRANCH   2   3
ENDBRANCH   1   2
BRANCH   1  18
ATOM     18  C   UNL     1       2.938   2.518   0.946  1.00  0.00     0.188 C 
BRANCH  18  19
ATOM     19  O   UNL     1       3.663   3.614   0.434  1.00  0.00    -0.376 OA
BRANCH  19  20
ATOM     20  C   UNL     1       4.707   4.190   1.200  1.00  0.00     0.202 C 
BRANCH  20  21
ATOM     21  C   UNL     1       4.497   4.545   2.671  1.00  0.00     0.261 C 
BRANCH  21  22
ATOM     22  O   UNL     1       4.122   3.423   3.487  1.00  0.00    -0.460 OA
BRANCH  22  23
ATOM     23  C   UNL     1       2.963   3.588   4.158  1.00  0.00     0.338 C 
ATOM     24  O   UNL     1       2.225   4.569   4.128  1.00  0.00    -0.246 OA
BRANCH  23  25
ATOM     25  C   UNL     1       2.579   2.372   4.891  1.00  0.00     0.060 A 
ATOM     26  C   UNL     1       1.283   1.882   4.686  1.00  0.00     0.016 A 
ATOM     27  C   UNL     1       3.392   1.837   5.893  1.00  0.00     0.016 A 
ATOM     28  C   UNL     1       0.756   0.924   5.549  1.00  0.00     0.010 A 
ATOM     29  C   UNL     1       2.858   0.877   6.764  1.00  0.00     0.010 A 
ATOM     30  C   UNL     1       1.518   0.468   6.634  1.00  0.00    -0.014 A 
BRANCH  30  31
ATOM     31  C   UNL     1       0.829  -0.236   7.747  1.00  0.00     0.031 A 
ATOM     32  C   UNL     1       0.387   0.568   8.944  1.00  0.00     0.074 A 
ATOM     33  C   UNL     1       0.539  -1.546   7.681  1.00  0.00     0.049 A 
ATOM     34  N   UNL     1      -0.256   0.179  10.017  1.00  0.00    -0.248 NA
ATOM     35  C   UNL     1       0.711   2.003   8.927  1.00  0.00     0.031 C 
ATOM     36  C   UNL     1       0.868  -2.433   6.568  1.00  0.00     0.029 A 
ATOM     37  N   UNL     1      -0.107  -2.356   8.581  1.00  0.00    -0.354 N 
ATOM     38  C   UNL     1      -0.407   1.317  10.801  1.00  0.00     0.074 A 
ATOM     39  C   UNL     1       0.237   2.404  10.097  1.00  0.00     0.031 C 
ATOM     40  C   UNL     1       0.420  -3.669   6.851  1.00  0.00     0.029 A 
ATOM     41  C   UNL     1      -0.206  -3.663   8.174  1.00  0.00     0.049 A 
ATOM     42  H   UNL     1      -0.467  -2.031   9.438  1.00  0.00     0.167 HD
ATOM     43  C   UNL     1      -1.035   1.452  11.993  1.00  0.00     0.037 A 
ATOM     44  C   UNL     1      -0.734  -4.732   8.801  1.00  0.00     0.037 A 
ATOM     45  C   UNL     1      -1.686   0.382  12.699  1.00  0.00     0.049 A 
ATOM     46  C   UNL     1      -1.371  -4.569  10.157  1.00  0.00     0.074 A 
ATOM     47  C   UNL     1      -2.369   0.432  13.903  1.00  0.00     0.029 A 
ATOM     48  N   UNL     1      -1.730  -0.934  12.269  1.00  0.00    -0.354 N 
ATOM     49  N   UNL     1      -1.538  -3.482  10.871  1.00  0.00    -0.248 NA
ATOM     50  C   UNL     1      -1.899  -5.787  10.791  1.00  0.00     0.031 C 
ATOM     51  C   UNL     1      -2.788  -0.864  14.222  1.00  0.00     0.029 A 
ATOM     52  C   UNL     1      -2.408  -1.711  13.194  1.00  0.00     0.049 A 
ATOM     53  H   UNL     1      -1.338  -1.268  11.430  1.00  0.00     0.167 HD
ATOM     54  C   UNL     1      -2.225  -3.878  12.014  1.00  0.00     0.074 A 
ATOM     55  C   UNL     1      -2.446  -5.304  11.898  1.00  0.00     0.031 C 
ATOM     56  C   UNL     1      -2.640  -3.126  13.063  1.00  0.00     0.037 A 
BRANCH  43  57
ATOM     57  C   UNL     1      -1.025   2.814  12.623  1.00  0.00     0.057 A 
ATOM     58  C   UNL     1      -1.806   3.865  12.125  1.00  0.00     0.134 A 
ATOM     59  C   UNL     1      -0.240   3.068  13.754  1.00  0.00     0.134 A 
ATOM     60  F   UNL     1      -2.567   3.690  11.035  1.00  0.00    -0.206 F 
ATOM     61  C   UNL     1      -1.788   5.129  12.718  1.00  0.00     0.040 A 
ATOM     62  C   UNL     1      -0.233   4.321  14.370  1.00  0.00     0.040 A 
ATOM     63  F   UNL     1       0.527   2.103  14.282  1.00  0.00    -0.206 F 
ATOM     64  C   UNL     1      -1.004   5.357  13.847  1.00  0.00     0.006 A 
ENDBRANCH  43  57
BRANCH  44  65
ATOM     65  C   UNL     1      -0.694  -6.069   8.157  1.00  0.00     0.057 A 
ATOM     66  C   UNL     1      -1.862  -6.685   7.696  1.00  0.00     0.134 A 
ATOM     67  C   UNL     1       0.506  -6.778   8.029  1.00  0.00     0.134 A 
ATOM     68  F   UNL     1      -3.045  -6.066   7.818  1.00  0.00    -0.206 F 
ATOM     69  C   UNL     1      -1.844  -7.970   7.150  1.00  0.00     0.040 A 
ATOM     70  C   UNL     1       0.543  -8.054   7.464  1.00  0.00     0.040 A 
ATOM     71  F   UNL     1       1.659  -6.242   8.456  1.00  0.00    -0.206 F 
ATOM     72  C   UNL     1      -0.637  -8.656   7.030  1.00  0.00     0.006 A 
ENDBRANCH  44  65
BRANCH  56  73
ATOM     73  C   UNL     1      -3.422  -3.815  14.143  1.00  0.00     0.057 A 
ATOM     74  C   UNL     1      -2.821  -4.694  15.053  1.00  0.00     0.134 A 
ATOM     75  C   UNL     1      -4.793  -3.567  14.296  1.00  0.00     0.134 A 
ATOM     76  F   UNL     1      -1.515  -4.983  14.956  1.00  0.00    -0.206 F 
ATOM     77  C   UNL     1      -3.559  -5.321  16.059  1.00  0.00     0.040 A 
ATOM     78  C   UNL     1      -5.537  -4.168  15.313  1.00  0.00     0.040 A 
ATOM     79  F   UNL     1      -5.430  -2.727  13.466  1.00  0.00    -0.206 F 
ATOM     80  C   UNL     1      -4.921  -5.053  16.194  1.00  0.00     0.006 A 
ENDBRANCH  56  73
ENDBRANCH  30  31
ENDBRANCH  23  25
ENDBRANCH  22  23
ENDBRANCH  21  22
ENDBRANCH  20  21
ENDBRANCH  19  20
ENDBRANCH  18  19
ENDBRANCH   1  18
TORSDOF 21
