REMARK SMILES Cc1ccc(S(=O)(=O)n2cc(C(=O)C(=O)NCC(=O)OCCOCCOCCOC(=O)c3ccc(-c4c5nc(c(-c6c(F)cccc6F)c6ccc([nH]6)c(-c6c(F)cccc6F)c6nc(c(-c7c(F)cccc7F)c7ccc4[nH]7)C=C6)C=C5)cc3)c3ccccc32)cc1
REMARK SMILES IDX 23 1 22 2 21 3 20 4 18 5 19 6 17 7 16 8 14 9 15 10 12 12
REMARK SMILES IDX 13 13 11 14 9 15 10 16 91 17 86 18 90 19 87 20 89 21 88 22
REMARK SMILES IDX 6 23 7 24 8 25 5 26 1 27 2 28 3 29 93 30 4 31 92 32 24 33
REMARK SMILES IDX 25 34 26 35 27 36 28 37 29 38 30 39 31 40 32 41 33 42 85 43
REMARK SMILES IDX 34 44 84 45 35 46 36 47 37 48 78 49 38 50 83 51 77 52 79 53
REMARK SMILES IDX 39 54 82 55 76 56 75 57 40 59 66 60 49 61 65 62 50 63 53 64
REMARK SMILES IDX 64 65 80 66 51 67 52 68 63 70 81 71 54 72 41 73 42 74 47 75
REMARK SMILES IDX 43 76 44 77 46 78 48 79 45 80 67 81 68 82 73 83 69 84 70 85
REMARK SMILES IDX 72 86 74 87 71 88 55 89 56 90 61 91 57 92 58 93 60 94 62 95
REMARK SMILES IDX 59 96
REMARK H PARENT 16 11 79 58 53 69
REMARK Flexibility Score: inf
ROOT
ATOM      1  O   UNL     1     -12.292   5.344   2.464  1.00  0.00    -0.376 OA
ENDROOT
BRANCH   1   2
ATOM      2  C   UNL     1     -12.197   4.139   1.698  1.00  0.00     0.202 C 
BRANCH   2   3
ATOM      3  C   UNL     1     -10.753   3.248   1.448  1.00  0.00     0.261 C 
BRANCH   3   4
ATOM      4  O   UNL     1      -9.314   3.677   1.997  1.00  0.00    -0.462 OA
BRANCH   4   5
ATOM      5  C   UNL     1      -8.030   4.059   1.684  1.00  0.00     0.325 C 
ATOM      6  O   UNL     1      -7.506   3.929   0.581  1.00  0.00    -0.250 OA
BRANCH   5   7
ATOM      7  C   UNL     1      -7.172   4.614   2.872  1.00  0.00     0.239 C 
BRANCH   7   8
ATOM      8  N   UNL     1      -6.373   3.566   3.449  1.00  0.00    -0.338 N 
ATOM      9  C   UNL     1      -5.203   3.104   2.912  1.00  0.00     0.292 C 
ATOM     10  O   UNL     1      -4.593   2.182   3.437  1.00  0.00    -0.265 OA
ATOM     11  H   UNL     1      -6.689   3.154   4.285  1.00  0.00     0.164 HD
BRANCH   9  12
ATOM     12  C   UNL     1      -4.704   3.747   1.602  1.00  0.00     0.252 C 
ATOM     13  O   UNL     1      -4.440   4.946   1.611  1.00  0.00    -0.283 OA
BRANCH  12  14
ATOM     14  C   UNL     1      -4.502   2.898   0.437  1.00  0.00     0.054 A 
ATOM     15  N   UNL     1      -4.028   1.063  -0.712  1.00  0.00    -0.240 N 
ATOM     16  C   UNL     1      -4.552   1.520   0.464  1.00  0.00     0.117 A 
ATOM     17  C   UNL     1      -3.795   2.101  -1.590  1.00  0.00     0.065 A 
ATOM     18  C   UNL     1      -4.144   3.274  -0.901  1.00  0.00     0.012 A 
ATOM     19  C   UNL     1      -3.248   2.142  -2.885  1.00  0.00     0.028 A 
ATOM     20  C   UNL     1      -4.010   4.512  -1.565  1.00  0.00     0.011 A 
ATOM     21  C   UNL     1      -3.098   3.385  -3.503  1.00  0.00     0.002 A 
ATOM     22  C   UNL     1      -3.492   4.554  -2.863  1.00  0.00     0.001 A 
BRANCH  15  23
ATOM     23  S   UNL     1      -3.328  -0.487  -0.812  1.00  0.00     0.268 S 
ATOM     24  O   UNL     1      -3.415  -0.876  -2.206  1.00  0.00    -0.201 OA
ATOM     25  O   UNL     1      -3.957  -1.266   0.239  1.00  0.00    -0.201 OA
BRANCH  23  26
ATOM     26  C   UNL     1      -1.613  -0.293  -0.392  1.00  0.00     0.088 A 
ATOM     27  C   UNL     1       2.641  -0.038   0.166  1.00  0.00     0.044 C 
ATOM     28  C   UNL     1       1.150  -0.125   0.027  1.00  0.00    -0.051 A 
ATOM     29  C   UNL     1       0.534  -1.371  -0.142  1.00  0.00     0.005 A 
ATOM     30  C   UNL     1       0.362   1.030   0.043  1.00  0.00     0.005 A 
ATOM     31  C   UNL     1      -0.843  -1.458  -0.352  1.00  0.00     0.022 A 
ATOM     32  C   UNL     1      -1.017   0.949  -0.157  1.00  0.00     0.022 A 
ENDBRANCH  23  26
ENDBRANCH  15  23
ENDBRANCH  12  14
ENDBRANCH   9  12
ENDBRANCH   7   8
ENDBRANCH   5   7
ENDBRANCH   4   5
ENDBRANCH   3   4
ENDBRANCH   2   3
ENDBRANCH   1   2
BRANCH   1  33
ATOM     33  C   UNL     1     -13.025   5.551   3.686  1.00  0.00     0.188 C 
BRANCH  33  34
ATOM     34  C   UNL     1     -13.404   4.410   4.630  1.00  0.00     0.188 C 
BRANCH  34  35
ATOM     35  O   UNL     1     -12.490   3.337   4.510  1.00  0.00    -0.376 OA
BRANCH  35  36
ATOM     36  C   UNL     1     -12.700   2.272   5.429  1.00  0.00     0.202 C 
BRANCH  36  37
ATOM     37  C   UNL     1     -12.213   2.572   6.867  1.00  0.00     0.261 C 
BRANCH  37  38
ATOM     38  O   UNL     1     -10.850   3.063   6.865  1.00  0.00    -0.460 OA
BRANCH  38  39
ATOM     39  C   UNL     1     -10.634   4.387   7.205  1.00  0.00     0.338 C 
ATOM     40  O   UNL     1     -11.141   4.960   8.123  1.00  0.00    -0.246 OA
BRANCH  39  41
ATOM     41  C   UNL     1      -9.877   5.066   6.079  1.00  0.00     0.060 A 
ATOM     42  C   UNL     1      -9.689   6.447   5.908  1.00  0.00     0.016 A 
ATOM     43  C   UNL     1      -9.746   4.335   4.955  1.00  0.00     0.016 A 
ATOM     44  C   UNL     1      -9.528   7.055   4.578  1.00  0.00     0.010 A 
ATOM     45  C   UNL     1      -9.975   5.042   3.774  1.00  0.00     0.010 A 
ATOM     46  C   UNL     1      -9.747   6.355   3.388  1.00  0.00    -0.014 A 
BRANCH  46  47
ATOM     47  C   UNL     1     -10.082   6.930   1.937  1.00  0.00     0.031 A 
ATOM     48  C   UNL     1      -9.587   6.644   0.437  1.00  0.00     0.074 A 
ATOM     49  C   UNL     1     -11.038   7.889   1.924  1.00  0.00     0.049 A 
ATOM     50  N   UNL     1      -9.209   7.572  -0.431  1.00  0.00    -0.248 NA
ATOM     51  C   UNL     1      -9.585   5.369  -0.286  1.00  0.00     0.031 C 
ATOM     52  C   UNL     1     -11.675   8.534   0.776  1.00  0.00     0.029 A 
ATOM     53  N   UNL     1     -11.528   8.599   3.024  1.00  0.00    -0.354 N 
ATOM     54  C   UNL     1      -9.003   6.978  -1.694  1.00  0.00     0.074 A 
ATOM     55  C   UNL     1      -9.107   5.587  -1.502  1.00  0.00     0.031 C 
ATOM     56  C   UNL     1     -12.174   9.712   1.182  1.00  0.00     0.029 A 
ATOM     57  C   UNL     1     -11.793   9.896   2.572  1.00  0.00     0.049 A 
ATOM     58  H   UNL     1     -11.660   8.254   3.937  1.00  0.00     0.167 HD
ATOM     59  C   UNL     1      -8.943   7.569  -2.921  1.00  0.00     0.037 A 
ATOM     60  C   UNL     1     -11.130  10.956   3.109  1.00  0.00     0.037 A 
ATOM     61  C   UNL     1      -9.400   8.918  -2.850  1.00  0.00     0.049 A 
ATOM     62  C   UNL     1     -10.335  11.726   2.083  1.00  0.00     0.074 A 
ATOM     63  C   UNL     1     -10.660   9.463  -3.008  1.00  0.00     0.029 A 
ATOM     64  N   UNL     1      -8.630   9.835  -2.170  1.00  0.00    -0.354 N 
ATOM     65  N   UNL     1     -10.088  11.296   0.875  1.00  0.00    -0.248 NA
ATOM     66  C   UNL     1      -9.734  13.031   2.339  1.00  0.00     0.031 C 
ATOM     67  C   UNL     1     -10.686  10.669  -2.268  1.00  0.00     0.029 A 
ATOM     68  C   UNL     1      -9.416  10.891  -1.766  1.00  0.00     0.049 A 
ATOM     69  H   UNL     1      -7.664   9.749  -1.998  1.00  0.00     0.167 HD
ATOM     70  C   UNL     1      -9.288  12.196   0.226  1.00  0.00     0.074 A 
ATOM     71  C   UNL     1      -9.112  13.276   1.174  1.00  0.00     0.031 C 
ATOM     72  C   UNL     1      -8.814  11.980  -1.032  1.00  0.00     0.037 A 
BRANCH  59  73
ATOM     73  C   UNL     1      -8.786   6.731  -4.179  1.00  0.00     0.057 A 
ATOM     74  C   UNL     1      -9.730   6.705  -5.218  1.00  0.00     0.134 A 
ATOM     75  C   UNL     1      -7.717   5.820  -4.321  1.00  0.00     0.134 A 
ATOM     76  F   UNL     1     -10.771   7.549  -5.230  1.00  0.00    -0.206 F 
ATOM     77  C   UNL     1      -9.673   5.768  -6.266  1.00  0.00     0.040 A 
ATOM     78  C   UNL     1      -7.664   4.859  -5.345  1.00  0.00     0.040 A 
ATOM     79  F   UNL     1      -6.726   5.798  -3.417  1.00  0.00    -0.206 F 
ATOM     80  C   UNL     1      -8.658   4.817  -6.314  1.00  0.00     0.006 A 
ENDBRANCH  59  73
BRANCH  60  81
ATOM     81  C   UNL     1     -10.810  10.803   4.562  1.00  0.00     0.057 A 
ATOM     82  C   UNL     1     -11.868  10.519   5.453  1.00  0.00     0.134 A 
ATOM     83  C   UNL     1      -9.517  10.629   5.062  1.00  0.00     0.134 A 
ATOM     84  F   UNL     1     -13.143  10.654   5.049  1.00  0.00    -0.206 F 
ATOM     85  C   UNL     1     -11.658   9.992   6.730  1.00  0.00     0.040 A 
ATOM     86  C   UNL     1      -9.291  10.118   6.353  1.00  0.00     0.040 A 
ATOM     87  F   UNL     1      -8.448  10.813   4.274  1.00  0.00    -0.206 F 
ATOM     88  C   UNL     1     -10.363   9.774   7.179  1.00  0.00     0.006 A 
ENDBRANCH  60  81
BRANCH  72  89
ATOM     89  C   UNL     1      -7.754  12.784  -1.728  1.00  0.00     0.057 A 
ATOM     90  C   UNL     1      -6.660  13.355  -1.069  1.00  0.00     0.134 A 
ATOM     91  C   UNL     1      -7.713  12.834  -3.141  1.00  0.00     0.134 A 
ATOM     92  F   UNL     1      -6.533  13.283   0.263  1.00  0.00    -0.206 F 
ATOM     93  C   UNL     1      -5.616  13.975  -1.765  1.00  0.00     0.040 A 
ATOM     94  C   UNL     1      -6.651  13.399  -3.845  1.00  0.00     0.040 A 
ATOM     95  F   UNL     1      -8.691  12.303  -3.892  1.00  0.00    -0.206 F 
ATOM     96  C   UNL     1      -5.602  13.986  -3.156  1.00  0.00     0.006 A 
ENDBRANCH  72  89
ENDBRANCH  46  47
ENDBRANCH  39  41
ENDBRANCH  38  39
ENDBRANCH  37  38
ENDBRANCH  36  37
ENDBRANCH  35  36
ENDBRANCH  34  35
ENDBRANCH  33  34
ENDBRANCH   1  33
TORSDOF 22
