REMARK SMILES C[C@](NC(=O)c1ccc(Br)o1)(C(=O)OCCOCCOCCOC(=O)c1ccc(-c2c3nc(c(-c4c(F)cccc4F)c4ccc([nH]4)c(-c4c(F)cccc4F)c4nc(c(-c5c(F)cccc5F)c5ccc2[nH]5)C=C4)C=C3)cc1)C(F)(F)F
REMARK SMILES IDX 18 1 17 2 16 3 15 4 14 5 12 6 13 7 2 8 1 9 80 10 81 11 82 12
REMARK SMILES IDX 83 13 3 14 4 15 5 17 6 18 7 19 11 20 8 21 9 22 10 23 19 24
REMARK SMILES IDX 20 25 21 26 22 27 23 28 24 29 25 30 26 31 27 32 79 33 28 34
REMARK SMILES IDX 78 35 29 36 30 37 31 38 72 39 32 40 77 41 71 42 73 43 33 44
REMARK SMILES IDX 76 45 70 46 69 47 34 49 60 50 43 51 59 52 44 53 47 54 58 55
REMARK SMILES IDX 74 56 45 57 46 58 57 60 75 61 48 62 35 63 36 64 41 65 37 66
REMARK SMILES IDX 38 67 40 68 42 69 39 70 61 71 62 72 67 73 63 74 64 75 66 76
REMARK SMILES IDX 68 77 65 78 49 79 50 80 55 81 51 82 52 83 54 84 56 85 53 86
REMARK H PARENT 3 16 73 48 47 59
REMARK Flexibility Score: inf
ROOT
ATOM      1  C   UNL     1      -2.304   1.663   0.769  1.00  0.00     0.188 C 
ENDROOT
BRANCH   1   2
ATOM      2  O   UNL     1      -3.660   1.546   0.371  1.00  0.00    -0.376 OA
BRANCH   2   3
ATOM      3  C   UNL     1      -4.006   0.589  -0.624  1.00  0.00     0.202 C 
BRANCH   3   4
ATOM      4  C   UNL     1      -3.090   0.308  -1.838  1.00  0.00     0.261 C 
BRANCH   4   5
ATOM      5  O   UNL     1      -1.667   0.332  -1.589  1.00  0.00    -0.461 OA
BRANCH   5   6
ATOM      6  C   UNL     1      -0.905   0.942  -2.539  1.00  0.00     0.341 C 
ATOM      7  O   UNL     1      -1.361   1.344  -3.604  1.00  0.00    -0.249 OA
BRANCH   6   8
ATOM      8  C   UNL     1       0.570   1.153  -2.121  1.00  0.00     0.231 C 
ATOM      9  C   UNL     1       1.406   0.813  -3.356  1.00  0.00     0.058 C 
BRANCH   8  10
ATOM     10  C   UNL     1       0.607   2.662  -1.789  1.00  0.00     0.422 C 
ATOM     11  F   UNL     1       0.309   2.879  -0.481  1.00  0.00    -0.168 F 
ATOM     12  F   UNL     1       1.834   3.191  -2.004  1.00  0.00    -0.168 F 
ATOM     13  F   UNL     1      -0.250   3.417  -2.506  1.00  0.00    -0.168 F 
ENDBRANCH   8  10
BRANCH   8  14
ATOM     14  N   UNL     1       0.992   0.241  -1.006  1.00  0.00    -0.326 N 
ATOM     15  C   UNL     1       2.051   0.297  -0.125  1.00  0.00     0.288 C 
ATOM     16  H   UNL     1       0.405  -0.540  -0.881  1.00  0.00     0.165 HD
ATOM     17  O   UNL     1       2.116  -0.576   0.739  1.00  0.00    -0.266 OA
BRANCH  15  18
ATOM     18  C   UNL     1       2.989   1.388  -0.194  1.00  0.00     0.192 A 
ATOM     19  C   UNL     1       3.099   2.548   0.552  1.00  0.00     0.057 A 
ATOM     20  O   UNL     1       4.010   1.327  -1.099  1.00  0.00    -0.444 OA
ATOM     21  C   UNL     1       4.217   3.254   0.041  1.00  0.00     0.059 A 
ATOM     22  C   UNL     1       4.754   2.455  -0.942  1.00  0.00     0.170 A 
ATOM     23  Br  UNL     1       6.278   2.861  -1.939  1.00  0.00    -0.008 Br
ENDBRANCH  15  18
ENDBRANCH   8  14
ENDBRANCH   6   8
ENDBRANCH   5   6
ENDBRANCH   4   5
ENDBRANCH   3   4
ENDBRANCH   2   3
ENDBRANCH   1   2
BRANCH   1  24
ATOM     24  C   UNL     1      -1.553   0.398   1.221  1.00  0.00     0.188 C 
BRANCH  24  25
ATOM     25  O   UNL     1      -2.203  -0.811   0.915  1.00  0.00    -0.376 OA
BRANCH  25  26
ATOM     26  C   UNL     1      -2.908  -1.479   1.952  1.00  0.00     0.202 C 
BRANCH  26  27
ATOM     27  C   UNL     1      -3.554  -0.768   3.165  1.00  0.00     0.261 C 
BRANCH  27  28
ATOM     28  O   UNL     1      -3.098   0.548   3.509  1.00  0.00    -0.460 OA
BRANCH  28  29
ATOM     29  C   UNL     1      -2.072   0.631   4.384  1.00  0.00     0.338 C 
ATOM     30  O   UNL     1      -1.489  -0.299   4.930  1.00  0.00    -0.246 OA
BRANCH  29  31
ATOM     31  C   UNL     1      -1.597   2.030   4.416  1.00  0.00     0.060 A 
ATOM     32  C   UNL     1      -0.310   2.322   3.938  1.00  0.00     0.016 A 
ATOM     33  C   UNL     1      -2.403   3.042   4.939  1.00  0.00     0.016 A 
ATOM     34  C   UNL     1       0.191   3.621   4.020  1.00  0.00     0.010 A 
ATOM     35  C   UNL     1      -1.889   4.338   5.048  1.00  0.00     0.010 A 
ATOM     36  C   UNL     1      -0.575   4.622   4.630  1.00  0.00    -0.014 A 
BRANCH  36  37
ATOM     37  C   UNL     1       0.087   5.875   5.068  1.00  0.00     0.031 A 
ATOM     38  C   UNL     1       0.577   5.952   6.489  1.00  0.00     0.074 A 
ATOM     39  C   UNL     1       0.282   6.910   4.232  1.00  0.00     0.049 A 
ATOM     40  N   UNL     1       1.151   6.941   7.124  1.00  0.00    -0.248 NA
ATOM     41  C   UNL     1       0.389   4.741   7.305  1.00  0.00     0.031 C 
ATOM     42  C   UNL     1      -0.092   6.944   2.821  1.00  0.00     0.029 A 
ATOM     43  N   UNL     1       0.847   8.140   4.465  1.00  0.00    -0.354 N 
ATOM     44  C   UNL     1       1.376   6.479   8.415  1.00  0.00     0.074 A 
ATOM     45  C   UNL     1       0.850   5.133   8.481  1.00  0.00     0.031 C 
ATOM     46  C   UNL     1       0.247   8.143   2.312  1.00  0.00     0.029 A 
ATOM     47  C   UNL     1       0.831   8.967   3.370  1.00  0.00     0.049 A 
ATOM     48  H   UNL     1       1.226   8.403   5.334  1.00  0.00     0.167 HD
ATOM     49  C   UNL     1       1.971   7.113   9.452  1.00  0.00     0.037 A 
ATOM     50  C   UNL     1       1.229  10.249   3.245  1.00  0.00     0.037 A 
ATOM     51  C   UNL     1       2.490   8.454   9.388  1.00  0.00     0.049 A 
ATOM     52  C   UNL     1       1.817  10.965   4.436  1.00  0.00     0.074 A 
ATOM     53  C   UNL     1       3.125   9.181  10.379  1.00  0.00     0.029 A 
ATOM     54  N   UNL     1       2.420   9.273   8.271  1.00  0.00    -0.354 N 
ATOM     55  N   UNL     1       2.046  10.515   5.646  1.00  0.00    -0.248 NA
ATOM     56  C   UNL     1       2.207  12.368   4.236  1.00  0.00     0.031 C 
ATOM     57  C   UNL     1       3.385  10.462   9.880  1.00  0.00     0.029 A 
ATOM     58  C   UNL     1       2.976  10.509   8.557  1.00  0.00     0.049 A 
ATOM     59  H   UNL     1       2.032   9.015   7.404  1.00  0.00     0.167 HD
ATOM     60  C   UNL     1       2.647  11.562   6.337  1.00  0.00     0.074 A 
ATOM     61  C   UNL     1       2.748  12.669   5.409  1.00  0.00     0.031 C 
ATOM     62  C   UNL     1       3.086  11.600   7.620  1.00  0.00     0.037 A 
BRANCH  49  63
ATOM     63  C   UNL     1       2.044   6.372  10.757  1.00  0.00     0.057 A 
ATOM     64  C   UNL     1       2.858   5.244  10.932  1.00  0.00     0.134 A 
ATOM     65  C   UNL     1       1.278   6.789  11.852  1.00  0.00     0.134 A 
ATOM     66  F   UNL     1       3.604   4.780   9.918  1.00  0.00    -0.206 F 
ATOM     67  C   UNL     1       2.878   4.537  12.135  1.00  0.00     0.040 A 
ATOM     68  C   UNL     1       1.314   6.110  13.071  1.00  0.00     0.040 A 
ATOM     69  F   UNL     1       0.478   7.862  11.756  1.00  0.00    -0.206 F 
ATOM     70  C   UNL     1       2.107   4.973  13.211  1.00  0.00     0.006 A 
ENDBRANCH  49  63
BRANCH  50  71
ATOM     71  C   UNL     1       1.097  10.947   1.940  1.00  0.00     0.057 A 
ATOM     72  C   UNL     1       2.227  11.307   1.197  1.00  0.00     0.134 A 
ATOM     73  C   UNL     1      -0.155  11.291   1.418  1.00  0.00     0.134 A 
ATOM     74  F   UNL     1       3.455  11.028   1.657  1.00  0.00    -0.206 F 
ATOM     75  C   UNL     1       2.119  11.999  -0.011  1.00  0.00     0.040 A 
ATOM     76  C   UNL     1      -0.279  11.960   0.198  1.00  0.00     0.040 A 
ATOM     77  F   UNL     1      -1.276  10.977   2.083  1.00  0.00    -0.206 F 
ATOM     78  C   UNL     1       0.861  12.322  -0.516  1.00  0.00     0.006 A 
ENDBRANCH  50  71
BRANCH  62  79
ATOM     79  C   UNL     1       3.778  12.853   8.082  1.00  0.00     0.057 A 
ATOM     80  C   UNL     1       3.096  14.060   8.277  1.00  0.00     0.134 A 
ATOM     81  C   UNL     1       5.151  12.836   8.368  1.00  0.00     0.134 A 
ATOM     82  F   UNL     1       1.783  14.151   8.014  1.00  0.00    -0.206 F 
ATOM     83  C   UNL     1       3.758  15.212   8.709  1.00  0.00     0.040 A 
ATOM     84  C   UNL     1       5.817  13.971   8.831  1.00  0.00     0.040 A 
ATOM     85  F   UNL     1       5.865  11.710   8.216  1.00  0.00    -0.206 F 
ATOM     86  C   UNL     1       5.122  15.167   8.994  1.00  0.00     0.006 A 
ENDBRANCH  62  79
ENDBRANCH  36  37
ENDBRANCH  29  31
ENDBRANCH  28  29
ENDBRANCH  27  28
ENDBRANCH  26  27
ENDBRANCH  25  26
ENDBRANCH  24  25
ENDBRANCH   1  24
TORSDOF 20
