REMARK SMILES O=C(OCCOCCOCCOC(=O)c1ccccc1/N=C/c1coc2ccccc2c1=O)c1ccc(-c2c3nc(c(-c4c(F)cccc4F)c4ccc([nH]4)c(-c4c(F)cccc4F)c4nc(c(-c5c(F)cccc5F)c5ccc2[nH]5)C=C4)C=C3)cc1
REMARK SMILES IDX 7 1 6 2 5 3 4 4 3 5 2 6 1 7 34 8 35 9 87 10 36 11 86 12
REMARK SMILES IDX 37 13 38 14 39 15 80 16 40 17 85 18 79 19 81 20 41 21 84 22
REMARK SMILES IDX 78 23 77 24 42 26 68 27 51 28 67 29 52 30 55 31 66 32 82 33
REMARK SMILES IDX 53 34 54 35 65 37 83 38 56 39 43 40 44 41 49 42 45 43 46 44
REMARK SMILES IDX 48 45 50 46 47 47 69 48 70 49 75 50 71 51 72 52 74 53 76 54
REMARK SMILES IDX 73 55 57 56 58 57 63 58 59 59 60 60 62 61 64 62 61 63 8 64
REMARK SMILES IDX 9 65 10 66 11 67 12 68 13 69 14 70 15 71 16 72 20 73 17 74
REMARK SMILES IDX 19 75 18 76 21 77 22 78 23 79 24 80 32 81 25 82 31 83 33 84
REMARK SMILES IDX 26 85 30 86 27 87 29 88 28 89
REMARK H PARENT 81 25 55 36
REMARK Flexibility Score: inf
ROOT
ATOM      1  C   UNL     1       2.517  -0.568  -1.383  1.00  0.00     0.188 C 
ENDROOT
BRANCH   1   2
ATOM      2  O   UNL     1       3.900  -0.359  -1.087  1.00  0.00    -0.376 OA
BRANCH   2   3
ATOM      3  C   UNL     1       4.548  -1.493  -0.511  1.00  0.00     0.202 C 
BRANCH   3   4
ATOM      4  C   UNL     1       4.666  -1.388   1.012  1.00  0.00     0.261 C 
BRANCH   4   5
ATOM      5  O   UNL     1       3.394  -1.115   1.628  1.00  0.00    -0.460 OA
BRANCH   5   6
ATOM      6  C   UNL     1       2.747   0.064   1.791  1.00  0.00     0.338 C 
ATOM      7  O   UNL     1       1.560   0.021   2.119  1.00  0.00    -0.246 OA
BRANCH   6   8
ATOM      8  C   UNL     1       3.381   1.422   1.686  1.00  0.00     0.060 A 
ATOM      9  C   UNL     1       4.577   1.741   1.040  1.00  0.00     0.016 A 
ATOM     10  C   UNL     1       2.679   2.478   2.306  1.00  0.00     0.016 A 
ATOM     11  C   UNL     1       5.123   3.025   1.121  1.00  0.00     0.010 A 
ATOM     12  C   UNL     1       3.201   3.775   2.363  1.00  0.00     0.010 A 
ATOM     13  C   UNL     1       4.460   4.035   1.821  1.00  0.00    -0.014 A 
BRANCH  13  14
ATOM     14  C   UNL     1       5.183   5.289   2.121  1.00  0.00     0.031 A 
ATOM     15  C   UNL     1       5.900   5.410   3.429  1.00  0.00     0.074 A 
ATOM     16  C   UNL     1       5.271   6.277   1.218  1.00  0.00     0.049 A 
ATOM     17  N   UNL     1       6.681   6.367   3.855  1.00  0.00    -0.248 NA
ATOM     18  C   UNL     1       5.706   4.309   4.384  1.00  0.00     0.031 C 
ATOM     19  C   UNL     1       4.604   6.281  -0.077  1.00  0.00     0.029 A 
ATOM     20  N   UNL     1       5.978   7.455   1.244  1.00  0.00    -0.354 N 
ATOM     21  C   UNL     1       7.057   5.995   5.135  1.00  0.00     0.074 A 
ATOM     22  C   UNL     1       6.418   4.727   5.418  1.00  0.00     0.031 C 
ATOM     23  C   UNL     1       4.975   7.389  -0.736  1.00  0.00     0.029 A 
ATOM     24  C   UNL     1       5.916   8.150   0.063  1.00  0.00     0.049 A 
ATOM     25  H   UNL     1       6.478   7.769   2.031  1.00  0.00     0.167 HD
ATOM     26  C   UNL     1       7.854   6.659   6.004  1.00  0.00     0.037 A 
ATOM     27  C   UNL     1       6.559   9.254  -0.358  1.00  0.00     0.037 A 
ATOM     28  C   UNL     1       8.464   7.932   5.734  1.00  0.00     0.049 A 
ATOM     29  C   UNL     1       7.474   9.950   0.598  1.00  0.00     0.074 A 
ATOM     30  C   UNL     1       9.230   8.721   6.572  1.00  0.00     0.029 A 
ATOM     31  N   UNL     1       8.371   8.604   4.524  1.00  0.00    -0.354 N 
ATOM     32  N   UNL     1       7.804   9.601   1.816  1.00  0.00    -0.248 NA
ATOM     33  C   UNL     1       8.075  11.209   0.140  1.00  0.00     0.031 C 
ATOM     34  C   UNL     1       9.582   9.885   5.875  1.00  0.00     0.029 A 
ATOM     35  C   UNL     1       9.059   9.805   4.594  1.00  0.00     0.049 A 
ATOM     36  H   UNL     1       7.888   8.277   3.732  1.00  0.00     0.167 HD
ATOM     37  C   UNL     1       8.631  10.607   2.284  1.00  0.00     0.074 A 
ATOM     38  C   UNL     1       8.791  11.558   1.200  1.00  0.00     0.031 C 
ATOM     39  C   UNL     1       9.184  10.745   3.512  1.00  0.00     0.037 A 
BRANCH  26  40
ATOM     40  C   UNL     1       8.030   6.021   7.345  1.00  0.00     0.057 A 
ATOM     41  C   UNL     1       8.860   4.907   7.526  1.00  0.00     0.134 A 
ATOM     42  C   UNL     1       7.289   6.468   8.444  1.00  0.00     0.134 A 
ATOM     43  F   UNL     1       9.564   4.409   6.499  1.00  0.00    -0.206 F 
ATOM     44  C   UNL     1       8.922   4.241   8.751  1.00  0.00     0.040 A 
ATOM     45  C   UNL     1       7.356   5.821   9.678  1.00  0.00     0.040 A 
ATOM     46  F   UNL     1       6.463   7.519   8.326  1.00  0.00    -0.206 F 
ATOM     47  C   UNL     1       8.167   4.698   9.831  1.00  0.00     0.006 A 
ENDBRANCH  26  40
BRANCH  27  48
ATOM     48  C   UNL     1       6.398   9.739  -1.754  1.00  0.00     0.057 A 
ATOM     49  C   UNL     1       7.436   9.598  -2.683  1.00  0.00     0.134 A 
ATOM     50  C   UNL     1       5.212  10.331  -2.202  1.00  0.00     0.134 A 
ATOM     51  F   UNL     1       8.606   9.058  -2.312  1.00  0.00    -0.206 F 
ATOM     52  C   UNL     1       7.303  10.033  -4.004  1.00  0.00     0.040 A 
ATOM     53  C   UNL     1       5.058  10.756  -3.524  1.00  0.00     0.040 A 
ATOM     54  F   UNL     1       4.172  10.479  -1.368  1.00  0.00    -0.206 F 
ATOM     55  C   UNL     1       6.107  10.610  -4.429  1.00  0.00     0.006 A 
ENDBRANCH  27  48
BRANCH  39  56
ATOM     56  C   UNL     1       9.980  11.989   3.741  1.00  0.00     0.057 A 
ATOM     57  C   UNL     1       9.350  13.221   3.961  1.00  0.00     0.134 A 
ATOM     58  C   UNL     1      11.377  11.959   3.739  1.00  0.00     0.134 A 
ATOM     59  F   UNL     1       8.011  13.311   3.953  1.00  0.00    -0.206 F 
ATOM     60  C   UNL     1      10.087  14.388   4.155  1.00  0.00     0.040 A 
ATOM     61  C   UNL     1      12.126  13.118   3.946  1.00  0.00     0.040 A 
ATOM     62  F   UNL     1      12.034  10.809   3.527  1.00  0.00    -0.206 F 
ATOM     63  C   UNL     1      11.480  14.337   4.151  1.00  0.00     0.006 A 
ENDBRANCH  39  56
ENDBRANCH  13  14
ENDBRANCH   6   8
ENDBRANCH   5   6
ENDBRANCH   4   5
ENDBRANCH   3   4
ENDBRANCH   2   3
ENDBRANCH   1   2
BRANCH   1  64
ATOM     64  C   UNL     1       2.234  -1.467  -2.593  1.00  0.00     0.188 C 
BRANCH  64  65
ATOM     65  O   UNL     1       3.413  -1.964  -3.216  1.00  0.00    -0.376 OA
BRANCH  65  66
ATOM     66  C   UNL     1       3.738  -1.322  -4.446  1.00  0.00     0.202 C 
BRANCH  66  67
ATOM     67  C   UNL     1       4.254   0.112  -4.290  1.00  0.00     0.261 C 
BRANCH  67  68
ATOM     68  O   UNL     1       3.259   1.095  -3.938  1.00  0.00    -0.460 OA
BRANCH  68  69
ATOM     69  C   UNL     1       2.298   1.322  -4.863  1.00  0.00     0.340 C 
ATOM     70  O   UNL     1       2.030   0.651  -5.837  1.00  0.00    -0.246 OA
BRANCH  69  71
ATOM     71  C   UNL     1       1.687   2.625  -4.604  1.00  0.00     0.085 A 
ATOM     72  C   UNL     1       0.776   2.733  -3.539  1.00  0.00     0.018 A 
ATOM     73  C   UNL     1       2.024   3.731  -5.401  1.00  0.00     0.077 A 
ATOM     74  C   UNL     1       0.174   3.958  -3.260  1.00  0.00     0.001 A 
ATOM     75  C   UNL     1       1.359   4.939  -5.122  1.00  0.00     0.029 A 
ATOM     76  C   UNL     1       0.450   5.058  -4.065  1.00  0.00     0.002 A 
BRANCH  73  77
ATOM     77  N   UNL     1       3.198   3.882  -6.156  1.00  0.00    -0.255 NA
ATOM     78  C   UNL     1       3.916   2.967  -6.724  1.00  0.00     0.127 C 
BRANCH  78  79
ATOM     79  C   UNL     1       5.388   3.246  -6.745  1.00  0.00     0.076 A 
ATOM     80  C   UNL     1       5.728   4.222  -7.608  1.00  0.00     0.209 A 
ATOM     81  C   UNL     1       5.996   3.439  -5.389  1.00  0.00     0.201 A 
ATOM     82  O   UNL     1       6.353   5.402  -7.184  1.00  0.00    -0.463 OA
ATOM     83  C   UNL     1       5.785   4.820  -4.926  1.00  0.00     0.065 A 
ATOM     84  O   UNL     1       6.427   2.532  -4.697  1.00  0.00    -0.288 OA
ATOM     85  C   UNL     1       5.898   5.791  -5.930  1.00  0.00     0.137 A 
ATOM     86  C   UNL     1       5.025   5.039  -3.783  1.00  0.00     0.016 A 
ATOM     87  C   UNL     1       5.286   7.028  -5.783  1.00  0.00     0.048 A 
ATOM     88  C   UNL     1       4.303   6.227  -3.712  1.00  0.00     0.001 A 
ATOM     89  C   UNL     1       4.457   7.230  -4.678  1.00  0.00     0.004 A 
ENDBRANCH  78  79
ENDBRANCH  73  77
ENDBRANCH  69  71
ENDBRANCH  68  69
ENDBRANCH  67  68
ENDBRANCH  66  67
ENDBRANCH  65  66
ENDBRANCH  64  65
ENDBRANCH   1  64
TORSDOF 19
