REMARK SMILES CN(C)c1cccc(C(=O)CCCC(=O)OCCOCCOCCOC(=O)c2ccc(-c3c4nc(c(-c5c(F)cccc5F)c5ccc([nH]5)c(-c5c(F)cccc5F)c5nc(c(-c6c(F)cccc6F)c6ccc3[nH]6)C=C5)C=C4)cc2)c1
REMARK SMILES IDX 19 1 18 2 17 3 16 4 14 5 15 6 13 7 12 8 11 9 9 10 10 11 8 12
REMARK SMILES IDX 4 13 5 14 82 15 6 16 7 17 2 18 1 19 3 20 20 21 21 22 22 23
REMARK SMILES IDX 23 24 24 25 25 26 26 27 27 28 28 29 29 30 81 31 30 32 80 33
REMARK SMILES IDX 31 34 32 35 33 36 74 37 34 38 79 39 73 40 75 41 35 42 78 43
REMARK SMILES IDX 72 44 71 45 36 47 62 48 45 49 61 50 46 51 49 52 60 53 76 54
REMARK SMILES IDX 47 55 48 56 59 58 77 59 50 60 37 61 38 62 43 63 39 64 40 65
REMARK SMILES IDX 42 66 44 67 41 68 63 69 64 70 69 71 65 72 66 73 68 74 70 75
REMARK SMILES IDX 67 76 51 77 52 78 57 79 53 80 54 81 56 82 58 83 55 84
REMARK H PARENT 75 46 49 57
REMARK Flexibility Score: inf
ROOT
ATOM      1  O   UNL     1       5.047  -2.253   1.387  1.00  0.00    -0.376 OA
ENDROOT
BRANCH   1   2
ATOM      2  C   UNL     1       3.896  -2.857   0.841  1.00  0.00     0.202 C 
BRANCH   2   3
ATOM      3  C   UNL     1       3.157  -2.319  -0.395  1.00  0.00     0.261 C 
BRANCH   3   4
ATOM      4  O   UNL     1       3.561  -1.072  -0.976  1.00  0.00    -0.463 OA
BRANCH   4   5
ATOM      5  C   UNL     1       2.869   0.043  -0.634  1.00  0.00     0.305 C 
ATOM      6  O   UNL     1       2.125   0.112   0.339  1.00  0.00    -0.252 OA
BRANCH   5   7
ATOM      7  C   UNL     1       3.104   1.232  -1.567  1.00  0.00     0.123 C 
BRANCH   7   8
ATOM      8  C   UNL     1       4.170   1.253  -2.680  1.00  0.00     0.020 C 
BRANCH   8   9
ATOM      9  C   UNL     1       4.333   0.080  -3.656  1.00  0.00     0.081 C 
BRANCH   9  10
ATOM     10  C   UNL     1       3.371   0.042  -4.845  1.00  0.00     0.162 C 
ATOM     11  O   UNL     1       3.758   0.308  -5.982  1.00  0.00    -0.294 OA
BRANCH  10  12
ATOM     12  C   UNL     1       1.932  -0.283  -4.631  1.00  0.00     0.020 A 
ATOM     13  C   UNL     1       0.161  -0.766  -3.031  1.00  0.00     0.037 A 
ATOM     14  C   UNL     1      -0.783  -0.444  -3.999  1.00  0.00     0.026 A 
ATOM     15  C   UNL     1       1.499  -0.803  -3.420  1.00  0.00     0.037 A 
ATOM     16  C   UNL     1      -0.378  -0.101  -5.295  1.00  0.00     0.003 A 
ATOM     17  C   UNL     1       0.981   0.023  -5.601  1.00  0.00     0.012 A 
BRANCH  13  18
ATOM     18  N   UNL     1      -0.134  -0.932  -1.686  1.00  0.00    -0.378 N 
ATOM     19  C   UNL     1      -0.589   0.256  -0.966  1.00  0.00     0.143 C 
ATOM     20  C   UNL     1      -0.653  -2.214  -1.250  1.00  0.00     0.143 C 
ENDBRANCH  13  18
ENDBRANCH  10  12
ENDBRANCH   9  10
ENDBRANCH   8   9
ENDBRANCH   7   8
ENDBRANCH   5   7
ENDBRANCH   4   5
ENDBRANCH   3   4
ENDBRANCH   2   3
ENDBRANCH   1   2
BRANCH   1  21
ATOM     21  C   UNL     1       5.173  -0.852   1.332  1.00  0.00     0.188 C 
BRANCH  21  22
ATOM     22  C   UNL     1       6.002  -0.371   0.122  1.00  0.00     0.188 C 
BRANCH  22  23
ATOM     23  O   UNL     1       6.678  -1.312  -0.693  1.00  0.00    -0.376 OA
BRANCH  23  24
ATOM     24  C   UNL     1       7.462  -2.302  -0.041  1.00  0.00     0.202 C 
BRANCH  24  25
ATOM     25  C   UNL     1       8.462  -1.887   1.061  1.00  0.00     0.261 C 
BRANCH  25  26
ATOM     26  O   UNL     1       7.987  -0.926   2.031  1.00  0.00    -0.460 OA
BRANCH  26  27
ATOM     27  C   UNL     1       8.496   0.331   1.932  1.00  0.00     0.338 C 
ATOM     28  O   UNL     1       9.392   0.696   1.183  1.00  0.00    -0.246 OA
BRANCH  27  29
ATOM     29  C   UNL     1       7.649   1.305   2.675  1.00  0.00     0.060 A 
ATOM     30  C   UNL     1       7.084   2.375   1.957  1.00  0.00     0.016 A 
ATOM     31  C   UNL     1       7.436   1.208   4.050  1.00  0.00     0.016 A 
ATOM     32  C   UNL     1       6.355   3.371   2.610  1.00  0.00     0.010 A 
ATOM     33  C   UNL     1       6.737   2.232   4.712  1.00  0.00     0.010 A 
ATOM     34  C   UNL     1       6.237   3.342   4.003  1.00  0.00    -0.014 A 
BRANCH  34  35
ATOM     35  C   UNL     1       5.855   4.594   4.713  1.00  0.00     0.031 A 
ATOM     36  C   UNL     1       6.965   5.475   5.234  1.00  0.00     0.074 A 
ATOM     37  C   UNL     1       4.577   4.994   4.845  1.00  0.00     0.049 A 
ATOM     38  N   UNL     1       6.899   6.603   5.895  1.00  0.00    -0.248 NA
ATOM     39  C   UNL     1       8.338   5.014   4.969  1.00  0.00     0.031 C 
ATOM     40  C   UNL     1       3.407   4.281   4.340  1.00  0.00     0.029 A 
ATOM     41  N   UNL     1       4.055   6.112   5.453  1.00  0.00    -0.354 N 
ATOM     42  C   UNL     1       8.217   6.978   6.132  1.00  0.00     0.074 A 
ATOM     43  C   UNL     1       9.059   5.943   5.576  1.00  0.00     0.031 C 
ATOM     44  C   UNL     1       2.300   4.972   4.672  1.00  0.00     0.029 A 
ATOM     45  C   UNL     1       2.682   6.162   5.433  1.00  0.00     0.049 A 
ATOM     46  H   UNL     1       4.613   6.811   5.864  1.00  0.00     0.167 HD
ATOM     47  C   UNL     1       8.689   8.088   6.748  1.00  0.00     0.037 A 
ATOM     48  C   UNL     1       1.833   7.055   5.982  1.00  0.00     0.037 A 
ATOM     49  C   UNL     1       7.860   9.124   7.304  1.00  0.00     0.049 A 
ATOM     50  C   UNL     1       2.380   8.247   6.730  1.00  0.00     0.074 A 
ATOM     51  C   UNL     1       8.248  10.289   7.943  1.00  0.00     0.029 A 
ATOM     52  N   UNL     1       6.474   9.117   7.294  1.00  0.00    -0.354 N 
ATOM     53  N   UNL     1       3.626   8.597   6.938  1.00  0.00    -0.248 NA
ATOM     54  C   UNL     1       1.396   9.173   7.311  1.00  0.00     0.031 C 
ATOM     55  C   UNL     1       7.097  10.959   8.369  1.00  0.00     0.029 A 
ATOM     56  C   UNL     1       5.991  10.246   7.936  1.00  0.00     0.049 A 
ATOM     57  H   UNL     1       5.915   8.414   6.891  1.00  0.00     0.167 HD
ATOM     58  C   UNL     1       3.575   9.800   7.636  1.00  0.00     0.074 A 
ATOM     59  C   UNL     1       2.175  10.124   7.806  1.00  0.00     0.031 C 
ATOM     60  C   UNL     1       4.596  10.569   8.091  1.00  0.00     0.037 A 
BRANCH  47  61
ATOM     61  C   UNL     1      10.180   8.221   6.880  1.00  0.00     0.057 A 
ATOM     62  C   UNL     1      11.007   8.467   5.776  1.00  0.00     0.134 A 
ATOM     63  C   UNL     1      10.793   8.123   8.136  1.00  0.00     0.134 A 
ATOM     64  F   UNL     1      10.487   8.555   4.542  1.00  0.00    -0.206 F 
ATOM     65  C   UNL     1      12.392   8.583   5.912  1.00  0.00     0.040 A 
ATOM     66  C   UNL     1      12.173   8.268   8.289  1.00  0.00     0.040 A 
ATOM     67  F   UNL     1      10.061   7.892   9.236  1.00  0.00    -0.206 F 
ATOM     68  C   UNL     1      12.977   8.492   7.174  1.00  0.00     0.006 A 
ENDBRANCH  47  61
BRANCH  48  69
ATOM     69  C   UNL     1       0.363   6.864   5.860  1.00  0.00     0.057 A 
ATOM     70  C   UNL     1      -0.429   7.746   5.114  1.00  0.00     0.134 A 
ATOM     71  C   UNL     1      -0.292   5.820   6.524  1.00  0.00     0.134 A 
ATOM     72  F   UNL     1       0.134   8.785   4.479  1.00  0.00    -0.206 F 
ATOM     73  C   UNL     1      -1.817   7.611   5.050  1.00  0.00     0.040 A 
ATOM     74  C   UNL     1      -1.677   5.655   6.446  1.00  0.00     0.040 A 
ATOM     75  F   UNL     1       0.405   4.943   7.262  1.00  0.00    -0.206 F 
ATOM     76  C   UNL     1      -2.444   6.558   5.714  1.00  0.00     0.006 A 
ENDBRANCH  48  69
BRANCH  60  77
ATOM     77  C   UNL     1       4.241  11.868   8.762  1.00  0.00     0.057 A 
ATOM     78  C   UNL     1       3.623  11.918  10.019  1.00  0.00     0.134 A 
ATOM     79  C   UNL     1       4.545  13.090   8.147  1.00  0.00     0.134 A 
ATOM     80  F   UNL     1       3.297  10.787  10.663  1.00  0.00    -0.206 F 
ATOM     81  C   UNL     1       3.287  13.134  10.620  1.00  0.00     0.040 A 
ATOM     82  C   UNL     1       4.243  14.311   8.752  1.00  0.00     0.040 A 
ATOM     83  F   UNL     1       5.150  13.119   6.950  1.00  0.00    -0.206 F 
ATOM     84  C   UNL     1       3.601  14.335   9.988  1.00  0.00     0.006 A 
ENDBRANCH  60  77
ENDBRANCH  34  35
ENDBRANCH  27  29
ENDBRANCH  26  27
ENDBRANCH  25  26
ENDBRANCH  24  25
ENDBRANCH  23  24
ENDBRANCH  22  23
ENDBRANCH  21  22
ENDBRANCH   1  21
TORSDOF 22
