REMARK SMILES O=C(COc1ccc(Br)cc1/C=C1\C(=O)Nc2ccc(Br)cc21)OCCOCCOCCOC(=O)c1ccc(-c2c3nc(c(-c4c(F)cccc4F)c4ccc([nH]4)c(-c4c(F)cccc4F)c4nc(c(-c5c(F)cccc5F)c5ccc2[nH]5)C=C4)C=C3)cc1
REMARK SMILES IDX 28 1 27 2 26 3 25 4 24 5 2 6 1 7 3 8 4 9 5 10 6 11 11 12
REMARK SMILES IDX 7 13 10 14 8 15 9 16 12 17 13 18 14 19 23 20 15 21 16 22
REMARK SMILES IDX 17 23 22 24 18 26 20 27 19 28 21 29 29 30 30 31 31 32 32 33
REMARK SMILES IDX 33 34 34 35 35 36 36 37 37 38 89 39 38 40 88 41 39 42 40 43
REMARK SMILES IDX 41 44 82 45 42 46 87 47 81 48 83 49 43 50 86 51 80 52 79 53
REMARK SMILES IDX 44 55 70 56 53 57 69 58 54 59 57 60 68 61 84 62 55 63 56 64
REMARK SMILES IDX 67 66 85 67 58 68 45 69 46 70 51 71 47 72 48 73 50 74 52 75
REMARK SMILES IDX 49 76 71 77 72 78 77 79 73 80 74 81 76 82 78 83 75 84 59 85
REMARK SMILES IDX 60 86 65 87 61 88 62 89 64 90 66 91 63 92
REMARK H PARENT 16 25 83 54 57 65
REMARK Flexibility Score: inf
ROOT
ATOM      1  C   UNL     1       3.696   2.122  -0.626  1.00  0.00     0.188 C 
ENDROOT
BRANCH   1   2
ATOM      2  O   UNL     1       4.915   1.441  -0.898  1.00  0.00    -0.376 OA
BRANCH   2   3
ATOM      3  C   UNL     1       5.250   0.369  -0.036  1.00  0.00     0.202 C 
BRANCH   3   4
ATOM      4  C   UNL     1       4.405  -0.871  -0.302  1.00  0.00     0.261 C 
BRANCH   4   5
ATOM      5  O   UNL     1       2.999  -0.711   0.001  1.00  0.00    -0.461 OA
BRANCH   5   6
ATOM      6  C   UNL     1       2.466  -0.400   1.204  1.00  0.00     0.344 C 
ATOM      7  O   UNL     1       1.293  -0.036   1.274  1.00  0.00    -0.248 OA
BRANCH   6   8
ATOM      8  C   UNL     1       3.348  -0.457   2.447  1.00  0.00     0.351 C 
BRANCH   8   9
ATOM      9  O   UNL     1       4.314  -1.509   2.538  1.00  0.00    -0.481 OA
BRANCH   9  10
ATOM     10  C   UNL     1       3.682  -2.643   3.005  1.00  0.00     0.127 A 
ATOM     11  C   UNL     1       2.809  -3.310   2.125  1.00  0.00     0.048 A 
ATOM     12  C   UNL     1       3.812  -3.015   4.356  1.00  0.00     0.018 A 
ATOM     13  C   UNL     1       1.911  -4.248   2.610  1.00  0.00     0.019 A 
ATOM     14  C   UNL     1       2.832  -3.904   4.818  1.00  0.00     0.027 A 
ATOM     15  C   UNL     1       1.901  -4.511   3.966  1.00  0.00     0.018 A 
ATOM     16  Br  UNL     1       0.603  -5.683   4.686  1.00  0.00    -0.051 Br
BRANCH  12  17
ATOM     17  C   UNL     1       4.850  -2.392   5.237  1.00  0.00     0.026 C 
ATOM     18  C   UNL     1       5.162  -2.647   6.526  1.00  0.00     0.050 C 
ATOM     19  C   UNL     1       4.487  -3.618   7.452  1.00  0.00     0.256 C 
ATOM     20  C   UNL     1       5.860  -1.700   7.415  1.00  0.00     0.012 A 
ATOM     21  O   UNL     1       4.209  -4.786   7.263  1.00  0.00    -0.269 OA
ATOM     22  N   UNL     1       4.337  -2.913   8.631  1.00  0.00    -0.321 N 
ATOM     23  C   UNL     1       5.174  -1.802   8.636  1.00  0.00     0.049 A 
ATOM     24  C   UNL     1       6.987  -0.905   7.326  1.00  0.00     0.026 A 
ATOM     25  H   UNL     1       3.727  -3.161   9.362  1.00  0.00     0.170 HD
ATOM     26  C   UNL     1       5.440  -1.002   9.725  1.00  0.00     0.028 A 
ATOM     27  C   UNL     1       7.338  -0.158   8.462  1.00  0.00     0.018 A 
ATOM     28  C   UNL     1       6.544  -0.159   9.627  1.00  0.00     0.018 A 
ATOM     29  Br  UNL     1       8.960   0.819   8.476  1.00  0.00    -0.051 Br
ENDBRANCH  12  17
ENDBRANCH   9  10
ENDBRANCH   8   9
ENDBRANCH   6   8
ENDBRANCH   5   6
ENDBRANCH   4   5
ENDBRANCH   3   4
ENDBRANCH   2   3
ENDBRANCH   1   2
BRANCH   1  30
ATOM     30  C   UNL     1       2.656   1.960  -1.749  1.00  0.00     0.188 C 
BRANCH  30  31
ATOM     31  O   UNL     1       3.053   2.058  -3.116  1.00  0.00    -0.376 OA
BRANCH  31  32
ATOM     32  C   UNL     1       4.267   2.704  -3.464  1.00  0.00     0.202 C 
BRANCH  32  33
ATOM     33  C   UNL     1       4.246   4.235  -3.437  1.00  0.00     0.261 C 
BRANCH  33  34
ATOM     34  O   UNL     1       3.962   4.773  -2.134  1.00  0.00    -0.460 OA
BRANCH  34  35
ATOM     35  C   UNL     1       2.712   5.267  -1.964  1.00  0.00     0.338 C 
ATOM     36  O   UNL     1       1.851   5.391  -2.819  1.00  0.00    -0.246 OA
BRANCH  35  37
ATOM     37  C   UNL     1       2.449   5.521  -0.525  1.00  0.00     0.060 A 
ATOM     38  C   UNL     1       3.408   6.077   0.328  1.00  0.00     0.016 A 
ATOM     39  C   UNL     1       1.170   5.223  -0.034  1.00  0.00     0.016 A 
ATOM     40  C   UNL     1       3.060   6.394   1.649  1.00  0.00     0.010 A 
ATOM     41  C   UNL     1       0.825   5.538   1.284  1.00  0.00     0.010 A 
ATOM     42  C   UNL     1       1.755   6.163   2.125  1.00  0.00    -0.014 A 
BRANCH  42  43
ATOM     43  C   UNL     1       1.304   6.787   3.397  1.00  0.00     0.031 A 
ATOM     44  C   UNL     1       1.123   6.015   4.668  1.00  0.00     0.074 A 
ATOM     45  C   UNL     1       1.004   8.101   3.374  1.00  0.00     0.049 A 
ATOM     46  N   UNL     1       0.867   6.467   5.872  1.00  0.00    -0.248 NA
ATOM     47  C   UNL     1       1.225   4.553   4.582  1.00  0.00     0.031 C 
ATOM     48  C   UNL     1       1.056   8.954   2.185  1.00  0.00     0.029 A 
ATOM     49  N   UNL     1       0.601   8.947   4.376  1.00  0.00    -0.354 N 
ATOM     50  C   UNL     1       0.798   5.352   6.695  1.00  0.00     0.074 A 
ATOM     51  C   UNL     1       0.995   4.196   5.841  1.00  0.00     0.031 C 
ATOM     52  C   UNL     1       0.731  10.208   2.532  1.00  0.00     0.029 A 
ATOM     53  C   UNL     1       0.440  10.246   3.961  1.00  0.00     0.049 A 
ATOM     54  H   UNL     1       0.443   8.652   5.301  1.00  0.00     0.167 HD
ATOM     55  C   UNL     1       0.604   5.301   8.037  1.00  0.00     0.037 A 
ATOM     56  C   UNL     1       0.117  11.351   4.655  1.00  0.00     0.037 A 
ATOM     57  C   UNL     1       0.374   6.450   8.882  1.00  0.00     0.049 A 
ATOM     58  C   UNL     1      -0.102  11.264   6.136  1.00  0.00     0.074 A 
ATOM     59  C   UNL     1       0.246   6.497  10.262  1.00  0.00     0.029 A 
ATOM     60  N   UNL     1       0.204   7.749   8.428  1.00  0.00    -0.354 N 
ATOM     61  N   UNL     1      -0.014  10.223   6.926  1.00  0.00    -0.248 NA
ATOM     62  C   UNL     1      -0.447  12.516   6.823  1.00  0.00     0.031 C 
ATOM     63  C   UNL     1      -0.046   7.815  10.636  1.00  0.00     0.029 A 
ATOM     64  C   UNL     1      -0.057   8.598   9.495  1.00  0.00     0.049 A 
ATOM     65  H   UNL     1       0.260   8.029   7.486  1.00  0.00     0.167 HD
ATOM     66  C   UNL     1      -0.259  10.700   8.207  1.00  0.00     0.074 A 
ATOM     67  C   UNL     1      -0.485  12.126   8.088  1.00  0.00     0.031 C 
ATOM     68  C   UNL     1      -0.288  10.015   9.377  1.00  0.00     0.037 A 
BRANCH  55  69
ATOM     69  C   UNL     1       0.641   3.949   8.691  1.00  0.00     0.057 A 
ATOM     70  C   UNL     1      -0.517   3.379   9.236  1.00  0.00     0.134 A 
ATOM     71  C   UNL     1       1.842   3.243   8.845  1.00  0.00     0.134 A 
ATOM     72  F   UNL     1      -1.698   4.007   9.137  1.00  0.00    -0.206 F 
ATOM     73  C   UNL     1      -0.480   2.157   9.911  1.00  0.00     0.040 A 
ATOM     74  C   UNL     1       1.887   2.010   9.499  1.00  0.00     0.040 A 
ATOM     75  F   UNL     1       2.987   3.733   8.347  1.00  0.00    -0.206 F 
ATOM     76  C   UNL     1       0.724   1.467  10.041  1.00  0.00     0.006 A 
ENDBRANCH  55  69
BRANCH  56  77
ATOM     77  C   UNL     1       0.049  12.661   3.964  1.00  0.00     0.057 A 
ATOM     78  C   UNL     1      -1.004  12.980   3.101  1.00  0.00     0.134 A 
ATOM     79  C   UNL     1       1.039  13.629   4.170  1.00  0.00     0.134 A 
ATOM     80  F   UNL     1      -1.976  12.088   2.859  1.00  0.00    -0.206 F 
ATOM     81  C   UNL     1      -1.071  14.219   2.465  1.00  0.00     0.040 A 
ATOM     82  C   UNL     1       0.972  14.880   3.559  1.00  0.00     0.040 A 
ATOM     83  F   UNL     1       2.062  13.381   5.001  1.00  0.00    -0.206 F 
ATOM     84  C   UNL     1      -0.084  15.176   2.700  1.00  0.00     0.006 A 
ENDBRANCH  56  77
BRANCH  68  85
ATOM     85  C   UNL     1      -0.544  10.816  10.622  1.00  0.00     0.057 A 
ATOM     86  C   UNL     1       0.486  11.054  11.541  1.00  0.00     0.134 A 
ATOM     87  C   UNL     1      -1.798  11.377  10.899  1.00  0.00     0.134 A 
ATOM     88  F   UNL     1       1.710  10.544  11.341  1.00  0.00    -0.206 F 
ATOM     89  C   UNL     1       0.281  11.830  12.684  1.00  0.00     0.040 A 
ATOM     90  C   UNL     1      -2.008  12.177  12.025  1.00  0.00     0.040 A 
ATOM     91  F   UNL     1      -2.822  11.204  10.051  1.00  0.00    -0.206 F 
ATOM     92  C   UNL     1      -0.966  12.403  12.922  1.00  0.00     0.006 A 
ENDBRANCH  68  85
ENDBRANCH  42  43
ENDBRANCH  35  37
ENDBRANCH  34  35
ENDBRANCH  33  34
ENDBRANCH  32  33
ENDBRANCH  31  32
ENDBRANCH  30  31
ENDBRANCH   1  30
TORSDOF 20
