REMARK SMILES O=C(CCCNS(=O)(=O)c1ccc2c3c(cccc13)C(=O)N2)OCCOCCOCCOC(=O)c1ccc(-c2c3nc(c(-c4c(F)cccc4F)c4ccc([nH]4)c(-c4c(F)cccc4F)c4nc(c(-c5c(F)cccc5F)c5ccc2[nH]5)C=C4)C=C3)cc1
REMARK SMILES IDX 26 1 25 2 24 3 23 4 2 5 1 6 3 7 4 8 5 9 6 10 7 12 8 13 9 14
REMARK SMILES IDX 10 15 11 16 19 17 12 18 14 19 18 20 13 21 15 22 17 23 22 24
REMARK SMILES IDX 16 25 20 26 21 28 27 29 28 30 29 31 30 32 31 33 32 34 33 35
REMARK SMILES IDX 34 36 35 37 36 38 88 39 37 40 87 41 38 42 39 43 40 44 81 45
REMARK SMILES IDX 41 46 86 47 80 48 82 49 42 50 85 51 79 52 78 53 43 55 69 56
REMARK SMILES IDX 52 57 68 58 53 59 56 60 67 61 83 62 54 63 55 64 66 66 84 67
REMARK SMILES IDX 57 68 44 69 45 70 50 71 46 72 47 73 49 74 51 75 48 76 70 77
REMARK SMILES IDX 71 78 76 79 72 80 73 81 75 82 77 83 74 84 58 85 59 86 64 87
REMARK SMILES IDX 60 88 61 89 63 90 65 91 62 92
REMARK H PARENT 6 11 22 27 82 54 56 65
REMARK Flexibility Score: inf
ROOT
ATOM      1  O   UNL     1       3.773   0.482  -1.432  1.00  0.00    -0.376 OA
ENDROOT
BRANCH   1   2
ATOM      2  C   UNL     1       3.563  -0.849  -1.875  1.00  0.00     0.202 C 
BRANCH   2   3
ATOM      3  C   UNL     1       3.252  -1.775  -0.714  1.00  0.00     0.261 C 
BRANCH   3   4
ATOM      4  O   UNL     1       2.053  -1.397  -0.015  1.00  0.00    -0.463 OA
BRANCH   4   5
ATOM      5  C   UNL     1       2.035  -0.817   1.206  1.00  0.00     0.305 C 
ATOM      6  O   UNL     1       1.061  -0.987   1.939  1.00  0.00    -0.252 OA
BRANCH   5   7
ATOM      7  C   UNL     1       3.120   0.157   1.617  1.00  0.00     0.124 C 
BRANCH   7   8
ATOM      8  C   UNL     1       4.205  -0.339   2.564  1.00  0.00     0.028 C 
BRANCH   8   9
ATOM      9  C   UNL     1       5.415  -1.034   1.940  1.00  0.00     0.099 C 
BRANCH   9  10
ATOM     10  N   UNL     1       5.966  -0.266   0.819  1.00  0.00    -0.211 NA
ATOM     11  H   UNL     1       6.442   0.540   1.224  1.00  0.00     0.141 HD
BRANCH  10  12
ATOM     12  S   UNL     1       7.053  -0.978  -0.257  1.00  0.00     0.241 S 
ATOM     13  O   UNL     1       6.350  -2.011  -0.987  1.00  0.00    -0.207 OA
ATOM     14  O   UNL     1       7.742   0.090  -0.944  1.00  0.00    -0.207 OA
BRANCH  12  15
ATOM     15  C   UNL     1       8.183  -1.793   0.835  1.00  0.00     0.090 A 
ATOM     16  C   UNL     1       8.088  -3.209   0.931  1.00  0.00     0.024 A 
ATOM     17  C   UNL     1       9.047  -1.043   1.675  1.00  0.00     0.005 A 
ATOM     18  C   UNL     1       8.814  -3.931   1.891  1.00  0.00     0.028 A 
ATOM     19  C   UNL     1       9.717  -1.803   2.587  1.00  0.00     0.019 A 
ATOM     20  C   UNL     1       9.313   0.349   1.755  1.00  0.00     0.010 A 
ATOM     21  C   UNL     1       9.615  -3.171   2.718  1.00  0.00     0.050 A 
ATOM     22  C   UNL     1      10.581  -1.335   3.563  1.00  0.00     0.050 A 
ATOM     23  C   UNL     1      10.202   0.861   2.722  1.00  0.00     0.002 A 
ATOM     24  N   UNL     1      10.418  -3.543   3.777  1.00  0.00    -0.321 N 
ATOM     25  C   UNL     1      10.850   0.028   3.650  1.00  0.00     0.014 A 
ATOM     26  C   UNL     1      11.062  -2.444   4.365  1.00  0.00     0.256 C 
ATOM     27  H   UNL     1      10.527  -4.472   4.084  1.00  0.00     0.170 HD
ATOM     28  O   UNL     1      11.813  -2.509   5.323  1.00  0.00    -0.269 OA
ENDBRANCH  12  15
ENDBRANCH  10  12
ENDBRANCH   9  10
ENDBRANCH   8   9
ENDBRANCH   7   8
ENDBRANCH   5   7
ENDBRANCH   4   5
ENDBRANCH   3   4
ENDBRANCH   2   3
ENDBRANCH   1   2
BRANCH   1  29
ATOM     29  C   UNL     1       2.676   1.370  -1.611  1.00  0.00     0.188 C 
BRANCH  29  30
ATOM     30  C   UNL     1       2.087   1.428  -3.023  1.00  0.00     0.188 C 
BRANCH  30  31
ATOM     31  O   UNL     1       2.971   1.258  -4.126  1.00  0.00    -0.376 OA
BRANCH  31  32
ATOM     32  C   UNL     1       4.291   1.790  -4.062  1.00  0.00     0.202 C 
BRANCH  32  33
ATOM     33  C   UNL     1       4.400   3.301  -4.237  1.00  0.00     0.261 C 
BRANCH  33  34
ATOM     34  O   UNL     1       4.048   4.002  -3.034  1.00  0.00    -0.460 OA
BRANCH  34  35
ATOM     35  C   UNL     1       2.849   4.623  -3.040  1.00  0.00     0.338 C 
ATOM     36  O   UNL     1       2.011   4.646  -3.922  1.00  0.00    -0.246 OA
BRANCH  35  37
ATOM     37  C   UNL     1       2.650   5.228  -1.718  1.00  0.00     0.060 A 
ATOM     38  C   UNL     1       1.614   4.767  -0.897  1.00  0.00     0.016 A 
ATOM     39  C   UNL     1       3.459   6.297  -1.329  1.00  0.00     0.016 A 
ATOM     40  C   UNL     1       1.369   5.399   0.319  1.00  0.00     0.010 A 
ATOM     41  C   UNL     1       3.201   6.939  -0.121  1.00  0.00     0.010 A 
ATOM     42  C   UNL     1       2.136   6.512   0.689  1.00  0.00    -0.014 A 
BRANCH  42  43
ATOM     43  C   UNL     1       1.710   7.352   1.827  1.00  0.00     0.031 A 
ATOM     44  C   UNL     1       0.855   8.555   1.542  1.00  0.00     0.074 A 
ATOM     45  C   UNL     1       2.074   7.045   3.083  1.00  0.00     0.049 A 
ATOM     46  N   UNL     1       0.379   9.451   2.367  1.00  0.00    -0.248 NA
ATOM     47  C   UNL     1       0.490   8.777   0.132  1.00  0.00     0.031 C 
ATOM     48  C   UNL     1       2.881   5.891   3.474  1.00  0.00     0.029 A 
ATOM     49  N   UNL     1       1.815   7.693   4.261  1.00  0.00    -0.354 N 
ATOM     50  C   UNL     1      -0.361  10.326   1.582  1.00  0.00     0.074 A 
ATOM     51  C   UNL     1      -0.222   9.890   0.210  1.00  0.00     0.031 C 
ATOM     52  C   UNL     1       3.058   5.917   4.808  1.00  0.00     0.029 A 
ATOM     53  C   UNL     1       2.397   7.099   5.354  1.00  0.00     0.049 A 
ATOM     54  H   UNL     1       1.263   8.507   4.320  1.00  0.00     0.167 HD
ATOM     55  C   UNL     1      -1.110  11.384   1.973  1.00  0.00     0.037 A 
ATOM     56  C   UNL     1       2.398   7.486   6.643  1.00  0.00     0.037 A 
ATOM     57  C   UNL     1      -1.209  11.840   3.334  1.00  0.00     0.049 A 
ATOM     58  C   UNL     1       1.650   8.737   7.030  1.00  0.00     0.074 A 
ATOM     59  C   UNL     1      -1.910  12.921   3.838  1.00  0.00     0.029 A 
ATOM     60  N   UNL     1      -0.574  11.238   4.411  1.00  0.00    -0.354 N 
ATOM     61  N   UNL     1       0.928   9.542   6.287  1.00  0.00    -0.248 NA
ATOM     62  C   UNL     1       1.710   9.123   8.446  1.00  0.00     0.031 C 
ATOM     63  C   UNL     1      -1.664  12.999   5.213  1.00  0.00     0.029 A 
ATOM     64  C   UNL     1      -0.858  11.932   5.576  1.00  0.00     0.049 A 
ATOM     65  H   UNL     1      -0.006  10.436   4.356  1.00  0.00     0.167 HD
ATOM     66  C   UNL     1       0.411  10.499   7.154  1.00  0.00     0.074 A 
ATOM     67  C   UNL     1       0.884  10.156   8.479  1.00  0.00     0.031 C 
ATOM     68  C   UNL     1      -0.383  11.566   6.886  1.00  0.00     0.037 A 
BRANCH  55  69
ATOM     69  C   UNL     1      -1.869  12.116   0.905  1.00  0.00     0.057 A 
ATOM     70  C   UNL     1      -1.515  13.417   0.529  1.00  0.00     0.134 A 
ATOM     71  C   UNL     1      -2.966  11.533   0.256  1.00  0.00     0.134 A 
ATOM     72  F   UNL     1      -0.475  14.036   1.108  1.00  0.00    -0.206 F 
ATOM     73  C   UNL     1      -2.227  14.113  -0.451  1.00  0.00     0.040 A 
ATOM     74  C   UNL     1      -3.668  12.207  -0.745  1.00  0.00     0.040 A 
ATOM     75  F   UNL     1      -3.347  10.281   0.555  1.00  0.00    -0.206 F 
ATOM     76  C   UNL     1      -3.302  13.504  -1.095  1.00  0.00     0.006 A 
ENDBRANCH  55  69
BRANCH  56  77
ATOM     77  C   UNL     1       3.123   6.704   7.678  1.00  0.00     0.057 A 
ATOM     78  C   UNL     1       4.521   6.643   7.702  1.00  0.00     0.134 A 
ATOM     79  C   UNL     1       2.434   6.080   8.726  1.00  0.00     0.134 A 
ATOM     80  F   UNL     1       5.243   7.211   6.726  1.00  0.00    -0.206 F 
ATOM     81  C   UNL     1       5.207   6.010   8.741  1.00  0.00     0.040 A 
ATOM     82  C   UNL     1       3.107   5.473   9.787  1.00  0.00     0.040 A 
ATOM     83  F   UNL     1       1.094   6.121   8.770  1.00  0.00    -0.206 F 
ATOM     84  C   UNL     1       4.499   5.439   9.797  1.00  0.00     0.006 A 
ENDBRANCH  56  77
BRANCH  68  85
ATOM     85  C   UNL     1      -0.830  12.389   8.063  1.00  0.00     0.057 A 
ATOM     86  C   UNL     1      -2.171  12.377   8.466  1.00  0.00     0.134 A 
ATOM     87  C   UNL     1       0.062  13.165   8.815  1.00  0.00     0.134 A 
ATOM     88  F   UNL     1      -3.084  11.670   7.783  1.00  0.00    -0.206 F 
ATOM     89  C   UNL     1      -2.604  13.088   9.586  1.00  0.00     0.040 A 
ATOM     90  C   UNL     1      -0.351  13.849   9.960  1.00  0.00     0.040 A 
ATOM     91  F   UNL     1       1.364  13.213   8.490  1.00  0.00    -0.206 F 
ATOM     92  C   UNL     1      -1.689  13.812  10.347  1.00  0.00     0.006 A 
ENDBRANCH  68  85
ENDBRANCH  42  43
ENDBRANCH  35  37
ENDBRANCH  34  35
ENDBRANCH  33  34
ENDBRANCH  32  33
ENDBRANCH  31  32
ENDBRANCH  30  31
ENDBRANCH  29  30
ENDBRANCH   1  29
TORSDOF 22
