REMARK SMILES CC(C)(C)OC(=O)N1CCC[C@H]1C(=O)N1CCC[C@H]1C(=O)N1CCC[C@@H]1C(=O)OCCOCCOCCOC(=O)c1ccc(-c2c3nc(c(-c4c(F)cccc4F)c4ccc([nH]4)c(-c4c(F)cccc4F)c4nc(c(-c5c(F)cccc5F)c5ccc2[nH]5)C=C4)C=C3)cc1
REMARK SMILES IDX 31 1 30 2 29 3 27 4 28 5 26 6 22 7 23 8 24 9 25 10 20 11
REMARK SMILES IDX 21 12 19 13 15 14 16 15 17 16 18 17 13 18 14 19 12 20 8 21
REMARK SMILES IDX 9 22 10 23 11 24 6 25 7 26 5 27 2 28 1 29 3 30 4 31 32 32
REMARK SMILES IDX 33 33 34 34 35 35 36 36 37 37 38 38 39 39 40 40 41 41 42 42
REMARK SMILES IDX 94 43 43 44 93 45 44 46 45 47 46 48 87 49 47 50 92 51 86 52
REMARK SMILES IDX 88 53 48 54 91 55 85 56 84 57 49 59 75 60 58 61 74 62 59 63
REMARK SMILES IDX 62 64 73 65 89 66 60 67 61 68 72 70 90 71 63 72 50 73 51 74
REMARK SMILES IDX 56 75 52 76 53 77 55 78 57 79 54 80 76 81 77 82 82 83 78 84
REMARK SMILES IDX 79 85 81 86 83 87 80 88 64 89 65 90 70 91 66 92 67 93 69 94
REMARK SMILES IDX 71 95 68 96
REMARK H PARENT 88 58 62 69
REMARK Flexibility Score: inf
ROOT
ATOM      1  C   UNL     1       0.869   8.555  -9.609  1.00  0.00     0.202 C 
ENDROOT
BRANCH   1   2
ATOM      2  C   UNL     1       0.131   7.575  -8.677  1.00  0.00     0.261 C 
BRANCH   2   3
ATOM      3  O   UNL     1       0.627   6.215  -8.621  1.00  0.00    -0.462 OA
BRANCH   3   4
ATOM      4  C   UNL     1      -0.217   5.256  -9.075  1.00  0.00     0.328 C 
ATOM      5  O   UNL     1      -1.354   5.508  -9.473  1.00  0.00    -0.250 OA
BRANCH   4   6
ATOM      6  C   UNL     1       0.302   3.799  -9.043  1.00  0.00     0.195 C 
ATOM      7  N   UNL     1      -0.323   3.022  -7.997  1.00  0.00    -0.327 N 
ATOM      8  C   UNL     1       0.405   1.788  -7.812  1.00  0.00     0.120 C 
ATOM      9  C   UNL     1       1.854   2.190  -8.015  1.00  0.00     0.024 C 
ATOM     10  C   UNL     1       1.790   3.462  -8.869  1.00  0.00     0.039 C 
BRANCH   7  11
ATOM     11  C   UNL     1      -1.673   3.080  -7.776  1.00  0.00     0.246 C 
ATOM     12  O   UNL     1      -2.476   2.425  -8.437  1.00  0.00    -0.272 OA
BRANCH  11  13
ATOM     13  C   UNL     1      -2.072   3.902  -6.521  1.00  0.00     0.174 C 
ATOM     14  N   UNL     1      -1.125   4.825  -5.851  1.00  0.00    -0.329 N 
ATOM     15  C   UNL     1      -1.689   6.151  -5.707  1.00  0.00     0.120 C 
ATOM     16  C   UNL     1      -3.177   5.975  -5.913  1.00  0.00     0.024 C 
ATOM     17  C   UNL     1      -3.274   4.796  -6.871  1.00  0.00     0.037 C 
BRANCH  14  18
ATOM     18  C   UNL     1      -0.028   4.350  -5.161  1.00  0.00     0.246 C 
ATOM     19  O   UNL     1       0.748   3.522  -5.637  1.00  0.00    -0.272 OA
BRANCH  18  20
ATOM     20  C   UNL     1       0.217   4.854  -3.731  1.00  0.00     0.178 C 
ATOM     21  N   UNL     1       0.882   3.773  -2.998  1.00  0.00    -0.296 N 
ATOM     22  C   UNL     1       2.278   4.067  -2.765  1.00  0.00     0.124 C 
ATOM     23  C   UNL     1       2.294   5.583  -2.702  1.00  0.00     0.024 C 
ATOM     24  C   UNL     1       1.219   6.011  -3.705  1.00  0.00     0.037 C 
BRANCH  21  25
ATOM     25  C   UNL     1       0.246   2.585  -2.751  1.00  0.00     0.410 C 
ATOM     26  O   UNL     1      -0.888   2.348  -3.168  1.00  0.00    -0.224 OA
BRANCH  25  27
ATOM     27  O   UNL     1       0.985   1.751  -1.982  1.00  0.00    -0.444 OA
BRANCH  27  28
ATOM     28  C   UNL     1       0.522   0.430  -1.585  1.00  0.00     0.106 C 
ATOM     29  C   UNL     1       1.208   0.163  -0.237  1.00  0.00     0.056 C 
ATOM     30  C   UNL     1       1.015  -0.588  -2.616  1.00  0.00     0.056 C 
ATOM     31  C   UNL     1      -0.993   0.303  -1.375  1.00  0.00     0.056 C 
ENDBRANCH  27  28
ENDBRANCH  25  27
ENDBRANCH  21  25
ENDBRANCH  18  20
ENDBRANCH  14  18
ENDBRANCH  11  13
ENDBRANCH   7  11
ENDBRANCH   4   6
ENDBRANCH   3   4
ENDBRANCH   2   3
ENDBRANCH   1   2
BRANCH   1  32
ATOM     32  O   UNL     1       1.069   8.239 -10.982  1.00  0.00    -0.376 OA
BRANCH  32  33
ATOM     33  C   UNL     1       1.513   6.937 -11.328  1.00  0.00     0.188 C 
BRANCH  33  34
ATOM     34  C   UNL     1       2.661   6.311 -10.526  1.00  0.00     0.188 C 
BRANCH  34  35
ATOM     35  O   UNL     1       3.076   7.035  -9.395  1.00  0.00    -0.376 OA
BRANCH  35  36
ATOM     36  C   UNL     1       4.336   7.680  -9.422  1.00  0.00     0.202 C 
BRANCH  36  37
ATOM     37  C   UNL     1       4.827   8.424 -10.680  1.00  0.00     0.261 C 
BRANCH  37  38
ATOM     38  O   UNL     1       4.500   7.858 -11.960  1.00  0.00    -0.460 OA
BRANCH  38  39
ATOM     39  C   UNL     1       5.219   6.786 -12.373  1.00  0.00     0.338 C 
ATOM     40  O   UNL     1       6.146   6.257 -11.789  1.00  0.00    -0.246 OA
BRANCH  39  41
ATOM     41  C   UNL     1       4.501   6.196 -13.532  1.00  0.00     0.060 A 
ATOM     42  C   UNL     1       4.003   4.886 -13.431  1.00  0.00     0.016 A 
ATOM     43  C   UNL     1       4.279   6.942 -14.689  1.00  0.00     0.016 A 
ATOM     44  C   UNL     1       3.300   4.314 -14.493  1.00  0.00     0.010 A 
ATOM     45  C   UNL     1       3.607   6.356 -15.766  1.00  0.00     0.010 A 
ATOM     46  C   UNL     1       3.140   5.031 -15.685  1.00  0.00    -0.014 A 
BRANCH  46  47
ATOM     47  C   UNL     1       2.697   4.332 -16.917  1.00  0.00     0.031 A 
ATOM     48  C   UNL     1       3.756   3.855 -17.873  1.00  0.00     0.074 A 
ATOM     49  C   UNL     1       1.398   4.119 -17.190  1.00  0.00     0.049 A 
ATOM     50  N   UNL     1       3.629   3.315 -19.057  1.00  0.00    -0.248 NA
ATOM     51  C   UNL     1       5.151   4.019 -17.430  1.00  0.00     0.031 C 
ATOM     52  C   UNL     1       0.278   4.477 -16.324  1.00  0.00     0.029 A 
ATOM     53  N   UNL     1       0.806   3.556 -18.294  1.00  0.00    -0.354 N 
ATOM     54  C   UNL     1       4.925   3.088 -19.506  1.00  0.00     0.074 A 
ATOM     55  C   UNL     1       5.822   3.574 -18.481  1.00  0.00     0.031 C 
ATOM     56  C   UNL     1      -0.871   4.144 -16.941  1.00  0.00     0.029 A 
ATOM     57  C   UNL     1      -0.567   3.587 -18.258  1.00  0.00     0.049 A 
ATOM     58  H   UNL     1       1.317   3.168 -19.041  1.00  0.00     0.167 HD
ATOM     59  C   UNL     1       5.331   2.521 -20.666  1.00  0.00     0.037 A 
ATOM     60  C   UNL     1      -1.470   3.234 -19.196  1.00  0.00     0.037 A 
ATOM     61  C   UNL     1       4.438   2.042 -21.687  1.00  0.00     0.049 A 
ATOM     62  C   UNL     1      -0.992   2.689 -20.519  1.00  0.00     0.074 A 
ATOM     63  C   UNL     1       4.753   1.440 -22.892  1.00  0.00     0.029 A 
ATOM     64  N   UNL     1       3.055   2.121 -21.627  1.00  0.00    -0.354 N 
ATOM     65  N   UNL     1       0.233   2.462 -20.931  1.00  0.00    -0.248 NA
ATOM     66  C   UNL     1      -2.026   2.350 -21.509  1.00  0.00     0.031 C 
ATOM     67  C   UNL     1       3.562   1.210 -23.589  1.00  0.00     0.029 A 
ATOM     68  C   UNL     1       2.503   1.607 -22.788  1.00  0.00     0.049 A 
ATOM     69  H   UNL     1       2.542   2.488 -20.871  1.00  0.00     0.167 HD
ATOM     70  C   UNL     1       0.114   1.924 -22.208  1.00  0.00     0.074 A 
ATOM     71  C   UNL     1      -1.301   1.847 -22.499  1.00  0.00     0.031 C 
ATOM     72  C   UNL     1       1.090   1.527 -23.063  1.00  0.00     0.037 A 
BRANCH  59  73
ATOM     73  C   UNL     1       6.810   2.424 -20.905  1.00  0.00     0.057 A 
ATOM     74  C   UNL     1       7.627   1.551 -20.175  1.00  0.00     0.134 A 
ATOM     75  C   UNL     1       7.421   3.200 -21.898  1.00  0.00     0.134 A 
ATOM     76  F   UNL     1       7.109   0.792 -19.197  1.00  0.00    -0.206 F 
ATOM     77  C   UNL     1       9.002   1.473 -20.405  1.00  0.00     0.040 A 
ATOM     78  C   UNL     1       8.789   3.109 -22.159  1.00  0.00     0.040 A 
ATOM     79  F   UNL     1       6.697   4.056 -22.636  1.00  0.00    -0.206 F 
ATOM     80  C   UNL     1       9.584   2.248 -21.406  1.00  0.00     0.006 A 
ENDBRANCH  59  73
BRANCH  60  81
ATOM     81  C   UNL     1      -2.924   3.405 -18.937  1.00  0.00     0.057 A 
ATOM     82  C   UNL     1      -3.778   2.301 -18.829  1.00  0.00     0.134 A 
ATOM     83  C   UNL     1      -3.502   4.677 -18.832  1.00  0.00     0.134 A 
ATOM     84  F   UNL     1      -3.291   1.058 -18.951  1.00  0.00    -0.206 F 
ATOM     85  C   UNL     1      -5.154   2.454 -18.645  1.00  0.00     0.040 A 
ATOM     86  C   UNL     1      -4.871   4.844 -18.619  1.00  0.00     0.040 A 
ATOM     87  F   UNL     1      -2.742   5.777 -18.933  1.00  0.00    -0.206 F 
ATOM     88  C   UNL     1      -5.703   3.730 -18.535  1.00  0.00     0.006 A 
ENDBRANCH  60  81
BRANCH  72  89
ATOM     89  C   UNL     1       0.665   0.929 -24.375  1.00  0.00     0.057 A 
ATOM     90  C   UNL     1       0.089   1.699 -25.393  1.00  0.00     0.134 A 
ATOM     91  C   UNL     1       0.879  -0.431 -24.639  1.00  0.00     0.134 A 
ATOM     92  F   UNL     1      -0.153   3.005 -25.205  1.00  0.00    -0.206 F 
ATOM     93  C   UNL     1      -0.283   1.133 -26.615  1.00  0.00     0.040 A 
ATOM     94  C   UNL     1       0.542  -1.001 -25.867  1.00  0.00     0.040 A 
ATOM     95  F   UNL     1       1.439  -1.225 -23.713  1.00  0.00    -0.206 F 
ATOM     96  C   UNL     1      -0.049  -0.220 -26.857  1.00  0.00     0.006 A 
ENDBRANCH  72  89
ENDBRANCH  46  47
ENDBRANCH  39  41
ENDBRANCH  38  39
ENDBRANCH  37  38
ENDBRANCH  36  37
ENDBRANCH  35  36
ENDBRANCH  34  35
ENDBRANCH  33  34
ENDBRANCH  32  33
ENDBRANCH   1  32
TORSDOF 24
