REMARK SMILES O=C(OCCOCCOCCOC(=O)c1ccc(-c2c3nc(c(-c4c(F)cccc4F)c4ccc([nH]4)c(-c4c(F)cccc4F)c4nc(c(-c5c(F)cccc5F)c5ccc2[nH]5)C=C4)C=C3)cc1)c1ccc(N[C@H]2OC[C@@H](O)[C@@H](O)[C@H]2O)cc1
REMARK SMILES IDX 7 1 6 2 5 3 4 4 3 5 2 6 1 7 69 8 70 9 84 10 71 11 83 12
REMARK SMILES IDX 72 13 73 14 74 16 75 17 81 18 76 19 79 20 77 21 82 22 80 24
REMARK SMILES IDX 78 26 8 28 9 29 10 30 11 31 12 32 13 33 14 34 15 35 16 36
REMARK SMILES IDX 68 37 17 38 67 39 18 40 19 41 20 42 61 43 21 44 66 45 60 46
REMARK SMILES IDX 62 47 22 48 65 49 59 50 58 51 23 53 49 54 32 55 48 56 33 57
REMARK SMILES IDX 36 58 47 59 63 60 34 61 35 62 46 64 64 65 37 66 24 67 25 68
REMARK SMILES IDX 30 69 26 70 27 71 29 72 31 73 28 74 50 75 51 76 56 77 52 78
REMARK SMILES IDX 53 79 55 80 57 81 54 82 38 83 39 84 44 85 40 86 41 87 43 88
REMARK SMILES IDX 45 89 42 90
REMARK H PARENT 73 15 82 23 80 25 78 27 62 52 36 63
REMARK Flexibility Score: inf
ROOT
ATOM      1  C   UNL     1       2.751   7.481   8.952  1.00  0.00     0.188 C 
ENDROOT
BRANCH   1   2
ATOM      2  O   UNL     1       2.761   6.452   7.951  1.00  0.00    -0.376 OA
BRANCH   2   3
ATOM      3  C   UNL     1       2.105   5.250   8.361  1.00  0.00     0.202 C 
BRANCH   3   4
ATOM      4  C   UNL     1       3.031   4.240   9.044  1.00  0.00     0.261 C 
BRANCH   4   5
ATOM      5  O   UNL     1       3.987   4.896   9.895  1.00  0.00    -0.460 OA
BRANCH   5   6
ATOM      6  C   UNL     1       5.297   5.116   9.620  1.00  0.00     0.338 C 
ATOM      7  O   UNL     1       6.004   5.690  10.444  1.00  0.00    -0.246 OA
BRANCH   6   8
ATOM      8  C   UNL     1       5.941   4.599   8.382  1.00  0.00     0.060 A 
ATOM      9  C   UNL     1       5.398   4.729   7.105  1.00  0.00     0.018 A 
ATOM     10  C   UNL     1       7.217   4.041   8.503  1.00  0.00     0.018 A 
ATOM     11  C   UNL     1       6.065   4.210   5.988  1.00  0.00     0.026 A 
ATOM     12  C   UNL     1       7.899   3.565   7.375  1.00  0.00     0.026 A 
ATOM     13  C   UNL     1       7.319   3.607   6.100  1.00  0.00     0.036 A 
BRANCH  13  14
ATOM     14  N   UNL     1       8.024   3.100   5.021  1.00  0.00    -0.358 N 
ATOM     15  H   UNL     1       8.999   2.998   5.109  1.00  0.00     0.163 HD
BRANCH  14  16
ATOM     16  C   UNL     1       7.401   2.710   3.763  1.00  0.00     0.244 C 
ATOM     17  O   UNL     1       6.900   3.870   3.096  1.00  0.00    -0.353 OA
ATOM     18  C   UNL     1       8.477   2.065   2.857  1.00  0.00     0.195 C 
ATOM     19  C   UNL     1       6.210   3.554   1.880  1.00  0.00     0.197 C 
ATOM     20  C   UNL     1       7.827   1.667   1.527  1.00  0.00     0.178 C 
ATOM     21  C   UNL     1       7.137   2.872   0.869  1.00  0.00     0.171 C 
BRANCH  18  22
ATOM     22  O   UNL     1       9.539   3.019   2.604  1.00  0.00    -0.386 OA
ATOM     23  H   UNL     1       9.171   3.803   2.165  1.00  0.00     0.211 HD
ENDBRANCH  18  22
BRANCH  20  24
ATOM     24  O   UNL     1       8.807   1.115   0.646  1.00  0.00    -0.387 OA
ATOM     25  H   UNL     1       9.487   1.782   0.460  1.00  0.00     0.211 HD
ENDBRANCH  20  24
BRANCH  21  26
ATOM     26  O   UNL     1       8.117   3.810   0.401  1.00  0.00    -0.388 OA
ATOM     27  H   UNL     1       8.644   4.128   1.151  1.00  0.00     0.211 HD
ENDBRANCH  21  26
ENDBRANCH  14  16
ENDBRANCH  13  14
ENDBRANCH   6   8
ENDBRANCH   5   6
ENDBRANCH   4   5
ENDBRANCH   3   4
ENDBRANCH   2   3
ENDBRANCH   1   2
BRANCH   1  28
ATOM     28  C   UNL     1       2.697   8.864   8.296  1.00  0.00     0.188 C 
BRANCH  28  29
ATOM     29  O   UNL     1       1.421   9.216   7.754  1.00  0.00    -0.376 OA
BRANCH  29  30
ATOM     30  C   UNL     1       0.954   8.437   6.654  1.00  0.00     0.202 C 
BRANCH  30  31
ATOM     31  C   UNL     1       1.575   8.771   5.293  1.00  0.00     0.261 C 
BRANCH  31  32
ATOM     32  O   UNL     1       3.000   8.572   5.239  1.00  0.00    -0.460 OA
BRANCH  32  33
ATOM     33  C   UNL     1       3.709   9.687   4.941  1.00  0.00     0.338 C 
ATOM     34  O   UNL     1       3.280  10.808   4.723  1.00  0.00    -0.246 OA
BRANCH  33  35
ATOM     35  C   UNL     1       5.153   9.408   4.900  1.00  0.00     0.060 A 
ATOM     36  C   UNL     1       5.950   9.826   5.970  1.00  0.00     0.016 A 
ATOM     37  C   UNL     1       5.735   8.979   3.704  1.00  0.00     0.016 A 
ATOM     38  C   UNL     1       7.338   9.874   5.821  1.00  0.00     0.010 A 
ATOM     39  C   UNL     1       7.127   9.022   3.561  1.00  0.00     0.010 A 
ATOM     40  C   UNL     1       7.931   9.519   4.600  1.00  0.00    -0.014 A 
BRANCH  40  41
ATOM     41  C   UNL     1       9.371   9.809   4.371  1.00  0.00     0.031 A 
ATOM     42  C   UNL     1       9.771  11.039   3.595  1.00  0.00     0.074 A 
ATOM     43  C   UNL     1      10.321   9.008   4.883  1.00  0.00     0.049 A 
ATOM     44  N   UNL     1      10.969  11.488   3.311  1.00  0.00    -0.248 NA
ATOM     45  C   UNL     1       8.678  11.871   3.070  1.00  0.00     0.031 C 
ATOM     46  C   UNL     1      10.077   7.794   5.658  1.00  0.00     0.029 A 
ATOM     47  N   UNL     1      11.690   9.106   4.825  1.00  0.00    -0.354 N 
ATOM     48  C   UNL     1      10.774  12.655   2.582  1.00  0.00     0.074 A 
ATOM     49  C   UNL     1       9.344  12.826   2.435  1.00  0.00     0.031 C 
ATOM     50  C   UNL     1      11.259   7.257   6.005  1.00  0.00     0.029 A 
ATOM     51  C   UNL     1      12.340   8.080   5.465  1.00  0.00     0.049 A 
ATOM     52  H   UNL     1      12.159   9.841   4.369  1.00  0.00     0.167 HD
ATOM     53  C   UNL     1      11.697  13.517   2.092  1.00  0.00     0.037 A 
ATOM     54  C   UNL     1      13.657   7.832   5.595  1.00  0.00     0.037 A 
ATOM     55  C   UNL     1      13.121  13.360   2.229  1.00  0.00     0.049 A 
ATOM     56  C   UNL     1      14.664   8.788   5.017  1.00  0.00     0.074 A 
ATOM     57  C   UNL     1      14.131  14.190   1.769  1.00  0.00     0.029 A 
ATOM     58  N   UNL     1      13.739  12.302   2.875  1.00  0.00    -0.354 N 
ATOM     59  N   UNL     1      14.465   9.901   4.355  1.00  0.00    -0.248 NA
ATOM     60  C   UNL     1      16.083   8.456   5.216  1.00  0.00     0.031 C 
ATOM     61  C   UNL     1      15.361  13.617   2.113  1.00  0.00     0.029 A 
ATOM     62  C   UNL     1      15.116  12.450   2.816  1.00  0.00     0.049 A 
ATOM     63  H   UNL     1      13.269  11.554   3.311  1.00  0.00     0.167 HD
ATOM     64  C   UNL     1      15.727  10.409   4.074  1.00  0.00     0.074 A 
ATOM     65  C   UNL     1      16.687   9.493   4.653  1.00  0.00     0.031 C 
ATOM     66  C   UNL     1      16.062  11.533   3.394  1.00  0.00     0.037 A 
BRANCH  53  67
ATOM     67  C   UNL     1      11.191  14.721   1.355  1.00  0.00     0.057 A 
ATOM     68  C   UNL     1      10.629  15.810   2.033  1.00  0.00     0.134 A 
ATOM     69  C   UNL     1      11.309  14.814  -0.037  1.00  0.00     0.134 A 
ATOM     70  F   UNL     1      10.480  15.778   3.366  1.00  0.00    -0.206 F 
ATOM     71  C   UNL     1      10.185  16.944   1.349  1.00  0.00     0.040 A 
ATOM     72  C   UNL     1      10.887  15.950  -0.729  1.00  0.00     0.040 A 
ATOM     73  F   UNL     1      11.846  13.808  -0.744  1.00  0.00    -0.206 F 
ATOM     74  C   UNL     1      10.320  17.018  -0.036  1.00  0.00     0.006 A 
ENDBRANCH  53  67
BRANCH  54  75
ATOM     75  C   UNL     1      14.108   6.614   6.310  1.00  0.00     0.057 A 
ATOM     76  C   UNL     1      14.701   6.693   7.575  1.00  0.00     0.134 A 
ATOM     77  C   UNL     1      13.979   5.346   5.732  1.00  0.00     0.134 A 
ATOM     78  F   UNL     1      14.873   7.884   8.166  1.00  0.00    -0.206 F 
ATOM     79  C   UNL     1      15.165   5.554   8.234  1.00  0.00     0.040 A 
ATOM     80  C   UNL     1      14.422   4.197   6.387  1.00  0.00     0.040 A 
ATOM     81  F   UNL     1      13.416   5.207   4.523  1.00  0.00    -0.206 F 
ATOM     82  C   UNL     1      15.023   4.301   7.640  1.00  0.00     0.006 A 
ENDBRANCH  54  75
BRANCH  66  83
ATOM     83  C   UNL     1      17.523  11.841   3.257  1.00  0.00     0.057 A 
ATOM     84  C   UNL     1      18.346  11.125   2.378  1.00  0.00     0.134 A 
ATOM     85  C   UNL     1      18.110  12.876   3.996  1.00  0.00     0.134 A 
ATOM     86  F   UNL     1      17.847  10.114   1.651  1.00  0.00    -0.206 F 
ATOM     87  C   UNL     1      19.707  11.413   2.257  1.00  0.00     0.040 A 
ATOM     88  C   UNL     1      19.465  13.185   3.868  1.00  0.00     0.040 A 
ATOM     89  F   UNL     1      17.375  13.604   4.850  1.00  0.00    -0.206 F 
ATOM     90  C   UNL     1      20.269  12.448   3.001  1.00  0.00     0.006 A 
ENDBRANCH  66  83
ENDBRANCH  40  41
ENDBRANCH  33  35
ENDBRANCH  32  33
ENDBRANCH  31  32
ENDBRANCH  30  31
ENDBRANCH  29  30
ENDBRANCH  28  29
ENDBRANCH   1  28
TORSDOF 22
