REMARK SMILES Cc1ccc([C@@]23C[C@@H]4C[C@@H](C[C@@](C(=O)N5CCC(C(=O)OCCOCCOCCOC(=O)c6ccc(-c7c8nc(c(-c9c(F)cccc9F)c9ccc([nH]9)c(-c9c(F)cccc9F)c9nc(c(-c%10c(F)cccc%10F)c%10ccc7[nH]%10)C=C9)C=C8)cc6)CC5)(C4)C2)C3)cc1
REMARK SMILES IDX 25 1 24 2 23 3 22 4 21 5 19 6 20 7 18 8 13 9 14 10 15 11
REMARK SMILES IDX 16 12 88 13 17 14 87 15 12 16 6 17 7 18 90 19 91 20 8 21
REMARK SMILES IDX 10 22 9 23 89 24 11 25 5 26 1 27 2 28 3 29 93 30 4 31 92 32
REMARK SMILES IDX 26 33 27 34 28 35 29 36 30 37 31 38 32 39 33 40 34 41 86 42
REMARK SMILES IDX 35 43 85 44 36 45 37 46 38 47 79 48 39 49 84 50 78 51 80 52
REMARK SMILES IDX 40 53 83 54 77 55 76 56 41 58 67 59 50 60 66 61 51 62 54 63
REMARK SMILES IDX 65 64 81 65 52 66 53 67 64 69 82 70 55 71 42 72 43 73 48 74
REMARK SMILES IDX 44 75 45 76 47 77 49 78 46 79 68 80 69 81 74 82 70 83 71 84
REMARK SMILES IDX 73 85 75 86 72 87 56 88 57 89 62 90 58 91 59 92 61 93 63 94
REMARK SMILES IDX 60 95
REMARK H PARENT 80 57 54 68
REMARK Flexibility Score: inf
ROOT
ATOM      1  C   UNL     1      -9.123  -4.082  -8.472  1.00  0.00     0.188 C 
ENDROOT
BRANCH   1   2
ATOM      2  O   UNL     1      -9.871  -4.180  -7.252  1.00  0.00    -0.376 OA
BRANCH   2   3
ATOM      3  C   UNL     1     -10.142  -3.084  -6.380  1.00  0.00     0.202 C 
BRANCH   3   4
ATOM      4  C   UNL     1      -9.663  -2.762  -4.814  1.00  0.00     0.261 C 
BRANCH   4   5
ATOM      5  O   UNL     1      -8.227  -3.043  -3.800  1.00  0.00    -0.463 OA
BRANCH   5   6
ATOM      6  C   UNL     1      -7.323  -4.049  -3.326  1.00  0.00     0.309 C 
ATOM      7  O   UNL     1      -7.328  -5.277  -3.474  1.00  0.00    -0.252 OA
BRANCH   6   8
ATOM      8  C   UNL     1      -6.104  -3.769  -2.566  1.00  0.00     0.103 C 
ATOM      9  C   UNL     1      -5.544  -1.907   0.518  1.00  0.00     0.228 C 
ATOM     10  O   UNL     1      -6.379  -2.334   1.315  1.00  0.00    -0.274 OA
ATOM     11  N   UNL     1      -4.859  -2.747  -0.370  1.00  0.00    -0.342 N 
ATOM     12  C   UNL     1      -5.105  -4.168  -0.265  1.00  0.00     0.120 C 
ATOM     13  C   UNL     1      -4.402  -2.346  -1.708  1.00  0.00     0.120 C 
ATOM     14  C   UNL     1      -6.266  -4.469  -1.181  1.00  0.00     0.037 C 
ATOM     15  C   UNL     1      -5.617  -2.369  -2.610  1.00  0.00     0.037 C 
BRANCH   9  16
ATOM     16  C   UNL     1      -5.148  -0.433   0.501  1.00  0.00     0.051 C 
ATOM     17  C   UNL     1      -2.985   0.931   0.502  1.00  0.00    -0.003 C 
ATOM     18  C   UNL     1      -3.519   1.587  -0.808  1.00  0.00     0.015 C 
ATOM     19  C   UNL     1      -3.625  -0.444   0.649  1.00  0.00     0.028 C 
ATOM     20  C   UNL     1      -3.518   1.746   1.708  1.00  0.00     0.015 C 
ATOM     21  C   UNL     1      -5.056   1.722  -0.797  1.00  0.00    -0.009 C 
ATOM     22  C   UNL     1      -5.073   1.783   1.705  1.00  0.00    -0.009 C 
ATOM     23  C   UNL     1      -5.537   2.499   0.426  1.00  0.00     0.007 C 
ATOM     24  C   UNL     1      -5.664   0.329  -0.738  1.00  0.00     0.020 C 
ATOM     25  C   UNL     1      -5.667   0.351   1.727  1.00  0.00     0.020 C 
BRANCH  17  26
ATOM     26  C   UNL     1      -1.452   0.771   0.444  1.00  0.00    -0.042 A 
ATOM     27  C   UNL     1       2.838   0.295  -0.057  1.00  0.00     0.044 C 
ATOM     28  C   UNL     1       1.364   0.479   0.129  1.00  0.00    -0.051 A 
ATOM     29  C   UNL     1       0.561  -0.641   0.295  1.00  0.00     0.004 A 
ATOM     30  C   UNL     1       0.764   1.743   0.132  1.00  0.00     0.004 A 
ATOM     31  C   UNL     1      -0.814  -0.494   0.466  1.00  0.00     0.004 A 
ATOM     32  C   UNL     1      -0.624   1.887   0.287  1.00  0.00     0.004 A 
ENDBRANCH  17  26
ENDBRANCH   9  16
ENDBRANCH   6   8
ENDBRANCH   5   6
ENDBRANCH   4   5
ENDBRANCH   3   4
ENDBRANCH   2   3
ENDBRANCH   1   2
BRANCH   1  33
ATOM     33  C   UNL     1      -8.937  -2.742  -9.177  1.00  0.00     0.188 C 
BRANCH  33  34
ATOM     34  O   UNL     1      -8.569  -1.754  -8.231  1.00  0.00    -0.376 OA
BRANCH  34  35
ATOM     35  C   UNL     1      -8.438  -0.439  -8.740  1.00  0.00     0.202 C 
BRANCH  35  36
ATOM     36  C   UNL     1      -7.060  -0.213  -9.381  1.00  0.00     0.261 C 
BRANCH  36  37
ATOM     37  O   UNL     1      -6.003  -0.577  -8.458  1.00  0.00    -0.460 OA
BRANCH  37  38
ATOM     38  C   UNL     1      -5.360  -1.771  -8.677  1.00  0.00     0.338 C 
ATOM     39  O   UNL     1      -4.884  -2.121  -9.746  1.00  0.00    -0.246 OA
BRANCH  38  40
ATOM     40  C   UNL     1      -5.557  -2.682  -7.500  1.00  0.00     0.060 A 
ATOM     41  C   UNL     1      -5.489  -4.081  -7.530  1.00  0.00     0.016 A 
ATOM     42  C   UNL     1      -6.235  -2.154  -6.461  1.00  0.00     0.016 A 
ATOM     43  C   UNL     1      -6.338  -4.916  -6.684  1.00  0.00     0.010 A 
ATOM     44  C   UNL     1      -7.216  -2.976  -5.911  1.00  0.00     0.010 A 
ATOM     45  C   UNL     1      -7.408  -4.404  -5.929  1.00  0.00    -0.014 A 
BRANCH  45  46
ATOM     46  C   UNL     1      -8.739  -5.386  -5.259  1.00  0.00     0.031 A 
ATOM     47  C   UNL     1      -9.591  -5.401  -3.664  1.00  0.00     0.074 A 
ATOM     48  C   UNL     1      -8.982  -6.552  -5.903  1.00  0.00     0.049 A 
ATOM     49  N   UNL     1      -9.785  -6.496  -2.934  1.00  0.00    -0.248 NA
ATOM     50  C   UNL     1      -9.999  -4.266  -2.735  1.00  0.00     0.031 C 
ATOM     51  C   UNL     1      -9.978  -7.561  -5.565  1.00  0.00     0.029 A 
ATOM     52  N   UNL     1      -8.221  -7.152  -6.912  1.00  0.00    -0.354 N 
ATOM     53  C   UNL     1     -10.297  -6.156  -1.663  1.00  0.00     0.074 A 
ATOM     54  C   UNL     1     -10.318  -4.763  -1.565  1.00  0.00     0.031 C 
ATOM     55  C   UNL     1      -9.586  -8.734  -6.085  1.00  0.00     0.029 A 
ATOM     56  C   UNL     1      -8.285  -8.532  -6.694  1.00  0.00     0.049 A 
ATOM     57  H   UNL     1      -7.735  -6.692  -7.635  1.00  0.00     0.167 HD
ATOM     58  C   UNL     1     -10.795  -6.990  -0.715  1.00  0.00     0.037 A 
ATOM     59  C   UNL     1      -7.181  -9.309  -6.527  1.00  0.00     0.037 A 
ATOM     60  C   UNL     1     -10.756  -8.324  -1.198  1.00  0.00     0.049 A 
ATOM     61  C   UNL     1      -7.254 -10.198  -5.312  1.00  0.00     0.074 A 
ATOM     62  C   UNL     1     -11.589  -8.980  -2.083  1.00  0.00     0.029 A 
ATOM     63  N   UNL     1      -9.550  -8.984  -1.178  1.00  0.00    -0.354 N 
ATOM     64  N   UNL     1      -8.031  -9.977  -4.288  1.00  0.00    -0.248 NA
ATOM     65  C   UNL     1      -6.449 -11.405  -5.150  1.00  0.00     0.031 C 
ATOM     66  C   UNL     1     -10.838 -10.024  -2.663  1.00  0.00     0.029 A 
ATOM     67  C   UNL     1      -9.592 -10.038  -2.060  1.00  0.00     0.049 A 
ATOM     68  H   UNL     1      -8.777  -8.740  -0.619  1.00  0.00     0.167 HD
ATOM     69  C   UNL     1      -7.822 -10.948  -3.341  1.00  0.00     0.074 A 
ATOM     70  C   UNL     1      -6.843 -11.831  -3.937  1.00  0.00     0.031 C 
ATOM     71  C   UNL     1      -8.463 -10.935  -2.138  1.00  0.00     0.037 A 
BRANCH  58  72
ATOM     72  C   UNL     1     -11.645  -6.450   0.421  1.00  0.00     0.057 A 
ATOM     73  C   UNL     1     -12.967  -6.893   0.575  1.00  0.00     0.134 A 
ATOM     74  C   UNL     1     -11.279  -5.374   1.259  1.00  0.00     0.134 A 
ATOM     75  F   UNL     1     -13.423  -7.953  -0.105  1.00  0.00    -0.206 F 
ATOM     76  C   UNL     1     -13.895  -6.234   1.395  1.00  0.00     0.040 A 
ATOM     77  C   UNL     1     -12.212  -4.668   2.039  1.00  0.00     0.040 A 
ATOM     78  F   UNL     1     -10.014  -4.923   1.286  1.00  0.00    -0.206 F 
ATOM     79  C   UNL     1     -13.534  -5.088   2.092  1.00  0.00     0.006 A 
ENDBRANCH  58  72
BRANCH  59  80
ATOM     80  C   UNL     1      -5.927  -8.800  -7.155  1.00  0.00     0.057 A 
ATOM     81  C   UNL     1      -5.921  -8.511  -8.535  1.00  0.00     0.134 A 
ATOM     82  C   UNL     1      -4.832  -8.340  -6.417  1.00  0.00     0.134 A 
ATOM     83  F   UNL     1      -6.937  -8.917  -9.314  1.00  0.00    -0.206 F 
ATOM     84  C   UNL     1      -4.928  -7.729  -9.134  1.00  0.00     0.040 A 
ATOM     85  C   UNL     1      -3.823  -7.561  -7.008  1.00  0.00     0.040 A 
ATOM     86  F   UNL     1      -4.757  -8.553  -5.096  1.00  0.00    -0.206 F 
ATOM     87  C   UNL     1      -3.881  -7.235  -8.364  1.00  0.00     0.006 A 
ENDBRANCH  59  80
BRANCH  71  88
ATOM     88  C   UNL     1      -8.148 -11.752  -0.907  1.00  0.00     0.057 A 
ATOM     89  C   UNL     1      -6.881 -12.262  -0.606  1.00  0.00     0.134 A 
ATOM     90  C   UNL     1      -9.105 -11.872   0.134  1.00  0.00     0.134 A 
ATOM     91  F   UNL     1      -5.853 -12.137  -1.454  1.00  0.00    -0.206 F 
ATOM     92  C   UNL     1      -6.594 -12.874   0.622  1.00  0.00     0.040 A 
ATOM     93  C   UNL     1      -8.810 -12.417   1.385  1.00  0.00     0.040 A 
ATOM     94  F   UNL     1     -10.365 -11.431  -0.003  1.00  0.00    -0.206 F 
ATOM     95  C   UNL     1      -7.550 -12.933   1.629  1.00  0.00     0.006 A 
ENDBRANCH  71  88
ENDBRANCH  45  46
ENDBRANCH  38  40
ENDBRANCH  37  38
ENDBRANCH  36  37
ENDBRANCH  35  36
ENDBRANCH  34  35
ENDBRANCH  33  34
ENDBRANCH   1  33
TORSDOF 19
