REMARK SMILES C[NH2+][C@H]1CC[C@@H](Nc2ccc(C(=O)OCCOCCOCCOC(=O)c3ccc(-c4c5nc(c(-c6c(F)cccc6F)c6ccc([nH]6)c(-c6c(F)cccc6F)c6nc(c(-c7c(F)cccc7F)c7ccc4[nH]7)C=C6)C=C5)cc3)c(F)c2F)CC1
REMARK SMILES IDX 18 1 17 2 16 3 15 4 14 5 12 6 13 7 11 8 8 9 9 10 82 11 10 12
REMARK SMILES IDX 80 13 83 14 81 15 7 16 6 18 3 19 85 20 4 21 84 22 5 23 2 24
REMARK SMILES IDX 1 25 19 28 20 29 21 30 22 31 23 32 24 33 25 34 26 35 27 36
REMARK SMILES IDX 79 37 28 38 78 39 29 40 30 41 31 42 72 43 32 44 77 45 71 46
REMARK SMILES IDX 73 47 33 48 76 49 70 50 69 51 34 53 60 54 43 55 59 56 44 57
REMARK SMILES IDX 47 58 58 59 74 60 45 61 46 62 57 64 75 65 48 66 35 67 36 68
REMARK SMILES IDX 41 69 37 70 38 71 40 72 42 73 39 74 61 75 62 76 67 77 63 78
REMARK SMILES IDX 64 79 66 80 68 81 65 82 49 83 50 84 55 85 51 86 52 87 54 88
REMARK SMILES IDX 56 89 53 90
REMARK H PARENT 7 17 2 26 2 27 73 52 47 63
REMARK Flexibility Score: inf
ROOT
ATOM      1  C   UNL     1      -8.760   1.265   6.468  1.00  0.00     0.188 C 
ENDROOT
BRANCH   1   2
ATOM      2  O   UNL     1      -9.316   1.289   7.768  1.00  0.00    -0.376 OA
BRANCH   2   3
ATOM      3  C   UNL     1      -8.578   1.830   8.854  1.00  0.00     0.202 C 
BRANCH   3   4
ATOM      4  C   UNL     1      -7.102   1.486   9.053  1.00  0.00     0.261 C 
BRANCH   4   5
ATOM      5  O   UNL     1      -6.296   1.713   7.890  1.00  0.00    -0.460 OA
BRANCH   5   6
ATOM      6  C   UNL     1      -5.590   0.641   7.459  1.00  0.00     0.341 C 
ATOM      7  O   UNL     1      -5.557  -0.472   7.961  1.00  0.00    -0.246 OA
BRANCH   6   8
ATOM      8  C   UNL     1      -4.995   0.918   6.147  1.00  0.00     0.099 A 
ATOM      9  C   UNL     1      -3.757   1.280   3.649  1.00  0.00     0.074 A 
ATOM     10  C   UNL     1      -4.639   0.216   3.846  1.00  0.00     0.030 A 
ATOM     11  C   UNL     1      -3.567   2.188   4.711  1.00  0.00     0.182 A 
ATOM     12  C   UNL     1      -5.232   0.016   5.099  1.00  0.00     0.021 A 
ATOM     13  C   UNL     1      -4.184   2.022   5.944  1.00  0.00     0.175 A 
ATOM     14  F   UNL     1      -2.752   3.240   4.523  1.00  0.00    -0.201 F 
ATOM     15  F   UNL     1      -3.957   2.908   6.924  1.00  0.00    -0.203 F 
BRANCH   9  16
ATOM     16  N   UNL     1      -3.063   1.481   2.470  1.00  0.00    -0.380 N 
ATOM     17  H   UNL     1      -2.115   1.732   2.547  1.00  0.00     0.160 HD
BRANCH  16  18
ATOM     18  C   UNL     1      -3.608   1.356   1.123  1.00  0.00     0.079 C 
ATOM     19  C   UNL     1      -1.086   1.200  -0.511  1.00  0.00     0.182 C 
ATOM     20  C   UNL     1      -1.644  -0.012   0.261  1.00  0.00     0.067 C 
ATOM     21  C   UNL     1      -1.595   2.533   0.071  1.00  0.00     0.067 C 
ATOM     22  C   UNL     1      -3.159   0.055   0.455  1.00  0.00     0.031 C 
ATOM     23  C   UNL     1      -3.112   2.552   0.293  1.00  0.00     0.031 C 
BRANCH  19  24
ATOM     24  N   UNL     1       0.379   1.280  -0.646  1.00  0.00    -0.346 N 
ATOM     25  C   UNL     1       1.148   0.138  -0.182  1.00  0.00     0.331 C 
ATOM     26  H   UNL     1       0.590   1.411  -1.635  1.00  0.00     0.346 HD
ATOM     27  H   UNL     1       0.659   2.051  -0.040  1.00  0.00     0.346 HD
ENDBRANCH  19  24
ENDBRANCH  16  18
ENDBRANCH   9  16
ENDBRANCH   6   8
ENDBRANCH   5   6
ENDBRANCH   4   5
ENDBRANCH   3   4
ENDBRANCH   2   3
ENDBRANCH   1   2
BRANCH   1  28
ATOM     28  C   UNL     1      -8.293   2.563   5.774  1.00  0.00     0.188 C 
BRANCH  28  29
ATOM     29  O   UNL     1      -8.455   3.827   6.383  1.00  0.00    -0.376 OA
BRANCH  29  30
ATOM     30  C   UNL     1      -9.742   4.278   6.773  1.00  0.00     0.202 C 
BRANCH  30  31
ATOM     31  C   UNL     1     -10.951   4.158   5.843  1.00  0.00     0.261 C 
BRANCH  31  32
ATOM     32  O   UNL     1     -11.147   2.855   5.284  1.00  0.00    -0.460 OA
BRANCH  32  33
ATOM     33  C   UNL     1     -11.026   2.790   3.937  1.00  0.00     0.338 C 
ATOM     34  O   UNL     1     -10.762   3.694   3.164  1.00  0.00    -0.246 OA
BRANCH  33  35
ATOM     35  C   UNL     1     -11.110   1.384   3.514  1.00  0.00     0.060 A 
ATOM     36  C   UNL     1     -10.001   0.805   2.881  1.00  0.00     0.016 A 
ATOM     37  C   UNL     1     -12.297   0.672   3.677  1.00  0.00     0.016 A 
ATOM     38  C   UNL     1     -10.086  -0.494   2.382  1.00  0.00     0.010 A 
ATOM     39  C   UNL     1     -12.389  -0.617   3.153  1.00  0.00     0.010 A 
ATOM     40  C   UNL     1     -11.296  -1.192   2.478  1.00  0.00    -0.014 A 
BRANCH  40  41
ATOM     41  C   UNL     1     -11.511  -2.438   1.710  1.00  0.00     0.031 A 
ATOM     42  C   UNL     1     -12.184  -2.333   0.370  1.00  0.00     0.074 A 
ATOM     43  C   UNL     1     -11.155  -3.636   2.204  1.00  0.00     0.049 A 
ATOM     44  N   UNL     1     -12.658  -3.279  -0.396  1.00  0.00    -0.248 NA
ATOM     45  C   UNL     1     -12.348  -0.974  -0.173  1.00  0.00     0.031 C 
ATOM     46  C   UNL     1     -10.438  -3.858   3.458  1.00  0.00     0.029 A 
ATOM     47  N   UNL     1     -11.380  -4.898   1.714  1.00  0.00    -0.354 N 
ATOM     48  C   UNL     1     -13.186  -2.631  -1.506  1.00  0.00     0.074 A 
ATOM     49  C   UNL     1     -12.989  -1.212  -1.307  1.00  0.00     0.031 C 
ATOM     50  C   UNL     1     -10.311  -5.183   3.656  1.00  0.00     0.029 A 
ATOM     51  C   UNL     1     -10.979  -5.896   2.569  1.00  0.00     0.049 A 
ATOM     52  H   UNL     1     -11.789  -5.071   0.835  1.00  0.00     0.167 HD
ATOM     53  C   UNL     1     -13.781  -3.173  -2.592  1.00  0.00     0.037 A 
ATOM     54  C   UNL     1     -11.176  -7.227   2.497  1.00  0.00     0.037 A 
ATOM     55  C   UNL     1     -13.989  -4.583  -2.776  1.00  0.00     0.049 A 
ATOM     56  C   UNL     1     -11.937  -7.799   1.326  1.00  0.00     0.074 A 
ATOM     57  C   UNL     1     -14.616  -5.233  -3.824  1.00  0.00     0.029 A 
ATOM     58  N   UNL     1     -13.571  -5.561  -1.887  1.00  0.00    -0.354 N 
ATOM     59  N   UNL     1     -12.448  -7.181   0.288  1.00  0.00    -0.248 NA
ATOM     60  C   UNL     1     -12.154  -9.254   1.319  1.00  0.00     0.031 C 
ATOM     61  C   UNL     1     -14.606  -6.604  -3.554  1.00  0.00     0.029 A 
ATOM     62  C   UNL     1     -13.930  -6.809  -2.362  1.00  0.00     0.049 A 
ATOM     63  H   UNL     1     -13.091  -5.391  -1.045  1.00  0.00     0.167 HD
ATOM     64  C   UNL     1     -13.000  -8.174  -0.514  1.00  0.00     0.074 A 
ATOM     65  C   UNL     1     -12.766  -9.434   0.158  1.00  0.00     0.031 C 
ATOM     66  C   UNL     1     -13.640  -8.055  -1.702  1.00  0.00     0.037 A 
BRANCH  53  67
ATOM     67  C   UNL     1     -14.267  -2.238  -3.657  1.00  0.00     0.057 A 
ATOM     68  C   UNL     1     -13.379  -1.587  -4.522  1.00  0.00     0.134 A 
ATOM     69  C   UNL     1     -15.637  -2.026  -3.853  1.00  0.00     0.134 A 
ATOM     70  F   UNL     1     -12.054  -1.735  -4.373  1.00  0.00    -0.206 F 
ATOM     71  C   UNL     1     -13.837  -0.749  -5.540  1.00  0.00     0.040 A 
ATOM     72  C   UNL     1     -16.108  -1.209  -4.882  1.00  0.00     0.040 A 
ATOM     73  F   UNL     1     -16.539  -2.621  -3.058  1.00  0.00    -0.206 F 
ATOM     74  C   UNL     1     -15.206  -0.566  -5.727  1.00  0.00     0.006 A 
ENDBRANCH  53  67
BRANCH  54  75
ATOM     75  C   UNL     1     -10.687  -8.124   3.576  1.00  0.00     0.057 A 
ATOM     76  C   UNL     1      -9.681  -9.067   3.332  1.00  0.00     0.134 A 
ATOM     77  C   UNL     1     -11.258  -8.109   4.854  1.00  0.00     0.134 A 
ATOM     78  F   UNL     1      -9.113  -9.149   2.120  1.00  0.00    -0.206 F 
ATOM     79  C   UNL     1      -9.284  -9.983   4.308  1.00  0.00     0.040 A 
ATOM     80  C   UNL     1     -10.851  -9.000   5.848  1.00  0.00     0.040 A 
ATOM     81  F   UNL     1     -12.228  -7.232   5.153  1.00  0.00    -0.206 F 
ATOM     82  C   UNL     1      -9.869  -9.949   5.572  1.00  0.00     0.006 A 
ENDBRANCH  54  75
BRANCH  66  83
ATOM     83  C   UNL     1     -14.053  -9.314  -2.404  1.00  0.00     0.057 A 
ATOM     84  C   UNL     1     -15.152 -10.074  -1.987  1.00  0.00     0.134 A 
ATOM     85  C   UNL     1     -13.385  -9.721  -3.567  1.00  0.00     0.134 A 
ATOM     86  F   UNL     1     -15.826  -9.742  -0.876  1.00  0.00    -0.206 F 
ATOM     87  C   UNL     1     -15.566 -11.202  -2.697  1.00  0.00     0.040 A 
ATOM     88  C   UNL     1     -13.805 -10.832  -4.298  1.00  0.00     0.040 A 
ATOM     89  F   UNL     1     -12.332  -9.028  -4.024  1.00  0.00    -0.206 F 
ATOM     90  C   UNL     1     -14.897 -11.577  -3.862  1.00  0.00     0.006 A 
ENDBRANCH  66  83
ENDBRANCH  40  41
ENDBRANCH  33  35
ENDBRANCH  32  33
ENDBRANCH  31  32
ENDBRANCH  30  31
ENDBRANCH  29  30
ENDBRANCH  28  29
ENDBRANCH   1  28
TORSDOF 20
