REMARK SMILES O=C(OCCOCCOCCOC(=O)c1ccc(-c2c3nc(c(-c4c(F)cccc4F)c4ccc([nH]4)c(-c4c(F)cccc4F)c4nc(c(-c5c(F)cccc5F)c5ccc2[nH]5)C=C4)C=C3)cc1)C1=NN(c2ccc([N+](=O)[O-])cc2)[C@H](c2ccccc2)C1
REMARK SMILES IDX 7 1 6 2 5 3 4 4 3 5 2 6 1 7 69 8 70 9 88 10 71 11 81 12
REMARK SMILES IDX 72 13 73 14 80 15 74 16 79 17 75 18 76 19 77 20 78 21 82 22
REMARK SMILES IDX 83 23 87 24 84 25 86 26 85 27 8 28 9 29 10 30 11 31 12 32
REMARK SMILES IDX 13 33 14 34 15 35 16 36 68 37 17 38 67 39 18 40 19 41 20 42
REMARK SMILES IDX 61 43 21 44 66 45 60 46 62 47 22 48 65 49 59 50 58 51 23 53
REMARK SMILES IDX 49 54 32 55 48 56 33 57 36 58 47 59 63 60 34 61 35 62 46 64
REMARK SMILES IDX 64 65 37 66 24 67 25 68 30 69 26 70 27 71 29 72 31 73 28 74
REMARK SMILES IDX 50 75 51 76 56 77 52 78 53 79 55 80 57 81 54 82 38 83 39 84
REMARK SMILES IDX 44 85 40 86 41 87 43 88 45 89 42 90
REMARK H PARENT 62 52 36 63
REMARK Flexibility Score: inf
ROOT
ATOM      1  C   UNL     1       2.708   1.607  -0.353  1.00  0.00     0.188 C 
ENDROOT
BRANCH   1   2
ATOM      2  O   UNL     1       4.085   1.763  -0.088  1.00  0.00    -0.376 OA
BRANCH   2   3
ATOM      3  C   UNL     1       5.003   0.747  -0.468  1.00  0.00     0.202 C 
BRANCH   3   4
ATOM      4  C   UNL     1       4.568  -0.597  -1.086  1.00  0.00     0.261 C 
BRANCH   4   5
ATOM      5  O   UNL     1       3.264  -1.159  -0.810  1.00  0.00    -0.459 OA
BRANCH   5   6
ATOM      6  C   UNL     1       2.811  -1.713   0.313  1.00  0.00     0.354 C 
ATOM      7  O   UNL     1       1.831  -2.447   0.337  1.00  0.00    -0.245 OA
BRANCH   6   8
ATOM      8  C   UNL     1       3.407  -1.320   1.634  1.00  0.00     0.148 C 
ATOM      9  N   UNL     1       4.584  -0.808   1.787  1.00  0.00    -0.169 NA
ATOM     10  C   UNL     1       2.590  -1.450   2.893  1.00  0.00     0.098 C 
ATOM     11  N   UNL     1       4.687  -0.559   3.110  1.00  0.00    -0.257 N 
ATOM     12  C   UNL     1       3.741  -1.345   3.902  1.00  0.00     0.144 C 
BRANCH  11  13
ATOM     13  C   UNL     1       5.675   0.274   3.590  1.00  0.00     0.061 A 
ATOM     14  C   UNL     1       5.372   1.580   3.994  1.00  0.00     0.035 A 
ATOM     15  C   UNL     1       7.006  -0.155   3.644  1.00  0.00     0.035 A 
ATOM     16  C   UNL     1       6.371   2.440   4.458  1.00  0.00     0.088 A 
ATOM     17  C   UNL     1       8.014   0.680   4.130  1.00  0.00     0.088 A 
ATOM     18  C   UNL     1       7.690   1.979   4.535  1.00  0.00     0.269 A 
BRANCH  18  19
ATOM     19  N   UNL     1       8.742   2.866   5.042  1.00  0.00     0.062 N 
ATOM     20  O   UNL     1       8.462   4.064   5.195  1.00  0.00    -0.258 OA
ATOM     21  O   UNL     1       9.848   2.364   5.291  1.00  0.00    -0.258 OA
ENDBRANCH  18  19
ENDBRANCH  11  13
BRANCH  12  22
ATOM     22  C   UNL     1       4.426  -2.665   4.263  1.00  0.00    -0.023 A 
ATOM     23  C   UNL     1       4.301  -3.833   3.489  1.00  0.00     0.006 A 
ATOM     24  C   UNL     1       5.357  -2.667   5.317  1.00  0.00     0.006 A 
ATOM     25  C   UNL     1       5.117  -4.940   3.724  1.00  0.00     0.000 A 
ATOM     26  C   UNL     1       6.180  -3.771   5.542  1.00  0.00     0.000 A 
ATOM     27  C   UNL     1       6.067  -4.902   4.739  1.00  0.00     0.000 A 
ENDBRANCH  12  22
ENDBRANCH   6   8
ENDBRANCH   5   6
ENDBRANCH   4   5
ENDBRANCH   3   4
ENDBRANCH   2   3
ENDBRANCH   1   2
BRANCH   1  28
ATOM     28  C   UNL     1       2.010   2.927  -0.693  1.00  0.00     0.188 C 
BRANCH  28  29
ATOM     29  O   UNL     1       2.613   3.726  -1.705  1.00  0.00    -0.376 OA
BRANCH  29  30
ATOM     30  C   UNL     1       3.929   4.222  -1.454  1.00  0.00     0.202 C 
BRANCH  30  31
ATOM     31  C   UNL     1       4.138   5.142  -0.237  1.00  0.00     0.261 C 
BRANCH  31  32
ATOM     32  O   UNL     1       3.792   4.569   1.041  1.00  0.00    -0.460 OA
BRANCH  32  33
ATOM     33  C   UNL     1       2.802   5.201   1.708  1.00  0.00     0.338 C 
ATOM     34  O   UNL     1       2.159   6.183   1.337  1.00  0.00    -0.246 OA
BRANCH  33  35
ATOM     35  C   UNL     1       2.483   4.519   2.970  1.00  0.00     0.060 A 
ATOM     36  C   UNL     1       1.276   3.816   3.081  1.00  0.00     0.016 A 
ATOM     37  C   UNL     1       3.269   4.752   4.101  1.00  0.00     0.016 A 
ATOM     38  C   UNL     1       0.833   3.378   4.331  1.00  0.00     0.010 A 
ATOM     39  C   UNL     1       2.825   4.308   5.352  1.00  0.00     0.010 A 
ATOM     40  C   UNL     1       1.585   3.656   5.481  1.00  0.00    -0.014 A 
BRANCH  40  41
ATOM     41  C   UNL     1       1.005   3.421   6.830  1.00  0.00     0.031 A 
ATOM     42  C   UNL     1       0.454   4.588   7.606  1.00  0.00     0.074 A 
ATOM     43  C   UNL     1       0.959   2.188   7.366  1.00  0.00     0.049 A 
ATOM     44  N   UNL     1      -0.033   4.623   8.821  1.00  0.00    -0.248 NA
ATOM     45  C   UNL     1       0.455   5.890   6.920  1.00  0.00     0.031 C 
ATOM     46  C   UNL     1       1.423   0.965   6.715  1.00  0.00     0.029 A 
ATOM     47  N   UNL     1       0.507   1.766   8.592  1.00  0.00    -0.354 N 
ATOM     48  C   UNL     1      -0.382   5.949   9.050  1.00  0.00     0.074 A 
ATOM     49  C   UNL     1      -0.028   6.691   7.859  1.00  0.00     0.031 C 
ATOM     50  C   UNL     1       1.248  -0.070   7.555  1.00  0.00     0.029 A 
ATOM     51  C   UNL     1       0.685   0.422   8.812  1.00  0.00     0.049 A 
ATOM     52  H   UNL     1       0.095   2.370   9.251  1.00  0.00     0.167 HD
ATOM     53  C   UNL     1      -0.952   6.500  10.148  1.00  0.00     0.037 A 
ATOM     54  C   UNL     1       0.443  -0.322   9.910  1.00  0.00     0.037 A 
ATOM     55  C   UNL     1      -1.320   5.770  11.332  1.00  0.00     0.049 A 
ATOM     56  C   UNL     1      -0.141   0.324  11.140  1.00  0.00     0.074 A 
ATOM     57  C   UNL     1      -1.930   6.243  12.482  1.00  0.00     0.029 A 
ATOM     58  N   UNL     1      -1.108   4.414  11.521  1.00  0.00    -0.354 N 
ATOM     59  N   UNL     1      -0.489   1.572  11.334  1.00  0.00    -0.248 NA
ATOM     60  C   UNL     1      -0.366  -0.547  12.305  1.00  0.00     0.031 C 
ATOM     61  C   UNL     1      -2.050   5.180  13.383  1.00  0.00     0.029 A 
ATOM     62  C   UNL     1      -1.555   4.037  12.777  1.00  0.00     0.049 A 
ATOM     63  H   UNL     1      -0.701   3.808  10.861  1.00  0.00     0.167 HD
ATOM     64  C   UNL     1      -0.998   1.630  12.627  1.00  0.00     0.074 A 
ATOM     65  C   UNL     1      -0.923   0.290  13.168  1.00  0.00     0.031 C 
ATOM     66  C   UNL     1      -1.486   2.699  13.304  1.00  0.00     0.037 A 
BRANCH  53  67
ATOM     67  C   UNL     1      -1.198   7.979  10.127  1.00  0.00     0.057 A 
ATOM     68  C   UNL     1      -2.222   8.548   9.360  1.00  0.00     0.134 A 
ATOM     69  C   UNL     1      -0.420   8.841  10.912  1.00  0.00     0.134 A 
ATOM     70  F   UNL     1      -2.993   7.778   8.578  1.00  0.00    -0.206 F 
ATOM     71  C   UNL     1      -2.452   9.925   9.358  1.00  0.00     0.040 A 
ATOM     72  C   UNL     1      -0.655  10.216  10.936  1.00  0.00     0.040 A 
ATOM     73  F   UNL     1       0.573   8.358  11.673  1.00  0.00    -0.206 F 
ATOM     74  C   UNL     1      -1.670  10.762  10.153  1.00  0.00     0.006 A 
ENDBRANCH  53  67
BRANCH  54  75
ATOM     75  C   UNL     1       0.765  -1.771   9.909  1.00  0.00     0.057 A 
ATOM     76  C   UNL     1      -0.246  -2.738   9.927  1.00  0.00     0.134 A 
ATOM     77  C   UNL     1       2.090  -2.221   9.923  1.00  0.00     0.134 A 
ATOM     78  F   UNL     1      -1.535  -2.367   9.940  1.00  0.00    -0.206 F 
ATOM     79  C   UNL     1       0.048  -4.101   9.976  1.00  0.00     0.040 A 
ATOM     80  C   UNL     1       2.400  -3.581   9.948  1.00  0.00     0.040 A 
ATOM     81  F   UNL     1       3.104  -1.343   9.904  1.00  0.00    -0.206 F 
ATOM     82  C   UNL     1       1.376  -4.526   9.983  1.00  0.00     0.006 A 
ENDBRANCH  54  75
BRANCH  66  83
ATOM     83  C   UNL     1      -2.012   2.463  14.690  1.00  0.00     0.057 A 
ATOM     84  C   UNL     1      -1.158   2.228  15.775  1.00  0.00     0.134 A 
ATOM     85  C   UNL     1      -3.387   2.519  14.950  1.00  0.00     0.134 A 
ATOM     86  F   UNL     1       0.168   2.150  15.592  1.00  0.00    -0.206 F 
ATOM     87  C   UNL     1      -1.655   2.041  17.067  1.00  0.00     0.040 A 
ATOM     88  C   UNL     1      -3.895   2.357  16.240  1.00  0.00     0.040 A 
ATOM     89  F   UNL     1      -4.259   2.749  13.956  1.00  0.00    -0.206 F 
ATOM     90  C   UNL     1      -3.027   2.112  17.302  1.00  0.00     0.006 A 
ENDBRANCH  66  83
ENDBRANCH  40  41
ENDBRANCH  33  35
ENDBRANCH  32  33
ENDBRANCH  31  32
ENDBRANCH  30  31
ENDBRANCH  29  30
ENDBRANCH  28  29
ENDBRANCH   1  28
TORSDOF 20
