REMARK SMILES Cc1nn(C)c2c1nc(SCC(=O)OCCOCCOCCOC(=O)c1ccc(-c3c4nc(c(-c5c(F)cccc5F)c5ccc([nH]5)c(-c5c(F)cccc5F)c5nc(c(-c6c(F)cccc6F)c6ccc3[nH]6)C=C5)C=C4)cc1)n2[C@H]1CC[N@@H+](C)C1
REMARK SMILES IDX 18 1 17 2 16 3 15 4 14 5 12 6 13 7 11 8 10 9 9 10 1 11 2 12
REMARK SMILES IDX 3 13 7 14 4 15 6 16 8 17 5 18 80 19 81 20 82 21 86 22 83 23
REMARK SMILES IDX 84 24 85 25 19 27 20 28 21 29 22 30 23 31 24 32 25 33 26 34
REMARK SMILES IDX 27 35 79 36 28 37 78 38 29 39 30 40 31 41 72 42 32 43 77 44
REMARK SMILES IDX 71 45 73 46 33 47 76 48 70 49 69 50 34 52 60 53 43 54 59 55
REMARK SMILES IDX 44 56 47 57 58 58 74 59 45 60 46 61 57 63 75 64 48 65 35 66
REMARK SMILES IDX 36 67 41 68 37 69 38 70 40 71 42 72 39 73 61 74 62 75 67 76
REMARK SMILES IDX 63 77 64 78 66 79 68 80 65 81 49 82 50 83 55 84 51 85 52 86
REMARK SMILES IDX 54 87 56 88 53 89
REMARK H PARENT 84 26 73 51 47 62
REMARK Flexibility Score: inf
ROOT
ATOM      1  C   UNL     1       2.164   5.022   0.132  1.00  0.00     0.188 C 
ENDROOT
BRANCH   1   2
ATOM      2  O   UNL     1       3.115   4.544  -0.814  1.00  0.00    -0.376 OA
BRANCH   2   3
ATOM      3  C   UNL     1       3.346   3.145  -0.914  1.00  0.00     0.202 C 
BRANCH   3   4
ATOM      4  C   UNL     1       4.019   2.495   0.302  1.00  0.00     0.261 C 
BRANCH   4   5
ATOM      5  O   UNL     1       3.226   2.638   1.499  1.00  0.00    -0.463 OA
BRANCH   5   6
ATOM      6  C   UNL     1       3.801   3.208   2.592  1.00  0.00     0.316 C 
ATOM      7  O   UNL     1       5.008   3.402   2.700  1.00  0.00    -0.251 OA
BRANCH   6   8
ATOM      8  C   UNL     1       2.790   3.748   3.611  1.00  0.00     0.200 C 
BRANCH   8   9
ATOM      9  S   UNL     1       1.338   2.695   3.869  1.00  0.00    -0.076 SA
BRANCH   9  10
ATOM     10  C   UNL     1       0.008   3.785   4.237  1.00  0.00     0.171 A 
ATOM     11  C   UNL     1      -3.058   7.085   3.132  1.00  0.00     0.071 C 
ATOM     12  C   UNL     1      -2.418   6.341   4.228  1.00  0.00     0.087 A 
ATOM     13  N   UNL     1      -3.134   6.273   5.366  1.00  0.00    -0.174 NA
ATOM     14  C   UNL     1      -1.396   5.372   4.299  1.00  0.00     0.132 A 
ATOM     15  N   UNL     1      -3.072   4.948   5.616  1.00  0.00    -0.250 N 
ATOM     16  C   UNL     1      -1.846   4.470   5.214  1.00  0.00     0.159 A 
ATOM     17  N   UNL     1      -0.290   4.930   3.630  1.00  0.00    -0.219 NA
ATOM     18  C   UNL     1      -4.363   4.293   5.521  1.00  0.00     0.176 C 
ATOM     19  N   UNL     1      -0.992   3.408   5.143  1.00  0.00    -0.295 N 
BRANCH  19  20
ATOM     20  C   UNL     1      -1.022   2.153   5.881  1.00  0.00     0.152 C 
ATOM     21  C   UNL     1      -0.184   2.229   7.154  1.00  0.00     0.093 C 
ATOM     22  C   UNL     1      -2.388   1.672   6.382  1.00  0.00     0.288 C 
ATOM     23  C   UNL     1      -1.206   2.590   8.215  1.00  0.00     0.264 C 
ATOM     24  N   UNL     1      -2.367   1.776   7.845  1.00  0.00    -0.336 N 
ATOM     25  C   UNL     1      -3.596   2.289   8.430  1.00  0.00     0.332 C 
ATOM     26  H   UNL     1      -2.291   0.835   8.231  1.00  0.00     0.347 HD
ENDBRANCH  19  20
ENDBRANCH   9  10
ENDBRANCH   8   9
ENDBRANCH   6   8
ENDBRANCH   5   6
ENDBRANCH   4   5
ENDBRANCH   3   4
ENDBRANCH   2   3
ENDBRANCH   1   2
BRANCH   1  27
ATOM     27  C   UNL     1       0.976   4.143   0.549  1.00  0.00     0.188 C 
BRANCH  27  28
ATOM     28  O   UNL     1       0.493   3.303  -0.488  1.00  0.00    -0.376 OA
BRANCH  28  29
ATOM     29  C   UNL     1      -0.920   3.176  -0.511  1.00  0.00     0.202 C 
BRANCH  29  30
ATOM     30  C   UNL     1      -1.436   4.122  -1.594  1.00  0.00     0.261 C 
BRANCH  30  31
ATOM     31  O   UNL     1      -0.926   5.457  -1.442  1.00  0.00    -0.460 OA
BRANCH  31  32
ATOM     32  C   UNL     1      -1.352   6.051  -0.312  1.00  0.00     0.338 C 
ATOM     33  O   UNL     1      -2.143   5.589   0.493  1.00  0.00    -0.246 OA
BRANCH  32  34
ATOM     34  C   UNL     1      -0.787   7.408  -0.197  1.00  0.00     0.060 A 
ATOM     35  C   UNL     1      -0.480   7.853   1.096  1.00  0.00     0.016 A 
ATOM     36  C   UNL     1      -1.259   8.279  -1.173  1.00  0.00     0.016 A 
ATOM     37  C   UNL     1      -1.052   9.043   1.520  1.00  0.00     0.010 A 
ATOM     38  C   UNL     1      -1.829   9.460  -0.746  1.00  0.00     0.010 A 
ATOM     39  C   UNL     1      -1.883   9.724   0.628  1.00  0.00    -0.014 A 
BRANCH  39  40
ATOM     40  C   UNL     1      -2.915  10.627   1.157  1.00  0.00     0.031 A 
ATOM     41  C   UNL     1      -2.438  11.866   1.817  1.00  0.00     0.074 A 
ATOM     42  C   UNL     1      -4.226  10.409   0.887  1.00  0.00     0.049 A 
ATOM     43  N   UNL     1      -2.952  12.494   2.827  1.00  0.00    -0.248 NA
ATOM     44  C   UNL     1      -1.202  12.469   1.288  1.00  0.00     0.031 C 
ATOM     45  C   UNL     1      -4.787   9.296   0.108  1.00  0.00     0.029 A 
ATOM     46  N   UNL     1      -5.317  11.216   1.090  1.00  0.00    -0.354 N 
ATOM     47  C   UNL     1      -2.214  13.664   2.941  1.00  0.00     0.074 A 
ATOM     48  C   UNL     1      -1.091  13.556   2.044  1.00  0.00     0.031 C 
ATOM     49  C   UNL     1      -6.016   9.638  -0.329  1.00  0.00     0.029 A 
ATOM     50  C   UNL     1      -6.357  10.946   0.202  1.00  0.00     0.049 A 
ATOM     51  H   UNL     1      -5.361  11.910   1.787  1.00  0.00     0.167 HD
ATOM     52  C   UNL     1      -2.674  14.771   3.575  1.00  0.00     0.037 A 
ATOM     53  C   UNL     1      -7.366  11.770  -0.176  1.00  0.00     0.037 A 
ATOM     54  C   UNL     1      -3.690  14.515   4.546  1.00  0.00     0.049 A 
ATOM     55  C   UNL     1      -7.460  12.874   0.805  1.00  0.00     0.074 A 
ATOM     56  C   UNL     1      -3.759  13.764   5.702  1.00  0.00     0.029 A 
ATOM     57  N   UNL     1      -4.977  14.891   4.265  1.00  0.00    -0.354 N 
ATOM     58  N   UNL     1      -7.970  12.781   1.998  1.00  0.00    -0.248 NA
ATOM     59  C   UNL     1      -6.699  14.088   0.544  1.00  0.00     0.031 C 
ATOM     60  C   UNL     1      -5.123  13.382   5.835  1.00  0.00     0.029 A 
ATOM     61  C   UNL     1      -5.808  13.910   4.742  1.00  0.00     0.049 A 
ATOM     62  H   UNL     1      -5.255  15.715   3.804  1.00  0.00     0.167 HD
ATOM     63  C   UNL     1      -7.254  13.694   2.752  1.00  0.00     0.074 A 
ATOM     64  C   UNL     1      -6.607  14.567   1.784  1.00  0.00     0.031 C 
ATOM     65  C   UNL     1      -7.012  13.475   4.076  1.00  0.00     0.037 A 
BRANCH  52  66
ATOM     66  C   UNL     1      -2.371  16.126   3.022  1.00  0.00     0.057 A 
ATOM     67  C   UNL     1      -2.301  17.251   3.846  1.00  0.00     0.134 A 
ATOM     68  C   UNL     1      -2.346  16.367   1.631  1.00  0.00     0.134 A 
ATOM     69  F   UNL     1      -2.389  17.130   5.178  1.00  0.00    -0.206 F 
ATOM     70  C   UNL     1      -2.183  18.541   3.316  1.00  0.00     0.040 A 
ATOM     71  C   UNL     1      -2.182  17.640   1.092  1.00  0.00     0.040 A 
ATOM     72  F   UNL     1      -2.547  15.377   0.747  1.00  0.00    -0.206 F 
ATOM     73  C   UNL     1      -2.110  18.737   1.938  1.00  0.00     0.006 A 
ENDBRANCH  52  66
BRANCH  53  74
ATOM     74  C   UNL     1      -8.136  11.807  -1.448  1.00  0.00     0.057 A 
ATOM     75  C   UNL     1      -9.325  12.548  -1.548  1.00  0.00     0.134 A 
ATOM     76  C   UNL     1      -7.621  11.321  -2.663  1.00  0.00     0.134 A 
ATOM     77  F   UNL     1      -9.881  13.100  -0.460  1.00  0.00    -0.206 F 
ATOM     78  C   UNL     1      -9.952  12.801  -2.775  1.00  0.00     0.040 A 
ATOM     79  C   UNL     1      -8.250  11.546  -3.893  1.00  0.00     0.040 A 
ATOM     80  F   UNL     1      -6.443  10.684  -2.721  1.00  0.00    -0.206 F 
ATOM     81  C   UNL     1      -9.413  12.301  -3.955  1.00  0.00     0.006 A 
ENDBRANCH  53  74
BRANCH  65  82
ATOM     82  C   UNL     1      -7.872  12.472   4.787  1.00  0.00     0.057 A 
ATOM     83  C   UNL     1      -7.928  11.110   4.459  1.00  0.00     0.134 A 
ATOM     84  C   UNL     1      -8.586  12.884   5.919  1.00  0.00     0.134 A 
ATOM     85  F   UNL     1      -7.197  10.606   3.455  1.00  0.00    -0.206 F 
ATOM     86  C   UNL     1      -8.709  10.212   5.193  1.00  0.00     0.040 A 
ATOM     87  C   UNL     1      -9.342  11.990   6.681  1.00  0.00     0.040 A 
ATOM     88  F   UNL     1      -8.533  14.163   6.326  1.00  0.00    -0.206 F 
ATOM     89  C   UNL     1      -9.416  10.650   6.309  1.00  0.00     0.006 A 
ENDBRANCH  65  82
ENDBRANCH  39  40
ENDBRANCH  32  34
ENDBRANCH  31  32
ENDBRANCH  30  31
ENDBRANCH  29  30
ENDBRANCH  28  29
ENDBRANCH  27  28
ENDBRANCH   1  27
TORSDOF 20
