REMARK SMILES Cc1c(C[NH2+]Cc2cccc(F)c2)c(C(=O)OCCOCCOCCOC(=O)c2ccc(-c3c4nc(c(-c5c(F)cccc5F)c5ccc([nH]5)c(-c5c(F)cccc5F)c5nc(c(-c6c(F)cccc6F)c6ccc3[nH]6)C=C5)C=C4)cc2)c(C)n1Cc1c(F)cccc1Cl
REMARK SMILES IDX 21 1 20 2 19 3 18 4 17 5 15 6 16 7 14 8 1 9 2 10 3 11 85 12
REMARK SMILES IDX 83 13 84 14 4 15 5 16 6 19 7 20 8 21 13 22 9 23 11 24 10 25
REMARK SMILES IDX 12 26 86 27 87 28 88 29 93 30 89 31 90 32 92 33 94 34 91 35
REMARK SMILES IDX 22 36 23 37 24 38 25 39 26 40 27 41 28 42 29 43 30 44 82 45
REMARK SMILES IDX 31 46 81 47 32 48 33 49 34 50 75 51 35 52 80 53 74 54 76 55
REMARK SMILES IDX 36 56 79 57 73 58 72 59 37 61 63 62 46 63 62 64 47 65 50 66
REMARK SMILES IDX 61 67 77 68 48 69 49 70 60 72 78 73 51 74 38 75 39 76 44 77
REMARK SMILES IDX 40 78 41 79 43 80 45 81 42 82 64 83 65 84 70 85 66 86 67 87
REMARK SMILES IDX 69 88 71 89 68 90 52 91 53 92 58 93 54 94 55 95 57 96 59 97
REMARK SMILES IDX 56 98
REMARK H PARENT 5 17 5 18 76 60 50 71
REMARK Flexibility Score: inf
ROOT
ATOM      1  C   UNL     1       0.063  -6.692  -0.778  1.00  0.00     0.188 C 
ENDROOT
BRANCH   1   2
ATOM      2  O   UNL     1      -0.004  -7.990  -0.236  1.00  0.00    -0.376 OA
BRANCH   2   3
ATOM      3  C   UNL     1       0.048  -8.264   1.156  1.00  0.00     0.202 C 
BRANCH   3   4
ATOM      4  C   UNL     1       0.187  -7.251   2.301  1.00  0.00     0.261 C 
BRANCH   4   5
ATOM      5  O   UNL     1      -0.035  -5.893   1.971  1.00  0.00    -0.460 OA
BRANCH   5   6
ATOM      6  C   UNL     1       1.079  -5.112   1.909  1.00  0.00     0.340 C 
ATOM      7  O   UNL     1       2.233  -5.514   2.082  1.00  0.00    -0.246 OA
BRANCH   6   8
ATOM      8  C   UNL     1       0.720  -3.736   1.619  1.00  0.00     0.089 A 
ATOM      9  C   UNL     1       0.804  -0.409  -0.024  1.00  0.00     0.065 C 
ATOM     10  C   UNL     1       0.537  -1.659   0.749  1.00  0.00     0.025 A 
ATOM     11  C   UNL     1       1.108  -2.915   0.521  1.00  0.00     0.042 A 
ATOM     12  N   UNL     1      -0.348  -1.765   1.821  1.00  0.00    -0.343 N 
ATOM     13  C   UNL     1      -0.137  -2.996   2.422  1.00  0.00     0.030 A 
ATOM     14  C   UNL     1      -0.742  -3.465   3.702  1.00  0.00     0.065 C 
BRANCH  11  15
ATOM     15  C   UNL     1       1.947  -3.333  -0.664  1.00  0.00     0.300 C 
BRANCH  15  16
ATOM     16  N   UNL     1       3.224  -3.854  -0.207  1.00  0.00    -0.339 N 
ATOM     17  H   UNL     1       3.048  -4.715   0.312  1.00  0.00     0.346 HD
ATOM     18  H   UNL     1       3.647  -3.123   0.364  1.00  0.00     0.346 HD
BRANCH  16  19
ATOM     19  C   UNL     1       4.175  -4.151  -1.274  1.00  0.00     0.297 C 
BRANCH  19  20
ATOM     20  C   UNL     1       4.726  -2.962  -2.039  1.00  0.00     0.009 A 
ATOM     21  C   UNL     1       4.593  -1.635  -1.597  1.00  0.00     0.010 A 
ATOM     22  C   UNL     1       5.411  -3.191  -3.243  1.00  0.00     0.048 A 
ATOM     23  C   UNL     1       5.034  -0.565  -2.379  1.00  0.00     0.004 A 
ATOM     24  C   UNL     1       5.873  -2.118  -4.003  1.00  0.00     0.123 A 
ATOM     25  C   UNL     1       5.670  -0.807  -3.592  1.00  0.00     0.039 A 
ATOM     26  F   UNL     1       6.513  -2.354  -5.155  1.00  0.00    -0.207 F 
ENDBRANCH  19  20
ENDBRANCH  16  19
ENDBRANCH  15  16
ENDBRANCH  11  15
BRANCH  12  27
ATOM     27  C   UNL     1      -1.217  -0.698   2.361  1.00  0.00     0.162 C 
BRANCH  27  28
ATOM     28  C   UNL     1      -2.679  -0.768   1.962  1.00  0.00     0.026 A 
ATOM     29  C   UNL     1      -3.538  -1.704   2.559  1.00  0.00     0.129 A 
ATOM     30  C   UNL     1      -3.290   0.143   1.084  1.00  0.00     0.048 A 
ATOM     31  F   UNL     1      -3.112  -2.470   3.564  1.00  0.00    -0.207 F 
ATOM     32  C   UNL     1      -4.891  -1.819   2.237  1.00  0.00     0.040 A 
ATOM     33  C   UNL     1      -4.666   0.068   0.790  1.00  0.00     0.021 A 
ATOM     34  Cl  UNL     1      -2.429   1.464   0.377  1.00  0.00    -0.084 Cl
ATOM     35  C   UNL     1      -5.462  -0.930   1.345  1.00  0.00     0.005 A 
ENDBRANCH  27  28
ENDBRANCH  12  27
ENDBRANCH   6   8
ENDBRANCH   5   6
ENDBRANCH   4   5
ENDBRANCH   3   4
ENDBRANCH   2   3
ENDBRANCH   1   2
BRANCH   1  36
ATOM     36  C   UNL     1      -1.259  -5.944  -1.021  1.00  0.00     0.188 C 
BRANCH  36  37
ATOM     37  O   UNL     1      -2.458  -6.530  -0.557  1.00  0.00    -0.376 OA
BRANCH  37  38
ATOM     38  C   UNL     1      -2.759  -7.864  -0.965  1.00  0.00     0.202 C 
BRANCH  38  39
ATOM     39  C   UNL     1      -2.872  -8.248  -2.482  1.00  0.00     0.261 C 
BRANCH  39  40
ATOM     40  O   UNL     1      -1.732  -8.738  -3.307  1.00  0.00    -0.460 OA
BRANCH  40  41
ATOM     41  C   UNL     1      -1.618  -8.225  -4.594  1.00  0.00     0.338 C 
ATOM     42  O   UNL     1      -2.058  -7.116  -4.883  1.00  0.00    -0.246 OA
BRANCH  41  43
ATOM     43  C   UNL     1      -0.916  -9.078  -5.710  1.00  0.00     0.060 A 
ATOM     44  C   UNL     1       0.311  -8.683  -6.229  1.00  0.00     0.016 A 
ATOM     45  C   UNL     1      -1.545 -10.054  -6.527  1.00  0.00     0.016 A 
ATOM     46  C   UNL     1       0.891  -9.293  -7.431  1.00  0.00     0.010 A 
ATOM     47  C   UNL     1      -0.969 -10.632  -7.802  1.00  0.00     0.010 A 
ATOM     48  C   UNL     1       0.293 -10.281  -8.323  1.00  0.00    -0.014 A 
BRANCH  48  49
ATOM     49  C   UNL     1       0.983 -10.492  -9.890  1.00  0.00     0.031 A 
ATOM     50  C   UNL     1       1.469  -9.107 -10.146  1.00  0.00     0.074 A 
ATOM     51  C   UNL     1       1.155 -11.317 -11.049  1.00  0.00     0.049 A 
ATOM     52  N   UNL     1       0.602  -8.134 -10.083  1.00  0.00    -0.248 NA
ATOM     53  C   UNL     1       2.866  -8.680 -10.064  1.00  0.00     0.031 C 
ATOM     54  C   UNL     1       0.572 -12.649 -11.336  1.00  0.00     0.029 A 
ATOM     55  N   UNL     1       1.897 -11.164 -12.315  1.00  0.00    -0.354 N 
ATOM     56  C   UNL     1       1.300  -6.976 -10.288  1.00  0.00     0.074 A 
ATOM     57  C   UNL     1       2.688  -7.351 -10.036  1.00  0.00     0.031 C 
ATOM     58  C   UNL     1       1.058 -13.221 -12.487  1.00  0.00     0.029 A 
ATOM     59  C   UNL     1       1.991 -12.341 -13.202  1.00  0.00     0.049 A 
ATOM     60  H   UNL     1       2.314 -10.307 -12.560  1.00  0.00     0.167 HD
ATOM     61  C   UNL     1       0.786  -6.188 -11.275  1.00  0.00     0.037 A 
ATOM     62  C   UNL     1       2.641 -12.577 -14.444  1.00  0.00     0.037 A 
ATOM     63  C   UNL     1       1.498  -6.362 -12.512  1.00  0.00     0.049 A 
ATOM     64  C   UNL     1       2.629 -11.286 -15.136  1.00  0.00     0.074 A 
ATOM     65  C   UNL     1       2.835  -6.519 -12.816  1.00  0.00     0.029 A 
ATOM     66  N   UNL     1       0.788  -6.884 -13.569  1.00  0.00    -0.354 N 
ATOM     67  N   UNL     1       1.550 -10.834 -15.697  1.00  0.00    -0.248 NA
ATOM     68  C   UNL     1       3.842 -10.516 -15.391  1.00  0.00     0.031 C 
ATOM     69  C   UNL     1       2.855  -7.602 -13.717  1.00  0.00     0.029 A 
ATOM     70  C   UNL     1       1.586  -7.760 -14.260  1.00  0.00     0.049 A 
ATOM     71  H   UNL     1      -0.145  -6.664 -13.793  1.00  0.00     0.167 HD
ATOM     72  C   UNL     1       1.825  -9.514 -15.834  1.00  0.00     0.074 A 
ATOM     73  C   UNL     1       3.275  -9.429 -15.918  1.00  0.00     0.031 C 
ATOM     74  C   UNL     1       0.974  -8.695 -15.172  1.00  0.00     0.037 A 
BRANCH  61  75
ATOM     75  C   UNL     1      -0.713  -6.028 -11.199  1.00  0.00     0.057 A 
ATOM     76  C   UNL     1      -1.623  -7.090 -11.390  1.00  0.00     0.134 A 
ATOM     77  C   UNL     1      -1.252  -4.799 -10.822  1.00  0.00     0.134 A 
ATOM     78  F   UNL     1      -1.218  -8.272 -11.884  1.00  0.00    -0.206 F 
ATOM     79  C   UNL     1      -2.980  -6.967 -11.096  1.00  0.00     0.040 A 
ATOM     80  C   UNL     1      -2.622  -4.647 -10.584  1.00  0.00     0.040 A 
ATOM     81  F   UNL     1      -0.459  -3.727 -10.680  1.00  0.00    -0.206 F 
ATOM     82  C   UNL     1      -3.483  -5.740 -10.685  1.00  0.00     0.006 A 
ENDBRANCH  61  75
BRANCH  62  83
ATOM     83  C   UNL     1       3.153 -13.635 -15.545  1.00  0.00     0.057 A 
ATOM     84  C   UNL     1       3.961 -14.739 -15.236  1.00  0.00     0.134 A 
ATOM     85  C   UNL     1       3.238 -13.304 -16.957  1.00  0.00     0.134 A 
ATOM     86  F   UNL     1       4.009 -15.203 -13.982  1.00  0.00    -0.206 F 
ATOM     87  C   UNL     1       4.824 -15.376 -16.188  1.00  0.00     0.040 A 
ATOM     88  C   UNL     1       4.118 -13.902 -17.895  1.00  0.00     0.040 A 
ATOM     89  F   UNL     1       2.505 -12.322 -17.499  1.00  0.00    -0.206 F 
ATOM     90  C   UNL     1       4.942 -14.934 -17.505  1.00  0.00     0.006 A 
ENDBRANCH  62  83
BRANCH  74  91
ATOM     91  C   UNL     1      -0.517  -8.977 -15.292  1.00  0.00     0.057 A 
ATOM     92  C   UNL     1      -1.335  -7.907 -15.678  1.00  0.00     0.134 A 
ATOM     93  C   UNL     1      -1.188 -10.209 -15.109  1.00  0.00     0.134 A 
ATOM     94  F   UNL     1      -0.803  -6.689 -15.863  1.00  0.00    -0.206 F 
ATOM     95  C   UNL     1      -2.715  -8.032 -15.865  1.00  0.00     0.040 A 
ATOM     96  C   UNL     1      -2.563 -10.359 -15.348  1.00  0.00     0.040 A 
ATOM     97  F   UNL     1      -0.574 -11.315 -14.668  1.00  0.00    -0.206 F 
ATOM     98  C   UNL     1      -3.333  -9.266 -15.718  1.00  0.00     0.006 A 
ENDBRANCH  74  91
ENDBRANCH  48  49
ENDBRANCH  41  43
ENDBRANCH  40  41
ENDBRANCH  39  40
ENDBRANCH  38  39
ENDBRANCH  37  38
ENDBRANCH  36  37
ENDBRANCH   1  36
TORSDOF 23
