REMARK SMILES Cc1ccccc1CSCC(=O)Nc1ccc(C)c(C(=O)OCCOCCOCCOC(=O)c2ccc(-c3c4nc(c(-c5c(F)cccc5F)c5ccc([nH]5)c(-c5c(F)cccc5F)c5nc(c(-c6c(F)cccc6F)c6ccc3[nH]6)C=C5)C=C4)cc2)c1
REMARK SMILES IDX 25 1 24 2 23 3 22 4 20 5 21 6 19 7 14 8 15 9 88 10 16 11
REMARK SMILES IDX 17 12 18 13 13 14 11 15 12 16 10 18 9 19 8 20 7 21 1 22 2 23
REMARK SMILES IDX 3 24 4 25 6 26 5 27 26 28 27 29 28 30 29 31 30 32 31 33
REMARK SMILES IDX 32 34 33 35 34 36 35 37 87 38 36 39 86 40 37 41 38 42 39 43
REMARK SMILES IDX 80 44 40 45 85 46 79 47 81 48 41 49 84 50 78 51 77 52 42 54
REMARK SMILES IDX 68 55 51 56 67 57 52 58 55 59 66 60 82 61 53 62 54 63 65 65
REMARK SMILES IDX 83 66 56 67 43 68 44 69 49 70 45 71 46 72 48 73 50 74 47 75
REMARK SMILES IDX 69 76 70 77 75 78 71 79 72 80 74 81 76 82 73 83 57 84 58 85
REMARK SMILES IDX 63 86 59 87 60 88 62 89 64 90 61 91
REMARK H PARENT 13 17 81 53 55 64
REMARK Flexibility Score: inf
ROOT
ATOM      1  O   UNL     1       5.446  10.692  -6.637  1.00  0.00    -0.376 OA
ENDROOT
BRANCH   1   2
ATOM      2  C   UNL     1       4.361  11.388  -6.007  1.00  0.00     0.202 C 
BRANCH   2   3
ATOM      3  C   UNL     1       2.943  10.723  -5.782  1.00  0.00     0.261 C 
BRANCH   3   4
ATOM      4  O   UNL     1       2.793   9.674  -4.749  1.00  0.00    -0.460 OA
BRANCH   4   5
ATOM      5  C   UNL     1       1.687   9.410  -3.954  1.00  0.00     0.338 C 
ATOM      6  O   UNL     1       0.689  10.116  -4.033  1.00  0.00    -0.246 OA
BRANCH   5   7
ATOM      7  C   UNL     1       1.748   8.183  -2.842  1.00  0.00     0.065 A 
ATOM      8  C   UNL     1       2.116   5.734  -2.115  1.00  0.00     0.042 A 
ATOM      9  C   UNL     1       1.677   6.024  -0.856  1.00  0.00     0.026 A 
ATOM     10  C   UNL     1       2.170   6.820  -3.011  1.00  0.00     0.042 A 
ATOM     11  C   UNL     1       1.293   7.349  -0.576  1.00  0.00     0.006 A 
ATOM     12  C   UNL     1       1.314   8.414  -1.541  1.00  0.00    -0.036 A 
ATOM     13  C   UNL     1       1.007   9.796  -1.060  1.00  0.00     0.045 C 
BRANCH   8  14
ATOM     14  N   UNL     1       2.723   4.507  -2.490  1.00  0.00    -0.325 N 
ATOM     15  C   UNL     1       2.270   3.214  -2.571  1.00  0.00     0.234 C 
ATOM     16  O   UNL     1       3.115   2.320  -2.717  1.00  0.00    -0.274 OA
ATOM     17  H   UNL     1       3.669   4.604  -2.745  1.00  0.00     0.169 HD
BRANCH  15  18
ATOM     18  C   UNL     1       0.798   2.869  -2.712  1.00  0.00     0.170 C 
BRANCH  18  19
ATOM     19  S   UNL     1      -0.242   3.386  -1.339  1.00  0.00    -0.147 SA
BRANCH  19  20
ATOM     20  C   UNL     1       0.541   2.424   0.004  1.00  0.00     0.105 C 
BRANCH  20  21
ATOM     21  C   UNL     1       0.030   1.005   0.073  1.00  0.00    -0.035 A 
ATOM     22  C   UNL     1       2.359  -0.113  -0.043  1.00  0.00     0.044 C 
ATOM     23  C   UNL     1       0.855  -0.138   0.038  1.00  0.00    -0.047 A 
ATOM     24  C   UNL     1       0.252  -1.412   0.074  1.00  0.00     0.004 A 
ATOM     25  C   UNL     1      -1.131  -1.561   0.170  1.00  0.00     0.000 A 
ATOM     26  C   UNL     1      -1.365   0.827   0.211  1.00  0.00     0.005 A 
ATOM     27  C   UNL     1      -1.941  -0.439   0.249  1.00  0.00     0.000 A 
ENDBRANCH  20  21
ENDBRANCH  19  20
ENDBRANCH  18  19
ENDBRANCH  15  18
ENDBRANCH   8  14
ENDBRANCH   5   7
ENDBRANCH   4   5
ENDBRANCH   3   4
ENDBRANCH   2   3
ENDBRANCH   1   2
BRANCH   1  28
ATOM     28  C   UNL     1       6.339   9.934  -5.835  1.00  0.00     0.188 C 
BRANCH  28  29
ATOM     29  C   UNL     1       7.122  10.588  -4.705  1.00  0.00     0.188 C 
BRANCH  29  30
ATOM     30  O   UNL     1       6.240  10.989  -3.666  1.00  0.00    -0.376 OA
BRANCH  30  31
ATOM     31  C   UNL     1       6.867  11.709  -2.609  1.00  0.00     0.202 C 
BRANCH  31  32
ATOM     32  C   UNL     1       7.930  10.903  -1.829  1.00  0.00     0.261 C 
BRANCH  32  33
ATOM     33  O   UNL     1       7.335   9.727  -1.224  1.00  0.00    -0.460 OA
BRANCH  33  34
ATOM     34  C   UNL     1       7.712   8.494  -1.704  1.00  0.00     0.338 C 
ATOM     35  O   UNL     1       8.853   8.135  -1.890  1.00  0.00    -0.246 OA
BRANCH  34  36
ATOM     36  C   UNL     1       6.501   7.768  -2.236  1.00  0.00     0.060 A 
ATOM     37  C   UNL     1       6.532   6.609  -3.025  1.00  0.00     0.016 A 
ATOM     38  C   UNL     1       5.358   8.496  -2.292  1.00  0.00     0.016 A 
ATOM     39  C   UNL     1       5.521   6.349  -4.034  1.00  0.00     0.010 A 
ATOM     40  C   UNL     1       4.580   8.350  -3.436  1.00  0.00     0.010 A 
ATOM     41  C   UNL     1       4.555   7.295  -4.386  1.00  0.00    -0.014 A 
BRANCH  41  42
ATOM     42  C   UNL     1       3.637   7.282  -5.738  1.00  0.00     0.031 A 
ATOM     43  C   UNL     1       2.030   7.389  -5.990  1.00  0.00     0.074 A 
ATOM     44  C   UNL     1       4.320   7.502  -6.880  1.00  0.00     0.049 A 
ATOM     45  N   UNL     1       1.474   8.323  -6.724  1.00  0.00    -0.248 NA
ATOM     46  C   UNL     1       0.931   6.533  -5.435  1.00  0.00     0.031 C 
ATOM     47  C   UNL     1       3.840   7.981  -8.171  1.00  0.00     0.029 A 
ATOM     48  N   UNL     1       5.624   7.096  -7.151  1.00  0.00    -0.354 N 
ATOM     49  C   UNL     1       0.096   8.313  -6.588  1.00  0.00     0.074 A 
ATOM     50  C   UNL     1      -0.188   7.239  -5.665  1.00  0.00     0.031 C 
ATOM     51  C   UNL     1       4.661   7.538  -9.132  1.00  0.00     0.029 A 
ATOM     52  C   UNL     1       5.604   6.650  -8.492  1.00  0.00     0.049 A 
ATOM     53  H   UNL     1       6.395   7.117  -6.540  1.00  0.00     0.167 HD
ATOM     54  C   UNL     1      -0.750   8.648  -7.605  1.00  0.00     0.037 A 
ATOM     55  C   UNL     1       5.739   5.310  -8.702  1.00  0.00     0.037 A 
ATOM     56  C   UNL     1      -0.215   8.162  -8.855  1.00  0.00     0.049 A 
ATOM     57  C   UNL     1       4.428   4.678  -9.146  1.00  0.00     0.074 A 
ATOM     58  C   UNL     1       0.601   8.640  -9.856  1.00  0.00     0.029 A 
ATOM     59  N   UNL     1      -0.274   6.796  -9.023  1.00  0.00    -0.354 N 
ATOM     60  N   UNL     1       3.332   5.350  -9.400  1.00  0.00    -0.248 NA
ATOM     61  C   UNL     1       4.223   3.241  -9.306  1.00  0.00     0.031 C 
ATOM     62  C   UNL     1       1.214   7.492 -10.465  1.00  0.00     0.029 A 
ATOM     63  C   UNL     1       0.719   6.341  -9.863  1.00  0.00     0.049 A 
ATOM     64  H   UNL     1      -0.944   6.216  -8.596  1.00  0.00     0.167 HD
ATOM     65  C   UNL     1       2.301   4.497  -9.670  1.00  0.00     0.074 A 
ATOM     66  C   UNL     1       2.914   3.180  -9.611  1.00  0.00     0.031 C 
ATOM     67  C   UNL     1       1.014   4.908  -9.887  1.00  0.00     0.037 A 
BRANCH  54  68
ATOM     68  C   UNL     1      -2.115   9.268  -7.413  1.00  0.00     0.057 A 
ATOM     69  C   UNL     1      -2.880   9.677  -8.524  1.00  0.00     0.134 A 
ATOM     70  C   UNL     1      -2.654   9.634  -6.163  1.00  0.00     0.134 A 
ATOM     71  F   UNL     1      -2.490   9.395  -9.776  1.00  0.00    -0.206 F 
ATOM     72  C   UNL     1      -4.064  10.426  -8.405  1.00  0.00     0.040 A 
ATOM     73  C   UNL     1      -3.844  10.374  -6.031  1.00  0.00     0.040 A 
ATOM     74  F   UNL     1      -2.045   9.301  -5.017  1.00  0.00    -0.206 F 
ATOM     75  C   UNL     1      -4.546  10.788  -7.155  1.00  0.00     0.006 A 
ENDBRANCH  54  68
BRANCH  55  76
ATOM     76  C   UNL     1       6.826   4.789  -7.800  1.00  0.00     0.057 A 
ATOM     77  C   UNL     1       8.066   5.480  -7.862  1.00  0.00     0.134 A 
ATOM     78  C   UNL     1       6.587   4.067  -6.629  1.00  0.00     0.134 A 
ATOM     79  F   UNL     1       8.376   6.200  -8.953  1.00  0.00    -0.206 F 
ATOM     80  C   UNL     1       8.901   5.629  -6.751  1.00  0.00     0.040 A 
ATOM     81  C   UNL     1       7.476   4.134  -5.536  1.00  0.00     0.040 A 
ATOM     82  F   UNL     1       5.418   3.438  -6.438  1.00  0.00    -0.206 F 
ATOM     83  C   UNL     1       8.589   4.977  -5.569  1.00  0.00     0.006 A 
ENDBRANCH  55  76
BRANCH  67  84
ATOM     84  C   UNL     1      -0.082   3.906 -10.121  1.00  0.00     0.057 A 
ATOM     85  C   UNL     1       0.011   2.956 -11.145  1.00  0.00     0.134 A 
ATOM     86  C   UNL     1      -1.291   3.915  -9.399  1.00  0.00     0.134 A 
ATOM     87  F   UNL     1       1.113   2.876 -11.905  1.00  0.00    -0.206 F 
ATOM     88  C   UNL     1      -1.024   2.056 -11.418  1.00  0.00     0.040 A 
ATOM     89  C   UNL     1      -2.359   3.071  -9.708  1.00  0.00     0.040 A 
ATOM     90  F   UNL     1      -1.474   4.731  -8.349  1.00  0.00    -0.206 F 
ATOM     91  C   UNL     1      -2.222   2.126 -10.713  1.00  0.00     0.006 A 
ENDBRANCH  67  84
ENDBRANCH  41  42
ENDBRANCH  34  36
ENDBRANCH  33  34
ENDBRANCH  32  33
ENDBRANCH  31  32
ENDBRANCH  30  31
ENDBRANCH  29  30
ENDBRANCH  28  29
ENDBRANCH   1  28
TORSDOF 22
