REMARK SMILES O=C(OCCOCCOCCOC(=O)[C@H]1Cc2c([nH]c3ccccc23)[C@H](c2c[nH]c3ccccc23)[NH2+]1)c1ccc(-c2c3nc(c(-c4c(F)cccc4F)c4ccc([nH]4)c(-c4c(F)cccc4F)c4nc(c(-c5c(F)cccc5F)c5ccc2[nH]5)C=C4)C=C3)cc1
REMARK SMILES IDX 7 1 6 2 5 3 4 4 3 5 2 6 1 7 37 8 38 9 90 10 39 11 89 12
REMARK SMILES IDX 40 13 41 14 42 15 83 16 43 17 88 18 82 19 84 20 44 21 87 22
REMARK SMILES IDX 81 23 80 24 45 26 71 27 54 28 70 29 55 30 58 31 69 32 85 33
REMARK SMILES IDX 56 34 57 35 68 37 86 38 59 39 46 40 47 41 52 42 48 43 49 44
REMARK SMILES IDX 51 45 53 46 50 47 72 48 73 49 78 50 74 51 75 52 77 53 79 54
REMARK SMILES IDX 76 55 60 56 61 57 66 58 62 59 63 60 65 61 67 62 64 63 8 64
REMARK SMILES IDX 9 65 10 66 11 67 12 68 13 69 14 70 15 71 16 72 36 73 17 74
REMARK SMILES IDX 26 75 18 78 25 79 19 80 20 81 24 82 21 84 23 85 22 86 27 87
REMARK SMILES IDX 28 88 35 89 29 90 30 91 34 92 31 94 33 95 32 96
REMARK H PARENT 84 25 58 36 36 76 36 77 19 83 29 93
REMARK Flexibility Score: inf
ROOT
ATOM      1  C   UNL     1       2.637  -1.859  -0.544  1.00  0.00     0.188 C 
ENDROOT
BRANCH   1   2
ATOM      2  O   UNL     1       3.978  -1.428  -0.796  1.00  0.00    -0.376 OA
BRANCH   2   3
ATOM      3  C   UNL     1       4.868  -1.554   0.319  1.00  0.00     0.202 C 
BRANCH   3   4
ATOM      4  C   UNL     1       4.696  -0.498   1.418  1.00  0.00     0.261 C 
BRANCH   4   5
ATOM      5  O   UNL     1       3.352  -0.020   1.527  1.00  0.00    -0.460 OA
BRANCH   5   6
ATOM      6  C   UNL     1       2.813   1.045   0.883  1.00  0.00     0.338 C 
ATOM      7  O   UNL     1       1.643   1.334   1.108  1.00  0.00    -0.246 OA
BRANCH   6   8
ATOM      8  C   UNL     1       3.571   1.902  -0.082  1.00  0.00     0.060 A 
ATOM      9  C   UNL     1       4.620   1.504  -0.922  1.00  0.00     0.016 A 
ATOM     10  C   UNL     1       3.115   3.213  -0.202  1.00  0.00     0.016 A 
ATOM     11  C   UNL     1       5.231   2.373  -1.831  1.00  0.00     0.010 A 
ATOM     12  C   UNL     1       3.701   4.074  -1.128  1.00  0.00     0.010 A 
ATOM     13  C   UNL     1       4.766   3.667  -1.960  1.00  0.00    -0.014 A 
BRANCH  13  14
ATOM     14  C   UNL     1       5.459   4.691  -2.783  1.00  0.00     0.031 A 
ATOM     15  C   UNL     1       5.938   5.892  -2.026  1.00  0.00     0.074 A 
ATOM     16  C   UNL     1       5.631   4.609  -4.118  1.00  0.00     0.049 A 
ATOM     17  N   UNL     1       6.235   7.088  -2.444  1.00  0.00    -0.248 NA
ATOM     18  C   UNL     1       6.067   5.710  -0.565  1.00  0.00     0.031 C 
ATOM     19  C   UNL     1       5.414   3.432  -4.954  1.00  0.00     0.029 A 
ATOM     20  N   UNL     1       5.975   5.584  -5.030  1.00  0.00    -0.354 N 
ATOM     21  C   UNL     1       6.566   7.794  -1.297  1.00  0.00     0.074 A 
ATOM     22  C   UNL     1       6.299   6.945  -0.163  1.00  0.00     0.031 C 
ATOM     23  C   UNL     1       5.502   3.774  -6.252  1.00  0.00     0.029 A 
ATOM     24  C   UNL     1       5.751   5.201  -6.339  1.00  0.00     0.049 A 
ATOM     25  H   UNL     1       6.341   6.461  -4.776  1.00  0.00     0.167 HD
ATOM     26  C   UNL     1       7.121   9.022  -1.210  1.00  0.00     0.037 A 
ATOM     27  C   UNL     1       5.696   5.943  -7.464  1.00  0.00     0.037 A 
ATOM     28  C   UNL     1       7.414   9.812  -2.369  1.00  0.00     0.049 A 
ATOM     29  C   UNL     1       6.081   7.389  -7.343  1.00  0.00     0.074 A 
ATOM     30  C   UNL     1       8.014  11.051  -2.448  1.00  0.00     0.029 A 
ATOM     31  N   UNL     1       7.119   9.414  -3.669  1.00  0.00    -0.354 N 
ATOM     32  N   UNL     1       6.378   8.074  -6.264  1.00  0.00    -0.248 NA
ATOM     33  C   UNL     1       6.199   8.145  -8.594  1.00  0.00     0.031 C 
ATOM     34  C   UNL     1       8.035  11.426  -3.796  1.00  0.00     0.029 A 
ATOM     35  C   UNL     1       7.502  10.396  -4.560  1.00  0.00     0.049 A 
ATOM     36  H   UNL     1       6.698   8.559  -3.917  1.00  0.00     0.167 HD
ATOM     37  C   UNL     1       6.825   9.307  -6.709  1.00  0.00     0.074 A 
ATOM     38  C   UNL     1       6.685   9.299  -8.154  1.00  0.00     0.031 C 
ATOM     39  C   UNL     1       7.362  10.328  -5.995  1.00  0.00     0.037 A 
BRANCH  26  40
ATOM     40  C   UNL     1       7.421   9.525   0.172  1.00  0.00     0.057 A 
ATOM     41  C   UNL     1       8.362   8.895   1.005  1.00  0.00     0.134 A 
ATOM     42  C   UNL     1       6.683  10.579   0.720  1.00  0.00     0.134 A 
ATOM     43  F   UNL     1       9.084   7.857   0.553  1.00  0.00    -0.206 F 
ATOM     44  C   UNL     1       8.505   9.249   2.347  1.00  0.00     0.040 A 
ATOM     45  C   UNL     1       6.846  10.967   2.052  1.00  0.00     0.040 A 
ATOM     46  F   UNL     1       5.766  11.224  -0.015  1.00  0.00    -0.206 F 
ATOM     47  C   UNL     1       7.743  10.288   2.874  1.00  0.00     0.006 A 
ENDBRANCH  26  40
BRANCH  27  48
ATOM     48  C   UNL     1       5.330   5.355  -8.784  1.00  0.00     0.057 A 
ATOM     49  C   UNL     1       6.303   4.848  -9.650  1.00  0.00     0.134 A 
ATOM     50  C   UNL     1       4.008   5.319  -9.245  1.00  0.00     0.134 A 
ATOM     51  F   UNL     1       7.598   4.900  -9.309  1.00  0.00    -0.206 F 
ATOM     52  C   UNL     1       5.971   4.313 -10.902  1.00  0.00     0.040 A 
ATOM     53  C   UNL     1       3.656   4.770 -10.482  1.00  0.00     0.040 A 
ATOM     54  F   UNL     1       3.016   5.835  -8.514  1.00  0.00    -0.206 F 
ATOM     55  C   UNL     1       4.642   4.261 -11.317  1.00  0.00     0.006 A 
ENDBRANCH  27  48
BRANCH  39  56
ATOM     56  C   UNL     1       7.938  11.467  -6.772  1.00  0.00     0.057 A 
ATOM     57  C   UNL     1       7.137  12.438  -7.378  1.00  0.00     0.134 A 
ATOM     58  C   UNL     1       9.329  11.635  -6.823  1.00  0.00     0.134 A 
ATOM     59  F   UNL     1       5.801  12.317  -7.377  1.00  0.00    -0.206 F 
ATOM     60  C   UNL     1       7.702  13.544  -8.011  1.00  0.00     0.040 A 
ATOM     61  C   UNL     1       9.903  12.751  -7.425  1.00  0.00     0.040 A 
ATOM     62  F   UNL     1      10.145  10.735  -6.253  1.00  0.00    -0.206 F 
ATOM     63  C   UNL     1       9.087  13.710  -8.022  1.00  0.00     0.006 A 
ENDBRANCH  39  56
ENDBRANCH  13  14
ENDBRANCH   6   8
ENDBRANCH   5   6
ENDBRANCH   4   5
ENDBRANCH   3   4
ENDBRANCH   2   3
ENDBRANCH   1   2
BRANCH   1  64
ATOM     64  C   UNL     1       2.015  -2.574  -1.744  1.00  0.00     0.188 C 
BRANCH  64  65
ATOM     65  O   UNL     1       2.643  -3.771  -2.189  1.00  0.00    -0.376 OA
BRANCH  65  66
ATOM     66  C   UNL     1       4.054  -3.751  -2.356  1.00  0.00     0.202 C 
BRANCH  66  67
ATOM     67  C   UNL     1       4.668  -2.848  -3.445  1.00  0.00     0.261 C 
BRANCH  67  68
ATOM     68  O   UNL     1       4.055  -1.557  -3.663  1.00  0.00    -0.459 OA
BRANCH  68  69
ATOM     69  C   UNL     1       3.137  -1.568  -4.662  1.00  0.00     0.365 C 
ATOM     70  O   UNL     1       2.802  -2.598  -5.250  1.00  0.00    -0.245 OA
BRANCH  69  71
ATOM     71  C   UNL     1       2.625  -0.196  -5.146  1.00  0.00     0.298 C 
ATOM     72  C   UNL     1       2.644   1.026  -4.192  1.00  0.00     0.115 C 
ATOM     73  N   UNL     1       3.297   0.025  -6.464  1.00  0.00    -0.323 N 
ATOM     74  C   UNL     1       2.288   2.273  -4.972  1.00  0.00    -0.006 A 
ATOM     75  C   UNL     1       2.744   1.127  -7.245  1.00  0.00     0.264 C 
ATOM     76  H   UNL     1       3.211  -0.830  -7.013  1.00  0.00     0.347 HD
ATOM     77  H   UNL     1       4.266   0.270  -6.260  1.00  0.00     0.347 HD
ATOM     78  C   UNL     1       2.393   2.273  -6.352  1.00  0.00     0.083 A 
ATOM     79  C   UNL     1       1.940   3.612  -4.588  1.00  0.00     0.003 A 
ATOM     80  N   UNL     1       2.206   3.553  -6.795  1.00  0.00    -0.353 N 
ATOM     81  C   UNL     1       2.056   4.406  -5.732  1.00  0.00     0.046 A 
ATOM     82  C   UNL     1       1.618   4.274  -3.390  1.00  0.00     0.010 A 
ATOM     83  H   UNL     1       2.183   3.823  -7.742  1.00  0.00     0.166 HD
ATOM     84  C   UNL     1       2.041   5.809  -5.701  1.00  0.00     0.026 A 
ATOM     85  C   UNL     1       1.615   5.682  -3.339  1.00  0.00     0.001 A 
ATOM     86  C   UNL     1       1.875   6.437  -4.473  1.00  0.00     0.002 A 
BRANCH  75  87
ATOM     87  C   UNL     1       1.597   0.743  -8.160  1.00  0.00     0.041 A 
ATOM     88  C   UNL     1       1.271   1.493  -9.285  1.00  0.00     0.093 A 
ATOM     89  C   UNL     1       0.622  -0.327  -8.117  1.00  0.00     0.009 A 
ATOM     90  N   UNL     1       0.109   1.020  -9.818  1.00  0.00    -0.361 N 
ATOM     91  C   UNL     1      -0.329  -0.066  -9.107  1.00  0.00     0.046 A 
ATOM     92  C   UNL     1       0.405  -1.485  -7.339  1.00  0.00     0.011 A 
ATOM     93  H   UNL     1      -0.349   1.404 -10.600  1.00  0.00     0.166 HD
ATOM     94  C   UNL     1      -1.492  -0.831  -9.279  1.00  0.00     0.026 A 
ATOM     95  C   UNL     1      -0.751  -2.257  -7.480  1.00  0.00     0.001 A 
ATOM     96  C   UNL     1      -1.699  -1.920  -8.431  1.00  0.00     0.002 A 
ENDBRANCH  75  87
ENDBRANCH  69  71
ENDBRANCH  68  69
ENDBRANCH  67  68
ENDBRANCH  66  67
ENDBRANCH  65  66
ENDBRANCH  64  65
ENDBRANCH   1  64
TORSDOF 18
