REMARK SMILES C[C@H](C(=O)OCCOCCOCCOC(=O)c1ccc(-c2c3nc(c(-c4c(F)cccc4F)c4ccc([nH]4)c(-c4c(F)cccc4F)c4nc(c(-c5c(F)cccc5F)c5ccc2[nH]5)C=C4)C=C3)cc1)c1ccc(-c2ccccc2)c(F)c1
REMARK SMILES IDX 9 1 8 2 7 3 6 4 5 5 3 6 4 7 2 8 1 9 71 10 72 11 83 12 73 13
REMARK SMILES IDX 81 14 74 15 82 16 75 17 76 18 80 19 77 20 79 21 78 22 10 23
REMARK SMILES IDX 11 24 12 25 13 26 14 27 15 28 16 29 17 30 18 31 70 32 19 33
REMARK SMILES IDX 69 34 20 35 21 36 22 37 63 38 23 39 68 40 62 41 64 42 24 43
REMARK SMILES IDX 67 44 61 45 60 46 25 48 51 49 34 50 50 51 35 52 38 53 49 54
REMARK SMILES IDX 65 55 36 56 37 57 48 59 66 60 39 61 26 62 27 63 32 64 28 65
REMARK SMILES IDX 29 66 31 67 33 68 30 69 52 70 53 71 58 72 54 73 55 74 57 75
REMARK SMILES IDX 59 76 56 77 40 78 41 79 46 80 42 81 43 82 45 83 47 84 44 85
REMARK H PARENT 64 47 38 58
REMARK Flexibility Score: inf
ROOT
ATOM      1  C   UNL     1       2.489   0.032  -1.699  1.00  0.00     0.188 C 
ENDROOT
BRANCH   1   2
ATOM      2  O   UNL     1       3.174  -1.188  -1.525  1.00  0.00    -0.376 OA
BRANCH   2   3
ATOM      3  C   UNL     1       2.577  -2.244  -0.797  1.00  0.00     0.202 C 
BRANCH   3   4
ATOM      4  C   UNL     1       1.633  -2.017   0.393  1.00  0.00     0.261 C 
BRANCH   4   5
ATOM      5  O   UNL     1       0.898  -0.787   0.403  1.00  0.00    -0.463 OA
BRANCH   5   6
ATOM      6  C   UNL     1       1.174   0.091   1.402  1.00  0.00     0.313 C 
ATOM      7  O   UNL     1       2.055  -0.081   2.239  1.00  0.00    -0.252 OA
BRANCH   6   8
ATOM      8  C   UNL     1       0.369   1.388   1.328  1.00  0.00     0.126 C 
ATOM      9  C   UNL     1       1.158   2.437   0.526  1.00  0.00     0.025 C 
BRANCH   8  10
ATOM     10  C   UNL     1      -1.112   1.336   0.945  1.00  0.00    -0.031 A 
ATOM     11  C   UNL     1      -1.824   2.544   0.818  1.00  0.00     0.005 A 
ATOM     12  C   UNL     1      -1.849   0.150   0.839  1.00  0.00     0.044 A 
ATOM     13  C   UNL     1      -3.212   2.566   0.636  1.00  0.00     0.012 A 
ATOM     14  C   UNL     1      -3.236   0.178   0.653  1.00  0.00     0.131 A 
ATOM     15  C   UNL     1      -3.951   1.378   0.585  1.00  0.00     0.017 A 
ATOM     16  F   UNL     1      -3.882  -0.997   0.588  1.00  0.00    -0.206 F 
BRANCH  15  17
ATOM     17  C   UNL     1      -5.421   1.414   0.580  1.00  0.00    -0.015 A 
ATOM     18  C   UNL     1      -6.142   2.134  -0.385  1.00  0.00     0.009 A 
ATOM     19  C   UNL     1      -6.143   0.775   1.604  1.00  0.00     0.009 A 
ATOM     20  C   UNL     1      -7.536   2.217  -0.322  1.00  0.00     0.001 A 
ATOM     21  C   UNL     1      -7.534   0.860   1.670  1.00  0.00     0.001 A 
ATOM     22  C   UNL     1      -8.230   1.584   0.707  1.00  0.00     0.000 A 
ENDBRANCH  15  17
ENDBRANCH   8  10
ENDBRANCH   6   8
ENDBRANCH   5   6
ENDBRANCH   4   5
ENDBRANCH   3   4
ENDBRANCH   2   3
ENDBRANCH   1   2
BRANCH   1  23
ATOM     23  C   UNL     1       1.090   0.065  -2.353  1.00  0.00     0.188 C 
BRANCH  23  24
ATOM     24  O   UNL     1       0.552  -1.099  -2.940  1.00  0.00    -0.376 OA
BRANCH  24  25
ATOM     25  C   UNL     1       1.248  -1.760  -3.980  1.00  0.00     0.202 C 
BRANCH  25  26
ATOM     26  C   UNL     1       2.064  -1.017  -5.052  1.00  0.00     0.261 C 
BRANCH  26  27
ATOM     27  O   UNL     1       2.878   0.075  -4.603  1.00  0.00    -0.460 OA
BRANCH  27  28
ATOM     28  C   UNL     1       2.502   1.305  -5.030  1.00  0.00     0.338 C 
ATOM     29  O   UNL     1       1.547   1.580  -5.748  1.00  0.00    -0.246 OA
BRANCH  28  30
ATOM     30  C   UNL     1       3.315   2.342  -4.366  1.00  0.00     0.060 A 
ATOM     31  C   UNL     1       2.679   3.251  -3.508  1.00  0.00     0.016 A 
ATOM     32  C   UNL     1       4.682   2.453  -4.622  1.00  0.00     0.016 A 
ATOM     33  C   UNL     1       3.405   4.291  -2.922  1.00  0.00     0.010 A 
ATOM     34  C   UNL     1       5.403   3.509  -4.051  1.00  0.00     0.010 A 
ATOM     35  C   UNL     1       4.764   4.450  -3.221  1.00  0.00    -0.014 A 
BRANCH  35  36
ATOM     36  C   UNL     1       5.480   5.688  -2.814  1.00  0.00     0.031 A 
ATOM     37  C   UNL     1       5.647   6.792  -3.824  1.00  0.00     0.074 A 
ATOM     38  C   UNL     1       5.973   5.841  -1.571  1.00  0.00     0.049 A 
ATOM     39  N   UNL     1       6.300   7.922  -3.723  1.00  0.00    -0.248 NA
ATOM     40  C   UNL     1       4.989   6.590  -5.124  1.00  0.00     0.031 C 
ATOM     41  C   UNL     1       5.839   4.878  -0.482  1.00  0.00     0.029 A 
ATOM     42  N   UNL     1       6.702   6.870  -1.025  1.00  0.00    -0.354 N 
ATOM     43  C   UNL     1       6.142   8.559  -4.947  1.00  0.00     0.074 A 
ATOM     44  C   UNL     1       5.353   7.680  -5.783  1.00  0.00     0.031 C 
ATOM     45  C   UNL     1       6.479   5.355   0.601  1.00  0.00     0.029 A 
ATOM     46  C   UNL     1       7.100   6.637   0.269  1.00  0.00     0.049 A 
ATOM     47  H   UNL     1       6.918   7.696  -1.515  1.00  0.00     0.167 HD
ATOM     48  C   UNL     1       6.610   9.768  -5.341  1.00  0.00     0.037 A 
ATOM     49  C   UNL     1       7.898   7.361   1.080  1.00  0.00     0.037 A 
ATOM     50  C   UNL     1       7.400  10.643  -4.515  1.00  0.00     0.049 A 
ATOM     51  C   UNL     1       8.483   8.661   0.586  1.00  0.00     0.074 A 
ATOM     52  C   UNL     1       7.903  11.896  -4.823  1.00  0.00     0.029 A 
ATOM     53  N   UNL     1       7.813  10.353  -3.224  1.00  0.00    -0.354 N 
ATOM     54  N   UNL     1       8.309   9.267  -0.563  1.00  0.00    -0.248 NA
ATOM     55  C   UNL     1       9.380   9.377   1.507  1.00  0.00     0.031 C 
ATOM     56  C   UNL     1       8.672  12.336  -3.742  1.00  0.00     0.029 A 
ATOM     57  C   UNL     1       8.593  11.389  -2.734  1.00  0.00     0.049 A 
ATOM     58  H   UNL     1       7.587   9.533  -2.729  1.00  0.00     0.167 HD
ATOM     59  C   UNL     1       9.040  10.448  -0.489  1.00  0.00     0.074 A 
ATOM     60  C   UNL     1       9.652  10.479   0.822  1.00  0.00     0.031 C 
ATOM     61  C   UNL     1       9.188  11.421  -1.422  1.00  0.00     0.037 A 
BRANCH  48  62
ATOM     62  C   UNL     1       6.310  10.201  -6.747  1.00  0.00     0.057 A 
ATOM     63  C   UNL     1       5.021  10.566  -7.155  1.00  0.00     0.134 A 
ATOM     64  C   UNL     1       7.336  10.286  -7.698  1.00  0.00     0.134 A 
ATOM     65  F   UNL     1       3.990  10.495  -6.299  1.00  0.00    -0.206 F 
ATOM     66  C   UNL     1       4.758  10.975  -8.464  1.00  0.00     0.040 A 
ATOM     67  C   UNL     1       7.091  10.721  -9.001  1.00  0.00     0.040 A 
ATOM     68  F   UNL     1       8.595   9.957  -7.373  1.00  0.00    -0.206 F 
ATOM     69  C   UNL     1       5.797  11.061  -9.389  1.00  0.00     0.006 A 
ENDBRANCH  48  62
BRANCH  49  70
ATOM     70  C   UNL     1       8.220   6.872   2.447  1.00  0.00     0.057 A 
ATOM     71  C   UNL     1       7.775   7.556   3.586  1.00  0.00     0.134 A 
ATOM     72  C   UNL     1       9.019   5.740   2.650  1.00  0.00     0.134 A 
ATOM     73  F   UNL     1       7.031   8.665   3.459  1.00  0.00    -0.206 F 
ATOM     74  C   UNL     1       8.131   7.147   4.872  1.00  0.00     0.040 A 
ATOM     75  C   UNL     1       9.358   5.302   3.931  1.00  0.00     0.040 A 
ATOM     76  F   UNL     1       9.483   5.043   1.603  1.00  0.00    -0.206 F 
ATOM     77  C   UNL     1       8.921   6.013   5.047  1.00  0.00     0.006 A 
ENDBRANCH  49  70
BRANCH  61  78
ATOM     78  C   UNL     1      10.000  12.630  -1.048  1.00  0.00     0.057 A 
ATOM     79  C   UNL     1      11.391  12.577  -0.892  1.00  0.00     0.134 A 
ATOM     80  C   UNL     1       9.382  13.878  -0.887  1.00  0.00     0.134 A 
ATOM     81  F   UNL     1      12.046  11.413  -1.022  1.00  0.00    -0.206 F 
ATOM     82  C   UNL     1      12.134  13.714  -0.566  1.00  0.00     0.040 A 
ATOM     83  C   UNL     1      10.117  15.027  -0.592  1.00  0.00     0.040 A 
ATOM     84  F   UNL     1       8.054  14.005  -1.034  1.00  0.00    -0.206 F 
ATOM     85  C   UNL     1      11.497  14.945  -0.423  1.00  0.00     0.006 A 
ENDBRANCH  61  78
ENDBRANCH  35  36
ENDBRANCH  28  30
ENDBRANCH  27  28
ENDBRANCH  26  27
ENDBRANCH  25  26
ENDBRANCH  24  25
ENDBRANCH  23  24
ENDBRANCH   1  23
TORSDOF 19
