REMARK SMILES COc1cc2c(CC(=O)OCCOCCOCCOC(=O)c3ccc(-c4c5nc(c(-c6c(F)cccc6F)c6ccc([nH]6)c(-c6c(F)cccc6F)c6nc(c(-c7c(F)cccc7F)c7ccc4[nH]7)C=C6)C=C5)cc3)c(C)n(C(=O)c3ccc(Cl)cc3)c2cc1Cl
REMARK SMILES IDX 14 1 13 2 12 3 11 4 10 5 8 6 9 7 7 8 6 9 3 10 4 11 90 12
REMARK SMILES IDX 5 13 89 14 91 15 88 16 76 17 78 18 77 19 2 20 1 21 79 22
REMARK SMILES IDX 80 23 81 24 82 25 87 26 83 27 86 28 84 29 85 30 15 31 16 32
REMARK SMILES IDX 17 33 18 34 19 35 20 36 21 37 22 38 23 39 75 40 24 41 74 42
REMARK SMILES IDX 25 43 26 44 27 45 68 46 28 47 73 48 67 49 69 50 29 51 72 52
REMARK SMILES IDX 66 53 65 54 30 56 56 57 39 58 55 59 40 60 43 61 54 62 70 63
REMARK SMILES IDX 41 64 42 65 53 67 71 68 44 69 31 70 32 71 37 72 33 73 34 74
REMARK SMILES IDX 36 75 38 76 35 77 57 78 58 79 63 80 59 81 60 82 62 83 64 84
REMARK SMILES IDX 61 85 45 86 46 87 51 88 47 89 48 90 50 91 52 92 49 93
REMARK H PARENT 69 55 43 66
REMARK Flexibility Score: inf
ROOT
ATOM      1  C   UNL     1      -2.307  -0.834   5.212  1.00  0.00     0.188 C 
ENDROOT
BRANCH   1   2
ATOM      2  O   UNL     1      -2.713  -0.309   6.458  1.00  0.00    -0.376 OA
BRANCH   2   3
ATOM      3  C   UNL     1      -2.096  -0.854   7.615  1.00  0.00     0.202 C 
BRANCH   3   4
ATOM      4  C   UNL     1      -2.088  -2.389   7.700  1.00  0.00     0.261 C 
BRANCH   4   5
ATOM      5  O   UNL     1      -1.166  -2.983   6.743  1.00  0.00    -0.463 OA
BRANCH   5   6
ATOM      6  C   UNL     1      -1.589  -4.112   6.118  1.00  0.00     0.310 C 
ATOM      7  O   UNL     1      -2.529  -4.782   6.545  1.00  0.00    -0.252 OA
BRANCH   6   8
ATOM      8  C   UNL     1      -1.030  -4.335   4.710  1.00  0.00     0.160 C 
BRANCH   8   9
ATOM      9  C   UNL     1       0.422  -4.540   4.354  1.00  0.00    -0.008 A 
ATOM     10  C   UNL     1       1.829  -2.383   1.411  1.00  0.00     0.138 A 
ATOM     11  C   UNL     1       1.076  -2.698   2.566  1.00  0.00     0.058 A 
ATOM     12  C   UNL     1       2.818  -3.264   1.044  1.00  0.00     0.085 A 
ATOM     13  C   UNL     1       1.200  -3.868   3.340  1.00  0.00     0.008 A 
ATOM     14  C   UNL     1       3.042  -4.407   1.834  1.00  0.00     0.051 A 
ATOM     15  Cl  UNL     1       3.880  -3.035  -0.297  1.00  0.00    -0.080 Cl
ATOM     16  C   UNL     1       2.264  -4.686   2.998  1.00  0.00     0.058 A 
ATOM     17  C   UNL     1       1.117  -5.710   4.645  1.00  0.00     0.028 A 
ATOM     18  N   UNL     1       2.356  -5.652   4.007  1.00  0.00    -0.280 N 
ATOM     19  C   UNL     1       0.601  -6.861   5.447  1.00  0.00     0.065 C 
BRANCH  10  20
ATOM     20  O   UNL     1       1.416  -1.217   0.844  1.00  0.00    -0.495 OA
ATOM     21  C   UNL     1       1.847  -0.727  -0.415  1.00  0.00     0.278 C 
ENDBRANCH  10  20
BRANCH  18  22
ATOM     22  C   UNL     1       3.527  -6.395   4.330  1.00  0.00     0.262 C 
ATOM     23  O   UNL     1       3.478  -7.331   5.076  1.00  0.00    -0.268 OA
BRANCH  22  24
ATOM     24  C   UNL     1       4.839  -5.979   3.783  1.00  0.00     0.040 A 
ATOM     25  C   UNL     1       5.352  -4.724   4.137  1.00  0.00     0.015 A 
ATOM     26  C   UNL     1       5.388  -6.729   2.741  1.00  0.00     0.015 A 
ATOM     27  C   UNL     1       6.392  -4.181   3.385  1.00  0.00     0.021 A 
ATOM     28  C   UNL     1       6.421  -6.171   1.987  1.00  0.00     0.021 A 
ATOM     29  C   UNL     1       6.905  -4.897   2.301  1.00  0.00     0.041 A 
ATOM     30  Cl  UNL     1       8.101  -4.173   1.299  1.00  0.00    -0.084 Cl
ENDBRANCH  22  24
ENDBRANCH  18  22
ENDBRANCH   8   9
ENDBRANCH   6   8
ENDBRANCH   5   6
ENDBRANCH   4   5
ENDBRANCH   3   4
ENDBRANCH   2   3
ENDBRANCH   1   2
BRANCH   1  31
ATOM     31  C   UNL     1      -0.806  -0.939   4.909  1.00  0.00     0.188 C 
BRANCH  31  32
ATOM     32  O   UNL     1       0.094  -0.206   5.692  1.00  0.00    -0.376 OA
BRANCH  32  33
ATOM     33  C   UNL     1       0.413   1.104   5.268  1.00  0.00     0.202 C 
BRANCH  33  34
ATOM     34  C   UNL     1      -0.010   1.653   3.875  1.00  0.00     0.261 C 
BRANCH  34  35
ATOM     35  O   UNL     1      -1.327   1.251   3.400  1.00  0.00    -0.460 OA
BRANCH  35  36
ATOM     36  C   UNL     1      -1.417   0.907   2.074  1.00  0.00     0.338 C 
ATOM     37  O   UNL     1      -0.629   1.258   1.209  1.00  0.00    -0.246 OA
BRANCH  36  38
ATOM     38  C   UNL     1      -2.339  -0.273   1.886  1.00  0.00     0.060 A 
ATOM     39  C   UNL     1      -3.704  -0.335   2.133  1.00  0.00     0.016 A 
ATOM     40  C   UNL     1      -1.714  -1.462   1.512  1.00  0.00     0.016 A 
ATOM     41  C   UNL     1      -4.358  -1.599   2.129  1.00  0.00     0.010 A 
ATOM     42  C   UNL     1      -2.322  -2.716   1.568  1.00  0.00     0.010 A 
ATOM     43  C   UNL     1      -3.656  -2.812   1.921  1.00  0.00    -0.014 A 
BRANCH  43  44
ATOM     44  C   UNL     1      -4.333  -4.101   1.645  1.00  0.00     0.031 A 
ATOM     45  C   UNL     1      -4.983  -4.058   0.330  1.00  0.00     0.074 A 
ATOM     46  C   UNL     1      -4.365  -5.298   2.283  1.00  0.00     0.049 A 
ATOM     47  N   UNL     1      -6.201  -3.677   0.160  1.00  0.00    -0.248 NA
ATOM     48  C   UNL     1      -4.217  -4.250  -0.905  1.00  0.00     0.031 C 
ATOM     49  C   UNL     1      -3.715  -5.670   3.521  1.00  0.00     0.029 A 
ATOM     50  N   UNL     1      -5.003  -6.473   1.947  1.00  0.00    -0.354 N 
ATOM     51  C   UNL     1      -6.447  -3.857  -1.180  1.00  0.00     0.074 A 
ATOM     52  C   UNL     1      -5.154  -3.961  -1.814  1.00  0.00     0.031 C 
ATOM     53  C   UNL     1      -3.760  -7.009   3.728  1.00  0.00     0.029 A 
ATOM     54  C   UNL     1      -4.679  -7.573   2.755  1.00  0.00     0.049 A 
ATOM     55  H   UNL     1      -5.637  -6.536   1.197  1.00  0.00     0.167 HD
ATOM     56  C   UNL     1      -7.690  -4.227  -1.579  1.00  0.00     0.037 A 
ATOM     57  C   UNL     1      -5.263  -8.803   2.807  1.00  0.00     0.037 A 
ATOM     58  C   UNL     1      -8.659  -4.079  -0.507  1.00  0.00     0.049 A 
ATOM     59  C   UNL     1      -6.658  -8.615   2.365  1.00  0.00     0.074 A 
ATOM     60  C   UNL     1      -9.040  -3.045   0.332  1.00  0.00     0.029 A 
ATOM     61  N   UNL     1      -9.101  -5.225   0.108  1.00  0.00    -0.354 N 
ATOM     62  N   UNL     1      -7.562  -7.992   3.063  1.00  0.00    -0.248 NA
ATOM     63  C   UNL     1      -6.961  -8.792   0.958  1.00  0.00     0.031 C 
ATOM     64  C   UNL     1      -9.281  -3.651   1.604  1.00  0.00     0.029 A 
ATOM     65  C   UNL     1      -9.101  -5.026   1.467  1.00  0.00     0.049 A 
ATOM     66  H   UNL     1      -9.372  -6.053  -0.350  1.00  0.00     0.167 HD
ATOM     67  C   UNL     1      -8.279  -7.277   2.121  1.00  0.00     0.074 A 
ATOM     68  C   UNL     1      -7.958  -7.913   0.846  1.00  0.00     0.031 C 
ATOM     69  C   UNL     1      -8.834  -6.070   2.436  1.00  0.00     0.037 A 
BRANCH  56  70
ATOM     70  C   UNL     1      -7.931  -5.091  -2.782  1.00  0.00     0.057 A 
ATOM     71  C   UNL     1      -6.999  -6.014  -3.302  1.00  0.00     0.134 A 
ATOM     72  C   UNL     1      -9.230  -5.188  -3.298  1.00  0.00     0.134 A 
ATOM     73  F   UNL     1      -5.759  -6.138  -2.814  1.00  0.00    -0.206 F 
ATOM     74  C   UNL     1      -7.326  -6.943  -4.290  1.00  0.00     0.040 A 
ATOM     75  C   UNL     1      -9.584  -6.157  -4.242  1.00  0.00     0.040 A 
ATOM     76  F   UNL     1     -10.209  -4.392  -2.843  1.00  0.00    -0.206 F 
ATOM     77  C   UNL     1      -8.630  -7.034  -4.745  1.00  0.00     0.006 A 
ENDBRANCH  56  70
BRANCH  57  78
ATOM     78  C   UNL     1      -4.753 -10.157   3.146  1.00  0.00     0.057 A 
ATOM     79  C   UNL     1      -3.436 -10.520   2.829  1.00  0.00     0.134 A 
ATOM     80  C   UNL     1      -5.620 -11.221   3.461  1.00  0.00     0.134 A 
ATOM     81  F   UNL     1      -2.540  -9.589   2.468  1.00  0.00    -0.206 F 
ATOM     82  C   UNL     1      -3.019 -11.859   2.771  1.00  0.00     0.040 A 
ATOM     83  C   UNL     1      -5.217 -12.564   3.408  1.00  0.00     0.040 A 
ATOM     84  F   UNL     1      -6.908 -10.991   3.754  1.00  0.00    -0.206 F 
ATOM     85  C   UNL     1      -3.916 -12.888   3.041  1.00  0.00     0.006 A 
ENDBRANCH  57  78
BRANCH  69  86
ATOM     86  C   UNL     1      -8.981  -5.734   3.903  1.00  0.00     0.057 A 
ATOM     87  C   UNL     1     -10.260  -5.449   4.397  1.00  0.00     0.134 A 
ATOM     88  C   UNL     1      -7.921  -5.621   4.818  1.00  0.00     0.134 A 
ATOM     89  F   UNL     1     -11.324  -5.494   3.581  1.00  0.00    -0.206 F 
ATOM     90  C   UNL     1     -10.480  -5.089   5.731  1.00  0.00     0.040 A 
ATOM     91  C   UNL     1      -8.131  -5.295   6.164  1.00  0.00     0.040 A 
ATOM     92  F   UNL     1      -6.650  -5.786   4.433  1.00  0.00    -0.206 F 
ATOM     93  C   UNL     1      -9.415  -5.024   6.624  1.00  0.00     0.006 A 
ENDBRANCH  69  86
ENDBRANCH  43  44
ENDBRANCH  36  38
ENDBRANCH  35  36
ENDBRANCH  34  35
ENDBRANCH  33  34
ENDBRANCH  32  33
ENDBRANCH  31  32
ENDBRANCH   1  31
TORSDOF 21
