REMARK SMILES C[C@H](Nc1nccc(-c2cc(C(=O)OCCOCCOCCOC(=O)c3ccc(-c4c5nc(c(-c6c(F)cccc6F)c6ccc([nH]6)c(-c6c(F)cccc6F)c6nc(c(-c7c(F)cccc7F)c7ccc4[nH]7)C=C6)C=C5)cc3)ccn2)n1)c1cn2ccsc2n1
REMARK SMILES IDX 18 1 17 2 16 3 15 4 14 5 12 6 13 7 11 8 9 9 10 10 82 11
REMARK SMILES IDX 81 12 80 13 8 14 4 15 5 16 83 17 6 18 7 19 3 20 2 22 1 23
REMARK SMILES IDX 84 24 85 25 91 26 86 27 90 28 87 29 89 30 88 31 19 32 20 33
REMARK SMILES IDX 21 34 22 35 23 36 24 37 25 38 26 39 27 40 79 41 28 42 78 43
REMARK SMILES IDX 29 44 30 45 31 46 72 47 32 48 77 49 71 50 73 51 33 52 76 53
REMARK SMILES IDX 70 54 69 55 34 57 60 58 43 59 59 60 44 61 47 62 58 63 74 64
REMARK SMILES IDX 45 65 46 66 57 68 75 69 48 70 35 71 36 72 41 73 37 74 38 75
REMARK SMILES IDX 40 76 42 77 39 78 61 79 62 80 67 81 63 82 64 83 66 84 68 85
REMARK SMILES IDX 65 86 49 87 50 88 55 89 51 90 52 91 54 92 56 93 53 94
REMARK H PARENT 3 21 73 56 47 67
REMARK Flexibility Score: inf
ROOT
ATOM      1  C   UNL     1       3.375  -8.944  -1.972  1.00  0.00     0.188 C 
ENDROOT
BRANCH   1   2
ATOM      2  O   UNL     1       2.881 -10.258  -1.853  1.00  0.00    -0.376 OA
BRANCH   2   3
ATOM      3  C   UNL     1       2.141 -10.640  -0.708  1.00  0.00     0.202 C 
BRANCH   3   4
ATOM      4  C   UNL     1       2.056  -9.840   0.614  1.00  0.00     0.261 C 
BRANCH   4   5
ATOM      5  O   UNL     1       2.351  -8.435   0.593  1.00  0.00    -0.460 OA
BRANCH   5   6
ATOM      6  C   UNL     1       3.583  -8.068   1.016  1.00  0.00     0.338 C 
ATOM      7  O   UNL     1       4.453  -8.805   1.463  1.00  0.00    -0.246 OA
BRANCH   6   8
ATOM      8  C   UNL     1       3.843  -6.657   0.650  1.00  0.00     0.063 A 
ATOM      9  C   UNL     1       3.235  -4.346   0.623  1.00  0.00     0.090 A 
ATOM     10  C   UNL     1       2.903  -5.667   0.909  1.00  0.00     0.046 A 
ATOM     11  N   UNL     1       4.391  -4.019  -0.015  1.00  0.00    -0.255 NA
ATOM     12  C   UNL     1       5.255  -5.008  -0.323  1.00  0.00     0.112 A 
ATOM     13  C   UNL     1       5.042  -6.330   0.014  1.00  0.00     0.036 A 
BRANCH   9  14
ATOM     14  C   UNL     1       2.417  -3.235   1.144  1.00  0.00     0.094 A 
ATOM     15  C   UNL     1       1.419  -1.192   0.787  1.00  0.00     0.223 A 
ATOM     16  N   UNL     1       0.960  -1.128   2.043  1.00  0.00    -0.222 NA
ATOM     17  N   UNL     1       2.146  -2.209   0.313  1.00  0.00    -0.211 NA
ATOM     18  C   UNL     1       1.227  -2.168   2.845  1.00  0.00     0.117 A 
ATOM     19  C   UNL     1       1.956  -3.255   2.446  1.00  0.00     0.051 A 
BRANCH  15  20
ATOM     20  N   UNL     1       1.120  -0.119  -0.008  1.00  0.00    -0.346 N 
ATOM     21  H   UNL     1       1.309   0.787   0.326  1.00  0.00     0.164 HD
BRANCH  20  22
ATOM     22  C   UNL     1       0.531  -0.271  -1.334  1.00  0.00     0.130 C 
ATOM     23  C   UNL     1       1.120  -1.401  -2.183  1.00  0.00     0.038 C 
BRANCH  22  24
ATOM     24  C   UNL     1      -0.985  -0.311  -1.321  1.00  0.00     0.082 A 
ATOM     25  C   UNL     1      -1.838  -1.412  -1.303  1.00  0.00     0.119 A 
ATOM     26  N   UNL     1      -1.711   0.879  -1.291  1.00  0.00    -0.222 NA
ATOM     27  N   UNL     1      -3.088  -0.877  -1.302  1.00  0.00    -0.297 N 
ATOM     28  C   UNL     1      -2.951   0.477  -1.285  1.00  0.00     0.193 A 
ATOM     29  C   UNL     1      -4.380  -1.346  -1.323  1.00  0.00     0.104 A 
ATOM     30  S   UNL     1      -4.500   1.262  -1.286  1.00  0.00    -0.105 S 
ATOM     31  C   UNL     1      -5.269  -0.337  -1.321  1.00  0.00     0.087 A 
ENDBRANCH  22  24
ENDBRANCH  20  22
ENDBRANCH  15  20
ENDBRANCH   9  14
ENDBRANCH   6   8
ENDBRANCH   5   6
ENDBRANCH   4   5
ENDBRANCH   3   4
ENDBRANCH   2   3
ENDBRANCH   1   2
BRANCH   1  32
ATOM     32  C   UNL     1       2.365  -7.796  -2.198  1.00  0.00     0.188 C 
BRANCH  32  33
ATOM     33  O   UNL     1       1.023  -8.030  -1.848  1.00  0.00    -0.376 OA
BRANCH  33  34
ATOM     34  C   UNL     1       0.217  -8.823  -2.705  1.00  0.00     0.202 C 
BRANCH  34  35
ATOM     35  C   UNL     1       0.638  -9.381  -4.090  1.00  0.00     0.261 C 
BRANCH  35  36
ATOM     36  O   UNL     1       2.022  -9.345  -4.478  1.00  0.00    -0.460 OA
BRANCH  36  37
ATOM     37  C   UNL     1       2.398  -8.323  -5.286  1.00  0.00     0.338 C 
ATOM     38  O   UNL     1       1.682  -7.432  -5.719  1.00  0.00    -0.246 OA
BRANCH  37  39
ATOM     39  C   UNL     1       3.873  -8.306  -5.427  1.00  0.00     0.060 A 
ATOM     40  C   UNL     1       4.636  -7.334  -4.755  1.00  0.00     0.016 A 
ATOM     41  C   UNL     1       4.496  -9.216  -6.277  1.00  0.00     0.016 A 
ATOM     42  C   UNL     1       6.019  -7.269  -4.933  1.00  0.00     0.010 A 
ATOM     43  C   UNL     1       5.876  -9.125  -6.483  1.00  0.00     0.010 A 
ATOM     44  C   UNL     1       6.643  -8.138  -5.833  1.00  0.00    -0.014 A 
BRANCH  44  45
ATOM     45  C   UNL     1       8.068  -7.942  -6.200  1.00  0.00     0.031 A 
ATOM     46  C   UNL     1       8.405  -7.385  -7.553  1.00  0.00     0.074 A 
ATOM     47  C   UNL     1       9.054  -8.268  -5.346  1.00  0.00     0.049 A 
ATOM     48  N   UNL     1       9.574  -7.231  -8.121  1.00  0.00    -0.248 NA
ATOM     49  C   UNL     1       7.269  -6.958  -8.383  1.00  0.00     0.031 C 
ATOM     50  C   UNL     1       8.859  -8.787  -3.995  1.00  0.00     0.029 A 
ATOM     51  N   UNL     1      10.418  -8.233  -5.503  1.00  0.00    -0.354 N 
ATOM     52  C   UNL     1       9.314  -6.706  -9.381  1.00  0.00     0.074 A 
ATOM     53  C   UNL     1       7.875  -6.613  -9.508  1.00  0.00     0.031 C 
ATOM     54  C   UNL     1      10.060  -9.040  -3.450  1.00  0.00     0.029 A 
ATOM     55  C   UNL     1      11.103  -8.751  -4.432  1.00  0.00     0.049 A 
ATOM     56  H   UNL     1      10.860  -7.872  -6.305  1.00  0.00     0.167 HD
ATOM     57  C   UNL     1      10.194  -6.329 -10.340  1.00  0.00     0.037 A 
ATOM     58  C   UNL     1      12.417  -9.006  -4.275  1.00  0.00     0.037 A 
ATOM     59  C   UNL     1      11.624  -6.450 -10.212  1.00  0.00     0.049 A 
ATOM     60  C   UNL     1      13.375  -8.669  -5.387  1.00  0.00     0.074 A 
ATOM     61  C   UNL     1      12.603  -6.081 -11.118  1.00  0.00     0.029 A 
ATOM     62  N   UNL     1      12.280  -7.003  -9.121  1.00  0.00    -0.354 N 
ATOM     63  N   UNL     1      13.126  -8.140  -6.561  1.00  0.00    -0.248 NA
ATOM     64  C   UNL     1      14.796  -8.961  -5.152  1.00  0.00     0.031 C 
ATOM     65  C   UNL     1      13.840  -6.497 -10.618  1.00  0.00     0.029 A 
ATOM     66  C   UNL     1      13.646  -7.030  -9.354  1.00  0.00     0.049 A 
ATOM     67  H   UNL     1      11.840  -7.327  -8.303  1.00  0.00     0.167 HD
ATOM     68  C   UNL     1      14.358  -8.009  -7.192  1.00  0.00     0.074 A 
ATOM     69  C   UNL     1      15.354  -8.498  -6.262  1.00  0.00     0.031 C 
ATOM     70  C   UNL     1      14.636  -7.524  -8.428  1.00  0.00     0.037 A 
BRANCH  57  71
ATOM     71  C   UNL     1       9.626  -5.805 -11.631  1.00  0.00     0.057 A 
ATOM     72  C   UNL     1       8.886  -4.615 -11.695  1.00  0.00     0.134 A 
ATOM     73  C   UNL     1       9.818  -6.505 -12.830  1.00  0.00     0.134 A 
ATOM     74  F   UNL     1       8.664  -3.890 -10.588  1.00  0.00    -0.206 F 
ATOM     75  C   UNL     1       8.307  -4.178 -12.888  1.00  0.00     0.040 A 
ATOM     76  C   UNL     1       9.284  -6.052 -14.037  1.00  0.00     0.040 A 
ATOM     77  F   UNL     1      10.532  -7.641 -12.852  1.00  0.00    -0.206 F 
ATOM     78  C   UNL     1       8.508  -4.896 -14.064  1.00  0.00     0.006 A 
ENDBRANCH  57  71
BRANCH  58  79
ATOM     79  C   UNL     1      12.896  -9.651  -3.025  1.00  0.00     0.057 A 
ATOM     80  C   UNL     1      13.730  -8.979  -2.125  1.00  0.00     0.134 A 
ATOM     81  C   UNL     1      12.527 -10.964  -2.701  1.00  0.00     0.134 A 
ATOM     82  F   UNL     1      14.138  -7.728  -2.387  1.00  0.00    -0.206 F 
ATOM     83  C   UNL     1      14.193  -9.591  -0.958  1.00  0.00     0.040 A 
ATOM     84  C   UNL     1      12.950 -11.575  -1.521  1.00  0.00     0.040 A 
ATOM     85  F   UNL     1      11.728 -11.665  -3.519  1.00  0.00    -0.206 F 
ATOM     86  C   UNL     1      13.794 -10.890  -0.649  1.00  0.00     0.006 A 
ENDBRANCH  58  79
BRANCH  70  87
ATOM     87  C   UNL     1      16.081  -7.454  -8.839  1.00  0.00     0.057 A 
ATOM     88  C   UNL     1      16.855  -8.601  -9.061  1.00  0.00     0.134 A 
ATOM     89  C   UNL     1      16.698  -6.213  -9.058  1.00  0.00     0.134 A 
ATOM     90  F   UNL     1      16.333  -9.822  -8.870  1.00  0.00    -0.206 F 
ATOM     91  C   UNL     1      18.195  -8.516  -9.445  1.00  0.00     0.040 A 
ATOM     92  C   UNL     1      18.023  -6.117  -9.484  1.00  0.00     0.040 A 
ATOM     93  F   UNL     1      16.015  -5.071  -8.883  1.00  0.00    -0.206 F 
ATOM     94  C   UNL     1      18.780  -7.271  -9.666  1.00  0.00     0.006 A 
ENDBRANCH  70  87
ENDBRANCH  44  45
ENDBRANCH  37  39
ENDBRANCH  36  37
ENDBRANCH  35  36
ENDBRANCH  34  35
ENDBRANCH  33  34
ENDBRANCH  32  33
ENDBRANCH   1  32
TORSDOF 21
