REMARK SMILES Cc1ccccc1-c1c(Cl)ccc2c1C=C(C(=O)OCCOCCOCCOC(=O)c1ccc(-c3c4nc(c(-c5c(F)cccc5F)c5ccc([nH]5)c(-c5c(F)cccc5F)c5nc(c(-c6c(F)cccc6F)c6ccc3[nH]6)C=C5)C=C4)cc1)[C@@H](C(F)(F)F)O2
REMARK SMILES IDX 24 1 23 2 22 3 21 4 20 5 19 6 17 7 18 8 16 9 8 10 9 11 14 12
REMARK SMILES IDX 10 13 11 14 13 15 15 16 12 17 90 18 85 19 7 20 1 21 2 22
REMARK SMILES IDX 3 23 4 24 6 25 5 26 86 27 87 28 88 29 89 30 25 31 26 32
REMARK SMILES IDX 27 33 28 34 29 35 30 36 31 37 32 38 84 39 33 40 83 41 34 42
REMARK SMILES IDX 35 43 36 44 77 45 37 46 82 47 76 48 78 49 38 50 81 51 75 52
REMARK SMILES IDX 74 53 39 55 65 56 48 57 64 58 49 59 52 60 63 61 79 62 50 63
REMARK SMILES IDX 51 64 62 66 80 67 53 68 40 69 41 70 46 71 42 72 43 73 45 74
REMARK SMILES IDX 47 75 44 76 66 77 67 78 72 79 68 80 69 81 71 82 73 83 70 84
REMARK SMILES IDX 54 85 55 86 60 87 56 88 57 89 59 90 61 91 58 92
REMARK H PARENT 78 54 52 65
REMARK Flexibility Score: inf
ROOT
ATOM      1  C   UNL     1      10.097   0.770  -3.622  1.00  0.00     0.188 C 
ENDROOT
BRANCH   1   2
ATOM      2  C   UNL     1       9.435   1.169  -2.321  1.00  0.00     0.188 C 
BRANCH   2   3
ATOM      3  O   UNL     1       8.587   0.316  -1.548  1.00  0.00    -0.376 OA
BRANCH   3   4
ATOM      4  C   UNL     1       7.838  -0.852  -1.902  1.00  0.00     0.202 C 
BRANCH   4   5
ATOM      5  C   UNL     1       6.188  -1.211  -2.316  1.00  0.00     0.261 C 
BRANCH   5   6
ATOM      6  O   UNL     1       4.718  -0.294  -2.607  1.00  0.00    -0.460 OA
BRANCH   6   7
ATOM      7  C   UNL     1       3.913   0.761  -2.095  1.00  0.00     0.338 C 
ATOM      8  O   UNL     1       4.022   1.288  -0.992  1.00  0.00    -0.246 OA
BRANCH   7   9
ATOM      9  C   UNL     1       2.762   1.321  -2.906  1.00  0.00     0.087 C 
ATOM     10  C   UNL     1       0.338   2.334  -0.185  1.00  0.00     0.012 A 
ATOM     11  C   UNL     1       0.223   3.409   0.735  1.00  0.00     0.049 A 
ATOM     12  C   UNL     1       1.310   2.425  -1.224  1.00  0.00     0.027 A 
ATOM     13  Cl  UNL     1      -0.837   3.343   2.111  1.00  0.00    -0.084 Cl
ATOM     14  C   UNL     1       1.001   4.559   0.606  1.00  0.00     0.025 A 
ATOM     15  C   UNL     1       2.084   3.595  -1.326  1.00  0.00     0.128 A 
ATOM     16  C   UNL     1       1.632   1.279  -2.149  1.00  0.00     0.028 C 
ATOM     17  C   UNL     1       1.929   4.653  -0.425  1.00  0.00     0.049 A 
ATOM     18  O   UNL     1       3.074   3.750  -2.263  1.00  0.00    -0.475 OA
ATOM     19  C   UNL     1       3.087   2.775  -3.337  1.00  0.00     0.316 C 
BRANCH  10  20
ATOM     20  C   UNL     1      -0.501   1.128  -0.039  1.00  0.00    -0.013 A 
ATOM     21  C   UNL     1       1.467  -0.272   0.773  1.00  0.00     0.045 C 
ATOM     22  C   UNL     1       0.035  -0.113   0.356  1.00  0.00    -0.043 A 
ATOM     23  C   UNL     1      -0.785  -1.253   0.375  1.00  0.00     0.004 A 
ATOM     24  C   UNL     1      -2.139  -1.161   0.065  1.00  0.00     0.000 A 
ATOM     25  C   UNL     1      -1.877   1.204  -0.321  1.00  0.00     0.009 A 
ATOM     26  C   UNL     1      -2.691   0.073  -0.260  1.00  0.00     0.001 A 
ENDBRANCH  10  20
BRANCH  19  27
ATOM     27  C   UNL     1       2.167   3.273  -4.468  1.00  0.00     0.430 C 
ATOM     28  F   UNL     1       2.498   4.528  -4.861  1.00  0.00    -0.167 F 
ATOM     29  F   UNL     1       2.277   2.481  -5.563  1.00  0.00    -0.167 F 
ATOM     30  F   UNL     1       0.858   3.297  -4.125  1.00  0.00    -0.167 F 
ENDBRANCH  19  27
ENDBRANCH   7   9
ENDBRANCH   6   7
ENDBRANCH   5   6
ENDBRANCH   4   5
ENDBRANCH   3   4
ENDBRANCH   2   3
ENDBRANCH   1   2
BRANCH   1  31
ATOM     31  O   UNL     1       9.298  -0.172  -4.301  1.00  0.00    -0.376 OA
BRANCH  31  32
ATOM     32  C   UNL     1       9.909  -0.685  -5.473  1.00  0.00     0.202 C 
BRANCH  32  33
ATOM     33  C   UNL     1       9.886   0.311  -6.646  1.00  0.00     0.261 C 
BRANCH  33  34
ATOM     34  O   UNL     1       8.562   0.869  -6.802  1.00  0.00    -0.460 OA
BRANCH  34  35
ATOM     35  C   UNL     1       8.410   2.203  -6.518  1.00  0.00     0.338 C 
ATOM     36  O   UNL     1       9.146   3.096  -6.909  1.00  0.00    -0.246 OA
BRANCH  35  37
ATOM     37  C   UNL     1       7.392   2.364  -5.432  1.00  0.00     0.060 A 
ATOM     38  C   UNL     1       7.357   3.394  -4.495  1.00  0.00     0.016 A 
ATOM     39  C   UNL     1       6.657   1.283  -5.108  1.00  0.00     0.016 A 
ATOM     40  C   UNL     1       6.845   3.193  -3.140  1.00  0.00     0.010 A 
ATOM     41  C   UNL     1       6.366   1.097  -3.745  1.00  0.00     0.010 A 
ATOM     42  C   UNL     1       6.494   1.940  -2.602  1.00  0.00    -0.014 A 
BRANCH  42  43
ATOM     43  C   UNL     1       6.523   1.602  -0.885  1.00  0.00     0.031 A 
ATOM     44  C   UNL     1       5.918   0.344   0.144  1.00  0.00     0.074 A 
ATOM     45  C   UNL     1       7.334   2.422  -0.140  1.00  0.00     0.049 A 
ATOM     46  N   UNL     1       6.172   0.244   1.435  1.00  0.00    -0.248 NA
ATOM     47  C   UNL     1       5.046  -0.861  -0.104  1.00  0.00     0.031 C 
ATOM     48  C   UNL     1       7.694   2.389   1.290  1.00  0.00     0.029 A 
ATOM     49  N   UNL     1       8.001   3.583  -0.559  1.00  0.00    -0.354 N 
ATOM     50  C   UNL     1       5.476  -0.828   1.965  1.00  0.00     0.074 A 
ATOM     51  C   UNL     1       5.247  -1.713   0.894  1.00  0.00     0.031 C 
ATOM     52  C   UNL     1       8.145   3.590   1.678  1.00  0.00     0.029 A 
ATOM     53  C   UNL     1       8.067   4.457   0.533  1.00  0.00     0.049 A 
ATOM     54  H   UNL     1       8.359   3.753  -1.461  1.00  0.00     0.167 HD
ATOM     55  C   UNL     1       4.715  -0.798   3.094  1.00  0.00     0.037 A 
ATOM     56  C   UNL     1       7.435   5.654   0.479  1.00  0.00     0.037 A 
ATOM     57  C   UNL     1       4.799   0.489   3.732  1.00  0.00     0.049 A 
ATOM     58  C   UNL     1       6.278   5.657   1.442  1.00  0.00     0.074 A 
ATOM     59  C   UNL     1       5.709   0.991   4.638  1.00  0.00     0.029 A 
ATOM     60  N   UNL     1       4.122   1.581   3.180  1.00  0.00    -0.354 N 
ATOM     61  N   UNL     1       5.624   4.590   1.826  1.00  0.00    -0.248 NA
ATOM     62  C   UNL     1       5.845   6.872   2.118  1.00  0.00     0.031 C 
ATOM     63  C   UNL     1       5.614   2.402   4.601  1.00  0.00     0.029 A 
ATOM     64  C   UNL     1       4.593   2.758   3.731  1.00  0.00     0.049 A 
ATOM     65  H   UNL     1       3.414   1.520   2.498  1.00  0.00     0.167 HD
ATOM     66  C   UNL     1       4.731   4.949   2.801  1.00  0.00     0.074 A 
ATOM     67  C   UNL     1       4.901   6.386   2.938  1.00  0.00     0.031 C 
ATOM     68  C   UNL     1       3.970   4.058   3.504  1.00  0.00     0.037 A 
BRANCH  55  69
ATOM     69  C   UNL     1       3.942  -2.013   3.586  1.00  0.00     0.057 A 
ATOM     70  C   UNL     1       4.126  -2.471   4.896  1.00  0.00     0.134 A 
ATOM     71  C   UNL     1       3.107  -2.839   2.795  1.00  0.00     0.134 A 
ATOM     72  F   UNL     1       4.871  -1.774   5.766  1.00  0.00    -0.206 F 
ATOM     73  C   UNL     1       3.597  -3.693   5.353  1.00  0.00     0.040 A 
ATOM     74  C   UNL     1       2.600  -4.075   3.225  1.00  0.00     0.040 A 
ATOM     75  F   UNL     1       2.776  -2.511   1.540  1.00  0.00    -0.206 F 
ATOM     76  C   UNL     1       2.860  -4.516   4.508  1.00  0.00     0.006 A 
ENDBRANCH  55  69
BRANCH  56  77
ATOM     77  C   UNL     1       7.521   6.302  -0.860  1.00  0.00     0.057 A 
ATOM     78  C   UNL     1       8.805   6.429  -1.445  1.00  0.00     0.134 A 
ATOM     79  C   UNL     1       6.428   6.508  -1.701  1.00  0.00     0.134 A 
ATOM     80  F   UNL     1       9.909   6.239  -0.701  1.00  0.00    -0.206 F 
ATOM     81  C   UNL     1       8.992   6.623  -2.814  1.00  0.00     0.040 A 
ATOM     82  C   UNL     1       6.604   6.730  -3.078  1.00  0.00     0.040 A 
ATOM     83  F   UNL     1       5.176   6.372  -1.244  1.00  0.00    -0.206 F 
ATOM     84  C   UNL     1       7.885   6.763  -3.639  1.00  0.00     0.006 A 
ENDBRANCH  56  77
BRANCH  68  85
ATOM     85  C   UNL     1       2.742   4.432   4.311  1.00  0.00     0.057 A 
ATOM     86  C   UNL     1       2.030   5.632   4.152  1.00  0.00     0.134 A 
ATOM     87  C   UNL     1       2.163   3.527   5.229  1.00  0.00     0.134 A 
ATOM     88  F   UNL     1       2.330   6.510   3.184  1.00  0.00    -0.206 F 
ATOM     89  C   UNL     1       0.928   5.972   4.946  1.00  0.00     0.040 A 
ATOM     90  C   UNL     1       1.032   3.834   5.991  1.00  0.00     0.040 A 
ATOM     91  F   UNL     1       2.641   2.288   5.409  1.00  0.00    -0.206 F 
ATOM     92  C   UNL     1       0.429   5.074   5.876  1.00  0.00     0.006 A 
ENDBRANCH  68  85
ENDBRANCH  42  43
ENDBRANCH  35  37
ENDBRANCH  34  35
ENDBRANCH  33  34
ENDBRANCH  32  33
ENDBRANCH  31  32
ENDBRANCH   1  31
TORSDOF 19
