REMARK SMILES C[C@H](O)[C@H](NC(=O)COCC[NH3+])C(=O)OCCOCCOCCOC(=O)c1ccc(-c2c3nc(c(-c4c(F)cccc4F)c4ccc([nH]4)c(-c4c(F)cccc4F)c4nc(c(-c5c(F)cccc5F)c5ccc2[nH]5)C=C4)C=C3)cc1
REMARK SMILES IDX 17 1 16 2 15 3 13 4 14 5 4 6 2 7 1 8 3 9 5 11 6 12 7 14 8 15
REMARK SMILES IDX 9 16 10 17 11 18 12 19 18 23 19 24 20 25 21 26 22 27 23 28
REMARK SMILES IDX 24 29 25 30 26 31 27 32 28 33 80 34 29 35 79 36 30 37 31 38
REMARK SMILES IDX 32 39 73 40 33 41 78 42 72 43 74 44 34 45 77 46 71 47 70 48
REMARK SMILES IDX 35 50 61 51 44 52 60 53 45 54 48 55 59 56 75 57 46 58 47 59
REMARK SMILES IDX 58 61 76 62 49 63 36 64 37 65 42 66 38 67 39 68 41 69 43 70
REMARK SMILES IDX 40 71 62 72 63 73 68 74 64 75 65 76 67 77 69 78 66 79 50 80
REMARK SMILES IDX 51 81 56 82 52 83 53 84 55 85 57 86 54 87
REMARK H PARENT 3 10 5 13 12 20 12 21 12 22 74 49 48 60
REMARK Flexibility Score: inf
ROOT
ATOM      1  C   UNL     1      -2.113  -2.320   5.320  1.00  0.00     0.202 C 
ENDROOT
BRANCH   1   2
ATOM      2  C   UNL     1      -2.519  -2.514   3.861  1.00  0.00     0.261 C 
BRANCH   2   3
ATOM      3  O   UNL     1      -1.546  -2.026   2.908  1.00  0.00    -0.462 OA
BRANCH   3   4
ATOM      4  C   UNL     1      -2.006  -1.078   2.045  1.00  0.00     0.331 C 
ATOM      5  O   UNL     1      -3.058  -0.462   2.202  1.00  0.00    -0.250 OA
BRANCH   4   6
ATOM      6  C   UNL     1      -1.237  -1.016   0.712  1.00  0.00     0.221 C 
BRANCH   6   7
ATOM      7  C   UNL     1      -2.130  -1.826  -0.289  1.00  0.00     0.145 C 
ATOM      8  C   UNL     1      -2.441  -3.255   0.176  1.00  0.00     0.041 C 
BRANCH   7   9
ATOM      9  O   UNL     1      -1.459  -1.902  -1.564  1.00  0.00    -0.391 OA
ATOM     10  H   UNL     1      -0.623  -2.381  -1.461  1.00  0.00     0.211 HD
ENDBRANCH   7   9
ENDBRANCH   6   7
BRANCH   6  11
ATOM     11  N   UNL     1       0.152  -1.459   0.455  1.00  0.00    -0.339 N 
ATOM     12  C   UNL     1       1.327  -0.977   0.940  1.00  0.00     0.246 C 
ATOM     13  H   UNL     1       0.238  -2.220  -0.163  1.00  0.00     0.164 HD
ATOM     14  O   UNL     1       2.253  -0.794   0.149  1.00  0.00    -0.272 OA
BRANCH  12  15
ATOM     15  C   UNL     1       1.503  -0.798   2.435  1.00  0.00     0.260 C 
BRANCH  15  16
ATOM     16  O   UNL     1       1.316   0.521   2.921  1.00  0.00    -0.366 OA
BRANCH  16  17
ATOM     17  C   UNL     1       2.498   1.325   2.777  1.00  0.00     0.222 C 
BRANCH  17  18
ATOM     18  C   UNL     1       3.323   1.392   4.077  1.00  0.00     0.287 C 
BRANCH  18  19
ATOM     19  N   UNL     1       3.911   0.112   4.478  1.00  0.00    -0.356 N 
ATOM     20  H   UNL     1       3.167  -0.560   4.665  1.00  0.00     0.344 HD
ATOM     21  H   UNL     1       4.470   0.244   5.321  1.00  0.00     0.344 HD
ATOM     22  H   UNL     1       4.506  -0.239   3.727  1.00  0.00     0.344 HD
ENDBRANCH  18  19
ENDBRANCH  17  18
ENDBRANCH  16  17
ENDBRANCH  15  16
ENDBRANCH  12  15
ENDBRANCH   6  11
ENDBRANCH   4   6
ENDBRANCH   3   4
ENDBRANCH   2   3
ENDBRANCH   1   2
BRANCH   1  23
ATOM     23  O   UNL     1      -2.224  -0.980   5.782  1.00  0.00    -0.376 OA
BRANCH  23  24
ATOM     24  C   UNL     1      -1.180  -0.090   5.407  1.00  0.00     0.188 C 
BRANCH  24  25
ATOM     25  C   UNL     1       0.247  -0.584   5.687  1.00  0.00     0.188 C 
BRANCH  25  26
ATOM     26  O   UNL     1       0.483  -1.232   6.932  1.00  0.00    -0.376 OA
BRANCH  26  27
ATOM     27  C   UNL     1       0.131  -0.508   8.109  1.00  0.00     0.202 C 
BRANCH  27  28
ATOM     28  C   UNL     1       0.870   0.821   8.260  1.00  0.00     0.261 C 
BRANCH  28  29
ATOM     29  O   UNL     1       0.247   1.820   7.431  1.00  0.00    -0.460 OA
BRANCH  29  30
ATOM     30  C   UNL     1       1.055   2.841   7.075  1.00  0.00     0.338 C 
ATOM     31  O   UNL     1       2.217   3.011   7.396  1.00  0.00    -0.246 OA
BRANCH  30  32
ATOM     32  C   UNL     1       0.316   3.786   6.225  1.00  0.00     0.060 A 
ATOM     33  C   UNL     1       0.135   3.535   4.860  1.00  0.00     0.016 A 
ATOM     34  C   UNL     1      -0.069   5.004   6.780  1.00  0.00     0.016 A 
ATOM     35  C   UNL     1      -0.376   4.540   4.030  1.00  0.00     0.010 A 
ATOM     36  C   UNL     1      -0.613   5.989   5.957  1.00  0.00     0.010 A 
ATOM     37  C   UNL     1      -0.740   5.780   4.572  1.00  0.00    -0.014 A 
BRANCH  37  38
ATOM     38  C   UNL     1      -1.233   6.909   3.743  1.00  0.00     0.031 A 
ATOM     39  C   UNL     1      -0.404   8.157   3.623  1.00  0.00     0.074 A 
ATOM     40  C   UNL     1      -2.467   6.871   3.210  1.00  0.00     0.049 A 
ATOM     41  N   UNL     1      -0.762   9.364   3.270  1.00  0.00    -0.248 NA
ATOM     42  C   UNL     1       1.022   8.024   3.962  1.00  0.00     0.031 C 
ATOM     43  C   UNL     1      -3.352   5.708   3.204  1.00  0.00     0.029 A 
ATOM     44  N   UNL     1      -3.209   7.865   2.619  1.00  0.00    -0.354 N 
ATOM     45  C   UNL     1       0.381  10.146   3.382  1.00  0.00     0.074 A 
ATOM     46  C   UNL     1       1.447   9.273   3.831  1.00  0.00     0.031 C 
ATOM     47  C   UNL     1      -4.534   6.064   2.676  1.00  0.00     0.029 A 
ATOM     48  C   UNL     1      -4.509   7.493   2.375  1.00  0.00     0.049 A 
ATOM     49  H   UNL     1      -2.846   8.752   2.393  1.00  0.00     0.167 HD
ATOM     50  C   UNL     1       0.520  11.473   3.146  1.00  0.00     0.037 A 
ATOM     51  C   UNL     1      -5.577   8.232   2.022  1.00  0.00     0.037 A 
ATOM     52  C   UNL     1      -0.547  12.330   2.693  1.00  0.00     0.049 A 
ATOM     53  C   UNL     1      -5.425   9.716   1.842  1.00  0.00     0.074 A 
ATOM     54  C   UNL     1      -0.510  13.685   2.414  1.00  0.00     0.029 A 
ATOM     55  N   UNL     1      -1.847  11.909   2.455  1.00  0.00    -0.354 N 
ATOM     56  N   UNL     1      -4.356  10.461   1.986  1.00  0.00    -0.248 NA
ATOM     57  C   UNL     1      -6.633  10.465   1.469  1.00  0.00     0.031 C 
ATOM     58  C   UNL     1      -1.798  14.092   2.046  1.00  0.00     0.029 A 
ATOM     59  C   UNL     1      -2.626  12.982   2.054  1.00  0.00     0.049 A 
ATOM     60  H   UNL     1      -2.168  10.984   2.556  1.00  0.00     0.167 HD
ATOM     61  C   UNL     1      -4.757  11.761   1.706  1.00  0.00     0.074 A 
ATOM     62  C   UNL     1      -6.165  11.701   1.371  1.00  0.00     0.031 C 
ATOM     63  C   UNL     1      -4.027  12.903   1.727  1.00  0.00     0.037 A 
BRANCH  50  64
ATOM     64  C   UNL     1       1.861  12.093   3.415  1.00  0.00     0.057 A 
ATOM     65  C   UNL     1       2.963  11.875   2.578  1.00  0.00     0.134 A 
ATOM     66  C   UNL     1       2.040  12.953   4.507  1.00  0.00     0.134 A 
ATOM     67  F   UNL     1       2.863  11.054   1.522  1.00  0.00    -0.206 F 
ATOM     68  C   UNL     1       4.199  12.475   2.829  1.00  0.00     0.040 A 
ATOM     69  C   UNL     1       3.264  13.576   4.755  1.00  0.00     0.040 A 
ATOM     70  F   UNL     1       1.024  13.210   5.345  1.00  0.00    -0.206 F 
ATOM     71  C   UNL     1       4.351  13.333   3.917  1.00  0.00     0.006 A 
ENDBRANCH  50  64
BRANCH  51  72
ATOM     72  C   UNL     1      -6.902   7.580   1.873  1.00  0.00     0.057 A 
ATOM     73  C   UNL     1      -7.491   7.425   0.614  1.00  0.00     0.134 A 
ATOM     74  C   UNL     1      -7.604   7.089   2.981  1.00  0.00     0.134 A 
ATOM     75  F   UNL     1      -6.879   7.901  -0.480  1.00  0.00    -0.206 F 
ATOM     76  C   UNL     1      -8.733   6.807   0.461  1.00  0.00     0.040 A 
ATOM     77  C   UNL     1      -8.835   6.445   2.840  1.00  0.00     0.040 A 
ATOM     78  F   UNL     1      -7.093   7.209   4.215  1.00  0.00    -0.206 F 
ATOM     79  C   UNL     1      -9.404   6.306   1.575  1.00  0.00     0.006 A 
ENDBRANCH  51  72
BRANCH  63  80
ATOM     80  C   UNL     1      -4.734  14.171   1.349  1.00  0.00     0.057 A 
ATOM     81  C   UNL     1      -5.637  14.798   2.217  1.00  0.00     0.134 A 
ATOM     82  C   UNL     1      -4.492  14.782   0.113  1.00  0.00     0.134 A 
ATOM     83  F   UNL     1      -5.923  14.254   3.409  1.00  0.00    -0.206 F 
ATOM     84  C   UNL     1      -6.290  15.978   1.859  1.00  0.00     0.040 A 
ATOM     85  C   UNL     1      -5.122  15.973  -0.248  1.00  0.00     0.040 A 
ATOM     86  F   UNL     1      -3.633  14.235  -0.761  1.00  0.00    -0.206 F 
ATOM     87  C   UNL     1      -6.029  16.572   0.625  1.00  0.00     0.006 A 
ENDBRANCH  63  80
ENDBRANCH  37  38
ENDBRANCH  30  32
ENDBRANCH  29  30
ENDBRANCH  28  29
ENDBRANCH  27  28
ENDBRANCH  26  27
ENDBRANCH  25  26
ENDBRANCH  24  25
ENDBRANCH  23  24
ENDBRANCH   1  23
TORSDOF 25
