REMARK SMILES CC(C)[C@H](NC(=O)OCc1ccccc1)C(=O)NCC(=O)OCCOCCOCCOC(=O)c1ccc(-c2c3nc(c(-c4c(F)cccc4F)c4ccc([nH]4)c(-c4c(F)cccc4F)c4nc(c(-c5c(F)cccc5F)c5ccc2[nH]5)C=C4)C=C3)cc1
REMARK SMILES IDX 24 1 23 2 22 3 20 4 21 5 19 6 18 7 16 8 17 9 4 11 2 12 1 13
REMARK SMILES IDX 3 14 5 15 6 16 7 18 8 19 9 20 10 21 11 22 15 23 12 24 14 25
REMARK SMILES IDX 13 26 25 27 26 28 27 29 28 30 29 31 30 32 31 33 32 34 33 35
REMARK SMILES IDX 34 36 35 37 87 38 36 39 86 40 37 41 38 42 39 43 80 44 40 45
REMARK SMILES IDX 85 46 79 47 81 48 41 49 84 50 78 51 77 52 42 54 68 55 51 56
REMARK SMILES IDX 67 57 52 58 55 59 66 60 82 61 53 62 54 63 65 65 83 66 56 67
REMARK SMILES IDX 43 68 44 69 49 70 45 71 46 72 48 73 50 74 47 75 69 76 70 77
REMARK SMILES IDX 75 78 71 79 72 80 74 81 76 82 73 83 57 84 58 85 63 86 59 87
REMARK SMILES IDX 60 88 62 89 64 90 61 91
REMARK H PARENT 18 10 5 17 81 53 55 64
REMARK Flexibility Score: inf
ROOT
ATOM      1  C   UNL     1       3.443  -6.561   0.666  1.00  0.00     0.202 C 
ENDROOT
BRANCH   1   2
ATOM      2  C   UNL     1       3.511  -5.118   0.140  1.00  0.00     0.261 C 
BRANCH   2   3
ATOM      3  O   UNL     1       2.245  -4.433   0.230  1.00  0.00    -0.462 OA
BRANCH   3   4
ATOM      4  C   UNL     1       1.777  -3.900  -0.924  1.00  0.00     0.325 C 
ATOM      5  O   UNL     1       2.390  -3.866  -1.986  1.00  0.00    -0.250 OA
BRANCH   4   6
ATOM      6  C   UNL     1       0.303  -3.527  -0.856  1.00  0.00     0.238 C 
BRANCH   6   7
ATOM      7  N   UNL     1      -0.352  -3.295   0.421  1.00  0.00    -0.343 N 
ATOM      8  C   UNL     1      -1.172  -2.265   0.787  1.00  0.00     0.243 C 
ATOM      9  O   UNL     1      -2.053  -2.513   1.615  1.00  0.00    -0.273 OA
ATOM     10  H   UNL     1      -0.182  -3.971   1.116  1.00  0.00     0.164 HD
BRANCH   8  11
ATOM     11  C   UNL     1      -1.071  -0.867   0.127  1.00  0.00     0.177 C 
BRANCH  11  12
ATOM     12  C   UNL     1      -2.010  -0.577  -1.071  1.00  0.00     0.015 C 
ATOM     13  C   UNL     1      -1.964  -1.570  -2.232  1.00  0.00     0.010 C 
ATOM     14  C   UNL     1      -3.465  -0.413  -0.621  1.00  0.00     0.010 C 
ENDBRANCH  11  12
BRANCH  11  15
ATOM     15  N   UNL     1       0.320  -0.529  -0.183  1.00  0.00    -0.309 N 
ATOM     16  C   UNL     1       1.109   0.384   0.439  1.00  0.00     0.408 C 
ATOM     17  H   UNL     1       0.732  -1.022  -0.929  1.00  0.00     0.167 HD
ATOM     18  O   UNL     1       2.292   0.482   0.133  1.00  0.00    -0.225 OA
BRANCH  16  19
ATOM     19  O   UNL     1       0.463   1.127   1.361  1.00  0.00    -0.445 OA
BRANCH  19  20
ATOM     20  C   UNL     1       1.239   2.187   1.932  1.00  0.00     0.270 C 
BRANCH  20  21
ATOM     21  C   UNL     1       1.946   1.806   3.213  1.00  0.00    -0.011 A 
ATOM     22  C   UNL     1       2.168   0.475   3.594  1.00  0.00     0.007 A 
ATOM     23  C   UNL     1       2.460   2.830   4.024  1.00  0.00     0.007 A 
ATOM     24  C   UNL     1       2.885   0.177   4.754  1.00  0.00     0.000 A 
ATOM     25  C   UNL     1       3.173   2.531   5.186  1.00  0.00     0.000 A 
ATOM     26  C   UNL     1       3.388   1.204   5.549  1.00  0.00     0.000 A 
ENDBRANCH  20  21
ENDBRANCH  19  20
ENDBRANCH  16  19
ENDBRANCH  11  15
ENDBRANCH   8  11
ENDBRANCH   6   7
ENDBRANCH   4   6
ENDBRANCH   3   4
ENDBRANCH   2   3
ENDBRANCH   1   2
BRANCH   1  27
ATOM     27  O   UNL     1       2.658  -7.516  -0.054  1.00  0.00    -0.376 OA
BRANCH  27  28
ATOM     28  C   UNL     1       1.348  -7.150  -0.462  1.00  0.00     0.188 C 
BRANCH  28  29
ATOM     29  C   UNL     1       0.351  -6.720   0.619  1.00  0.00     0.188 C 
BRANCH  29  30
ATOM     30  O   UNL     1       0.937  -6.279   1.820  1.00  0.00    -0.376 OA
BRANCH  30  31
ATOM     31  C   UNL     1       0.651  -6.979   3.029  1.00  0.00     0.202 C 
BRANCH  31  32
ATOM     32  C   UNL     1       0.654  -8.524   3.085  1.00  0.00     0.261 C 
BRANCH  32  33
ATOM     33  O   UNL     1      -0.065  -9.228   2.058  1.00  0.00    -0.460 OA
BRANCH  33  34
ATOM     34  C   UNL     1      -1.416  -9.109   2.038  1.00  0.00     0.338 C 
ATOM     35  O   UNL     1      -2.113  -8.542   2.858  1.00  0.00    -0.246 OA
BRANCH  34  36
ATOM     36  C   UNL     1      -1.861  -9.529   0.683  1.00  0.00     0.060 A 
ATOM     37  C   UNL     1      -2.588  -8.618  -0.103  1.00  0.00     0.016 A 
ATOM     38  C   UNL     1      -1.486 -10.766   0.156  1.00  0.00     0.016 A 
ATOM     39  C   UNL     1      -2.956  -8.950  -1.410  1.00  0.00     0.010 A 
ATOM     40  C   UNL     1      -1.883 -11.110  -1.138  1.00  0.00     0.010 A 
ATOM     41  C   UNL     1      -2.641 -10.217  -1.917  1.00  0.00    -0.014 A 
BRANCH  41  42
ATOM     42  C   UNL     1      -3.297 -10.727  -3.146  1.00  0.00     0.031 A 
ATOM     43  C   UNL     1      -4.547 -11.544  -2.974  1.00  0.00     0.074 A 
ATOM     44  C   UNL     1      -2.784 -10.529  -4.373  1.00  0.00     0.049 A 
ATOM     45  N   UNL     1      -5.200 -12.264  -3.846  1.00  0.00    -0.248 NA
ATOM     46  C   UNL     1      -5.127 -11.557  -1.620  1.00  0.00     0.031 C 
ATOM     47  C   UNL     1      -1.616  -9.711  -4.685  1.00  0.00     0.029 A 
ATOM     48  N   UNL     1      -3.176 -11.038  -5.588  1.00  0.00    -0.354 N 
ATOM     49  C   UNL     1      -6.252 -12.837  -3.142  1.00  0.00     0.074 A 
ATOM     50  C   UNL     1      -6.143 -12.391  -1.771  1.00  0.00     0.031 C 
ATOM     51  C   UNL     1      -1.364  -9.800  -6.004  1.00  0.00     0.029 A 
ATOM     52  C   UNL     1      -2.325 -10.718  -6.617  1.00  0.00     0.049 A 
ATOM     53  H   UNL     1      -3.989 -11.581  -5.708  1.00  0.00     0.167 HD
ATOM     54  C   UNL     1      -7.218 -13.667  -3.597  1.00  0.00     0.037 A 
ATOM     55  C   UNL     1      -2.300 -11.154  -7.893  1.00  0.00     0.037 A 
ATOM     56  C   UNL     1      -7.321 -14.113  -4.958  1.00  0.00     0.049 A 
ATOM     57  C   UNL     1      -3.338 -12.144  -8.363  1.00  0.00     0.074 A 
ATOM     58  C   UNL     1      -8.272 -14.944  -5.522  1.00  0.00     0.029 A 
ATOM     59  N   UNL     1      -6.434 -13.771  -5.967  1.00  0.00    -0.354 N 
ATOM     60  N   UNL     1      -4.333 -12.678  -7.697  1.00  0.00    -0.248 NA
ATOM     61  C   UNL     1      -3.243 -12.600  -9.759  1.00  0.00     0.031 C 
ATOM     62  C   UNL     1      -7.931 -15.147  -6.863  1.00  0.00     0.029 A 
ATOM     63  C   UNL     1      -6.801 -14.395  -7.146  1.00  0.00     0.049 A 
ATOM     64  H   UNL     1      -5.659 -13.174  -5.861  1.00  0.00     0.167 HD
ATOM     65  C   UNL     1      -5.002 -13.499  -8.598  1.00  0.00     0.074 A 
ATOM     66  C   UNL     1      -4.298 -13.398  -9.859  1.00  0.00     0.031 C 
ATOM     67  C   UNL     1      -6.104 -14.264  -8.400  1.00  0.00     0.037 A 
BRANCH  54  68
ATOM     68  C   UNL     1      -8.209 -14.180  -2.596  1.00  0.00     0.057 A 
ATOM     69  C   UNL     1      -9.189 -13.354  -2.029  1.00  0.00     0.134 A 
ATOM     70  C   UNL     1      -8.185 -15.523  -2.199  1.00  0.00     0.134 A 
ATOM     71  F   UNL     1      -9.251 -12.053  -2.351  1.00  0.00    -0.206 F 
ATOM     72  C   UNL     1     -10.094 -13.841  -1.085  1.00  0.00     0.040 A 
ATOM     73  C   UNL     1      -9.102 -16.027  -1.277  1.00  0.00     0.040 A 
ATOM     74  F   UNL     1      -7.271 -16.366  -2.703  1.00  0.00    -0.206 F 
ATOM     75  C   UNL     1     -10.056 -15.184  -0.712  1.00  0.00     0.006 A 
ENDBRANCH  54  68
BRANCH  55  76
ATOM     76  C   UNL     1      -1.236 -10.686  -8.819  1.00  0.00     0.057 A 
ATOM     77  C   UNL     1      -1.532  -9.846  -9.899  1.00  0.00     0.134 A 
ATOM     78  C   UNL     1       0.097 -11.082  -8.659  1.00  0.00     0.134 A 
ATOM     79  F   UNL     1      -2.796  -9.455 -10.123  1.00  0.00    -0.206 F 
ATOM     80  C   UNL     1      -0.544  -9.425 -10.792  1.00  0.00     0.040 A 
ATOM     81  C   UNL     1       1.100 -10.649  -9.529  1.00  0.00     0.040 A 
ATOM     82  F   UNL     1       0.447 -11.890  -7.647  1.00  0.00    -0.206 F 
ATOM     83  C   UNL     1       0.778  -9.822 -10.603  1.00  0.00     0.006 A 
ENDBRANCH  55  76
BRANCH  67  84
ATOM     84  C   UNL     1      -6.666 -15.008  -9.576  1.00  0.00     0.057 A 
ATOM     85  C   UNL     1      -6.062 -16.165 -10.082  1.00  0.00     0.134 A 
ATOM     86  C   UNL     1      -7.884 -14.611 -10.145  1.00  0.00     0.134 A 
ATOM     87  F   UNL     1      -4.891 -16.593  -9.587  1.00  0.00    -0.206 F 
ATOM     88  C   UNL     1      -6.648 -16.898 -11.116  1.00  0.00     0.040 A 
ATOM     89  C   UNL     1      -8.491 -15.349 -11.161  1.00  0.00     0.040 A 
ATOM     90  F   UNL     1      -8.520 -13.517  -9.698  1.00  0.00    -0.206 F 
ATOM     91  C   UNL     1      -7.872 -16.497 -11.650  1.00  0.00     0.006 A 
ENDBRANCH  67  84
ENDBRANCH  41  42
ENDBRANCH  34  36
ENDBRANCH  33  34
ENDBRANCH  32  33
ENDBRANCH  31  32
ENDBRANCH  30  31
ENDBRANCH  29  30
ENDBRANCH  28  29
ENDBRANCH  27  28
ENDBRANCH   1  27
TORSDOF 24
