REMARK SMILES Cc1ccc(-c2nc(NC(=O)[C@H]3[C@@H](C(=O)OCCOCCOCCOC(=O)c4ccc(-c5c6nc(c(-c7c(F)cccc7F)c7ccc([nH]7)c(-c7c(F)cccc7F)c7nc(c(-c8c(F)cccc8F)c8ccc5[nH]8)C=C7)C=C6)cc4)[C@@H]4CC[C@H]3O4)sc2C)cc1
REMARK SMILES IDX 20 1 19 2 18 3 17 4 16 5 14 6 15 7 13 8 12 9 85 10 82 11
REMARK SMILES IDX 84 12 86 13 83 14 10 15 9 16 11 18 8 19 6 20 7 21 88 22
REMARK SMILES IDX 87 23 89 24 5 25 1 26 2 27 3 28 91 29 4 30 90 31 21 32 22 33
REMARK SMILES IDX 23 34 24 35 25 36 26 37 27 38 28 39 29 40 81 41 30 42 80 43
REMARK SMILES IDX 31 44 32 45 33 46 74 47 34 48 79 49 73 50 75 51 35 52 78 53
REMARK SMILES IDX 72 54 71 55 36 57 62 58 45 59 61 60 46 61 49 62 60 63 76 64
REMARK SMILES IDX 47 65 48 66 59 68 77 69 50 70 37 71 38 72 43 73 39 74 40 75
REMARK SMILES IDX 42 76 44 77 41 78 63 79 64 80 69 81 65 82 66 83 68 84 70 85
REMARK SMILES IDX 67 86 51 87 52 88 57 89 53 90 54 91 56 92 58 93 55 94
REMARK H PARENT 9 17 75 56 49 67
REMARK Flexibility Score: inf
ROOT
ATOM      1  C   UNL     1      -7.447   4.098  -3.594  1.00  0.00     0.188 C 
ENDROOT
BRANCH   1   2
ATOM      2  O   UNL     1      -6.512   4.052  -2.513  1.00  0.00    -0.376 OA
BRANCH   2   3
ATOM      3  C   UNL     1      -5.931   2.806  -2.124  1.00  0.00     0.202 C 
BRANCH   3   4
ATOM      4  C   UNL     1      -6.497   2.126  -0.859  1.00  0.00     0.261 C 
BRANCH   4   5
ATOM      5  O   UNL     1      -6.871   0.693  -0.877  1.00  0.00    -0.463 OA
BRANCH   5   6
ATOM      6  C   UNL     1      -7.937   0.086  -0.306  1.00  0.00     0.312 C 
ATOM      7  O   UNL     1      -9.118   0.387  -0.208  1.00  0.00    -0.252 OA
BRANCH   6   8
ATOM      8  C   UNL     1      -7.663  -1.139   0.403  1.00  0.00     0.143 C 
ATOM      9  C   UNL     1      -6.207  -1.454   0.699  1.00  0.00     0.124 C 
ATOM     10  C   UNL     1      -6.301  -2.814  -0.134  1.00  0.00     0.132 C 
ATOM     11  C   UNL     1      -8.281  -2.102  -0.616  1.00  0.00     0.133 C 
ATOM     12  C   UNL     1      -7.320  -3.873   0.468  1.00  0.00     0.035 C 
ATOM     13  O   UNL     1      -7.089  -2.478  -1.313  1.00  0.00    -0.373 OA
ATOM     14  C   UNL     1      -8.711  -3.349   0.101  1.00  0.00     0.036 C 
BRANCH   9  15
ATOM     15  C   UNL     1      -4.982  -0.315   0.341  1.00  0.00     0.232 C 
ATOM     16  N   UNL     1      -4.357   0.651   1.224  1.00  0.00    -0.302 N 
ATOM     17  H   UNL     1      -3.666   0.269   1.813  1.00  0.00     0.172 HD
ATOM     18  O   UNL     1      -4.395  -0.465  -0.744  1.00  0.00    -0.274 OA
BRANCH  16  19
ATOM     19  C   UNL     1      -4.567   2.109   1.403  1.00  0.00     0.190 A 
ATOM     20  C   UNL     1      -4.710   4.469   1.375  1.00  0.00     0.086 A 
ATOM     21  N   UNL     1      -4.026   3.247   0.871  1.00  0.00    -0.220 NA
ATOM     22  C   UNL     1      -5.804   4.079   2.111  1.00  0.00     0.031 A 
ATOM     23  S   UNL     1      -5.567   2.506   2.689  1.00  0.00    -0.101 S 
ATOM     24  C   UNL     1      -6.985   4.888   2.458  1.00  0.00     0.059 C 
BRANCH  20  25
ATOM     25  C   UNL     1      -4.629   6.010   1.183  1.00  0.00     0.001 A 
ATOM     26  C   UNL     1      -6.566  10.006   0.905  1.00  0.00     0.044 C 
ATOM     27  C   UNL     1      -5.767   8.722   1.011  1.00  0.00    -0.051 A 
ATOM     28  C   UNL     1      -5.287   8.028  -0.116  1.00  0.00     0.004 A 
ATOM     29  C   UNL     1      -5.558   8.114   2.241  1.00  0.00     0.004 A 
ATOM     30  C   UNL     1      -4.760   6.685  -0.040  1.00  0.00     0.010 A 
ATOM     31  C   UNL     1      -4.935   6.835   2.325  1.00  0.00     0.010 A 
ENDBRANCH  20  25
ENDBRANCH  16  19
ENDBRANCH   9  15
ENDBRANCH   6   8
ENDBRANCH   5   6
ENDBRANCH   4   5
ENDBRANCH   3   4
ENDBRANCH   2   3
ENDBRANCH   1   2
BRANCH   1  32
ATOM     32  C   UNL     1      -7.018   3.426  -4.901  1.00  0.00     0.188 C 
BRANCH  32  33
ATOM     33  O   UNL     1      -6.893   2.037  -4.653  1.00  0.00    -0.376 OA
BRANCH  33  34
ATOM     34  C   UNL     1      -6.386   1.240  -5.707  1.00  0.00     0.202 C 
BRANCH  34  35
ATOM     35  C   UNL     1      -7.518   0.827  -6.657  1.00  0.00     0.261 C 
BRANCH  35  36
ATOM     36  O   UNL     1      -8.642   0.309  -5.887  1.00  0.00    -0.460 OA
BRANCH  36  37
ATOM     37  C   UNL     1      -9.747   1.115  -5.718  1.00  0.00     0.338 C 
ATOM     38  O   UNL     1     -10.213   1.841  -6.575  1.00  0.00    -0.246 OA
BRANCH  37  39
ATOM     39  C   UNL     1     -10.152   1.190  -4.255  1.00  0.00     0.060 A 
ATOM     40  C   UNL     1     -11.175   1.986  -3.686  1.00  0.00     0.016 A 
ATOM     41  C   UNL     1      -9.206   0.787  -3.380  1.00  0.00     0.016 A 
ATOM     42  C   UNL     1     -11.171   2.409  -2.266  1.00  0.00     0.010 A 
ATOM     43  C   UNL     1      -9.114   1.568  -2.226  1.00  0.00     0.010 A 
ATOM     44  C   UNL     1     -10.068   2.227  -1.431  1.00  0.00    -0.014 A 
BRANCH  44  45
ATOM     45  C   UNL     1      -9.629   3.008  -0.010  1.00  0.00     0.031 A 
ATOM     46  C   UNL     1      -9.195   2.492   1.631  1.00  0.00     0.074 A 
ATOM     47  C   UNL     1      -9.213   4.211  -0.471  1.00  0.00     0.049 A 
ATOM     48  N   UNL     1      -9.342   3.059   2.848  1.00  0.00    -0.248 NA
ATOM     49  C   UNL     1      -8.530   1.222   1.960  1.00  0.00     0.031 C 
ATOM     50  C   UNL     1      -8.163   5.110  -0.078  1.00  0.00     0.029 A 
ATOM     51  N   UNL     1     -10.098   5.070  -1.103  1.00  0.00    -0.354 N 
ATOM     52  C   UNL     1      -8.641   2.231   3.859  1.00  0.00     0.074 A 
ATOM     53  C   UNL     1      -8.658   0.952   3.257  1.00  0.00     0.031 C 
ATOM     54  C   UNL     1      -8.624   6.362  -0.000  1.00  0.00     0.029 A 
ATOM     55  C   UNL     1      -9.963   6.325  -0.480  1.00  0.00     0.049 A 
ATOM     56  H   UNL     1     -10.705   4.846  -1.845  1.00  0.00     0.167 HD
ATOM     57  C   UNL     1      -7.815   2.616   4.940  1.00  0.00     0.037 A 
ATOM     58  C   UNL     1     -11.045   6.974  -0.011  1.00  0.00     0.037 A 
ATOM     59  C   UNL     1      -7.926   4.042   5.247  1.00  0.00     0.049 A 
ATOM     60  C   UNL     1     -11.165   6.992   1.515  1.00  0.00     0.074 A 
ATOM     61  C   UNL     1      -7.098   5.090   5.662  1.00  0.00     0.029 A 
ATOM     62  N   UNL     1      -9.116   4.642   4.921  1.00  0.00    -0.354 N 
ATOM     63  N   UNL     1     -10.248   6.815   2.450  1.00  0.00    -0.248 NA
ATOM     64  C   UNL     1     -12.503   7.171   2.075  1.00  0.00     0.031 C 
ATOM     65  C   UNL     1      -7.809   6.327   5.499  1.00  0.00     0.029 A 
ATOM     66  C   UNL     1      -9.067   6.004   5.038  1.00  0.00     0.049 A 
ATOM     67  H   UNL     1      -9.917   4.147   4.635  1.00  0.00     0.167 HD
ATOM     68  C   UNL     1     -10.890   6.835   3.700  1.00  0.00     0.074 A 
ATOM     69  C   UNL     1     -12.288   7.036   3.384  1.00  0.00     0.031 C 
ATOM     70  C   UNL     1     -10.358   6.611   4.952  1.00  0.00     0.037 A 
BRANCH  57  71
ATOM     71  C   UNL     1      -6.587   1.774   5.655  1.00  0.00     0.057 A 
ATOM     72  C   UNL     1      -5.812   2.364   6.698  1.00  0.00     0.134 A 
ATOM     73  C   UNL     1      -5.978   0.561   5.220  1.00  0.00     0.134 A 
ATOM     74  F   UNL     1      -6.270   3.402   7.409  1.00  0.00    -0.206 F 
ATOM     75  C   UNL     1      -4.523   1.924   7.106  1.00  0.00     0.040 A 
ATOM     76  C   UNL     1      -4.724   0.070   5.677  1.00  0.00     0.040 A 
ATOM     77  F   UNL     1      -6.479  -0.208   4.251  1.00  0.00    -0.206 F 
ATOM     78  C   UNL     1      -3.962   0.777   6.584  1.00  0.00     0.006 A 
ENDBRANCH  57  71
BRANCH  58  79
ATOM     79  C   UNL     1     -12.095   6.852  -1.084  1.00  0.00     0.057 A 
ATOM     80  C   UNL     1     -11.727   7.409  -2.340  1.00  0.00     0.134 A 
ATOM     81  C   UNL     1     -12.995   5.781  -1.119  1.00  0.00     0.134 A 
ATOM     82  F   UNL     1     -10.837   8.416  -2.390  1.00  0.00    -0.206 F 
ATOM     83  C   UNL     1     -12.050   6.789  -3.551  1.00  0.00     0.040 A 
ATOM     84  C   UNL     1     -13.373   5.193  -2.337  1.00  0.00     0.040 A 
ATOM     85  F   UNL     1     -13.363   5.162   0.012  1.00  0.00    -0.206 F 
ATOM     86  C   UNL     1     -12.845   5.651  -3.547  1.00  0.00     0.006 A 
ENDBRANCH  58  79
BRANCH  70  87
ATOM     87  C   UNL     1     -11.122   6.629   6.281  1.00  0.00     0.057 A 
ATOM     88  C   UNL     1     -12.171   7.506   6.548  1.00  0.00     0.134 A 
ATOM     89  C   UNL     1     -10.775   5.781   7.375  1.00  0.00     0.134 A 
ATOM     90  F   UNL     1     -12.485   8.487   5.691  1.00  0.00    -0.206 F 
ATOM     91  C   UNL     1     -12.928   7.430   7.727  1.00  0.00     0.040 A 
ATOM     92  C   UNL     1     -11.498   5.718   8.565  1.00  0.00     0.040 A 
ATOM     93  F   UNL     1      -9.710   4.970   7.366  1.00  0.00    -0.206 F 
ATOM     94  C   UNL     1     -12.608   6.519   8.729  1.00  0.00     0.006 A 
ENDBRANCH  70  87
ENDBRANCH  44  45
ENDBRANCH  37  39
ENDBRANCH  36  37
ENDBRANCH  35  36
ENDBRANCH  34  35
ENDBRANCH  33  34
ENDBRANCH  32  33
ENDBRANCH   1  32
TORSDOF 20
