REMARK SMILES O=C(N[C@@H](Cc1ccc(O)cc1)C(=O)N[C@@H](Cc1c[nH]c2ccccc12)C(=O)N[C@@H](CO)C(=O)OCCOCCOCCOC(=O)c1ccc(-c2c3nc(c(-c4c(F)cccc4F)c4ccc([nH]4)c(-c4c(F)cccc4F)c4nc(c(-c5c(F)cccc5F)c5ccc2[nH]5)C=C4)C=C3)cc1)c1ccc(F)cc1
REMARK SMILES IDX 37 1 36 2 35 3 33 4 34 5 30 6 29 7 27 8 28 9 16 11 15 12
REMARK SMILES IDX 13 13 14 14 4 16 3 17 1 18 2 19 101 21 102 22 107 23 103 24
REMARK SMILES IDX 106 25 104 26 105 27 5 28 6 29 7 30 12 31 8 32 11 33 9 34
REMARK SMILES IDX 10 35 17 37 18 38 19 39 26 40 20 41 21 42 25 43 22 45 24 46
REMARK SMILES IDX 23 47 31 48 32 49 38 51 39 52 40 53 41 54 42 55 43 56 44 57
REMARK SMILES IDX 45 58 46 59 47 60 48 61 100 62 49 63 99 64 50 65 51 66 52 67
REMARK SMILES IDX 93 68 53 69 98 70 92 71 94 72 54 73 97 74 91 75 90 76 55 78
REMARK SMILES IDX 81 79 64 80 80 81 65 82 68 83 79 84 95 85 66 86 67 87 78 89
REMARK SMILES IDX 96 90 69 91 56 92 57 93 62 94 58 95 59 96 61 97 63 98 60 99
REMARK SMILES IDX 82 100 83 101 88 102 84 103 85 104 87 105 89 106 86 107
REMARK SMILES IDX 70 108 71 109 76 110 72 111 73 112 75 113 77 114 74 115
REMARK H PARENT 29 10 15 15 3 20 10 36 20 44 32 50 94 77 68 88
REMARK Flexibility Score: inf
ROOT
ATOM      1  C   UNL     1       3.628  -4.810 -10.499  1.00  0.00     0.202 C 
ENDROOT
BRANCH   1   2
ATOM      2  C   UNL     1       4.844  -3.813 -10.398  1.00  0.00     0.261 C 
BRANCH   2   3
ATOM      3  O   UNL     1       5.309  -3.455  -9.040  1.00  0.00    -0.462 OA
BRANCH   3   4
ATOM      4  C   UNL     1       5.778  -2.174  -8.877  1.00  0.00     0.331 C 
ATOM      5  O   UNL     1       5.876  -1.391  -9.827  1.00  0.00    -0.250 OA
BRANCH   4   6
ATOM      6  C   UNL     1       6.227  -1.703  -7.428  1.00  0.00     0.218 C 
BRANCH   6   7
ATOM      7  N   UNL     1       5.993  -2.448  -6.158  1.00  0.00    -0.339 N 
ATOM      8  C   UNL     1       6.435  -1.980  -4.932  1.00  0.00     0.243 C 
ATOM      9  O   UNL     1       7.618  -2.247  -4.661  1.00  0.00    -0.273 OA
ATOM     10  H   UNL     1       5.506  -3.303  -6.193  1.00  0.00     0.164 HD
BRANCH   8  11
ATOM     11  C   UNL     1       5.470  -1.400  -3.772  1.00  0.00     0.175 C 
BRANCH  11  12
ATOM     12  N   UNL     1       6.349  -0.766  -2.772  1.00  0.00    -0.342 N 
ATOM     13  C   UNL     1       6.160  -0.446  -1.470  1.00  0.00     0.243 C 
ATOM     14  O   UNL     1       6.931   0.412  -1.016  1.00  0.00    -0.273 OA
ATOM     15  H   UNL     1       7.242  -0.532  -3.116  1.00  0.00     0.164 HD
BRANCH  13  16
ATOM     16  C   UNL     1       5.082  -1.068  -0.536  1.00  0.00     0.176 C 
BRANCH  16  17
ATOM     17  N   UNL     1       3.687  -0.710  -0.779  1.00  0.00    -0.340 N 
ATOM     18  O   UNL     1       1.665   0.134  -0.300  1.00  0.00    -0.269 OA
ATOM     19  C   UNL     1       2.855   0.123  -0.061  1.00  0.00     0.251 C 
ATOM     20  H   UNL     1       3.280  -1.126  -1.574  1.00  0.00     0.164 HD
BRANCH  19  21
ATOM     21  C   UNL     1       3.404   0.948   1.041  1.00  0.00     0.040 A 
ATOM     22  C   UNL     1       4.434   1.867   0.810  1.00  0.00     0.017 A 
ATOM     23  C   UNL     1       2.872   0.787   2.326  1.00  0.00     0.017 A 
ATOM     24  C   UNL     1       4.984   2.571   1.882  1.00  0.00     0.040 A 
ATOM     25  C   UNL     1       3.424   1.498   3.395  1.00  0.00     0.040 A 
ATOM     26  C   UNL     1       4.483   2.371   3.165  1.00  0.00     0.123 A 
ATOM     27  F   UNL     1       5.030   3.029   4.196  1.00  0.00    -0.207 F 
ENDBRANCH  19  21
ENDBRANCH  16  17
BRANCH  16  28
ATOM     28  C   UNL     1       5.308  -2.546  -0.151  1.00  0.00     0.070 C 
BRANCH  28  29
ATOM     29  C   UNL     1       4.798  -3.692  -0.998  1.00  0.00    -0.045 A 
ATOM     30  C   UNL     1       3.434  -3.896  -1.256  1.00  0.00     0.007 A 
ATOM     31  C   UNL     1       5.701  -4.687  -1.413  1.00  0.00     0.007 A 
ATOM     32  C   UNL     1       2.999  -5.026  -1.963  1.00  0.00     0.046 A 
ATOM     33  C   UNL     1       5.265  -5.813  -2.120  1.00  0.00     0.046 A 
ATOM     34  C   UNL     1       3.919  -5.959  -2.420  1.00  0.00     0.115 A 
BRANCH  34  35
ATOM     35  O   UNL     1       3.533  -7.031  -3.169  1.00  0.00    -0.508 OA
ATOM     36  H   UNL     1       2.629  -7.151  -3.384  1.00  0.00     0.293 HD
ENDBRANCH  34  35
ENDBRANCH  28  29
ENDBRANCH  16  28
ENDBRANCH  13  16
ENDBRANCH  11  12
BRANCH  11  37
ATOM     37  C   UNL     1       4.337  -0.378  -4.036  1.00  0.00     0.072 C 
BRANCH  37  38
ATOM     38  C   UNL     1       3.467  -0.631  -5.188  1.00  0.00    -0.020 A 
ATOM     39  C   UNL     1       2.975   0.290  -6.091  1.00  0.00     0.087 A 
ATOM     40  C   UNL     1       3.108  -1.920  -5.625  1.00  0.00     0.003 A 
ATOM     41  N   UNL     1       2.521  -0.417  -7.170  1.00  0.00    -0.361 N 
ATOM     42  C   UNL     1       2.756  -1.748  -6.946  1.00  0.00     0.046 A 
ATOM     43  C   UNL     1       3.325  -3.212  -5.107  1.00  0.00     0.010 A 
ATOM     44  H   UNL     1       2.097  -0.034  -7.972  1.00  0.00     0.166 HD
ATOM     45  C   UNL     1       2.801  -2.806  -7.817  1.00  0.00     0.026 A 
ATOM     46  C   UNL     1       3.388  -4.290  -5.963  1.00  0.00     0.001 A 
ATOM     47  C   UNL     1       3.190  -4.057  -7.302  1.00  0.00     0.002 A 
ENDBRANCH  37  38
ENDBRANCH  11  37
ENDBRANCH   8  11
ENDBRANCH   6   7
BRANCH   6  48
ATOM     48  C   UNL     1       7.725  -1.338  -7.549  1.00  0.00     0.193 C 
BRANCH  48  49
ATOM     49  O   UNL     1       8.541  -2.507  -7.448  1.00  0.00    -0.394 OA
ATOM     50  H   UNL     1       8.398  -2.928  -6.586  1.00  0.00     0.210 HD
ENDBRANCH  48  49
ENDBRANCH   6  48
ENDBRANCH   4   6
ENDBRANCH   3   4
ENDBRANCH   2   3
ENDBRANCH   1   2
BRANCH   1  51
ATOM     51  O   UNL     1       2.369  -4.144 -10.298  1.00  0.00    -0.376 OA
BRANCH  51  52
ATOM     52  C   UNL     1       1.186  -4.955 -10.180  1.00  0.00     0.188 C 
BRANCH  52  53
ATOM     53  C   UNL     1       0.654  -5.171  -8.740  1.00  0.00     0.188 C 
BRANCH  53  54
ATOM     54  O   UNL     1       1.369  -6.204  -8.050  1.00  0.00    -0.376 OA
BRANCH  54  55
ATOM     55  C   UNL     1       0.708  -7.461  -8.063  1.00  0.00     0.202 C 
BRANCH  55  56
ATOM     56  C   UNL     1      -0.232  -7.707  -6.869  1.00  0.00     0.261 C 
BRANCH  56  57
ATOM     57  O   UNL     1      -0.757  -6.513  -6.261  1.00  0.00    -0.460 OA
BRANCH  57  58
ATOM     58  C   UNL     1      -0.098  -6.120  -5.142  1.00  0.00     0.338 C 
ATOM     59  O   UNL     1       0.862  -6.672  -4.617  1.00  0.00    -0.246 OA
BRANCH  58  60
ATOM     60  C   UNL     1      -0.649  -4.852  -4.604  1.00  0.00     0.060 A 
ATOM     61  C   UNL     1       0.288  -3.959  -4.091  1.00  0.00     0.016 A 
ATOM     62  C   UNL     1      -2.005  -4.554  -4.479  1.00  0.00     0.016 A 
ATOM     63  C   UNL     1      -0.086  -2.789  -3.442  1.00  0.00     0.010 A 
ATOM     64  C   UNL     1      -2.395  -3.369  -3.822  1.00  0.00     0.010 A 
ATOM     65  C   UNL     1      -1.438  -2.488  -3.279  1.00  0.00    -0.014 A 
BRANCH  65  66
ATOM     66  C   UNL     1      -1.808  -1.322  -2.431  1.00  0.00     0.031 A 
ATOM     67  C   UNL     1      -2.404  -1.552  -1.069  1.00  0.00     0.074 A 
ATOM     68  C   UNL     1      -1.524  -0.063  -2.817  1.00  0.00     0.049 A 
ATOM     69  N   UNL     1      -2.869  -0.687  -0.203  1.00  0.00    -0.248 NA
ATOM     70  C   UNL     1      -2.494  -2.952  -0.627  1.00  0.00     0.031 C 
ATOM     71  C   UNL     1      -0.863   0.314  -4.066  1.00  0.00     0.029 A 
ATOM     72  N   UNL     1      -1.745   1.134  -2.180  1.00  0.00    -0.354 N 
ATOM     73  C   UNL     1      -3.337  -1.436   0.868  1.00  0.00     0.074 A 
ATOM     74  C   UNL     1      -3.115  -2.828   0.536  1.00  0.00     0.031 C 
ATOM     75  C   UNL     1      -0.720   1.649  -4.097  1.00  0.00     0.029 A 
ATOM     76  C   UNL     1      -1.320   2.225  -2.895  1.00  0.00     0.049 A 
ATOM     77  H   UNL     1      -2.167   1.202  -1.293  1.00  0.00     0.167 HD
ATOM     78  C   UNL     1      -3.902  -1.008   2.023  1.00  0.00     0.037 A 
ATOM     79  C   UNL     1      -1.424   3.542  -2.627  1.00  0.00     0.037 A 
ATOM     80  C   UNL     1      -4.081   0.375   2.384  1.00  0.00     0.049 A 
ATOM     81  C   UNL     1      -2.083   3.998  -1.354  1.00  0.00     0.074 A 
ATOM     82  C   UNL     1      -4.651   0.901   3.531  1.00  0.00     0.029 A 
ATOM     83  N   UNL     1      -3.674   1.451   1.611  1.00  0.00    -0.354 N 
ATOM     84  N   UNL     1      -2.593   3.282  -0.382  1.00  0.00    -0.248 NA
ATOM     85  C   UNL     1      -2.191   5.450  -1.148  1.00  0.00     0.031 C 
ATOM     86  C   UNL     1      -4.623   2.298   3.434  1.00  0.00     0.029 A 
ATOM     87  C   UNL     1      -4.000   2.640   2.245  1.00  0.00     0.049 A 
ATOM     88  H   UNL     1      -3.221   1.382   0.739  1.00  0.00     0.167 HD
ATOM     89  C   UNL     1      -3.075   4.192   0.551  1.00  0.00     0.074 A 
ATOM     90  C   UNL     1      -2.777   5.513   0.040  1.00  0.00     0.031 C 
ATOM     91  C   UNL     1      -3.714   3.952   1.723  1.00  0.00     0.037 A 
BRANCH  78  92
ATOM     92  C   UNL     1      -4.420  -2.063   2.954  1.00  0.00     0.057 A 
ATOM     93  C   UNL     1      -3.570  -2.871   3.719  1.00  0.00     0.134 A 
ATOM     94  C   UNL     1      -5.799  -2.283   3.068  1.00  0.00     0.134 A 
ATOM     95  F   UNL     1      -2.239  -2.725   3.640  1.00  0.00    -0.206 F 
ATOM     96  C   UNL     1      -4.072  -3.885   4.537  1.00  0.00     0.040 A 
ATOM     97  C   UNL     1      -6.314  -3.276   3.902  1.00  0.00     0.040 A 
ATOM     98  F   UNL     1      -6.668  -1.541   2.365  1.00  0.00    -0.206 F 
ATOM     99  C   UNL     1      -5.449  -4.088   4.632  1.00  0.00     0.006 A 
ENDBRANCH  78  92
BRANCH  79 100
ATOM    100  C   UNL     1      -0.931   4.532  -3.617  1.00  0.00     0.057 A 
ATOM    101  C   UNL     1       0.200   5.316  -3.367  1.00  0.00     0.134 A 
ATOM    102  C   UNL     1      -1.593   4.721  -4.837  1.00  0.00     0.134 A 
ATOM    103  F   UNL     1       0.858   5.203  -2.204  1.00  0.00    -0.206 F 
ATOM    104  C   UNL     1       0.652   6.258  -4.292  1.00  0.00     0.040 A 
ATOM    105  C   UNL     1      -1.137   5.642  -5.780  1.00  0.00     0.040 A 
ATOM    106  F   UNL     1      -2.686   4.003  -5.133  1.00  0.00    -0.206 F 
ATOM    107  C   UNL     1      -0.013   6.418  -5.507  1.00  0.00     0.006 A 
ENDBRANCH  79 100
BRANCH  91 108
ATOM    108  C   UNL     1      -4.131   5.146   2.531  1.00  0.00     0.057 A 
ATOM    109  C   UNL     1      -5.205   5.958   2.143  1.00  0.00     0.134 A 
ATOM    110  C   UNL     1      -3.465   5.479   3.717  1.00  0.00     0.134 A 
ATOM    111  F   UNL     1      -5.878   5.702   1.011  1.00  0.00    -0.206 F 
ATOM    112  C   UNL     1      -5.585   7.074   2.893  1.00  0.00     0.040 A 
ATOM    113  C   UNL     1      -3.849   6.579   4.486  1.00  0.00     0.040 A 
ATOM    114  F   UNL     1      -2.433   4.739   4.150  1.00  0.00    -0.206 F 
ATOM    115  C   UNL     1      -4.908   7.384   4.071  1.00  0.00     0.006 A 
ENDBRANCH  91 108
ENDBRANCH  65  66
ENDBRANCH  58  60
ENDBRANCH  57  58
ENDBRANCH  56  57
ENDBRANCH  55  56
ENDBRANCH  54  55
ENDBRANCH  53  54
ENDBRANCH  52  53
ENDBRANCH  51  52
ENDBRANCH   1  51
TORSDOF 30
