REMARK SMILES Cc1ccccc1OCCN1C(=O)CC[C@H](C(=O)OCCOCCOCCOC(=O)c2ccc(-c3c4nc(c(-c5c(F)cccc5F)c5ccc([nH]5)c(-c5c(F)cccc5F)c5nc(c(-c6c(F)cccc6F)c6ccc3[nH]6)C=C5)C=C4)cc2)[C@@H]1c1ccco1
REMARK SMILES IDX 23 1 22 2 21 3 20 4 19 5 17 6 18 7 16 8 11 9 12 10 85 11
REMARK SMILES IDX 13 12 14 13 15 14 10 15 9 16 8 17 7 18 1 19 2 20 3 21 4 22
REMARK SMILES IDX 6 23 5 24 86 25 87 26 90 27 88 28 89 29 24 30 25 31 26 32
REMARK SMILES IDX 27 33 28 34 29 35 30 36 31 37 32 38 84 39 33 40 83 41 34 42
REMARK SMILES IDX 35 43 36 44 77 45 37 46 82 47 76 48 78 49 38 50 81 51 75 52
REMARK SMILES IDX 74 53 39 55 65 56 48 57 64 58 49 59 52 60 63 61 79 62 50 63
REMARK SMILES IDX 51 64 62 66 80 67 53 68 40 69 41 70 46 71 42 72 43 73 45 74
REMARK SMILES IDX 47 75 44 76 66 77 67 78 72 79 68 80 69 81 71 82 73 83 70 84
REMARK SMILES IDX 54 85 55 86 60 87 56 88 57 89 59 90 61 91 58 92
REMARK H PARENT 78 54 52 65
REMARK Flexibility Score: inf
ROOT
ATOM      1  C   UNL     1       4.455  -7.297   0.727  1.00  0.00     0.188 C 
ENDROOT
BRANCH   1   2
ATOM      2  O   UNL     1       5.267  -6.679   1.736  1.00  0.00    -0.376 OA
BRANCH   2   3
ATOM      3  C   UNL     1       4.861  -6.098   3.007  1.00  0.00     0.202 C 
BRANCH   3   4
ATOM      4  C   UNL     1       4.178  -4.582   3.606  1.00  0.00     0.261 C 
BRANCH   4   5
ATOM      5  O   UNL     1       3.151  -3.195   2.927  1.00  0.00    -0.463 OA
BRANCH   5   6
ATOM      6  C   UNL     1       2.869  -2.401   1.645  1.00  0.00     0.311 C 
ATOM      7  O   UNL     1       3.336  -2.484   0.487  1.00  0.00    -0.252 OA
BRANCH   6   8
ATOM      8  C   UNL     1       2.120  -1.180   1.664  1.00  0.00     0.130 C 
ATOM      9  N   UNL     1       2.619   1.219   1.878  1.00  0.00    -0.328 N 
ATOM     10  C   UNL     1       1.457   1.338   2.651  1.00  0.00     0.223 C 
ATOM     11  C   UNL     1       3.145  -0.061   1.379  1.00  0.00     0.166 C 
ATOM     12  O   UNL     1       1.097   2.405   3.153  1.00  0.00    -0.275 OA
ATOM     13  C   UNL     1       0.492   0.168   2.706  1.00  0.00     0.101 C 
ATOM     14  C   UNL     1       1.160  -1.158   2.781  1.00  0.00     0.028 C 
BRANCH   9  15
ATOM     15  C   UNL     1       3.048   2.453   1.223  1.00  0.00     0.162 C 
BRANCH  15  16
ATOM     16  C   UNL     1       2.360   2.746  -0.144  1.00  0.00     0.251 C 
BRANCH  16  17
ATOM     17  O   UNL     1       0.939   2.612  -0.199  1.00  0.00    -0.491 OA
BRANCH  17  18
ATOM     18  C   UNL     1       0.268   1.504  -0.636  1.00  0.00     0.122 A 
ATOM     19  C   UNL     1       2.001   0.267  -2.119  1.00  0.00     0.048 C 
ATOM     20  C   UNL     1       0.700   0.396  -1.381  1.00  0.00    -0.009 A 
ATOM     21  C   UNL     1      -0.163  -0.724  -1.491  1.00  0.00     0.007 A 
ATOM     22  C   UNL     1      -1.462  -0.711  -0.989  1.00  0.00     0.001 A 
ATOM     23  C   UNL     1      -1.083   1.533  -0.220  1.00  0.00     0.047 A 
ATOM     24  C   UNL     1      -1.941   0.442  -0.392  1.00  0.00     0.004 A 
ENDBRANCH  17  18
ENDBRANCH  16  17
ENDBRANCH  15  16
ENDBRANCH   9  15
BRANCH  11  25
ATOM     25  C   UNL     1       4.577  -0.503   1.728  1.00  0.00     0.127 A 
ATOM     26  C   UNL     1       5.908  -1.320   0.971  1.00  0.00     0.048 A 
ATOM     27  O   UNL     1       4.770  -0.852   3.505  1.00  0.00    -0.467 OA
ATOM     28  C   UNL     1       7.062  -2.221   2.208  1.00  0.00     0.042 A 
ATOM     29  C   UNL     1       6.441  -2.041   3.840  1.00  0.00     0.195 A 
ENDBRANCH  11  25
ENDBRANCH   6   8
ENDBRANCH   5   6
ENDBRANCH   4   5
ENDBRANCH   3   4
ENDBRANCH   2   3
ENDBRANCH   1   2
BRANCH   1  30
ATOM     30  C   UNL     1       3.233  -8.054   1.147  1.00  0.00     0.188 C 
BRANCH  30  31
ATOM     31  O   UNL     1       2.806  -7.445   2.332  1.00  0.00    -0.376 OA
BRANCH  31  32
ATOM     32  C   UNL     1       2.057  -8.188   3.244  1.00  0.00     0.202 C 
BRANCH  32  33
ATOM     33  C   UNL     1       0.781  -8.713   2.594  1.00  0.00     0.261 C 
BRANCH  33  34
ATOM     34  O   UNL     1      -0.083  -7.616   2.178  1.00  0.00    -0.460 OA
BRANCH  34  35
ATOM     35  C   UNL     1      -0.031  -7.195   0.864  1.00  0.00     0.338 C 
ATOM     36  O   UNL     1      -0.200  -7.915  -0.103  1.00  0.00    -0.246 OA
BRANCH  35  37
ATOM     37  C   UNL     1       0.530  -5.797   0.779  1.00  0.00     0.060 A 
ATOM     38  C   UNL     1       1.329  -5.361  -0.299  1.00  0.00     0.016 A 
ATOM     39  C   UNL     1       0.829  -5.281   1.984  1.00  0.00     0.016 A 
ATOM     40  C   UNL     1       2.649  -4.779  -0.108  1.00  0.00     0.010 A 
ATOM     41  C   UNL     1       2.177  -4.986   2.132  1.00  0.00     0.010 A 
ATOM     42  C   UNL     1       3.269  -4.671   1.154  1.00  0.00    -0.014 A 
BRANCH  42  43
ATOM     43  C   UNL     1       4.900  -3.776   1.520  1.00  0.00     0.031 A 
ATOM     44  C   UNL     1       5.102  -2.249   2.738  1.00  0.00     0.074 A 
ATOM     45  C   UNL     1       5.964  -4.378   0.890  1.00  0.00     0.049 A 
ATOM     46  N   UNL     1       6.163  -0.693   2.785  1.00  0.00    -0.248 NA
ATOM     47  C   UNL     1       4.466  -2.213   4.678  1.00  0.00     0.031 C 
ATOM     48  C   UNL     1       7.366  -4.623   1.317  1.00  0.00     0.029 A 
ATOM     49  N   UNL     1       5.993  -4.978  -0.369  1.00  0.00    -0.354 N 
ATOM     50  C   UNL     1       6.245  -0.022   4.421  1.00  0.00     0.074 A 
ATOM     51  C   UNL     1       5.058  -1.011   5.419  1.00  0.00     0.031 C 
ATOM     52  C   UNL     1       8.149  -4.791   0.238  1.00  0.00     0.029 A 
ATOM     53  C   UNL     1       7.274  -4.738  -0.899  1.00  0.00     0.049 A 
ATOM     54  H   UNL     1       5.260  -5.472  -0.803  1.00  0.00     0.167 HD
ATOM     55  C   UNL     1       7.519   0.335   4.841  1.00  0.00     0.037 A 
ATOM     56  C   UNL     1       7.436  -4.078  -2.063  1.00  0.00     0.037 A 
ATOM     57  C   UNL     1       8.569  -0.021   3.812  1.00  0.00     0.049 A 
ATOM     58  C   UNL     1       8.241  -2.810  -1.806  1.00  0.00     0.074 A 
ATOM     59  C   UNL     1       9.555  -1.010   3.812  1.00  0.00     0.029 A 
ATOM     60  N   UNL     1       8.459   0.348   2.450  1.00  0.00    -0.354 N 
ATOM     61  N   UNL     1       8.400  -2.203  -0.642  1.00  0.00    -0.248 NA
ATOM     62  C   UNL     1       9.049  -2.211  -2.857  1.00  0.00     0.031 C 
ATOM     63  C   UNL     1      10.007  -1.243   2.474  1.00  0.00     0.029 A 
ATOM     64  C   UNL     1       9.310  -0.408   1.611  1.00  0.00     0.049 A 
ATOM     65  H   UNL     1       7.856   1.054   2.123  1.00  0.00     0.167 HD
ATOM     66  C   UNL     1       9.217  -1.095  -0.788  1.00  0.00     0.074 A 
ATOM     67  C   UNL     1       9.669  -1.234  -2.173  1.00  0.00     0.031 C 
ATOM     68  C   UNL     1       9.477  -0.118   0.165  1.00  0.00     0.037 A 
BRANCH  55  69
ATOM     69  C   UNL     1       7.810   0.534   6.326  1.00  0.00     0.057 A 
ATOM     70  C   UNL     1       9.113   0.435   6.850  1.00  0.00     0.134 A 
ATOM     71  C   UNL     1       6.834   0.859   7.294  1.00  0.00     0.134 A 
ATOM     72  F   UNL     1      10.178   0.254   6.060  1.00  0.00    -0.206 F 
ATOM     73  C   UNL     1       9.407   0.543   8.219  1.00  0.00     0.040 A 
ATOM     74  C   UNL     1       7.106   0.939   8.672  1.00  0.00     0.040 A 
ATOM     75  F   UNL     1       5.577   1.163   6.942  1.00  0.00    -0.206 F 
ATOM     76  C   UNL     1       8.399   0.774   9.142  1.00  0.00     0.006 A 
ENDBRANCH  55  69
BRANCH  56  77
ATOM     77  C   UNL     1       6.276  -4.412  -2.974  1.00  0.00     0.057 A 
ATOM     78  C   UNL     1       6.077  -5.798  -3.255  1.00  0.00     0.134 A 
ATOM     79  C   UNL     1       5.136  -3.610  -3.061  1.00  0.00     0.134 A 
ATOM     80  F   UNL     1       7.113  -6.652  -3.185  1.00  0.00    -0.206 F 
ATOM     81  C   UNL     1       4.803  -6.372  -3.393  1.00  0.00     0.040 A 
ATOM     82  C   UNL     1       3.860  -4.171  -3.272  1.00  0.00     0.040 A 
ATOM     83  F   UNL     1       5.206  -2.301  -2.786  1.00  0.00    -0.206 F 
ATOM     84  C   UNL     1       3.682  -5.557  -3.364  1.00  0.00     0.006 A 
ENDBRANCH  56  77
BRANCH  68  85
ATOM     85  C   UNL     1      10.082   1.255  -0.159  1.00  0.00     0.057 A 
ATOM     86  C   UNL     1      10.194   1.823  -1.437  1.00  0.00     0.134 A 
ATOM     87  C   UNL     1      10.488   2.130   0.885  1.00  0.00     0.134 A 
ATOM     88  F   UNL     1       9.701   1.239  -2.534  1.00  0.00    -0.206 F 
ATOM     89  C   UNL     1      10.770   3.082  -1.663  1.00  0.00     0.040 A 
ATOM     90  C   UNL     1      10.943   3.432   0.677  1.00  0.00     0.040 A 
ATOM     91  F   UNL     1      10.465   1.787   2.179  1.00  0.00    -0.206 F 
ATOM     92  C   UNL     1      11.127   3.900  -0.605  1.00  0.00     0.006 A 
ENDBRANCH  68  85
ENDBRANCH  42  43
ENDBRANCH  35  37
ENDBRANCH  34  35
ENDBRANCH  33  34
ENDBRANCH  32  33
ENDBRANCH  31  32
ENDBRANCH  30  31
ENDBRANCH   1  30
TORSDOF 22
