REMARK SMILES COc1cc([C@H]2CC(c3ccc(S(C)(=O)=O)cc3)=NN2c2ccc(C(=O)OCCOCCOCCOC(=O)c3ccc(-c4c5nc(c(-c6c(F)cccc6F)c6ccc([nH]6)c(-c6c(F)cccc6F)c6nc(c(-c7c(F)cccc7F)c7ccc4[nH]7)C=C6)C=C5)cc3)cc2)cc(OC)c1OC
REMARK SMILES IDX 31 1 30 2 29 3 28 4 27 5 25 6 26 7 24 8 21 9 22 10 94 11
REMARK SMILES IDX 23 12 93 13 20 14 6 15 7 16 8 17 19 18 5 19 3 20 4 21 99 22
REMARK SMILES IDX 96 23 95 24 2 25 1 26 100 27 101 28 97 29 98 30 9 31 10 32
REMARK SMILES IDX 18 33 11 34 17 35 12 36 13 37 14 38 15 39 16 40 32 41 33 42
REMARK SMILES IDX 34 43 35 44 36 45 37 46 38 47 39 48 40 49 92 50 41 51 91 52
REMARK SMILES IDX 42 53 43 54 44 55 85 56 45 57 90 58 84 59 86 60 46 61 89 62
REMARK SMILES IDX 83 63 82 64 47 66 73 67 56 68 72 69 57 70 60 71 71 72 87 73
REMARK SMILES IDX 58 74 59 75 70 77 88 78 61 79 48 80 49 81 54 82 50 83 51 84
REMARK SMILES IDX 53 85 55 86 52 87 74 88 75 89 80 90 76 91 77 92 79 93 81 94
REMARK SMILES IDX 78 95 62 96 63 97 68 98 64 99 65 100 67 101 69 102 66 103
REMARK H PARENT 86 65 60 76
REMARK Flexibility Score: inf
ROOT
ATOM      1  C   UNL     1       2.350 -10.218   0.274  1.00  0.00     0.188 C 
ENDROOT
BRANCH   1   2
ATOM      2  O   UNL     1       2.800 -10.494   1.592  1.00  0.00    -0.376 OA
BRANCH   2   3
ATOM      3  C   UNL     1       2.127  -9.920   2.704  1.00  0.00     0.202 C 
BRANCH   3   4
ATOM      4  C   UNL     1       1.905  -8.405   2.770  1.00  0.00     0.261 C 
BRANCH   4   5
ATOM      5  O   UNL     1       1.253  -7.853   1.617  1.00  0.00    -0.460 OA
BRANCH   5   6
ATOM      6  C   UNL     1       1.994  -6.973   0.899  1.00  0.00     0.338 C 
ATOM      7  O   UNL     1       3.119  -6.575   1.161  1.00  0.00    -0.246 OA
BRANCH   6   8
ATOM      8  C   UNL     1       1.320  -6.678  -0.382  1.00  0.00     0.060 A 
ATOM      9  C   UNL     1       0.165  -6.015  -2.855  1.00  0.00     0.060 A 
ATOM     10  C   UNL     1       1.504  -6.420  -2.781  1.00  0.00     0.029 A 
ATOM     11  C   UNL     1      -0.604  -6.022  -1.680  1.00  0.00     0.029 A 
ATOM     12  C   UNL     1       2.090  -6.718  -1.550  1.00  0.00     0.018 A 
ATOM     13  C   UNL     1      -0.039  -6.368  -0.448  1.00  0.00     0.018 A 
BRANCH   9  14
ATOM     14  N   UNL     1      -0.357  -5.492  -4.040  1.00  0.00    -0.257 N 
ATOM     15  C   UNL     1      -0.689  -4.059  -4.150  1.00  0.00     0.144 C 
ATOM     16  C   UNL     1      -0.817  -3.864  -5.667  1.00  0.00     0.091 C 
ATOM     17  C   UNL     1      -0.413  -5.230  -6.155  1.00  0.00     0.071 C 
ATOM     18  N   UNL     1      -0.132  -6.102  -5.237  1.00  0.00    -0.176 NA
BRANCH  15  19
ATOM     19  C   UNL     1       0.357  -3.174  -3.475  1.00  0.00    -0.015 A 
ATOM     20  C   UNL     1       1.101  -1.932  -1.502  1.00  0.00     0.164 A 
ATOM     21  C   UNL     1       0.090  -2.585  -2.231  1.00  0.00     0.056 A 
ATOM     22  C   UNL     1       2.421  -1.861  -1.988  1.00  0.00     0.203 A 
ATOM     23  C   UNL     1       2.683  -2.418  -3.257  1.00  0.00     0.164 A 
ATOM     24  C   UNL     1       1.658  -3.056  -3.979  1.00  0.00     0.056 A 
BRANCH  20  25
ATOM     25  O   UNL     1       0.763  -1.500  -0.244  1.00  0.00    -0.493 OA
ATOM     26  C   UNL     1       0.099  -0.237  -0.279  1.00  0.00     0.278 C 
ENDBRANCH  20  25
BRANCH  22  27
ATOM     27  O   UNL     1       3.491  -1.320  -1.333  1.00  0.00    -0.490 OA
ATOM     28  C   UNL     1       3.346  -0.666  -0.086  1.00  0.00     0.278 C 
ENDBRANCH  22  27
BRANCH  23  29
ATOM     29  O   UNL     1       3.870  -2.454  -3.950  1.00  0.00    -0.493 OA
ATOM     30  C   UNL     1       5.065  -2.042  -3.304  1.00  0.00     0.278 C 
ENDBRANCH  23  29
ENDBRANCH  15  19
BRANCH  17  31
ATOM     31  C   UNL     1      -0.433  -5.551  -7.593  1.00  0.00    -0.002 A 
ATOM     32  C   UNL     1      -1.157  -6.674  -8.015  1.00  0.00     0.011 A 
ATOM     33  C   UNL     1       0.205  -4.730  -8.527  1.00  0.00     0.011 A 
ATOM     34  C   UNL     1      -1.272  -6.961  -9.378  1.00  0.00     0.021 A 
ATOM     35  C   UNL     1       0.113  -5.030  -9.891  1.00  0.00     0.021 A 
ATOM     36  C   UNL     1      -0.630  -6.140 -10.309  1.00  0.00     0.067 A 
BRANCH  36  37
ATOM     37  S   UNL     1      -0.827  -6.477 -12.047  1.00  0.00     0.175 S 
ATOM     38  C   UNL     1      -0.109  -8.081 -12.279  1.00  0.00     0.163 C 
ATOM     39  O   UNL     1      -2.253  -6.574 -12.291  1.00  0.00    -0.224 OA
ATOM     40  O   UNL     1      -0.011  -5.522 -12.773  1.00  0.00    -0.224 OA
ENDBRANCH  36  37
ENDBRANCH  17  31
ENDBRANCH   9  14
ENDBRANCH   6   8
ENDBRANCH   5   6
ENDBRANCH   4   5
ENDBRANCH   3   4
ENDBRANCH   2   3
ENDBRANCH   1   2
BRANCH   1  41
ATOM     41  C   UNL     1       0.855 -10.337  -0.090  1.00  0.00     0.188 C 
BRANCH  41  42
ATOM     42  O   UNL     1      -0.030 -10.732   0.928  1.00  0.00    -0.376 OA
BRANCH  42  43
ATOM     43  C   UNL     1      -0.224 -12.093   1.262  1.00  0.00     0.202 C 
BRANCH  43  44
ATOM     44  C   UNL     1       0.500 -13.304   0.644  1.00  0.00     0.261 C 
BRANCH  44  45
ATOM     45  O   UNL     1       1.573 -13.062  -0.263  1.00  0.00    -0.460 OA
BRANCH  45  46
ATOM     46  C   UNL     1       1.288 -13.266  -1.571  1.00  0.00     0.338 C 
ATOM     47  O   UNL     1       0.218 -13.575  -2.063  1.00  0.00    -0.246 OA
BRANCH  46  48
ATOM     48  C   UNL     1       2.478 -12.915  -2.365  1.00  0.00     0.060 A 
ATOM     49  C   UNL     1       2.417 -11.807  -3.217  1.00  0.00     0.016 A 
ATOM     50  C   UNL     1       3.630 -13.700  -2.294  1.00  0.00     0.016 A 
ATOM     51  C   UNL     1       3.509 -11.493  -4.026  1.00  0.00     0.010 A 
ATOM     52  C   UNL     1       4.716 -13.395  -3.118  1.00  0.00     0.010 A 
ATOM     53  C   UNL     1       4.649 -12.307  -4.007  1.00  0.00    -0.014 A 
BRANCH  53  54
ATOM     54  C   UNL     1       5.710 -12.121  -5.026  1.00  0.00     0.031 A 
ATOM     55  C   UNL     1       5.697 -12.996  -6.249  1.00  0.00     0.074 A 
ATOM     56  C   UNL     1       6.676 -11.200  -4.862  1.00  0.00     0.049 A 
ATOM     57  N   UNL     1       6.556 -13.059  -7.234  1.00  0.00    -0.248 NA
ATOM     58  C   UNL     1       4.565 -13.929  -6.376  1.00  0.00     0.031 C 
ATOM     59  C   UNL     1       6.785 -10.279  -3.732  1.00  0.00     0.029 A 
ATOM     60  N   UNL     1       7.763 -10.904  -5.647  1.00  0.00    -0.354 N 
ATOM     61  C   UNL     1       6.078 -14.046  -8.086  1.00  0.00     0.074 A 
ATOM     62  C   UNL     1       4.863 -14.566  -7.499  1.00  0.00     0.031 C 
ATOM     63  C   UNL     1       7.897  -9.537  -3.883  1.00  0.00     0.029 A 
ATOM     64  C   UNL     1       8.589  -9.950  -5.103  1.00  0.00     0.049 A 
ATOM     65  H   UNL     1       7.934 -11.334  -6.516  1.00  0.00     0.167 HD
ATOM     66  C   UNL     1       6.606 -14.477  -9.256  1.00  0.00     0.037 A 
ATOM     67  C   UNL     1       9.781  -9.489  -5.529  1.00  0.00     0.037 A 
ATOM     68  C   UNL     1       7.807 -13.952  -9.846  1.00  0.00     0.049 A 
ATOM     69  C   UNL     1      10.367 -10.019  -6.812  1.00  0.00     0.074 A 
ATOM     70  C   UNL     1       8.391 -14.291 -11.055  1.00  0.00     0.029 A 
ATOM     71  N   UNL     1       8.616 -12.987  -9.267  1.00  0.00    -0.354 N 
ATOM     72  N   UNL     1       9.879 -10.910  -7.641  1.00  0.00    -0.248 NA
ATOM     73  C   UNL     1      11.671  -9.476  -7.222  1.00  0.00     0.031 C 
ATOM     74  C   UNL     1       9.581 -13.568 -11.183  1.00  0.00     0.029 A 
ATOM     75  C   UNL     1       9.710 -12.741 -10.079  1.00  0.00     0.049 A 
ATOM     76  H   UNL     1       8.438 -12.543  -8.406  1.00  0.00     0.167 HD
ATOM     77  C   UNL     1      10.797 -11.010  -8.680  1.00  0.00     0.074 A 
ATOM     78  C   UNL     1      11.866 -10.080  -8.386  1.00  0.00     0.031 C 
ATOM     79  C   UNL     1      10.759 -11.801  -9.780  1.00  0.00     0.037 A 
BRANCH  66  80
ATOM     80  C   UNL     1       5.901 -15.591  -9.970  1.00  0.00     0.057 A 
ATOM     81  C   UNL     1       4.697 -15.388 -10.654  1.00  0.00     0.134 A 
ATOM     82  C   UNL     1       6.472 -16.869 -10.024  1.00  0.00     0.134 A 
ATOM     83  F   UNL     1       4.093 -14.191 -10.630  1.00  0.00    -0.206 F 
ATOM     84  C   UNL     1       4.080 -16.422 -11.361  1.00  0.00     0.040 A 
ATOM     85  C   UNL     1       5.876 -17.903 -10.746  1.00  0.00     0.040 A 
ATOM     86  F   UNL     1       7.627 -17.126  -9.391  1.00  0.00    -0.206 F 
ATOM     87  C   UNL     1       4.675 -17.681 -11.416  1.00  0.00     0.006 A 
ENDBRANCH  66  80
BRANCH  67  88
ATOM     88  C   UNL     1      10.530  -8.491  -4.722  1.00  0.00     0.057 A 
ATOM     89  C   UNL     1      10.737  -7.186  -5.184  1.00  0.00     0.134 A 
ATOM     90  C   UNL     1      11.104  -8.838  -3.493  1.00  0.00     0.134 A 
ATOM     91  F   UNL     1      10.237  -6.803  -6.368  1.00  0.00    -0.206 F 
ATOM     92  C   UNL     1      11.510  -6.271  -4.468  1.00  0.00     0.040 A 
ATOM     93  C   UNL     1      11.856  -7.924  -2.753  1.00  0.00     0.040 A 
ATOM     94  F   UNL     1      10.946 -10.073  -2.995  1.00  0.00    -0.206 F 
ATOM     95  C   UNL     1      12.070  -6.639  -3.246  1.00  0.00     0.006 A 
ENDBRANCH  67  88
BRANCH  79  96
ATOM     96  C   UNL     1      11.880 -11.667 -10.770  1.00  0.00     0.057 A 
ATOM     97  C   UNL     1      13.165 -12.154 -10.504  1.00  0.00     0.134 A 
ATOM     98  C   UNL     1      11.654 -11.086 -12.025  1.00  0.00     0.134 A 
ATOM     99  F   UNL     1      13.449 -12.712  -9.317  1.00  0.00    -0.206 F 
ATOM    100  C   UNL     1      14.193 -12.049 -11.443  1.00  0.00     0.040 A 
ATOM    101  C   UNL     1      12.666 -11.000 -12.982  1.00  0.00     0.040 A 
ATOM    102  F   UNL     1      10.442 -10.610 -12.348  1.00  0.00    -0.206 F 
ATOM    103  C   UNL     1      13.942 -11.477 -12.690  1.00  0.00     0.006 A 
ENDBRANCH  79  96
ENDBRANCH  53  54
ENDBRANCH  46  48
ENDBRANCH  45  46
ENDBRANCH  44  45
ENDBRANCH  43  44
ENDBRANCH  42  43
ENDBRANCH  41  42
ENDBRANCH   1  41
TORSDOF 24
