REMARK SMILES Cc1ccc(NC(=O)CN2C(=O)S/C(=C\c3cc(Cl)c(OCC(=O)OCCOCCOCCOC(=O)c4ccc(-c5c6nc(c(-c7c(F)cccc7F)c7ccc([nH]7)c(-c7c(F)cccc7F)c7nc(c(-c8c(F)cccc8F)c8ccc5[nH]8)C=C7)C=C6)cc4)c(Cl)c3)C2=O)cc1
REMARK SMILES IDX 27 1 26 2 25 3 23 4 24 5 22 6 21 7 20 8 16 9 17 10 93 11
REMARK SMILES IDX 18 12 91 13 19 14 92 15 15 16 10 17 11 18 94 19 12 20 13 21
REMARK SMILES IDX 14 22 95 23 9 24 7 25 6 26 8 28 5 29 1 30 2 31 3 32 97 33
REMARK SMILES IDX 4 34 96 35 28 36 29 37 30 38 31 39 32 40 33 41 34 42 35 43
REMARK SMILES IDX 36 44 37 45 38 46 90 47 39 48 89 49 40 50 41 51 42 52 83 53
REMARK SMILES IDX 43 54 88 55 82 56 84 57 44 58 87 59 81 60 80 61 45 63 71 64
REMARK SMILES IDX 54 65 70 66 55 67 58 68 69 69 85 70 56 71 57 72 68 74 86 75
REMARK SMILES IDX 59 76 46 77 47 78 52 79 48 80 49 81 51 82 53 83 50 84 72 85
REMARK SMILES IDX 73 86 78 87 74 88 75 89 77 90 79 91 76 92 60 93 61 94 66 95
REMARK SMILES IDX 62 96 63 97 65 98 67 99 64 100
REMARK H PARENT 6 27 84 62 58 73
REMARK Flexibility Score: inf
ROOT
ATOM      1  C   UNL     1      -8.073  -6.852  -8.816  1.00  0.00     0.202 C 
ENDROOT
BRANCH   1   2
ATOM      2  C   UNL     1      -7.363  -5.866  -9.761  1.00  0.00     0.261 C 
BRANCH   2   3
ATOM      3  O   UNL     1      -7.127  -4.249  -9.466  1.00  0.00    -0.461 OA
BRANCH   3   4
ATOM      4  C   UNL     1      -7.773  -2.989  -9.256  1.00  0.00     0.344 C 
ATOM      5  O   UNL     1      -8.498  -2.868  -8.290  1.00  0.00    -0.248 OA
BRANCH   4   6
ATOM      6  C   UNL     1      -7.657  -1.812 -10.171  1.00  0.00     0.352 C 
BRANCH   6   7
ATOM      7  O   UNL     1      -6.374  -1.375  -9.870  1.00  0.00    -0.479 OA
BRANCH   7   8
ATOM      8  C   UNL     1      -5.358  -2.744  -9.635  1.00  0.00     0.157 A 
ATOM      9  C   UNL     1      -2.358  -1.836  -7.840  1.00  0.00    -0.021 A 
ATOM     10  C   UNL     1      -2.089  -2.461  -9.506  1.00  0.00     0.032 A 
ATOM     11  C   UNL     1      -3.949  -1.596  -7.257  1.00  0.00     0.032 A 
ATOM     12  C   UNL     1      -3.523  -2.959 -10.575  1.00  0.00     0.085 A 
ATOM     13  C   UNL     1      -5.362  -2.035  -7.965  1.00  0.00     0.085 A 
ATOM     14  Cl  UNL     1      -2.908  -3.281 -12.242  1.00  0.00    -0.080 Cl
ATOM     15  Cl  UNL     1      -6.594  -0.976  -7.257  1.00  0.00    -0.080 Cl
BRANCH   9  16
ATOM     16  C   UNL     1      -1.543  -2.214  -6.446  1.00  0.00     0.029 C 
ATOM     17  N   UNL     1      -2.736  -2.059  -2.843  1.00  0.00    -0.259 N 
ATOM     18  C   UNL     1      -3.547  -1.142  -3.428  1.00  0.00     0.294 C 
ATOM     19  C   UNL     1      -1.836  -2.632  -3.762  1.00  0.00     0.268 C 
ATOM     20  O   UNL     1      -4.723  -0.922  -3.188  1.00  0.00    -0.261 OA
ATOM     21  S   UNL     1      -2.638  -0.333  -4.690  1.00  0.00    -0.022 SA
ATOM     22  C   UNL     1      -1.862  -1.837  -5.146  1.00  0.00     0.083 C 
ATOM     23  O   UNL     1      -1.188  -3.652  -3.568  1.00  0.00    -0.268 OA
BRANCH  17  24
ATOM     24  C   UNL     1      -3.182  -2.588  -1.525  1.00  0.00     0.230 C 
BRANCH  24  25
ATOM     25  C   UNL     1      -3.737  -1.488  -0.543  1.00  0.00     0.244 C 
ATOM     26  N   UNL     1      -3.002  -0.389  -0.179  1.00  0.00    -0.325 N 
ATOM     27  H   UNL     1      -3.530   0.408   0.056  1.00  0.00     0.169 HD
ATOM     28  O   UNL     1      -4.885  -1.569  -0.090  1.00  0.00    -0.273 OA
BRANCH  26  29
ATOM     29  C   UNL     1      -1.616  -0.230  -0.091  1.00  0.00     0.041 A 
ATOM     30  C   UNL     1       2.655   0.257  -0.014  1.00  0.00     0.044 C 
ATOM     31  C   UNL     1       1.163   0.126   0.016  1.00  0.00    -0.051 A 
ATOM     32  C   UNL     1       0.607  -1.150   0.111  1.00  0.00     0.005 A 
ATOM     33  C   UNL     1       0.314   1.236  -0.055  1.00  0.00     0.005 A 
ATOM     34  C   UNL     1      -0.772  -1.320   0.084  1.00  0.00     0.026 A 
ATOM     35  C   UNL     1      -1.075   1.059  -0.092  1.00  0.00     0.026 A 
ENDBRANCH  26  29
ENDBRANCH  24  25
ENDBRANCH  17  24
ENDBRANCH   9  16
ENDBRANCH   7   8
ENDBRANCH   6   7
ENDBRANCH   4   6
ENDBRANCH   3   4
ENDBRANCH   2   3
ENDBRANCH   1   2
BRANCH   1  36
ATOM     36  O   UNL     1      -8.263  -6.532  -7.460  1.00  0.00    -0.376 OA
BRANCH  36  37
ATOM     37  C   UNL     1      -7.444  -5.521  -6.945  1.00  0.00     0.188 C 
BRANCH  37  38
ATOM     38  C   UNL     1      -5.972  -5.599  -7.180  1.00  0.00     0.188 C 
BRANCH  38  39
ATOM     39  O   UNL     1      -5.613  -6.584  -8.111  1.00  0.00    -0.376 OA
BRANCH  39  40
ATOM     40  C   UNL     1      -4.451  -7.351  -7.969  1.00  0.00     0.202 C 
BRANCH  40  41
ATOM     41  C   UNL     1      -3.349  -6.674  -7.149  1.00  0.00     0.261 C 
BRANCH  41  42
ATOM     42  O   UNL     1      -2.876  -5.447  -7.804  1.00  0.00    -0.460 OA
BRANCH  42  43
ATOM     43  C   UNL     1      -3.402  -4.232  -7.422  1.00  0.00     0.338 C 
ATOM     44  O   UNL     1      -3.751  -4.007  -6.273  1.00  0.00    -0.246 OA
BRANCH  43  45
ATOM     45  C   UNL     1      -3.798  -3.369  -8.754  1.00  0.00     0.060 A 
ATOM     46  C   UNL     1      -4.002  -1.501  -9.598  1.00  0.00     0.016 A 
ATOM     47  C   UNL     1      -4.341  -4.729  -9.769  1.00  0.00     0.016 A 
ATOM     48  C   UNL     1      -4.939  -1.587 -11.263  1.00  0.00     0.010 A 
ATOM     49  C   UNL     1      -5.216  -4.572 -11.157  1.00  0.00     0.010 A 
ATOM     50  C   UNL     1      -5.782  -3.157 -11.762  1.00  0.00    -0.014 A 
BRANCH  50  51
ATOM     51  C   UNL     1      -7.511  -3.798 -12.052  1.00  0.00     0.031 A 
ATOM     52  C   UNL     1      -7.664  -3.802 -13.509  1.00  0.00     0.074 A 
ATOM     53  C   UNL     1      -8.797  -4.324 -11.371  1.00  0.00     0.049 A 
ATOM     54  N   UNL     1      -8.699  -3.344 -14.128  1.00  0.00    -0.248 NA
ATOM     55  C   UNL     1      -6.524  -4.106 -14.379  1.00  0.00     0.031 C 
ATOM     56  C   UNL     1      -9.803  -5.393 -11.804  1.00  0.00     0.029 A 
ATOM     57  N   UNL     1      -9.356  -4.349 -10.016  1.00  0.00    -0.354 N 
ATOM     58  C   UNL     1      -8.499  -3.777 -15.415  1.00  0.00     0.074 A 
ATOM     59  C   UNL     1      -7.069  -3.797 -15.556  1.00  0.00     0.031 C 
ATOM     60  C   UNL     1     -10.750  -5.709 -10.843  1.00  0.00     0.029 A 
ATOM     61  C   UNL     1     -10.524  -4.955  -9.616  1.00  0.00     0.049 A 
ATOM     62  H   UNL     1      -8.841  -3.883  -9.318  1.00  0.00     0.167 HD
ATOM     63  C   UNL     1      -9.446  -4.568 -16.004  1.00  0.00     0.037 A 
ATOM     64  C   UNL     1     -11.322  -4.353  -8.647  1.00  0.00     0.037 A 
ATOM     65  C   UNL     1     -10.605  -4.791 -15.104  1.00  0.00     0.049 A 
ATOM     66  C   UNL     1     -12.230  -3.567  -9.545  1.00  0.00     0.074 A 
ATOM     67  C   UNL     1     -11.208  -5.930 -14.588  1.00  0.00     0.029 A 
ATOM     68  N   UNL     1     -11.174  -3.728 -14.392  1.00  0.00    -0.354 N 
ATOM     69  N   UNL     1     -11.918  -3.398 -10.799  1.00  0.00    -0.248 NA
ATOM     70  C   UNL     1     -13.543  -3.043  -9.214  1.00  0.00     0.031 C 
ATOM     71  C   UNL     1     -12.204  -5.527 -13.646  1.00  0.00     0.029 A 
ATOM     72  C   UNL     1     -12.159  -4.144 -13.516  1.00  0.00     0.049 A 
ATOM     73  H   UNL     1     -10.902  -2.788 -14.503  1.00  0.00     0.167 HD
ATOM     74  C   UNL     1     -13.022  -3.089 -11.487  1.00  0.00     0.074 A 
ATOM     75  C   UNL     1     -13.994  -2.761 -10.452  1.00  0.00     0.031 C 
ATOM     76  C   UNL     1     -13.019  -3.162 -12.843  1.00  0.00     0.037 A 
BRANCH  63  77
ATOM     77  C   UNL     1      -9.237  -5.359 -17.300  1.00  0.00     0.057 A 
ATOM     78  C   UNL     1     -10.274  -6.175 -17.795  1.00  0.00     0.134 A 
ATOM     79  C   UNL     1      -8.104  -5.339 -18.145  1.00  0.00     0.134 A 
ATOM     80  F   UNL     1     -11.445  -6.298 -17.158  1.00  0.00    -0.206 F 
ATOM     81  C   UNL     1     -10.194  -6.894 -18.997  1.00  0.00     0.040 A 
ATOM     82  C   UNL     1      -8.012  -6.047 -19.354  1.00  0.00     0.040 A 
ATOM     83  F   UNL     1      -7.008  -4.624 -17.895  1.00  0.00    -0.206 F 
ATOM     84  C   UNL     1      -9.064  -6.822 -19.791  1.00  0.00     0.006 A 
ENDBRANCH  63  77
BRANCH  64  85
ATOM     85  C   UNL     1     -10.826  -3.769  -7.280  1.00  0.00     0.057 A 
ATOM     86  C   UNL     1     -10.378  -4.604  -6.231  1.00  0.00     0.134 A 
ATOM     87  C   UNL     1     -10.536  -2.408  -7.049  1.00  0.00     0.134 A 
ATOM     88  F   UNL     1     -10.727  -5.899  -6.204  1.00  0.00    -0.206 F 
ATOM     89  C   UNL     1      -9.468  -4.176  -5.220  1.00  0.00     0.040 A 
ATOM     90  C   UNL     1      -9.550  -1.991  -6.104  1.00  0.00     0.040 A 
ATOM     91  F   UNL     1     -10.990  -1.466  -7.887  1.00  0.00    -0.206 F 
ATOM     92  C   UNL     1      -8.922  -2.904  -5.267  1.00  0.00     0.006 A 
ENDBRANCH  64  85
BRANCH  76  93
ATOM     93  C   UNL     1     -13.935  -2.334 -13.659  1.00  0.00     0.057 A 
ATOM     94  C   UNL     1     -14.557  -1.181 -13.170  1.00  0.00     0.134 A 
ATOM     95  C   UNL     1     -14.085  -2.585 -15.035  1.00  0.00     0.134 A 
ATOM     96  F   UNL     1     -14.315  -0.700 -11.942  1.00  0.00    -0.206 F 
ATOM     97  C   UNL     1     -15.413  -0.424 -13.955  1.00  0.00     0.040 A 
ATOM     98  C   UNL     1     -14.849  -1.770 -15.853  1.00  0.00     0.040 A 
ATOM     99  F   UNL     1     -13.472  -3.599 -15.660  1.00  0.00    -0.206 F 
ATOM    100  C   UNL     1     -15.557  -0.716 -15.303  1.00  0.00     0.006 A 
ENDBRANCH  76  93
ENDBRANCH  50  51
ENDBRANCH  43  45
ENDBRANCH  42  43
ENDBRANCH  41  42
ENDBRANCH  40  41
ENDBRANCH  39  40
ENDBRANCH  38  39
ENDBRANCH  37  38
ENDBRANCH  36  37
ENDBRANCH   1  36
TORSDOF 23
