REMARK SMILES CC(C)C[C@H](NC(=O)[C@H](Cc1ccccc1)NC(=O)CNC(=O)C[NH3+])C(=O)OCCOCCOCCOC(=O)c1ccc(-c2c3nc(c(-c4c(F)cccc4F)c4ccc([nH]4)c(-c4c(F)cccc4F)c4nc(c(-c5c(F)cccc5F)c5ccc2[nH]5)C=C4)C=C3)cc1
REMARK SMILES IDX 30 1 29 2 28 3 26 4 27 5 5 6 4 7 2 8 1 9 3 10 6 11 7 12 8 14
REMARK SMILES IDX 9 15 17 16 18 17 19 19 20 20 21 21 22 22 23 24 24 25 25 26
REMARK SMILES IDX 10 30 11 31 12 32 16 33 13 34 15 35 14 36 31 37 32 38 33 39
REMARK SMILES IDX 34 40 35 41 36 42 37 43 38 44 39 45 40 46 41 47 93 48 42 49
REMARK SMILES IDX 92 50 43 51 44 52 45 53 86 54 46 55 91 56 85 57 87 58 47 59
REMARK SMILES IDX 90 60 84 61 83 62 48 64 74 65 57 66 73 67 58 68 61 69 72 70
REMARK SMILES IDX 88 71 59 72 60 73 71 75 89 76 62 77 49 78 50 79 55 80 51 81
REMARK SMILES IDX 52 82 54 83 56 84 53 85 75 86 76 87 81 88 77 89 78 90 80 91
REMARK SMILES IDX 82 92 79 93 63 94 64 95 69 96 65 97 66 98 68 99 70 100
REMARK SMILES IDX 67 101
REMARK H PARENT 6 13 17 18 21 23 25 27 25 28 25 29 87 63 61 74
REMARK Flexibility Score: inf
ROOT
ATOM      1  C   UNL     1      -2.714  -4.915  -4.433  1.00  0.00     0.202 C 
ENDROOT
BRANCH   1   2
ATOM      2  C   UNL     1      -3.279  -3.938  -3.389  1.00  0.00     0.261 C 
BRANCH   2   3
ATOM      3  O   UNL     1      -2.692  -4.066  -2.062  1.00  0.00    -0.462 OA
BRANCH   3   4
ATOM      4  C   UNL     1      -3.563  -3.938  -1.022  1.00  0.00     0.328 C 
ATOM      5  O   UNL     1      -4.780  -3.875  -1.174  1.00  0.00    -0.250 OA
BRANCH   4   6
ATOM      6  C   UNL     1      -2.910  -3.940   0.400  1.00  0.00     0.192 C 
BRANCH   6   7
ATOM      7  C   UNL     1      -3.631  -2.858   1.250  1.00  0.00     0.040 C 
BRANCH   7   8
ATOM      8  C   UNL     1      -3.846  -3.246   2.735  1.00  0.00    -0.015 C 
ATOM      9  C   UNL     1      -2.563  -3.207   3.567  1.00  0.00     0.007 C 
ATOM     10  C   UNL     1      -4.889  -2.310   3.352  1.00  0.00     0.007 C 
ENDBRANCH   7   8
ENDBRANCH   6   7
BRANCH   6  11
ATOM     11  N   UNL     1      -1.457  -3.818   0.622  1.00  0.00    -0.341 N 
ATOM     12  C   UNL     1      -0.453  -4.737   0.522  1.00  0.00     0.243 C 
ATOM     13  H   UNL     1      -1.159  -2.919   0.889  1.00  0.00     0.164 HD
ATOM     14  O   UNL     1       0.425  -4.701   1.388  1.00  0.00    -0.273 OA
BRANCH  12  15
ATOM     15  C   UNL     1      -0.387  -5.697  -0.659  1.00  0.00     0.175 C 
BRANCH  15  16
ATOM     16  N   UNL     1       1.046  -5.842  -1.059  1.00  0.00    -0.342 N 
ATOM     17  C   UNL     1       1.940  -5.054  -1.710  1.00  0.00     0.240 C 
ATOM     18  H   UNL     1       1.430  -6.707  -0.787  1.00  0.00     0.164 HD
ATOM     19  O   UNL     1       3.079  -5.508  -1.879  1.00  0.00    -0.273 OA
BRANCH  17  20
ATOM     20  C   UNL     1       1.633  -3.639  -2.197  1.00  0.00     0.216 C 
BRANCH  20  21
ATOM     21  N   UNL     1       0.670  -3.546  -3.281  1.00  0.00    -0.342 N 
ATOM     22  C   UNL     1      -0.124  -2.499  -3.634  1.00  0.00     0.275 C 
ATOM     23  H   UNL     1       0.579  -4.353  -3.837  1.00  0.00     0.164 HD
ATOM     24  O   UNL     1      -0.588  -2.490  -4.780  1.00  0.00    -0.268 OA
BRANCH  22  25
ATOM     25  C   UNL     1      -0.458  -1.365  -2.661  1.00  0.00     0.360 C 
BRANCH  25  26
ATOM     26  N   UNL     1      -0.550  -1.812  -1.273  1.00  0.00    -0.350 N 
ATOM     27  H   UNL     1      -1.302  -2.495  -1.185  1.00  0.00     0.344 HD
ATOM     28  H   UNL     1      -0.745  -1.012  -0.671  1.00  0.00     0.344 HD
ATOM     29  H   UNL     1       0.333  -2.240  -0.995  1.00  0.00     0.344 HD
ENDBRANCH  25  26
ENDBRANCH  22  25
ENDBRANCH  20  21
ENDBRANCH  17  20
ENDBRANCH  15  16
BRANCH  15  30
ATOM     30  C   UNL     1      -0.922  -7.093  -0.267  1.00  0.00     0.070 C 
BRANCH  30  31
ATOM     31  C   UNL     1      -2.220  -7.361   0.475  1.00  0.00    -0.045 A 
ATOM     32  C   UNL     1      -2.166  -7.965   1.743  1.00  0.00     0.004 A 
ATOM     33  C   UNL     1      -3.491  -7.158  -0.081  1.00  0.00     0.004 A 
ATOM     34  C   UNL     1      -3.331  -8.323   2.431  1.00  0.00     0.000 A 
ATOM     35  C   UNL     1      -4.659  -7.485   0.617  1.00  0.00     0.000 A 
ATOM     36  C   UNL     1      -4.579  -8.072   1.872  1.00  0.00     0.000 A 
ENDBRANCH  30  31
ENDBRANCH  15  30
ENDBRANCH  12  15
ENDBRANCH   6  11
ENDBRANCH   4   6
ENDBRANCH   3   4
ENDBRANCH   2   3
ENDBRANCH   1   2
BRANCH   1  37
ATOM     37  O   UNL     1      -3.345  -6.199  -4.397  1.00  0.00    -0.376 OA
BRANCH  37  38
ATOM     38  C   UNL     1      -2.687  -7.162  -3.577  1.00  0.00     0.188 C 
BRANCH  38  39
ATOM     39  C   UNL     1      -1.398  -7.714  -4.185  1.00  0.00     0.188 C 
BRANCH  39  40
ATOM     40  O   UNL     1      -0.296  -6.879  -3.793  1.00  0.00    -0.376 OA
BRANCH  40  41
ATOM     41  C   UNL     1       0.869  -7.054  -4.603  1.00  0.00     0.202 C 
BRANCH  41  42
ATOM     42  C   UNL     1       1.922  -7.981  -3.993  1.00  0.00     0.261 C 
BRANCH  42  43
ATOM     43  O   UNL     1       1.338  -9.235  -3.633  1.00  0.00    -0.460 OA
BRANCH  43  44
ATOM     44  C   UNL     1       1.172  -9.439  -2.304  1.00  0.00     0.338 C 
ATOM     45  O   UNL     1       1.634  -8.782  -1.382  1.00  0.00    -0.246 OA
BRANCH  44  46
ATOM     46  C   UNL     1       0.124 -10.465  -2.124  1.00  0.00     0.060 A 
ATOM     47  C   UNL     1      -0.672 -10.384  -0.975  1.00  0.00     0.016 A 
ATOM     48  C   UNL     1      -0.154 -11.417  -3.108  1.00  0.00     0.016 A 
ATOM     49  C   UNL     1      -1.796 -11.184  -0.834  1.00  0.00     0.010 A 
ATOM     50  C   UNL     1      -1.242 -12.266  -2.943  1.00  0.00     0.010 A 
ATOM     51  C   UNL     1      -2.058 -12.149  -1.804  1.00  0.00    -0.014 A 
BRANCH  51  52
ATOM     52  C   UNL     1      -3.004 -13.232  -1.506  1.00  0.00     0.031 A 
ATOM     53  C   UNL     1      -2.429 -14.474  -0.904  1.00  0.00     0.074 A 
ATOM     54  C   UNL     1      -4.307 -13.120  -1.800  1.00  0.00     0.049 A 
ATOM     55  N   UNL     1      -2.949 -15.663  -0.795  1.00  0.00    -0.248 NA
ATOM     56  C   UNL     1      -1.060 -14.355  -0.370  1.00  0.00     0.031 C 
ATOM     57  C   UNL     1      -4.966 -11.909  -2.285  1.00  0.00     0.029 A 
ATOM     58  N   UNL     1      -5.300 -14.060  -1.759  1.00  0.00    -0.354 N 
ATOM     59  C   UNL     1      -1.956 -16.445  -0.223  1.00  0.00     0.074 A 
ATOM     60  C   UNL     1      -0.807 -15.598  -0.001  1.00  0.00     0.031 C 
ATOM     61  C   UNL     1      -6.256 -12.194  -2.539  1.00  0.00     0.029 A 
ATOM     62  C   UNL     1      -6.484 -13.616  -2.292  1.00  0.00     0.049 A 
ATOM     63  H   UNL     1      -5.178 -14.963  -1.386  1.00  0.00     0.167 HD
ATOM     64  C   UNL     1      -2.001 -17.765   0.066  1.00  0.00     0.037 A 
ATOM     65  C   UNL     1      -7.595 -14.311  -2.600  1.00  0.00     0.037 A 
ATOM     66  C   UNL     1      -3.156 -18.578  -0.188  1.00  0.00     0.049 A 
ATOM     67  C   UNL     1      -7.606 -15.795  -2.342  1.00  0.00     0.074 A 
ATOM     68  C   UNL     1      -3.329 -19.931   0.025  1.00  0.00     0.029 A 
ATOM     69  N   UNL     1      -4.344 -18.095  -0.725  1.00  0.00    -0.354 N 
ATOM     70  N   UNL     1      -6.656 -16.555  -1.848  1.00  0.00    -0.248 NA
ATOM     71  C   UNL     1      -8.832 -16.522  -2.695  1.00  0.00     0.031 C 
ATOM     72  C   UNL     1      -4.608 -20.276  -0.426  1.00  0.00     0.029 A 
ATOM     73  C   UNL     1      -5.252 -19.127  -0.865  1.00  0.00     0.049 A 
ATOM     74  H   UNL     1      -4.513 -17.157  -0.969  1.00  0.00     0.167 HD
ATOM     75  C   UNL     1      -7.176 -17.842  -1.804  1.00  0.00     0.074 A 
ATOM     76  C   UNL     1      -8.527 -17.758  -2.323  1.00  0.00     0.031 C 
ATOM     77  C   UNL     1      -6.596 -18.991  -1.372  1.00  0.00     0.037 A 
BRANCH  64  78
ATOM     78  C   UNL     1      -0.741 -18.385   0.591  1.00  0.00     0.057 A 
ATOM     79  C   UNL     1      -0.231 -18.085   1.862  1.00  0.00     0.134 A 
ATOM     80  C   UNL     1       0.014 -19.240  -0.221  1.00  0.00     0.134 A 
ATOM     81  F   UNL     1      -0.887 -17.245   2.677  1.00  0.00    -0.206 F 
ATOM     82  C   UNL     1       1.003 -18.580   2.288  1.00  0.00     0.040 A 
ATOM     83  C   UNL     1       1.234 -19.766   0.206  1.00  0.00     0.040 A 
ATOM     84  F   UNL     1      -0.409 -19.561  -1.453  1.00  0.00    -0.206 F 
ATOM     85  C   UNL     1       1.739 -19.425   1.459  1.00  0.00     0.006 A 
ENDBRANCH  64  78
BRANCH  65  86
ATOM     86  C   UNL     1      -8.750 -13.618  -3.224  1.00  0.00     0.057 A 
ATOM     87  C   UNL     1      -9.946 -13.426  -2.526  1.00  0.00     0.134 A 
ATOM     88  C   UNL     1      -8.676 -13.104  -4.526  1.00  0.00     0.134 A 
ATOM     89  F   UNL     1     -10.087 -13.912  -1.284  1.00  0.00    -0.206 F 
ATOM     90  C   UNL     1     -11.028 -12.752  -3.097  1.00  0.00     0.040 A 
ATOM     91  C   UNL     1      -9.740 -12.407  -5.101  1.00  0.00     0.040 A 
ATOM     92  F   UNL     1      -7.557 -13.252  -5.250  1.00  0.00    -0.206 F 
ATOM     93  C   UNL     1     -10.923 -12.232  -4.386  1.00  0.00     0.006 A 
ENDBRANCH  65  86
BRANCH  77  94
ATOM     94  C   UNL     1      -7.437 -20.232  -1.386  1.00  0.00     0.057 A 
ATOM     95  C   UNL     1      -7.722 -20.921  -2.570  1.00  0.00     0.134 A 
ATOM     96  C   UNL     1      -7.887 -20.788  -0.182  1.00  0.00     0.134 A 
ATOM     97  F   UNL     1      -7.325 -20.433  -3.755  1.00  0.00    -0.206 F 
ATOM     98  C   UNL     1      -8.437 -22.119  -2.556  1.00  0.00     0.040 A 
ATOM     99  C   UNL     1      -8.579 -21.997  -0.153  1.00  0.00     0.040 A 
ATOM    100  F   UNL     1      -7.633 -20.179   0.987  1.00  0.00    -0.206 F 
ATOM    101  C   UNL     1      -8.857 -22.666  -1.343  1.00  0.00     0.006 A 
ENDBRANCH  77  94
ENDBRANCH  51  52
ENDBRANCH  44  46
ENDBRANCH  43  44
ENDBRANCH  42  43
ENDBRANCH  41  42
ENDBRANCH  40  41
ENDBRANCH  39  40
ENDBRANCH  38  39
ENDBRANCH  37  38
ENDBRANCH   1  37
TORSDOF 28
