REMARK SMILES CC[C@H](Oc1ccccc1/C=C1\SC(N)=[NH+]C1=O)C(=O)OCCOCCOCCOC(=O)c1ccc(-c2c3nc(c(-c4c(F)cccc4F)c4ccc([nH]4)c(-c4c(F)cccc4F)c4nc(c(-c5c(F)cccc5F)c5ccc2[nH]5)C=C4)C=C3)cc1
REMARK SMILES IDX 25 1 24 2 23 3 22 4 21 5 19 6 20 7 3 8 2 9 1 10 4 11 5 12
REMARK SMILES IDX 6 13 10 14 7 15 9 16 8 17 11 18 12 19 13 20 17 21 14 22
REMARK SMILES IDX 16 23 18 24 15 25 26 29 27 30 28 31 29 32 30 33 31 34 32 35
REMARK SMILES IDX 33 36 34 37 86 38 35 39 85 40 36 41 37 42 38 43 79 44 39 45
REMARK SMILES IDX 84 46 78 47 80 48 40 49 83 50 77 51 76 52 41 54 67 55 50 56
REMARK SMILES IDX 66 57 51 58 54 59 65 60 81 61 52 62 53 63 64 65 82 66 55 67
REMARK SMILES IDX 42 68 43 69 48 70 44 71 45 72 47 73 49 74 46 75 68 76 69 77
REMARK SMILES IDX 74 78 70 79 71 80 73 81 75 82 72 83 56 84 57 85 62 86 58 87
REMARK SMILES IDX 59 88 61 89 63 90 60 91
REMARK H PARENT 16 26 15 27 15 28 80 53 54 64
REMARK Flexibility Score: inf
ROOT
ATOM      1  C   UNL     1       1.184   5.305  -0.376  1.00  0.00     0.188 C 
ENDROOT
BRANCH   1   2
ATOM      2  O   UNL     1       0.340   6.329  -0.863  1.00  0.00    -0.376 OA
BRANCH   2   3
ATOM      3  C   UNL     1      -0.280   6.138  -2.122  1.00  0.00     0.202 C 
BRANCH   3   4
ATOM      4  C   UNL     1      -1.134   4.888  -2.413  1.00  0.00     0.261 C 
BRANCH   4   5
ATOM      5  O   UNL     1      -0.668   3.586  -2.016  1.00  0.00    -0.461 OA
BRANCH   5   6
ATOM      6  C   UNL     1       0.437   3.078  -2.611  1.00  0.00     0.347 C 
ATOM      7  O   UNL     1       1.135   3.710  -3.399  1.00  0.00    -0.248 OA
BRANCH   6   8
ATOM      8  C   UNL     1       0.677   1.577  -2.268  1.00  0.00     0.282 C 
BRANCH   8   9
ATOM      9  C   UNL     1       0.246   0.842  -3.567  1.00  0.00     0.054 C 
ATOM     10  C   UNL     1      -1.064   0.072  -3.589  1.00  0.00     0.008 C 
ENDBRANCH   8   9
BRANCH   8  11
ATOM     11  O   UNL     1       0.157   1.201  -0.981  1.00  0.00    -0.478 OA
BRANCH  11  12
ATOM     12  C   UNL     1       0.067  -0.085  -0.519  1.00  0.00     0.127 A 
ATOM     13  C   UNL     1       0.406  -1.210  -1.264  1.00  0.00     0.047 A 
ATOM     14  C   UNL     1      -0.521  -0.304   0.744  1.00  0.00     0.018 A 
ATOM     15  C   UNL     1      -0.108  -2.472  -0.939  1.00  0.00     0.004 A 
ATOM     16  C   UNL     1      -1.051  -1.569   1.062  1.00  0.00     0.012 A 
ATOM     17  C   UNL     1      -0.898  -2.637   0.190  1.00  0.00     0.001 A 
BRANCH  14  18
ATOM     18  C   UNL     1      -0.396   0.606   1.893  1.00  0.00     0.036 C 
ATOM     19  C   UNL     1      -1.308   1.436   2.403  1.00  0.00     0.110 C 
ATOM     20  S   UNL     1      -2.815   1.914   1.749  1.00  0.00     0.006 SA
ATOM     21  C   UNL     1      -1.124   2.069   3.748  1.00  0.00     0.346 C 
ATOM     22  C   UNL     1      -2.944   3.092   3.029  1.00  0.00     0.314 C 
ATOM     23  N   UNL     1      -2.069   3.047   3.973  1.00  0.00    -0.200 N 
ATOM     24  O   UNL     1      -0.288   1.688   4.556  1.00  0.00    -0.240 OA
ATOM     25  N   UNL     1      -3.934   4.002   2.944  1.00  0.00    -0.281 N 
ATOM     26  H   UNL     1      -2.075   3.639   4.760  1.00  0.00     0.316 HD
ATOM     27  H   UNL     1      -4.566   3.971   2.189  1.00  0.00     0.302 HD
ATOM     28  H   UNL     1      -4.026   4.696   3.635  1.00  0.00     0.302 HD
ENDBRANCH  14  18
ENDBRANCH  11  12
ENDBRANCH   8  11
ENDBRANCH   6   8
ENDBRANCH   5   6
ENDBRANCH   4   5
ENDBRANCH   3   4
ENDBRANCH   2   3
ENDBRANCH   1   2
BRANCH   1  29
ATOM     29  C   UNL     1       0.450   4.292   0.515  1.00  0.00     0.188 C 
BRANCH  29  30
ATOM     30  O   UNL     1      -0.899   4.561   0.872  1.00  0.00    -0.376 OA
BRANCH  30  31
ATOM     31  C   UNL     1      -1.196   5.817   1.472  1.00  0.00     0.202 C 
BRANCH  31  32
ATOM     32  C   UNL     1      -0.523   6.132   2.809  1.00  0.00     0.261 C 
BRANCH  32  33
ATOM     33  O   UNL     1       0.910   6.187   2.710  1.00  0.00    -0.460 OA
BRANCH  33  34
ATOM     34  C   UNL     1       1.569   5.228   3.411  1.00  0.00     0.338 C 
ATOM     35  O   UNL     1       1.099   4.392   4.150  1.00  0.00    -0.246 OA
BRANCH  34  36
ATOM     36  C   UNL     1       2.975   5.195   2.973  1.00  0.00     0.060 A 
ATOM     37  C   UNL     1       3.483   4.000   2.439  1.00  0.00     0.016 A 
ATOM     38  C   UNL     1       3.788   6.314   3.131  1.00  0.00     0.016 A 
ATOM     39  C   UNL     1       4.822   3.916   2.073  1.00  0.00     0.010 A 
ATOM     40  C   UNL     1       5.135   6.221   2.791  1.00  0.00     0.010 A 
ATOM     41  C   UNL     1       5.660   5.015   2.289  1.00  0.00    -0.014 A 
BRANCH  41  42
ATOM     42  C   UNL     1       7.123   4.859   2.171  1.00  0.00     0.031 A 
ATOM     43  C   UNL     1       7.918   4.646   3.426  1.00  0.00     0.074 A 
ATOM     44  C   UNL     1       7.726   4.927   0.973  1.00  0.00     0.049 A 
ATOM     45  N   UNL     1       9.213   4.607   3.593  1.00  0.00    -0.248 NA
ATOM     46  C   UNL     1       7.141   4.464   4.665  1.00  0.00     0.031 C 
ATOM     47  C   UNL     1       7.042   5.083  -0.310  1.00  0.00     0.029 A 
ATOM     48  N   UNL     1       9.056   4.891   0.647  1.00  0.00    -0.354 N 
ATOM     49  C   UNL     1       9.407   4.416   4.955  1.00  0.00     0.074 A 
ATOM     50  C   UNL     1       8.100   4.374   5.573  1.00  0.00     0.031 C 
ATOM     51  C   UNL     1       7.963   5.151  -1.286  1.00  0.00     0.029 A 
ATOM     52  C   UNL     1       9.295   5.085  -0.691  1.00  0.00     0.049 A 
ATOM     53  H   UNL     1       9.770   4.742   1.307  1.00  0.00     0.167 HD
ATOM     54  C   UNL     1      10.576   4.286   5.626  1.00  0.00     0.037 A 
ATOM     55  C   UNL     1      10.462   5.227  -1.347  1.00  0.00     0.037 A 
ATOM     56  C   UNL     1      11.868   4.335   4.995  1.00  0.00     0.049 A 
ATOM     57  C   UNL     1      11.749   5.155  -0.567  1.00  0.00     0.074 A 
ATOM     58  C   UNL     1      13.116   4.196   5.572  1.00  0.00     0.029 A 
ATOM     59  N   UNL     1      12.074   4.551   3.639  1.00  0.00    -0.354 N 
ATOM     60  N   UNL     1      11.931   4.954   0.717  1.00  0.00    -0.248 NA
ATOM     61  C   UNL     1      12.994   5.327  -1.329  1.00  0.00     0.031 C 
ATOM     62  C   UNL     1      14.079   4.389   4.577  1.00  0.00     0.029 A 
ATOM     63  C   UNL     1      13.431   4.580   3.366  1.00  0.00     0.049 A 
ATOM     64  H   UNL     1      11.360   4.668   2.971  1.00  0.00     0.167 HD
ATOM     65  C   UNL     1      13.307   4.942   0.911  1.00  0.00     0.074 A 
ATOM     66  C   UNL     1      13.912   5.144  -0.390  1.00  0.00     0.031 C 
ATOM     67  C   UNL     1      14.009   4.775   2.060  1.00  0.00     0.037 A 
BRANCH  54  68
ATOM     68  C   UNL     1      10.504   4.121   7.117  1.00  0.00     0.057 A 
ATOM     69  C   UNL     1       9.998   2.960   7.717  1.00  0.00     0.134 A 
ATOM     70  C   UNL     1      10.962   5.136   7.967  1.00  0.00     0.134 A 
ATOM     71  F   UNL     1       9.528   1.954   6.963  1.00  0.00    -0.206 F 
ATOM     72  C   UNL     1       9.924   2.827   9.105  1.00  0.00     0.040 A 
ATOM     73  C   UNL     1      10.923   5.002   9.355  1.00  0.00     0.040 A 
ATOM     74  F   UNL     1      11.461   6.275   7.461  1.00  0.00    -0.206 F 
ATOM     75  C   UNL     1      10.394   3.848   9.928  1.00  0.00     0.006 A 
ENDBRANCH  54  68
BRANCH  55  76
ATOM     76  C   UNL     1      10.470   5.462  -2.813  1.00  0.00     0.057 A 
ATOM     77  C   UNL     1      10.969   4.500  -3.697  1.00  0.00     0.134 A 
ATOM     78  C   UNL     1       9.990   6.657  -3.366  1.00  0.00     0.134 A 
ATOM     79  F   UNL     1      11.462   3.344  -3.229  1.00  0.00    -0.206 F 
ATOM     80  C   UNL     1      11.009   4.721  -5.075  1.00  0.00     0.040 A 
ATOM     81  C   UNL     1       9.998   6.880  -4.744  1.00  0.00     0.040 A 
ATOM     82  F   UNL     1       9.496   7.620  -2.574  1.00  0.00    -0.206 F 
ATOM     83  C   UNL     1      10.516   5.913  -5.602  1.00  0.00     0.006 A 
ENDBRANCH  55  76
BRANCH  67  84
ATOM     84  C   UNL     1      15.508   4.756   1.954  1.00  0.00     0.057 A 
ATOM     85  C   UNL     1      16.250   5.908   1.668  1.00  0.00     0.134 A 
ATOM     86  C   UNL     1      16.219   3.570   2.185  1.00  0.00     0.134 A 
ATOM     87  F   UNL     1      15.631   7.074   1.425  1.00  0.00    -0.206 F 
ATOM     88  C   UNL     1      17.643   5.877   1.589  1.00  0.00     0.040 A 
ATOM     89  C   UNL     1      17.613   3.534   2.141  1.00  0.00     0.040 A 
ATOM     90  F   UNL     1      15.571   2.432   2.476  1.00  0.00    -0.206 F 
ATOM     91  C   UNL     1      18.329   4.688   1.834  1.00  0.00     0.006 A 
ENDBRANCH  67  84
ENDBRANCH  41  42
ENDBRANCH  34  36
ENDBRANCH  33  34
ENDBRANCH  32  33
ENDBRANCH  31  32
ENDBRANCH  30  31
ENDBRANCH  29  30
ENDBRANCH   1  29
TORSDOF 21
