REMARK SMILES O=C(OCCOCCOCCOC(=O)[C@H]1C=C[C@H](NS(=O)(=O)c2ccc(F)c(F)c2F)C1)c1ccc(-c2c3nc(c(-c4c(F)cccc4F)c4ccc([nH]4)c(-c4c(F)cccc4F)c4nc(c(-c5c(F)cccc5F)c5ccc2[nH]5)C=C4)C=C3)cc1
REMARK SMILES IDX 8 1 7 2 6 3 5 4 4 5 3 6 2 7 1 8 33 9 34 10 86 11 35 12 85 13
REMARK SMILES IDX 36 14 37 15 38 16 79 17 39 18 84 19 78 20 80 21 40 22 83 23
REMARK SMILES IDX 77 24 76 25 41 27 67 28 50 29 66 30 51 31 54 32 65 33 81 34
REMARK SMILES IDX 52 35 53 36 64 38 82 39 55 40 42 41 43 42 48 43 44 44 45 45
REMARK SMILES IDX 47 46 49 47 46 48 68 49 69 50 74 51 70 52 71 53 73 54 75 55
REMARK SMILES IDX 72 56 56 57 57 58 62 59 58 60 59 61 61 62 63 63 60 64 9 65
REMARK SMILES IDX 10 66 11 67 12 68 13 69 14 70 15 71 16 72 32 73 17 74 18 75
REMARK SMILES IDX 19 76 20 78 21 79 22 80 23 81 24 82 30 83 25 84 28 85 31 86
REMARK SMILES IDX 26 87 29 88 27 89
REMARK H PARENT 80 26 54 37 19 77
REMARK Flexibility Score: inf
ROOT
ATOM      1  C   UNL     1       1.998  -2.996   0.958  1.00  0.00     0.188 C 
ENDROOT
BRANCH   1   2
ATOM      2  C   UNL     1       2.553  -1.601   1.258  1.00  0.00     0.188 C 
BRANCH   2   3
ATOM      3  O   UNL     1       3.854  -1.399   0.690  1.00  0.00    -0.376 OA
BRANCH   3   4
ATOM      4  C   UNL     1       4.725  -0.619   1.520  1.00  0.00     0.202 C 
BRANCH   4   5
ATOM      5  C   UNL     1       4.520   0.901   1.425  1.00  0.00     0.261 C 
BRANCH   5   6
ATOM      6  O   UNL     1       3.155   1.268   1.167  1.00  0.00    -0.460 OA
BRANCH   6   7
ATOM      7  C   UNL     1       2.547   1.471  -0.028  1.00  0.00     0.338 C 
ATOM      8  O   UNL     1       1.371   1.837  -0.025  1.00  0.00    -0.246 OA
BRANCH   7   9
ATOM      9  C   UNL     1       3.203   1.273  -1.361  1.00  0.00     0.060 A 
ATOM     10  C   UNL     1       4.368   0.542  -1.594  1.00  0.00     0.016 A 
ATOM     11  C   UNL     1       2.557   1.838  -2.478  1.00  0.00     0.016 A 
ATOM     12  C   UNL     1       4.933   0.449  -2.858  1.00  0.00     0.010 A 
ATOM     13  C   UNL     1       3.094   1.716  -3.765  1.00  0.00     0.010 A 
ATOM     14  C   UNL     1       4.310   1.052  -3.945  1.00  0.00    -0.014 A 
BRANCH  14  15
ATOM     15  C   UNL     1       5.053   1.103  -5.216  1.00  0.00     0.031 A 
ATOM     16  C   UNL     1       5.751   2.378  -5.570  1.00  0.00     0.074 A 
ATOM     17  C   UNL     1       5.212  -0.013  -5.948  1.00  0.00     0.049 A 
ATOM     18  N   UNL     1       6.477   2.661  -6.616  1.00  0.00    -0.248 NA
ATOM     19  C   UNL     1       5.640   3.478  -4.595  1.00  0.00     0.031 C 
ATOM     20  C   UNL     1       4.685  -1.330  -5.592  1.00  0.00     0.029 A 
ATOM     21  N   UNL     1       5.871  -0.228  -7.126  1.00  0.00    -0.354 N 
ATOM     22  C   UNL     1       6.902   3.969  -6.430  1.00  0.00     0.074 A 
ATOM     23  C   UNL     1       6.339   4.434  -5.183  1.00  0.00     0.031 C 
ATOM     24  C   UNL     1       5.013  -2.213  -6.548  1.00  0.00     0.029 A 
ATOM     25  C   UNL     1       5.747  -1.513  -7.595  1.00  0.00     0.049 A 
ATOM     26  H   UNL     1       6.385   0.471  -7.592  1.00  0.00     0.167 HD
ATOM     27  C   UNL     1       7.695   4.710  -7.237  1.00  0.00     0.037 A 
ATOM     28  C   UNL     1       6.158  -2.048  -8.758  1.00  0.00     0.037 A 
ATOM     29  C   UNL     1       8.222   4.222  -8.482  1.00  0.00     0.049 A 
ATOM     30  C   UNL     1       6.932  -1.169  -9.698  1.00  0.00     0.074 A 
ATOM     31  C   UNL     1       8.992   4.886  -9.417  1.00  0.00     0.029 A 
ATOM     32  N   UNL     1       8.014   2.936  -8.968  1.00  0.00    -0.354 N 
ATOM     33  N   UNL     1       7.309   0.079  -9.534  1.00  0.00    -0.248 NA
ATOM     34  C   UNL     1       7.343  -1.761 -10.975  1.00  0.00     0.031 C 
ATOM     35  C   UNL     1       9.204   4.018 -10.494  1.00  0.00     0.029 A 
ATOM     36  C   UNL     1       8.616   2.794 -10.204  1.00  0.00     0.049 A 
ATOM     37  H   UNL     1       7.511   2.231  -8.500  1.00  0.00     0.167 HD
ATOM     38  C   UNL     1       8.019   0.417 -10.676  1.00  0.00     0.074 A 
ATOM     39  C   UNL     1       8.034  -0.766 -11.516  1.00  0.00     0.031 C 
ATOM     40  C   UNL     1       8.606   1.594 -11.005  1.00  0.00     0.037 A 
BRANCH  27  41
ATOM     41  C   UNL     1       7.952   6.127  -6.817  1.00  0.00     0.057 A 
ATOM     42  C   UNL     1       8.761   6.448  -5.719  1.00  0.00     0.134 A 
ATOM     43  C   UNL     1       7.329   7.185  -7.490  1.00  0.00     0.134 A 
ATOM     44  F   UNL     1       9.361   5.480  -5.009  1.00  0.00    -0.206 F 
ATOM     45  C   UNL     1       8.914   7.767  -5.285  1.00  0.00     0.040 A 
ATOM     46  C   UNL     1       7.494   8.509  -7.082  1.00  0.00     0.040 A 
ATOM     47  F   UNL     1       6.534   6.948  -8.544  1.00  0.00    -0.206 F 
ATOM     48  C   UNL     1       8.279   8.803  -5.969  1.00  0.00     0.006 A 
ENDBRANCH  27  41
BRANCH  28  49
ATOM     49  C   UNL     1       5.809  -3.452  -9.098  1.00  0.00     0.057 A 
ATOM     50  C   UNL     1       6.782  -4.449  -9.212  1.00  0.00     0.134 A 
ATOM     51  C   UNL     1       4.475  -3.831  -9.308  1.00  0.00     0.134 A 
ATOM     52  F   UNL     1       8.078  -4.152  -9.033  1.00  0.00    -0.206 F 
ATOM     53  C   UNL     1       6.447  -5.766  -9.536  1.00  0.00     0.040 A 
ATOM     54  C   UNL     1       4.122  -5.148  -9.606  1.00  0.00     0.040 A 
ATOM     55  F   UNL     1       3.492  -2.925  -9.207  1.00  0.00    -0.206 F 
ATOM     56  C   UNL     1       5.112  -6.119  -9.729  1.00  0.00     0.006 A 
ENDBRANCH  28  49
BRANCH  40  57
ATOM     57  C   UNL     1       9.334   1.640 -12.314  1.00  0.00     0.057 A 
ATOM     58  C   UNL     1       8.652   1.670 -13.536  1.00  0.00     0.134 A 
ATOM     59  C   UNL     1      10.732   1.708 -12.345  1.00  0.00     0.134 A 
ATOM     60  F   UNL     1       7.312   1.594 -13.570  1.00  0.00    -0.206 F 
ATOM     61  C   UNL     1       9.338   1.746 -14.747  1.00  0.00     0.040 A 
ATOM     62  C   UNL     1      11.427   1.814 -13.548  1.00  0.00     0.040 A 
ATOM     63  F   UNL     1      11.441   1.692 -11.206  1.00  0.00    -0.206 F 
ATOM     64  C   UNL     1      10.730   1.828 -14.754  1.00  0.00     0.006 A 
ENDBRANCH  40  57
ENDBRANCH  14  15
ENDBRANCH   7   9
ENDBRANCH   6   7
ENDBRANCH   5   6
ENDBRANCH   4   5
ENDBRANCH   3   4
ENDBRANCH   2   3
ENDBRANCH   1   2
BRANCH   1  65
ATOM     65  O   UNL     1       2.677  -4.104   1.539  1.00  0.00    -0.376 OA
BRANCH  65  66
ATOM     66  C   UNL     1       4.085  -4.174   1.363  1.00  0.00     0.202 C 
BRANCH  66  67
ATOM     67  C   UNL     1       4.649  -4.438  -0.045  1.00  0.00     0.261 C 
BRANCH  67  68
ATOM     68  O   UNL     1       3.974  -3.808  -1.151  1.00  0.00    -0.463 OA
BRANCH  68  69
ATOM     69  C   UNL     1       3.112  -4.638  -1.806  1.00  0.00     0.312 C 
ATOM     70  O   UNL     1       2.867  -5.783  -1.435  1.00  0.00    -0.252 OA
BRANCH  69  71
ATOM     71  C   UNL     1       2.575  -4.036  -3.112  1.00  0.00     0.123 C 
ATOM     72  C   UNL     1       1.475  -4.950  -3.558  1.00  0.00    -0.015 C 
ATOM     73  C   UNL     1       1.849  -2.675  -3.034  1.00  0.00     0.043 C 
ATOM     74  C   UNL     1       0.330  -4.311  -3.783  1.00  0.00    -0.011 C 
ATOM     75  C   UNL     1       0.465  -2.836  -3.714  1.00  0.00     0.093 C 
BRANCH  75  76
ATOM     76  N   UNL     1       0.459  -2.267  -5.057  1.00  0.00    -0.204 NA
ATOM     77  H   UNL     1       1.360  -2.522  -5.462  1.00  0.00     0.142 HD
BRANCH  76  78
ATOM     78  S   UNL     1      -0.672  -2.594  -6.255  1.00  0.00     0.244 S 
ATOM     79  O   UNL     1      -0.307  -1.753  -7.359  1.00  0.00    -0.207 OA
ATOM     80  O   UNL     1      -0.788  -4.032  -6.434  1.00  0.00    -0.207 OA
BRANCH  78  81
ATOM     81  C   UNL     1      -2.221  -2.052  -5.587  1.00  0.00     0.121 A 
ATOM     82  C   UNL     1      -2.876  -2.838  -4.624  1.00  0.00     0.028 A 
ATOM     83  C   UNL     1      -2.858  -0.929  -6.106  1.00  0.00     0.181 A 
ATOM     84  C   UNL     1      -4.133  -2.466  -4.145  1.00  0.00     0.044 A 
ATOM     85  C   UNL     1      -4.123  -0.575  -5.642  1.00  0.00     0.195 A 
ATOM     86  F   UNL     1      -2.297  -0.171  -7.055  1.00  0.00    -0.202 F 
ATOM     87  C   UNL     1      -4.750  -1.333  -4.661  1.00  0.00     0.161 A 
ATOM     88  F   UNL     1      -4.745   0.497  -6.152  1.00  0.00    -0.200 F 
ATOM     89  F   UNL     1      -5.964  -0.988  -4.212  1.00  0.00    -0.204 F 
ENDBRANCH  78  81
ENDBRANCH  76  78
ENDBRANCH  75  76
ENDBRANCH  69  71
ENDBRANCH  68  69
ENDBRANCH  67  68
ENDBRANCH  66  67
ENDBRANCH  65  66
ENDBRANCH   1  65
TORSDOF 20
