REMARK SMILES [NH3+][C@]1(C(=O)OCCOCCOCCOC(=O)c2ccc(-c3c4nc(c(-c5c(F)cccc5F)c5ccc([nH]5)c(-c5c(F)cccc5F)c5nc(c(-c6c(F)cccc6F)c6ccc3[nH]6)C=C5)C=C4)cc2)CCC[C@@H]1CCOc1ccc(CO)cc1
REMARK SMILES IDX 7 1 6 2 5 3 3 4 4 5 2 6 71 7 74 8 72 9 73 10 1 11 75 15
REMARK SMILES IDX 76 16 77 17 78 18 79 19 85 20 80 21 84 22 81 23 82 24 83 25
REMARK SMILES IDX 8 27 9 28 10 29 11 30 12 31 13 32 14 33 15 34 16 35 17 36
REMARK SMILES IDX 18 37 70 38 19 39 69 40 20 41 21 42 22 43 63 44 23 45 68 46
REMARK SMILES IDX 62 47 64 48 24 49 67 50 61 51 60 52 25 54 51 55 34 56 50 57
REMARK SMILES IDX 35 58 38 59 49 60 65 61 36 62 37 63 48 65 66 66 39 67 26 68
REMARK SMILES IDX 27 69 32 70 28 71 29 72 31 73 33 74 30 75 52 76 53 77 58 78
REMARK SMILES IDX 54 79 55 80 57 81 59 82 56 83 40 84 41 85 46 86 42 87 43 88
REMARK SMILES IDX 45 89 47 90 44 91
REMARK H PARENT 1 12 1 13 1 14 83 26 64 53 38 64
REMARK Flexibility Score: inf
ROOT
ATOM      1  C   UNL     1       1.825  -2.115  -1.484  1.00  0.00     0.202 C 
ENDROOT
BRANCH   1   2
ATOM      2  C   UNL     1       2.753  -1.471  -0.436  1.00  0.00     0.261 C 
BRANCH   2   3
ATOM      3  O   UNL     1       2.236  -0.462   0.466  1.00  0.00    -0.459 OA
BRANCH   3   4
ATOM      4  C   UNL     1       1.418   0.491  -0.038  1.00  0.00     0.368 C 
ATOM      5  O   UNL     1       1.046   0.480  -1.200  1.00  0.00    -0.245 OA
BRANCH   4   6
ATOM      6  C   UNL     1       0.856   1.484   0.999  1.00  0.00     0.195 C 
ATOM      7  C   UNL     1       1.843   1.697   2.152  1.00  0.00     0.081 C 
ATOM      8  C   UNL     1       0.731   2.932   0.420  1.00  0.00     0.066 C 
ATOM      9  C   UNL     1       1.407   3.003   2.796  1.00  0.00     0.008 C 
ATOM     10  C   UNL     1       0.786   3.837   1.670  1.00  0.00     0.011 C 
BRANCH   6  11
ATOM     11  N   UNL     1      -0.449   0.994   1.510  1.00  0.00    -0.343 N 
ATOM     12  H   UNL     1      -0.816   1.655   2.195  1.00  0.00     0.345 HD
ATOM     13  H   UNL     1      -0.321   0.084   1.951  1.00  0.00     0.345 HD
ATOM     14  H   UNL     1      -1.107   0.907   0.735  1.00  0.00     0.345 HD
ENDBRANCH   6  11
BRANCH   8  15
ATOM     15  C   UNL     1      -0.512   3.209  -0.482  1.00  0.00     0.052 C 
BRANCH  15  16
ATOM     16  C   UNL     1      -0.429   4.480  -1.371  1.00  0.00     0.230 C 
BRANCH  16  17
ATOM     17  O   UNL     1      -0.091   4.299  -2.772  1.00  0.00    -0.494 OA
BRANCH  17  18
ATOM     18  C   UNL     1       1.218   3.975  -2.975  1.00  0.00     0.119 A 
ATOM     19  C   UNL     1       2.156   4.870  -3.461  1.00  0.00     0.047 A 
ATOM     20  C   UNL     1       1.603   2.670  -2.766  1.00  0.00     0.047 A 
ATOM     21  C   UNL     1       3.512   4.498  -3.493  1.00  0.00     0.010 A 
ATOM     22  C   UNL     1       2.945   2.319  -2.678  1.00  0.00     0.010 A 
ATOM     23  C   UNL     1       3.926   3.251  -3.000  1.00  0.00    -0.022 A 
BRANCH  23  24
ATOM     24  C   UNL     1       5.375   2.896  -2.804  1.00  0.00     0.191 C 
BRANCH  24  25
ATOM     25  O   UNL     1       5.788   1.853  -3.675  1.00  0.00    -0.392 OA
ATOM     26  H   UNL     1       5.268   1.055  -3.492  1.00  0.00     0.211 HD
ENDBRANCH  24  25
ENDBRANCH  23  24
ENDBRANCH  17  18
ENDBRANCH  16  17
ENDBRANCH  15  16
ENDBRANCH   8  15
ENDBRANCH   4   6
ENDBRANCH   3   4
ENDBRANCH   2   3
ENDBRANCH   1   2
BRANCH   1  27
ATOM     27  O   UNL     1       0.700  -2.818  -1.000  1.00  0.00    -0.376 OA
BRANCH  27  28
ATOM     28  C   UNL     1      -0.289  -2.096  -0.294  1.00  0.00     0.188 C 
BRANCH  28  29
ATOM     29  C   UNL     1      -0.190  -2.254   1.235  1.00  0.00     0.188 C 
BRANCH  29  30
ATOM     30  O   UNL     1       0.379  -3.442   1.770  1.00  0.00    -0.376 OA
BRANCH  30  31
ATOM     31  C   UNL     1       0.165  -4.662   1.083  1.00  0.00     0.202 C 
BRANCH  31  32
ATOM     32  C   UNL     1      -1.286  -5.145   0.916  1.00  0.00     0.261 C 
BRANCH  32  33
ATOM     33  O   UNL     1      -2.185  -4.243   0.230  1.00  0.00    -0.460 OA
BRANCH  33  34
ATOM     34  C   UNL     1      -3.138  -3.626   0.971  1.00  0.00     0.338 C 
ATOM     35  O   UNL     1      -3.358  -3.791   2.166  1.00  0.00    -0.246 OA
BRANCH  34  36
ATOM     36  C   UNL     1      -3.829  -2.574   0.179  1.00  0.00     0.060 A 
ATOM     37  C   UNL     1      -3.700  -1.226   0.554  1.00  0.00     0.016 A 
ATOM     38  C   UNL     1      -4.663  -2.910  -0.888  1.00  0.00     0.016 A 
ATOM     39  C   UNL     1      -4.396  -0.219  -0.134  1.00  0.00     0.010 A 
ATOM     40  C   UNL     1      -5.380  -1.904  -1.557  1.00  0.00     0.010 A 
ATOM     41  C   UNL     1      -5.264  -0.551  -1.182  1.00  0.00    -0.014 A 
BRANCH  41  42
ATOM     42  C   UNL     1      -6.133   0.474  -1.832  1.00  0.00     0.031 A 
ATOM     43  C   UNL     1      -7.584   0.575  -1.437  1.00  0.00     0.074 A 
ATOM     44  C   UNL     1      -5.661   1.290  -2.795  1.00  0.00     0.049 A 
ATOM     45  N   UNL     1      -8.555   1.256  -1.993  1.00  0.00    -0.248 NA
ATOM     46  C   UNL     1      -7.990  -0.196  -0.253  1.00  0.00     0.031 C 
ATOM     47  C   UNL     1      -4.272   1.358  -3.241  1.00  0.00     0.029 A 
ATOM     48  N   UNL     1      -6.316   2.199  -3.596  1.00  0.00    -0.354 N 
ATOM     49  C   UNL     1      -9.690   0.989  -1.235  1.00  0.00     0.074 A 
ATOM     50  C   UNL     1      -9.288   0.070  -0.190  1.00  0.00     0.031 C 
ATOM     51  C   UNL     1      -4.184   2.229  -4.263  1.00  0.00     0.029 A 
ATOM     52  C   UNL     1      -5.518   2.742  -4.577  1.00  0.00     0.049 A 
ATOM     53  H   UNL     1      -7.264   2.437  -3.478  1.00  0.00     0.167 HD
ATOM     54  C   UNL     1     -10.950   1.465  -1.392  1.00  0.00     0.037 A 
ATOM     55  C   UNL     1      -5.833   3.516  -5.636  1.00  0.00     0.037 A 
ATOM     56  C   UNL     1     -11.360   2.369  -2.436  1.00  0.00     0.049 A 
ATOM     57  C   UNL     1      -7.266   3.933  -5.867  1.00  0.00     0.074 A 
ATOM     58  C   UNL     1     -12.617   2.904  -2.668  1.00  0.00     0.029 A 
ATOM     59  N   UNL     1     -10.529   2.862  -3.429  1.00  0.00    -0.354 N 
ATOM     60  N   UNL     1      -8.329   3.684  -5.141  1.00  0.00    -0.248 NA
ATOM     61  C   UNL     1      -7.544   4.731  -7.072  1.00  0.00     0.031 C 
ATOM     62  C   UNL     1     -12.558   3.674  -3.834  1.00  0.00     0.029 A 
ATOM     63  C   UNL     1     -11.253   3.666  -4.295  1.00  0.00     0.049 A 
ATOM     64  H   UNL     1      -9.566   2.671  -3.507  1.00  0.00     0.167 HD
ATOM     65  C   UNL     1      -9.390   4.309  -5.788  1.00  0.00     0.074 A 
ATOM     66  C   UNL     1      -8.842   4.970  -6.952  1.00  0.00     0.031 C 
ATOM     67  C   UNL     1     -10.704   4.327  -5.451  1.00  0.00     0.037 A 
BRANCH  54  68
ATOM     68  C   UNL     1     -11.997   0.995  -0.423  1.00  0.00     0.057 A 
ATOM     69  C   UNL     1     -12.022   1.433   0.907  1.00  0.00     0.134 A 
ATOM     70  C   UNL     1     -13.029   0.145  -0.843  1.00  0.00     0.134 A 
ATOM     71  F   UNL     1     -11.061   2.243   1.375  1.00  0.00    -0.206 F 
ATOM     72  C   UNL     1     -13.024   1.025   1.790  1.00  0.00     0.040 A 
ATOM     73  C   UNL     1     -14.051  -0.248   0.023  1.00  0.00     0.040 A 
ATOM     74  F   UNL     1     -13.072  -0.302  -2.107  1.00  0.00    -0.206 F 
ATOM     75  C   UNL     1     -14.047   0.189   1.346  1.00  0.00     0.006 A 
ENDBRANCH  54  68
BRANCH  55  76
ATOM     76  C   UNL     1      -4.784   3.905  -6.620  1.00  0.00     0.057 A 
ATOM     77  C   UNL     1      -4.411   5.242  -6.800  1.00  0.00     0.134 A 
ATOM     78  C   UNL     1      -4.178   2.953  -7.450  1.00  0.00     0.134 A 
ATOM     79  F   UNL     1      -4.982   6.207  -6.064  1.00  0.00    -0.206 F 
ATOM     80  C   UNL     1      -3.493   5.621  -7.782  1.00  0.00     0.040 A 
ATOM     81  C   UNL     1      -3.234   3.313  -8.413  1.00  0.00     0.040 A 
ATOM     82  F   UNL     1      -4.498   1.655  -7.340  1.00  0.00    -0.206 F 
ATOM     83  C   UNL     1      -2.897   4.653  -8.588  1.00  0.00     0.006 A 
ENDBRANCH  55  76
BRANCH  67  84
ATOM     84  C   UNL     1     -11.643   5.102  -6.333  1.00  0.00     0.057 A 
ATOM     85  C   UNL     1     -11.995   4.652  -7.612  1.00  0.00     0.134 A 
ATOM     86  C   UNL     1     -12.244   6.284  -5.879  1.00  0.00     0.134 A 
ATOM     87  F   UNL     1     -11.448   3.535  -8.115  1.00  0.00    -0.206 F 
ATOM     88  C   UNL     1     -12.897   5.357  -8.413  1.00  0.00     0.040 A 
ATOM     89  C   UNL     1     -13.168   6.982  -6.659  1.00  0.00     0.040 A 
ATOM     90  F   UNL     1     -11.960   6.768  -4.660  1.00  0.00    -0.206 F 
ATOM     91  C   UNL     1     -13.494   6.521  -7.932  1.00  0.00     0.006 A 
ENDBRANCH  67  84
ENDBRANCH  41  42
ENDBRANCH  34  36
ENDBRANCH  33  34
ENDBRANCH  32  33
ENDBRANCH  31  32
ENDBRANCH  30  31
ENDBRANCH  29  30
ENDBRANCH  28  29
ENDBRANCH  27  28
ENDBRANCH   1  27
TORSDOF 24
