REMARK SMILES C[C@H](Cc1ccc(C2CC2)cc1)C(=O)OCCOCCOCCOC(=O)c1ccc(-c2c3nc(c(-c4c(F)cccc4F)c4ccc([nH]4)c(-c4c(F)cccc4F)c4nc(c(-c5c(F)cccc5F)c5ccc2[nH]5)C=C4)C=C3)cc1
REMARK SMILES IDX 19 1 18 2 17 3 16 4 15 5 13 6 14 7 2 8 1 9 3 10 4 11 5 12
REMARK SMILES IDX 12 13 6 14 11 15 7 16 8 17 9 18 10 19 20 20 21 21 22 22
REMARK SMILES IDX 23 23 24 24 25 25 26 26 27 27 28 28 80 29 29 30 79 31 30 32
REMARK SMILES IDX 31 33 32 34 73 35 33 36 78 37 72 38 74 39 34 40 77 41 71 42
REMARK SMILES IDX 70 43 35 45 61 46 44 47 60 48 45 49 48 50 59 51 75 52 46 53
REMARK SMILES IDX 47 54 58 56 76 57 49 58 36 59 37 60 42 61 38 62 39 63 41 64
REMARK SMILES IDX 43 65 40 66 62 67 63 68 68 69 64 70 65 71 67 72 69 73 66 74
REMARK SMILES IDX 50 75 51 76 56 77 52 78 53 79 55 80 57 81 54 82
REMARK H PARENT 74 44 48 55
REMARK Flexibility Score: inf
ROOT
ATOM      1  C   UNL     1      -2.349   2.069  -0.550  1.00  0.00     0.188 C 
ENDROOT
BRANCH   1   2
ATOM      2  O   UNL     1      -3.643   1.729  -1.034  1.00  0.00    -0.376 OA
BRANCH   2   3
ATOM      3  C   UNL     1      -3.958   0.354  -1.229  1.00  0.00     0.202 C 
BRANCH   3   4
ATOM      4  C   UNL     1      -3.003  -0.501  -2.080  1.00  0.00     0.261 C 
BRANCH   4   5
ATOM      5  O   UNL     1      -1.615  -0.475  -1.676  1.00  0.00    -0.463 OA
BRANCH   5   6
ATOM      6  C   UNL     1      -0.710  -0.078  -2.601  1.00  0.00     0.309 C 
ATOM      7  O   UNL     1      -1.012   0.285  -3.735  1.00  0.00    -0.252 OA
BRANCH   6   8
ATOM      8  C   UNL     1       0.753  -0.070  -2.137  1.00  0.00     0.100 C 
ATOM      9  C   UNL     1       1.599  -0.727  -3.236  1.00  0.00     0.020 C 
BRANCH   8  10
ATOM     10  C   UNL     1       1.194  -0.556  -0.738  1.00  0.00     0.050 C 
BRANCH  10  11
ATOM     11  C   UNL     1       0.656  -1.821  -0.120  1.00  0.00    -0.047 A 
ATOM     12  C   UNL     1       0.071  -2.843  -0.860  1.00  0.00     0.004 A 
ATOM     13  C   UNL     1       0.807  -2.013   1.263  1.00  0.00     0.004 A 
ATOM     14  C   UNL     1      -0.359  -4.017  -0.235  1.00  0.00     0.004 A 
ATOM     15  C   UNL     1       0.399  -3.205   1.877  1.00  0.00     0.004 A 
ATOM     16  C   UNL     1      -0.178  -4.247   1.139  1.00  0.00    -0.045 A 
BRANCH  16  17
ATOM     17  C   UNL     1      -0.541  -5.601   1.706  1.00  0.00     0.019 C 
ATOM     18  C   UNL     1      -0.411  -5.959   3.164  1.00  0.00     0.009 C 
ATOM     19  C   UNL     1      -1.772  -5.764   2.562  1.00  0.00     0.009 C 
ENDBRANCH  16  17
ENDBRANCH  10  11
ENDBRANCH   8  10
ENDBRANCH   6   8
ENDBRANCH   5   6
ENDBRANCH   4   5
ENDBRANCH   3   4
ENDBRANCH   2   3
ENDBRANCH   1   2
BRANCH   1  20
ATOM     20  C   UNL     1      -1.722   1.213   0.562  1.00  0.00     0.188 C 
BRANCH  20  21
ATOM     21  O   UNL     1      -2.571   0.209   1.069  1.00  0.00    -0.376 OA
BRANCH  21  22
ATOM     22  C   UNL     1      -2.706   0.114   2.473  1.00  0.00     0.202 C 
BRANCH  22  23
ATOM     23  C   UNL     1      -3.467   1.279   3.124  1.00  0.00     0.261 C 
BRANCH  23  24
ATOM     24  O   UNL     1      -3.002   2.599   2.784  1.00  0.00    -0.460 OA
BRANCH  24  25
ATOM     25  C   UNL     1      -1.803   2.983   3.277  1.00  0.00     0.338 C 
ATOM     26  O   UNL     1      -1.079   2.345   4.026  1.00  0.00    -0.246 OA
BRANCH  25  27
ATOM     27  C   UNL     1      -1.391   4.206   2.546  1.00  0.00     0.060 A 
ATOM     28  C   UNL     1      -0.171   4.210   1.850  1.00  0.00     0.016 A 
ATOM     29  C   UNL     1      -2.219   5.329   2.516  1.00  0.00     0.016 A 
ATOM     30  C   UNL     1       0.236   5.347   1.146  1.00  0.00     0.010 A 
ATOM     31  C   UNL     1      -1.799   6.474   1.834  1.00  0.00     0.010 A 
ATOM     32  C   UNL     1      -0.556   6.501   1.174  1.00  0.00    -0.014 A 
BRANCH  32  33
ATOM     33  C   UNL     1      -0.002   7.807   0.736  1.00  0.00     0.031 A 
ATOM     34  C   UNL     1       0.540   8.727   1.796  1.00  0.00     0.074 A 
ATOM     35  C   UNL     1       0.006   8.192  -0.552  1.00  0.00     0.049 A 
ATOM     36  N   UNL     1       0.940   9.968   1.702  1.00  0.00    -0.248 NA
ATOM     37  C   UNL     1       0.629   8.165   3.154  1.00  0.00     0.031 C 
ATOM     38  C   UNL     1      -0.435   7.383  -1.685  1.00  0.00     0.029 A 
ATOM     39  N   UNL     1       0.383   9.387  -1.116  1.00  0.00    -0.354 N 
ATOM     40  C   UNL     1       1.305  10.342   2.990  1.00  0.00     0.074 A 
ATOM     41  C   UNL     1       1.054   9.207   3.850  1.00  0.00     0.031 C 
ATOM     42  C   UNL     1      -0.327   8.114  -2.809  1.00  0.00     0.029 A 
ATOM     43  C   UNL     1       0.149   9.456  -2.468  1.00  0.00     0.049 A 
ATOM     44  H   UNL     1       0.783  10.124  -0.600  1.00  0.00     0.167 HD
ATOM     45  C   UNL     1       1.805  11.524   3.419  1.00  0.00     0.037 A 
ATOM     46  C   UNL     1       0.271  10.492  -3.321  1.00  0.00     0.037 A 
ATOM     47  C   UNL     1       2.049  12.656   2.564  1.00  0.00     0.049 A 
ATOM     48  C   UNL     1       0.749  11.829  -2.809  1.00  0.00     0.074 A 
ATOM     49  C   UNL     1       2.566  13.894   2.901  1.00  0.00     0.029 A 
ATOM     50  N   UNL     1       1.780  12.690   1.204  1.00  0.00    -0.354 N 
ATOM     51  N   UNL     1       1.104  12.174  -1.594  1.00  0.00    -0.248 NA
ATOM     52  C   UNL     1       0.843  12.922  -3.789  1.00  0.00     0.031 C 
ATOM     53  C   UNL     1       2.554  14.697   1.758  1.00  0.00     0.029 A 
ATOM     54  C   UNL     1       2.095  13.938   0.693  1.00  0.00     0.049 A 
ATOM     55  H   UNL     1       1.418  11.939   0.680  1.00  0.00     0.167 HD
ATOM     56  C   UNL     1       1.498  13.506  -1.673  1.00  0.00     0.074 A 
ATOM     57  C   UNL     1       1.343  13.906  -3.055  1.00  0.00     0.031 C 
ATOM     58  C   UNL     1       1.953  14.322  -0.689  1.00  0.00     0.037 A 
BRANCH  45  59
ATOM     59  C   UNL     1       2.080  11.662   4.888  1.00  0.00     0.057 A 
ATOM     60  C   UNL     1       3.114  10.959   5.523  1.00  0.00     0.134 A 
ATOM     61  C   UNL     1       1.302  12.517   5.679  1.00  0.00     0.134 A 
ATOM     62  F   UNL     1       3.885  10.109   4.828  1.00  0.00    -0.206 F 
ATOM     63  C   UNL     1       3.342  11.078   6.895  1.00  0.00     0.040 A 
ATOM     64  C   UNL     1       1.542  12.669   7.045  1.00  0.00     0.040 A 
ATOM     65  F   UNL     1       0.298  13.222   5.136  1.00  0.00    -0.206 F 
ATOM     66  C   UNL     1       2.558  11.941   7.659  1.00  0.00     0.006 A 
ENDBRANCH  45  59
BRANCH  46  67
ATOM     67  C   UNL     1      -0.085  10.323  -4.755  1.00  0.00     0.057 A 
ATOM     68  C   UNL     1       0.892  10.378  -5.756  1.00  0.00     0.134 A 
ATOM     69  C   UNL     1      -1.411  10.131  -5.161  1.00  0.00     0.134 A 
ATOM     70  F   UNL     1       2.176  10.590  -5.435  1.00  0.00    -0.206 F 
ATOM     71  C   UNL     1       0.562  10.263  -7.109  1.00  0.00     0.040 A 
ATOM     72  C   UNL     1      -1.752   9.986  -6.507  1.00  0.00     0.040 A 
ATOM     73  F   UNL     1      -2.397  10.075  -4.253  1.00  0.00    -0.206 F 
ATOM     74  C   UNL     1      -0.763  10.059  -7.486  1.00  0.00     0.006 A 
ENDBRANCH  46  67
BRANCH  58  75
ATOM     75  C   UNL     1       2.377  15.712  -1.073  1.00  0.00     0.057 A 
ATOM     76  C   UNL     1       1.457  16.701  -1.442  1.00  0.00     0.134 A 
ATOM     77  C   UNL     1       3.729  16.081  -1.013  1.00  0.00     0.134 A 
ATOM     78  F   UNL     1       0.149  16.416  -1.529  1.00  0.00    -0.206 F 
ATOM     79  C   UNL     1       1.868  17.998  -1.760  1.00  0.00     0.040 A 
ATOM     80  C   UNL     1       4.148  17.381  -1.298  1.00  0.00     0.040 A 
ATOM     81  F   UNL     1       4.663  15.187  -0.654  1.00  0.00    -0.206 F 
ATOM     82  C   UNL     1       3.216  18.343  -1.679  1.00  0.00     0.006 A 
ENDBRANCH  58  75
ENDBRANCH  32  33
ENDBRANCH  25  27
ENDBRANCH  24  25
ENDBRANCH  23  24
ENDBRANCH  22  23
ENDBRANCH  21  22
ENDBRANCH  20  21
ENDBRANCH   1  20
TORSDOF 20
