REMARK SMILES CC(C)(C)NS(=O)(=O)c1csc(C(=O)Nc2ccccc2C(=O)OCCOCCOCCOC(=O)c2ccc(-c3c4nc(c(-c5c(F)cccc5F)c5ccc([nH]5)c(-c5c(F)cccc5F)c5nc(c(-c6c(F)cccc6F)c6ccc3[nH]6)C=C5)C=C4)cc2)c1
REMARK SMILES IDX 27 1 26 2 25 3 24 4 22 5 23 6 21 7 16 8 17 9 18 10 20 11
REMARK SMILES IDX 19 12 15 13 13 14 14 15 12 17 9 18 10 19 90 20 11 21 6 22
REMARK SMILES IDX 7 23 8 24 5 25 2 27 1 28 3 29 4 30 28 31 29 32 30 33 31 34
REMARK SMILES IDX 32 35 33 36 34 37 35 38 36 39 37 40 89 41 38 42 88 43 39 44
REMARK SMILES IDX 40 45 41 46 82 47 42 48 87 49 81 50 83 51 43 52 86 53 80 54
REMARK SMILES IDX 79 55 44 57 70 58 53 59 69 60 54 61 57 62 68 63 84 64 55 65
REMARK SMILES IDX 56 66 67 68 85 69 58 70 45 71 46 72 51 73 47 74 48 75 50 76
REMARK SMILES IDX 52 77 49 78 71 79 72 80 77 81 73 82 74 83 76 84 78 85 75 86
REMARK SMILES IDX 59 87 60 88 65 89 61 90 62 91 64 92 66 93 63 94
REMARK H PARENT 15 16 5 26 83 56 57 67
REMARK Flexibility Score: inf
ROOT
ATOM      1  O   UNL     1       7.999   1.244  -0.039  1.00  0.00    -0.376 OA
ENDROOT
BRANCH   1   2
ATOM      2  C   UNL     1       7.455   0.572  -1.158  1.00  0.00     0.202 C 
BRANCH   2   3
ATOM      3  C   UNL     1       5.970   0.271  -1.371  1.00  0.00     0.261 C 
BRANCH   3   4
ATOM      4  O   UNL     1       5.023   1.214  -0.864  1.00  0.00    -0.460 OA
BRANCH   4   5
ATOM      5  C   UNL     1       4.286   0.756   0.179  1.00  0.00     0.340 C 
ATOM      6  O   UNL     1       4.495  -0.277   0.795  1.00  0.00    -0.246 OA
BRANCH   5   7
ATOM      7  C   UNL     1       3.237   1.718   0.596  1.00  0.00     0.083 A 
ATOM      8  C   UNL     1       2.506   2.567  -0.257  1.00  0.00     0.056 A 
ATOM      9  C   UNL     1       1.650   3.515   0.339  1.00  0.00     0.027 A 
ATOM     10  C   UNL     1       1.451   3.559   1.724  1.00  0.00     0.002 A 
ATOM     11  C   UNL     1       3.026   1.772   1.992  1.00  0.00     0.018 A 
ATOM     12  C   UNL     1       2.131   2.678   2.553  1.00  0.00     0.001 A 
BRANCH   8  13
ATOM     13  N   UNL     1       2.505   2.581  -1.672  1.00  0.00    -0.320 N 
ATOM     14  C   UNL     1       2.712   1.619  -2.650  1.00  0.00     0.265 C 
ATOM     15  O   UNL     1       2.898   2.041  -3.795  1.00  0.00    -0.268 OA
ATOM     16  H   UNL     1       2.315   3.472  -2.046  1.00  0.00     0.170 HD
BRANCH  14  17
ATOM     17  C   UNL     1       2.583   0.199  -2.341  1.00  0.00     0.094 A 
ATOM     18  C   UNL     1       2.175  -1.803  -1.186  1.00  0.00     0.093 A 
ATOM     19  C   UNL     1       2.855  -2.266  -2.290  1.00  0.00     0.087 A 
ATOM     20  C   UNL     1       1.974  -0.408  -1.266  1.00  0.00     0.047 A 
ATOM     21  S   UNL     1       3.201  -1.001  -3.403  1.00  0.00    -0.137 S 
BRANCH  18  22
ATOM     22  S   UNL     1       1.672  -2.747   0.174  1.00  0.00     0.241 S 
ATOM     23  O   UNL     1       2.506  -2.329   1.271  1.00  0.00    -0.207 OA
ATOM     24  O   UNL     1       1.708  -4.108  -0.318  1.00  0.00    -0.207 OA
BRANCH  22  25
ATOM     25  N   UNL     1       0.059  -2.458   0.557  1.00  0.00    -0.206 NA
ATOM     26  H   UNL     1      -0.419  -2.424  -0.344  1.00  0.00     0.141 HD
BRANCH  25  27
ATOM     27  C   UNL     1      -0.510  -1.312   1.333  1.00  0.00     0.025 C 
ATOM     28  C   UNL     1      -0.750  -0.081   0.450  1.00  0.00     0.028 C 
ATOM     29  C   UNL     1       0.302  -0.944   2.576  1.00  0.00     0.028 C 
ATOM     30  C   UNL     1      -1.902  -1.790   1.798  1.00  0.00     0.028 C 
ENDBRANCH  25  27
ENDBRANCH  22  25
ENDBRANCH  18  22
ENDBRANCH  14  17
ENDBRANCH   8  13
ENDBRANCH   5   7
ENDBRANCH   4   5
ENDBRANCH   3   4
ENDBRANCH   2   3
ENDBRANCH   1   2
BRANCH   1  31
ATOM     31  C   UNL     1       7.182   1.734   0.996  1.00  0.00     0.188 C 
BRANCH  31  32
ATOM     32  C   UNL     1       6.493   3.101   0.779  1.00  0.00     0.188 C 
BRANCH  32  33
ATOM     33  O   UNL     1       6.753   3.873  -0.379  1.00  0.00    -0.376 OA
BRANCH  33  34
ATOM     34  C   UNL     1       8.104   4.084  -0.760  1.00  0.00     0.202 C 
BRANCH  34  35
ATOM     35  C   UNL     1       9.069   4.707   0.262  1.00  0.00     0.261 C 
BRANCH  35  36
ATOM     36  O   UNL     1       9.111   4.018   1.525  1.00  0.00    -0.460 OA
BRANCH  36  37
ATOM     37  C   UNL     1       8.653   4.721   2.593  1.00  0.00     0.338 C 
ATOM     38  O   UNL     1       8.328   5.896   2.619  1.00  0.00    -0.246 OA
BRANCH  37  39
ATOM     39  C   UNL     1       8.362   3.794   3.713  1.00  0.00     0.060 A 
ATOM     40  C   UNL     1       7.075   3.831   4.275  1.00  0.00     0.016 A 
ATOM     41  C   UNL     1       9.319   2.907   4.208  1.00  0.00     0.016 A 
ATOM     42  C   UNL     1       6.752   3.013   5.357  1.00  0.00     0.010 A 
ATOM     43  C   UNL     1       9.006   2.111   5.317  1.00  0.00     0.010 A 
ATOM     44  C   UNL     1       7.736   2.191   5.920  1.00  0.00    -0.014 A 
BRANCH  44  45
ATOM     45  C   UNL     1       7.530   1.649   7.286  1.00  0.00     0.031 A 
ATOM     46  C   UNL     1       7.987   2.494   8.445  1.00  0.00     0.074 A 
ATOM     47  C   UNL     1       6.950   0.458   7.511  1.00  0.00     0.049 A 
ATOM     48  N   UNL     1       7.981   2.228   9.726  1.00  0.00    -0.248 NA
ATOM     49  C   UNL     1       8.527   3.821   8.108  1.00  0.00     0.031 C 
ATOM     50  C   UNL     1       6.423  -0.440   6.488  1.00  0.00     0.029 A 
ATOM     51  N   UNL     1       6.728  -0.206   8.694  1.00  0.00    -0.354 N 
ATOM     52  C   UNL     1       8.527   3.346  10.342  1.00  0.00     0.074 A 
ATOM     53  C   UNL     1       8.868   4.287   9.298  1.00  0.00     0.031 C 
ATOM     54  C   UNL     1       5.963  -1.555   7.085  1.00  0.00     0.029 A 
ATOM     55  C   UNL     1       6.190  -1.459   8.528  1.00  0.00     0.049 A 
ATOM     56  H   UNL     1       6.934   0.180   9.576  1.00  0.00     0.167 HD
ATOM     57  C   UNL     1       8.728   3.575  11.661  1.00  0.00     0.037 A 
ATOM     58  C   UNL     1       5.940  -2.424   9.435  1.00  0.00     0.037 A 
ATOM     59  C   UNL     1       8.401   2.644  12.704  1.00  0.00     0.049 A 
ATOM     60  C   UNL     1       6.237  -2.178  10.893  1.00  0.00     0.074 A 
ATOM     61  C   UNL     1       8.545   2.796  14.071  1.00  0.00     0.029 A 
ATOM     62  N   UNL     1       7.879   1.378  12.492  1.00  0.00    -0.354 N 
ATOM     63  N   UNL     1       6.720  -1.104  11.471  1.00  0.00    -0.248 NA
ATOM     64  C   UNL     1       5.955  -3.281  11.825  1.00  0.00     0.031 C 
ATOM     65  C   UNL     1       8.154   1.602  14.686  1.00  0.00     0.029 A 
ATOM     66  C   UNL     1       7.722   0.725  13.703  1.00  0.00     0.049 A 
ATOM     67  H   UNL     1       7.654   0.999  11.612  1.00  0.00     0.167 HD
ATOM     68  C   UNL     1       6.777  -1.393  12.831  1.00  0.00     0.074 A 
ATOM     69  C   UNL     1       6.269  -2.738  12.994  1.00  0.00     0.031 C 
ATOM     70  C   UNL     1       7.210  -0.613  13.852  1.00  0.00     0.037 A 
BRANCH  57  71
ATOM     71  C   UNL     1       9.372   4.876  12.034  1.00  0.00     0.057 A 
ATOM     72  C   UNL     1       8.687   6.094  11.949  1.00  0.00     0.134 A 
ATOM     73  C   UNL     1      10.699   4.907  12.480  1.00  0.00     0.134 A 
ATOM     74  F   UNL     1       7.420   6.132  11.507  1.00  0.00    -0.206 F 
ATOM     75  C   UNL     1       9.307   7.302  12.270  1.00  0.00     0.040 A 
ATOM     76  C   UNL     1      11.322   6.106  12.827  1.00  0.00     0.040 A 
ATOM     77  F   UNL     1      11.411   3.775  12.581  1.00  0.00    -0.206 F 
ATOM     78  C   UNL     1      10.628   7.309  12.715  1.00  0.00     0.006 A 
ENDBRANCH  57  71
BRANCH  58  79
ATOM     79  C   UNL     1       5.408  -3.738   8.993  1.00  0.00     0.057 A 
ATOM     80  C   UNL     1       4.102  -4.137   9.302  1.00  0.00     0.134 A 
ATOM     81  C   UNL     1       6.206  -4.640   8.279  1.00  0.00     0.134 A 
ATOM     82  F   UNL     1       3.300  -3.330  10.012  1.00  0.00    -0.206 F 
ATOM     83  C   UNL     1       3.613  -5.390   8.928  1.00  0.00     0.040 A 
ATOM     84  C   UNL     1       5.722  -5.886   7.877  1.00  0.00     0.040 A 
ATOM     85  F   UNL     1       7.469  -4.321   7.961  1.00  0.00    -0.206 F 
ATOM     86  C   UNL     1       4.423  -6.266   8.208  1.00  0.00     0.006 A 
ENDBRANCH  58  79
BRANCH  70  87
ATOM     87  C   UNL     1       7.129  -1.177  15.241  1.00  0.00     0.057 A 
ATOM     88  C   UNL     1       8.010  -2.169  15.689  1.00  0.00     0.134 A 
ATOM     89  C   UNL     1       6.194  -0.681  16.158  1.00  0.00     0.134 A 
ATOM     90  F   UNL     1       8.924  -2.693  14.858  1.00  0.00    -0.206 F 
ATOM     91  C   UNL     1       7.953  -2.659  16.995  1.00  0.00     0.040 A 
ATOM     92  C   UNL     1       6.142  -1.145  17.473  1.00  0.00     0.040 A 
ATOM     93  F   UNL     1       5.327   0.278  15.796  1.00  0.00    -0.206 F 
ATOM     94  C   UNL     1       7.021  -2.141  17.893  1.00  0.00     0.006 A 
ENDBRANCH  70  87
ENDBRANCH  44  45
ENDBRANCH  37  39
ENDBRANCH  36  37
ENDBRANCH  35  36
ENDBRANCH  34  35
ENDBRANCH  33  34
ENDBRANCH  32  33
ENDBRANCH  31  32
ENDBRANCH   1  31
TORSDOF 22
