REMARK SMILES Cc1noc(C)c1CCC(=O)N1CCC2(CC1)NC(=O)C[C@@H]2C(=O)OCCOCCOCCOC(=O)c1ccc(-c2c3nc(c(-c4c(F)cccc4F)c4ccc([nH]4)c(-c4c(F)cccc4F)c4nc(c(-c5c(F)cccc5F)c5ccc2[nH]5)C=C4)C=C3)cc1
REMARK SMILES IDX 29 1 28 2 27 3 26 4 25 5 23 6 24 7 22 8 10 9 11 10 12 11
REMARK SMILES IDX 13 12 17 13 14 14 16 15 15 16 18 17 19 18 21 20 20 21 9 22
REMARK SMILES IDX 8 23 7 24 1 25 2 26 3 27 4 28 5 29 6 30 30 31 31 32 32 33
REMARK SMILES IDX 33 34 34 35 35 36 36 37 37 38 38 39 90 40 39 41 89 42 40 43
REMARK SMILES IDX 41 44 42 45 83 46 43 47 88 48 82 49 84 50 44 51 87 52 81 53
REMARK SMILES IDX 80 54 45 56 71 57 54 58 70 59 55 60 58 61 69 62 85 63 56 64
REMARK SMILES IDX 57 65 68 67 86 68 59 69 46 70 47 71 52 72 48 73 49 74 51 75
REMARK SMILES IDX 53 76 50 77 72 78 73 79 78 80 74 81 75 82 77 83 79 84 76 85
REMARK SMILES IDX 60 86 61 87 66 88 62 89 63 90 65 91 67 92 64 93
REMARK H PARENT 18 19 84 55 58 66
REMARK Flexibility Score: inf
ROOT
ATOM      1  C   UNL     1      -6.260  -3.162  -1.018  1.00  0.00     0.188 C 
ENDROOT
BRANCH   1   2
ATOM      2  O   UNL     1      -7.287  -2.252  -0.670  1.00  0.00    -0.376 OA
BRANCH   2   3
ATOM      3  C   UNL     1      -7.050  -0.858  -0.791  1.00  0.00     0.202 C 
BRANCH   3   4
ATOM      4  C   UNL     1      -5.782  -0.268  -0.169  1.00  0.00     0.261 C 
BRANCH   4   5
ATOM      5  O   UNL     1      -4.565  -0.757  -0.776  1.00  0.00    -0.463 OA
BRANCH   5   6
ATOM      6  C   UNL     1      -3.663  -1.338   0.043  1.00  0.00     0.311 C 
ATOM      7  O   UNL     1      -3.854  -1.503   1.244  1.00  0.00    -0.252 OA
BRANCH   6   8
ATOM      8  C   UNL     1      -2.401  -1.873  -0.623  1.00  0.00     0.134 C 
ATOM      9  C   UNL     1      -1.621   2.623  -1.596  1.00  0.00     0.222 C 
ATOM     10  O   UNL     1      -2.659   3.287  -1.602  1.00  0.00    -0.275 OA
ATOM     11  N   UNL     1      -1.576   1.309  -2.082  1.00  0.00    -0.343 N 
ATOM     12  C   UNL     1      -2.804   0.764  -2.652  1.00  0.00     0.122 C 
ATOM     13  C   UNL     1      -0.577   0.403  -1.568  1.00  0.00     0.122 C 
ATOM     14  C   UNL     1      -2.737  -0.706  -3.059  1.00  0.00     0.051 C 
ATOM     15  C   UNL     1      -0.531  -0.997  -2.111  1.00  0.00     0.051 C 
ATOM     16  C   UNL     1      -1.942  -1.608  -2.098  1.00  0.00     0.057 C 
ATOM     17  N   UNL     1      -1.793  -2.944  -2.651  1.00  0.00    -0.350 N 
ATOM     18  C   UNL     1      -1.855  -3.948  -1.728  1.00  0.00     0.221 C 
ATOM     19  H   UNL     1      -1.659  -3.111  -3.612  1.00  0.00     0.164 HD
ATOM     20  C   UNL     1      -2.381  -3.405  -0.443  1.00  0.00     0.117 C 
ATOM     21  O   UNL     1      -1.564  -5.116  -1.946  1.00  0.00    -0.275 OA
BRANCH   9  22
ATOM     22  C   UNL     1      -0.318   3.243  -1.093  1.00  0.00     0.105 C 
BRANCH  22  23
ATOM     23  C   UNL     1      -0.026   3.182   0.410  1.00  0.00     0.051 C 
BRANCH  23  24
ATOM     24  C   UNL     1       0.177   1.842   1.048  1.00  0.00     0.018 A 
ATOM     25  C   UNL     1      -2.184   1.448   2.128  1.00  0.00     0.071 C 
ATOM     26  C   UNL     1      -0.773   1.107   1.827  1.00  0.00     0.084 A 
ATOM     27  N   UNL     1      -0.281  -0.073   2.217  1.00  0.00    -0.085 NA
ATOM     28  O   UNL     1       0.994  -0.140   1.707  1.00  0.00    -0.361 OA
ATOM     29  C   UNL     1       1.270   0.990   1.002  1.00  0.00     0.137 A 
ATOM     30  C   UNL     1       2.579   0.985   0.317  1.00  0.00     0.091 C 
ENDBRANCH  23  24
ENDBRANCH  22  23
ENDBRANCH   9  22
ENDBRANCH   6   8
ENDBRANCH   5   6
ENDBRANCH   4   5
ENDBRANCH   3   4
ENDBRANCH   2   3
ENDBRANCH   1   2
BRANCH   1  31
ATOM     31  C   UNL     1      -5.504  -2.992  -2.348  1.00  0.00     0.188 C 
BRANCH  31  32
ATOM     32  O   UNL     1      -6.006  -2.172  -3.380  1.00  0.00    -0.376 OA
BRANCH  32  33
ATOM     33  C   UNL     1      -7.290  -2.454  -3.908  1.00  0.00     0.202 C 
BRANCH  33  34
ATOM     34  C   UNL     1      -7.667  -3.896  -4.283  1.00  0.00     0.261 C 
BRANCH  34  35
ATOM     35  O   UNL     1      -7.405  -4.884  -3.269  1.00  0.00    -0.460 OA
BRANCH  35  36
ATOM     36  C   UNL     1      -6.436  -5.790  -3.571  1.00  0.00     0.338 C 
ATOM     37  O   UNL     1      -5.805  -5.870  -4.611  1.00  0.00    -0.246 OA
BRANCH  36  38
ATOM     38  C   UNL     1      -6.083  -6.569  -2.363  1.00  0.00     0.060 A 
ATOM     39  C   UNL     1      -4.777  -6.480  -1.855  1.00  0.00     0.016 A 
ATOM     40  C   UNL     1      -7.005  -7.428  -1.771  1.00  0.00     0.016 A 
ATOM     41  C   UNL     1      -4.383  -7.259  -0.765  1.00  0.00     0.010 A 
ATOM     42  C   UNL     1      -6.600  -8.234  -0.700  1.00  0.00     0.010 A 
ATOM     43  C   UNL     1      -5.281  -8.175  -0.207  1.00  0.00    -0.014 A 
BRANCH  43  44
ATOM     44  C   UNL     1      -4.804  -9.209   0.748  1.00  0.00     0.031 A 
ATOM     45  C   UNL     1      -4.532 -10.594   0.224  1.00  0.00     0.074 A 
ATOM     46  C   UNL     1      -4.622  -8.940   2.054  1.00  0.00     0.049 A 
ATOM     47  N   UNL     1      -4.262 -11.695   0.876  1.00  0.00    -0.248 NA
ATOM     48  C   UNL     1      -4.581 -10.758  -1.239  1.00  0.00     0.031 C 
ATOM     49  C   UNL     1      -4.782  -7.631   2.682  1.00  0.00     0.029 A 
ATOM     50  N   UNL     1      -4.280  -9.773   3.094  1.00  0.00    -0.354 N 
ATOM     51  C   UNL     1      -4.140 -12.686  -0.091  1.00  0.00     0.074 A 
ATOM     52  C   UNL     1      -4.372 -12.059  -1.373  1.00  0.00     0.031 C 
ATOM     53  C   UNL     1      -4.567  -7.753   4.004  1.00  0.00     0.029 A 
ATOM     54  C   UNL     1      -4.301  -9.155   4.322  1.00  0.00     0.049 A 
ATOM     55  H   UNL     1      -4.042 -10.720   2.971  1.00  0.00     0.167 HD
ATOM     56  C   UNL     1      -3.865 -14.000   0.078  1.00  0.00     0.037 A 
ATOM     57  C   UNL     1      -4.166  -9.672   5.561  1.00  0.00     0.037 A 
ATOM     58  C   UNL     1      -3.612 -14.618   1.353  1.00  0.00     0.049 A 
ATOM     59  C   UNL     1      -3.926 -11.154   5.725  1.00  0.00     0.074 A 
ATOM     60  C   UNL     1      -3.293 -15.938   1.620  1.00  0.00     0.029 A 
ATOM     61  N   UNL     1      -3.655 -13.961   2.572  1.00  0.00    -0.354 N 
ATOM     62  N   UNL     1      -3.801 -12.082   4.807  1.00  0.00    -0.248 NA
ATOM     63  C   UNL     1      -3.811 -11.662   7.101  1.00  0.00     0.031 C 
ATOM     64  C   UNL     1      -3.209 -16.095   3.006  1.00  0.00     0.029 A 
ATOM     65  C   UNL     1      -3.404 -14.857   3.598  1.00  0.00     0.049 A 
ATOM     66  H   UNL     1      -3.836 -13.001   2.691  1.00  0.00     0.167 HD
ATOM     67  C   UNL     1      -3.559 -13.269   5.491  1.00  0.00     0.074 A 
ATOM     68  C   UNL     1      -3.540 -12.944   6.900  1.00  0.00     0.031 C 
ATOM     69  C   UNL     1      -3.369 -14.518   4.997  1.00  0.00     0.037 A 
BRANCH  56  70
ATOM     70  C   UNL     1      -3.870 -14.879  -1.139  1.00  0.00     0.057 A 
ATOM     71  C   UNL     1      -2.858 -14.828  -2.105  1.00  0.00     0.134 A 
ATOM     72  C   UNL     1      -4.881 -15.833  -1.312  1.00  0.00     0.134 A 
ATOM     73  F   UNL     1      -1.867 -13.929  -2.006  1.00  0.00    -0.206 F 
ATOM     74  C   UNL     1      -2.859 -15.686  -3.207  1.00  0.00     0.040 A 
ATOM     75  C   UNL     1      -4.878 -16.714  -2.394  1.00  0.00     0.040 A 
ATOM     76  F   UNL     1      -5.879 -15.938  -0.421  1.00  0.00    -0.206 F 
ATOM     77  C   UNL     1      -3.867 -16.639  -3.348  1.00  0.00     0.006 A 
ENDBRANCH  56  70
BRANCH  57  78
ATOM     78  C   UNL     1      -4.309  -8.804   6.762  1.00  0.00     0.057 A 
ATOM     79  C   UNL     1      -3.243  -8.591   7.645  1.00  0.00     0.134 A 
ATOM     80  C   UNL     1      -5.540  -8.223   7.094  1.00  0.00     0.134 A 
ATOM     81  F   UNL     1      -2.046  -9.146   7.403  1.00  0.00    -0.206 F 
ATOM     82  C   UNL     1      -3.402  -7.863   8.826  1.00  0.00     0.040 A 
ATOM     83  C   UNL     1      -5.704  -7.463   8.254  1.00  0.00     0.040 A 
ATOM     84  F   UNL     1      -6.606  -8.390   6.298  1.00  0.00    -0.206 F 
ATOM     85  C   UNL     1      -4.636  -7.293   9.131  1.00  0.00     0.006 A 
ENDBRANCH  57  78
BRANCH  69  86
ATOM     86  C   UNL     1      -3.069 -15.618   5.976  1.00  0.00     0.057 A 
ATOM     87  C   UNL     1      -4.037 -16.121   6.854  1.00  0.00     0.134 A 
ATOM     88  C   UNL     1      -1.802 -16.218   6.001  1.00  0.00     0.134 A 
ATOM     89  F   UNL     1      -5.267 -15.587   6.889  1.00  0.00    -0.206 F 
ATOM     90  C   UNL     1      -3.749 -17.162   7.739  1.00  0.00     0.040 A 
ATOM     91  C   UNL     1      -1.512 -17.280   6.858  1.00  0.00     0.040 A 
ATOM     92  F   UNL     1      -0.831 -15.796   5.178  1.00  0.00    -0.206 F 
ATOM     93  C   UNL     1      -2.486 -17.750   7.737  1.00  0.00     0.006 A 
ENDBRANCH  69  86
ENDBRANCH  43  44
ENDBRANCH  36  38
ENDBRANCH  35  36
ENDBRANCH  34  35
ENDBRANCH  33  34
ENDBRANCH  32  33
ENDBRANCH  31  32
ENDBRANCH   1  31
TORSDOF 20
