REMARK SMILES Cc1cc(Br)cc2c1O[C@H](C(F)(F)F)C(C(=O)OCCOCCOCCOC(=O)c1ccc(-c3c4nc(c(-c5c(F)cccc5F)c5ccc([nH]5)c(-c5c(F)cccc5F)c5nc(c(-c6c(F)cccc6F)c6ccc3[nH]6)C=C5)C=C4)cc1)=C2
REMARK SMILES IDX 23 1 22 2 21 3 20 4 19 5 18 6 16 7 17 8 15 9 1 10 2 11 3 12
REMARK SMILES IDX 8 13 4 14 7 15 9 16 5 17 6 18 84 19 10 20 11 21 12 22 13 23
REMARK SMILES IDX 14 24 24 25 25 26 26 27 27 28 28 29 29 30 30 31 31 32 83 33
REMARK SMILES IDX 32 34 82 35 33 36 34 37 35 38 76 39 36 40 81 41 75 42 77 43
REMARK SMILES IDX 37 44 80 45 74 46 73 47 38 49 64 50 47 51 63 52 48 53 51 54
REMARK SMILES IDX 62 55 78 56 49 57 50 58 61 60 79 61 52 62 39 63 40 64 45 65
REMARK SMILES IDX 41 66 42 67 44 68 46 69 43 70 65 71 66 72 71 73 67 74 68 75
REMARK SMILES IDX 70 76 72 77 69 78 53 79 54 80 59 81 55 82 56 83 58 84 60 85
REMARK SMILES IDX 57 86
REMARK H PARENT 77 48 51 59
REMARK Flexibility Score: inf
ROOT
ATOM      1  C   UNL     1       0.136  -2.353   6.823  1.00  0.00     0.188 C 
ENDROOT
BRANCH   1   2
ATOM      2  C   UNL     1      -0.868  -1.617   7.734  1.00  0.00     0.188 C 
BRANCH   2   3
ATOM      3  O   UNL     1      -1.671  -2.344   8.638  1.00  0.00    -0.376 OA
BRANCH   3   4
ATOM      4  C   UNL     1      -2.589  -3.320   8.179  1.00  0.00     0.202 C 
BRANCH   4   5
ATOM      5  C   UNL     1      -3.311  -3.245   6.824  1.00  0.00     0.261 C 
BRANCH   5   6
ATOM      6  O   UNL     1      -2.552  -2.720   5.729  1.00  0.00    -0.460 OA
BRANCH   6   7
ATOM      7  C   UNL     1      -2.969  -1.520   5.259  1.00  0.00     0.338 C 
ATOM      8  O   UNL     1      -3.923  -0.871   5.656  1.00  0.00    -0.246 OA
BRANCH   7   9
ATOM      9  C   UNL     1      -1.992  -1.006   4.278  1.00  0.00     0.087 C 
ATOM     10  C   UNL     1       0.942  -0.171   0.129  1.00  0.00     0.048 C 
ATOM     11  C   UNL     1       0.486   0.614   1.328  1.00  0.00    -0.007 A 
ATOM     12  C   UNL     1       0.813   1.979   1.395  1.00  0.00     0.023 A 
ATOM     13  C   UNL     1      -0.273   0.042   2.363  1.00  0.00     0.130 A 
ATOM     14  C   UNL     1       0.397   2.750   2.478  1.00  0.00     0.019 A 
ATOM     15  C   UNL     1      -0.721   0.834   3.427  1.00  0.00     0.019 A 
ATOM     16  O   UNL     1      -0.538  -1.296   2.274  1.00  0.00    -0.475 OA
ATOM     17  Br  UNL     1       0.839   4.587   2.547  1.00  0.00    -0.051 Br
ATOM     18  C   UNL     1      -0.365   2.185   3.496  1.00  0.00     0.027 A 
ATOM     19  C   UNL     1      -1.615   0.270   4.424  1.00  0.00     0.027 C 
ATOM     20  C   UNL     1      -1.478  -1.912   3.195  1.00  0.00     0.316 C 
BRANCH  20  21
ATOM     21  C   UNL     1      -2.612  -2.541   2.377  1.00  0.00     0.430 C 
ATOM     22  F   UNL     1      -2.129  -3.306   1.369  1.00  0.00    -0.167 F 
ATOM     23  F   UNL     1      -3.390  -3.348   3.138  1.00  0.00    -0.167 F 
ATOM     24  F   UNL     1      -3.418  -1.605   1.827  1.00  0.00    -0.167 F 
ENDBRANCH  20  21
ENDBRANCH   7   9
ENDBRANCH   6   7
ENDBRANCH   5   6
ENDBRANCH   4   5
ENDBRANCH   3   4
ENDBRANCH   2   3
ENDBRANCH   1   2
BRANCH   1  25
ATOM     25  O   UNL     1       0.160  -3.760   6.815  1.00  0.00    -0.376 OA
BRANCH  25  26
ATOM     26  C   UNL     1       0.639  -4.465   7.950  1.00  0.00     0.202 C 
BRANCH  26  27
ATOM     27  C   UNL     1       1.568  -3.880   9.034  1.00  0.00     0.261 C 
BRANCH  27  28
ATOM     28  O   UNL     1       1.507  -2.470   9.275  1.00  0.00    -0.460 OA
BRANCH  28  29
ATOM     29  C   UNL     1       2.594  -1.758   8.874  1.00  0.00     0.338 C 
ATOM     30  O   UNL     1       3.598  -2.179   8.337  1.00  0.00    -0.246 OA
BRANCH  29  31
ATOM     31  C   UNL     1       2.288  -0.319   9.007  1.00  0.00     0.060 A 
ATOM     32  C   UNL     1       2.118   0.444   7.842  1.00  0.00     0.016 A 
ATOM     33  C   UNL     1       2.179   0.273  10.265  1.00  0.00     0.016 A 
ATOM     34  C   UNL     1       1.831   1.805   7.934  1.00  0.00     0.010 A 
ATOM     35  C   UNL     1       1.926   1.646  10.354  1.00  0.00     0.010 A 
ATOM     36  C   UNL     1       1.770   2.421   9.190  1.00  0.00    -0.014 A 
BRANCH  36  37
ATOM     37  C   UNL     1       1.738   3.901   9.276  1.00  0.00     0.031 A 
ATOM     38  C   UNL     1       3.038   4.634   9.449  1.00  0.00     0.074 A 
ATOM     39  C   UNL     1       0.586   4.587   9.165  1.00  0.00     0.049 A 
ATOM     40  N   UNL     1       3.259   5.917   9.570  1.00  0.00    -0.248 NA
ATOM     41  C   UNL     1       4.255   3.806   9.489  1.00  0.00     0.031 C 
ATOM     42  C   UNL     1      -0.732   3.998   8.943  1.00  0.00     0.029 A 
ATOM     43  N   UNL     1       0.347   5.938   9.225  1.00  0.00    -0.354 N 
ATOM     44  C   UNL     1       4.636   6.051   9.692  1.00  0.00     0.074 A 
ATOM     45  C   UNL     1       5.197   4.718   9.673  1.00  0.00     0.031 C 
ATOM     46  C   UNL     1      -1.645   4.984   8.888  1.00  0.00     0.029 A 
ATOM     47  C   UNL     1      -0.980   6.270   9.103  1.00  0.00     0.049 A 
ATOM     48  H   UNL     1       1.060   6.606   9.345  1.00  0.00     0.167 HD
ATOM     49  C   UNL     1       5.369   7.184   9.794  1.00  0.00     0.037 A 
ATOM     50  C   UNL     1      -1.587   7.472   9.173  1.00  0.00     0.037 A 
ATOM     51  C   UNL     1       4.811   8.509   9.821  1.00  0.00     0.049 A 
ATOM     52  C   UNL     1      -0.759   8.712   9.396  1.00  0.00     0.074 A 
ATOM     53  C   UNL     1       5.475   9.718   9.920  1.00  0.00     0.029 A 
ATOM     54  N   UNL     1       3.457   8.799   9.757  1.00  0.00    -0.354 N 
ATOM     55  N   UNL     1       0.544   8.832   9.491  1.00  0.00    -0.248 NA
ATOM     56  C   UNL     1      -1.485   9.986   9.525  1.00  0.00     0.031 C 
ATOM     57  C   UNL     1       4.521  10.737   9.975  1.00  0.00     0.029 A 
ATOM     58  C   UNL     1       3.264  10.167   9.848  1.00  0.00     0.049 A 
ATOM     59  H   UNL     1       2.739   8.131   9.662  1.00  0.00     0.167 HD
ATOM     60  C   UNL     1       0.793  10.189   9.663  1.00  0.00     0.074 A 
ATOM     61  C   UNL     1      -0.491  10.856   9.645  1.00  0.00     0.031 C 
ATOM     62  C   UNL     1       1.981  10.823   9.822  1.00  0.00     0.037 A 
BRANCH  49  63
ATOM     63  C   UNL     1       6.858   7.041   9.896  1.00  0.00     0.057 A 
ATOM     64  C   UNL     1       7.637   6.644   8.802  1.00  0.00     0.134 A 
ATOM     65  C   UNL     1       7.528   7.361  11.084  1.00  0.00     0.134 A 
ATOM     66  F   UNL     1       7.055   6.308   7.640  1.00  0.00    -0.206 F 
ATOM     67  C   UNL     1       9.027   6.558   8.888  1.00  0.00     0.040 A 
ATOM     68  C   UNL     1       8.919   7.306  11.175  1.00  0.00     0.040 A 
ATOM     69  F   UNL     1       6.842   7.751  12.169  1.00  0.00    -0.206 F 
ATOM     70  C   UNL     1       9.672   6.901  10.075  1.00  0.00     0.006 A 
ENDBRANCH  49  63
BRANCH  50  71
ATOM     71  C   UNL     1      -3.064   7.567   9.029  1.00  0.00     0.057 A 
ATOM     72  C   UNL     1      -3.643   8.188   7.916  1.00  0.00     0.134 A 
ATOM     73  C   UNL     1      -3.930   7.049   9.999  1.00  0.00     0.134 A 
ATOM     74  F   UNL     1      -2.867   8.729   6.966  1.00  0.00    -0.206 F 
ATOM     75  C   UNL     1      -5.028   8.297   7.776  1.00  0.00     0.040 A 
ATOM     76  C   UNL     1      -5.317   7.127   9.860  1.00  0.00     0.040 A 
ATOM     77  F   UNL     1      -3.441   6.447  11.093  1.00  0.00    -0.206 F 
ATOM     78  C   UNL     1      -5.870   7.757   8.747  1.00  0.00     0.006 A 
ENDBRANCH  50  71
BRANCH  62  79
ATOM     79  C   UNL     1       1.968  12.318   9.975  1.00  0.00     0.057 A 
ATOM     80  C   UNL     1       1.518  12.935  11.148  1.00  0.00     0.134 A 
ATOM     81  C   UNL     1       2.505  13.144   8.977  1.00  0.00     0.134 A 
ATOM     82  F   UNL     1       0.986  12.204  12.140  1.00  0.00    -0.206 F 
ATOM     83  C   UNL     1       1.593  14.319  11.320  1.00  0.00     0.040 A 
ATOM     84  C   UNL     1       2.613  14.524   9.149  1.00  0.00     0.040 A 
ATOM     85  F   UNL     1       2.968  12.617   7.833  1.00  0.00    -0.206 F 
ATOM     86  C   UNL     1       2.154  15.116  10.324  1.00  0.00     0.006 A 
ENDBRANCH  62  79
ENDBRANCH  36  37
ENDBRANCH  29  31
ENDBRANCH  28  29
ENDBRANCH  27  28
ENDBRANCH  26  27
ENDBRANCH  25  26
ENDBRANCH   1  25
TORSDOF 18
