REMARK SMILES C[C@@H](CCC(=O)OCCOCCOCCOC(=O)c1ccc(-c2c3nc(c(-c4c(F)cccc4F)c4ccc([nH]4)c(-c4c(F)cccc4F)c4nc(c(-c5c(F)cccc5F)c5ccc2[nH]5)C=C4)C=C3)cc1)NC(=O)Nc1ccc(Cl)c(Br)c1
REMARK SMILES IDX 11 1 10 2 9 3 8 4 7 5 5 6 6 7 4 8 3 9 2 10 1 11 73 12 74 13
REMARK SMILES IDX 75 15 76 16 77 18 78 19 84 20 79 21 82 22 80 23 83 24 81 25
REMARK SMILES IDX 12 26 13 27 14 28 15 29 16 30 17 31 18 32 19 33 20 34 72 35
REMARK SMILES IDX 21 36 71 37 22 38 23 39 24 40 65 41 25 42 70 43 64 44 66 45
REMARK SMILES IDX 26 46 69 47 63 48 62 49 27 51 53 52 36 53 52 54 37 55 40 56
REMARK SMILES IDX 51 57 67 58 38 59 39 60 50 62 68 63 41 64 28 65 29 66 34 67
REMARK SMILES IDX 30 68 31 69 33 70 35 71 32 72 54 73 55 74 60 75 56 76 57 77
REMARK SMILES IDX 59 78 61 79 58 80 42 81 43 82 48 83 44 84 45 85 47 86 49 87
REMARK SMILES IDX 46 88
REMARK H PARENT 73 14 76 17 66 50 40 61
REMARK Flexibility Score: inf
ROOT
ATOM      1  C   UNL     1      -2.450   2.794   2.870  1.00  0.00     0.188 C 
ENDROOT
BRANCH   1   2
ATOM      2  O   UNL     1      -3.702   2.768   2.201  1.00  0.00    -0.376 OA
BRANCH   2   3
ATOM      3  C   UNL     1      -3.802   1.827   1.127  1.00  0.00     0.202 C 
BRANCH   3   4
ATOM      4  C   UNL     1      -3.022   2.237  -0.130  1.00  0.00     0.261 C 
BRANCH   4   5
ATOM      5  O   UNL     1      -1.616   1.936   0.030  1.00  0.00    -0.463 OA
BRANCH   5   6
ATOM      6  C   UNL     1      -0.745   2.973  -0.008  1.00  0.00     0.305 C 
ATOM      7  O   UNL     1      -1.037   4.118  -0.332  1.00  0.00    -0.252 OA
BRANCH   6   8
ATOM      8  C   UNL     1       0.661   2.597   0.425  1.00  0.00     0.125 C 
BRANCH   8   9
ATOM      9  C   UNL     1       0.897   1.322   1.246  1.00  0.00     0.036 C 
BRANCH   9  10
ATOM     10  C   UNL     1       0.629  -0.040   0.576  1.00  0.00     0.081 C 
ATOM     11  C   UNL     1       0.927  -0.063  -0.920  1.00  0.00     0.031 C 
BRANCH  10  12
ATOM     12  N   UNL     1      -0.741  -0.470   0.849  1.00  0.00    -0.335 N 
ATOM     13  C   UNL     1      -1.325  -1.562   1.374  1.00  0.00     0.319 C 
ATOM     14  H   UNL     1      -1.402   0.210   0.582  1.00  0.00     0.165 HD
ATOM     15  O   UNL     1      -2.537  -1.711   1.184  1.00  0.00    -0.248 OA
ATOM     16  N   UNL     1      -0.644  -2.559   1.975  1.00  0.00    -0.308 N 
ATOM     17  H   UNL     1      -1.147  -3.402   2.046  1.00  0.00     0.171 HD
BRANCH  16  18
ATOM     18  C   UNL     1       0.640  -2.615   2.516  1.00  0.00     0.044 A 
ATOM     19  C   UNL     1       1.397  -3.751   2.232  1.00  0.00     0.028 A 
ATOM     20  C   UNL     1       1.189  -1.576   3.269  1.00  0.00     0.043 A 
ATOM     21  C   UNL     1       2.755  -3.772   2.545  1.00  0.00     0.024 A 
ATOM     22  C   UNL     1       2.550  -1.599   3.593  1.00  0.00     0.038 A 
ATOM     23  C   UNL     1       3.343  -2.683   3.196  1.00  0.00     0.055 A 
ATOM     24  Br  UNL     1       3.259  -0.089   4.502  1.00  0.00    -0.049 Br
ATOM     25  Cl  UNL     1       5.053  -2.731   3.433  1.00  0.00    -0.083 Cl
ENDBRANCH  16  18
ENDBRANCH  10  12
ENDBRANCH   9  10
ENDBRANCH   8   9
ENDBRANCH   6   8
ENDBRANCH   5   6
ENDBRANCH   4   5
ENDBRANCH   3   4
ENDBRANCH   2   3
ENDBRANCH   1   2
BRANCH   1  26
ATOM     26  C   UNL     1      -2.287   1.761   3.969  1.00  0.00     0.188 C 
BRANCH  26  27
ATOM     27  O   UNL     1      -2.534   0.411   3.591  1.00  0.00    -0.376 OA
BRANCH  27  28
ATOM     28  C   UNL     1      -3.741  -0.120   4.151  1.00  0.00     0.202 C 
BRANCH  28  29
ATOM     29  C   UNL     1      -3.569  -0.649   5.586  1.00  0.00     0.261 C 
BRANCH  29  30
ATOM     30  O   UNL     1      -3.098   0.382   6.474  1.00  0.00    -0.460 OA
BRANCH  30  31
ATOM     31  C   UNL     1      -1.751   0.405   6.657  1.00  0.00     0.338 C 
ATOM     32  O   UNL     1      -0.957  -0.464   6.358  1.00  0.00    -0.246 OA
BRANCH  31  33
ATOM     33  C   UNL     1      -1.331   1.765   7.094  1.00  0.00     0.060 A 
ATOM     34  C   UNL     1      -0.068   2.213   6.674  1.00  0.00     0.016 A 
ATOM     35  C   UNL     1      -2.148   2.603   7.858  1.00  0.00     0.016 A 
ATOM     36  C   UNL     1       0.416   3.452   7.088  1.00  0.00     0.010 A 
ATOM     37  C   UNL     1      -1.661   3.845   8.282  1.00  0.00     0.010 A 
ATOM     38  C   UNL     1      -0.350   4.239   7.953  1.00  0.00    -0.014 A 
BRANCH  38  39
ATOM     39  C   UNL     1       0.334   5.282   8.756  1.00  0.00     0.031 A 
ATOM     40  C   UNL     1       0.775   4.904  10.147  1.00  0.00     0.074 A 
ATOM     41  C   UNL     1       0.619   6.499   8.261  1.00  0.00     0.049 A 
ATOM     42  N   UNL     1       1.395   5.617  11.052  1.00  0.00    -0.248 NA
ATOM     43  C   UNL     1       0.468   3.529  10.577  1.00  0.00     0.031 C 
ATOM     44  C   UNL     1       0.291   6.969   6.917  1.00  0.00     0.029 A 
ATOM     45  N   UNL     1       1.261   7.563   8.845  1.00  0.00    -0.354 N 
ATOM     46  C   UNL     1       1.534   4.783  12.155  1.00  0.00     0.074 A 
ATOM     47  C   UNL     1       0.901   3.528  11.826  1.00  0.00     0.031 C 
ATOM     48  C   UNL     1       0.734   8.232   6.779  1.00  0.00     0.029 A 
ATOM     49  C   UNL     1       1.353   8.665   8.031  1.00  0.00     0.049 A 
ATOM     50  H   UNL     1       1.620   7.537   9.761  1.00  0.00     0.167 HD
ATOM     51  C   UNL     1       2.148   5.032  13.335  1.00  0.00     0.037 A 
ATOM     52  C   UNL     1       1.873   9.883   8.280  1.00  0.00     0.037 A 
ATOM     53  C   UNL     1       2.788   6.278  13.658  1.00  0.00     0.049 A 
ATOM     54  C   UNL     1       2.500  10.158   9.625  1.00  0.00     0.074 A 
ATOM     55  C   UNL     1       3.454   6.629  14.818  1.00  0.00     0.029 A 
ATOM     56  N   UNL     1       2.833   7.380  12.818  1.00  0.00    -0.354 N 
ATOM     57  N   UNL     1       2.650   9.357  10.652  1.00  0.00    -0.248 NA
ATOM     58  C   UNL     1       3.042  11.508   9.837  1.00  0.00     0.031 C 
ATOM     59  C   UNL     1       3.853   7.965  14.701  1.00  0.00     0.029 A 
ATOM     60  C   UNL     1       3.497   8.421  13.442  1.00  0.00     0.049 A 
ATOM     61  H   UNL     1       2.450   7.416  11.911  1.00  0.00     0.167 HD
ATOM     62  C   UNL     1       3.343  10.088  11.611  1.00  0.00     0.074 A 
ATOM     63  C   UNL     1       3.588  11.395  11.039  1.00  0.00     0.031 C 
ATOM     64  C   UNL     1       3.749   9.711  12.850  1.00  0.00     0.037 A 
BRANCH  51  65
ATOM     65  C   UNL     1       2.120   3.944  14.370  1.00  0.00     0.057 A 
ATOM     66  C   UNL     1       2.837   2.749  14.218  1.00  0.00     0.134 A 
ATOM     67  C   UNL     1       1.365   4.098  15.539  1.00  0.00     0.134 A 
ATOM     68  F   UNL     1       3.562   2.526  13.112  1.00  0.00    -0.206 F 
ATOM     69  C   UNL     1       2.779   1.736  15.178  1.00  0.00     0.040 A 
ATOM     70  C   UNL     1       1.326   3.107  16.520  1.00  0.00     0.040 A 
ATOM     71  F   UNL     1       0.654   5.217  15.749  1.00  0.00    -0.206 F 
ATOM     72  C   UNL     1       2.027   1.917  16.337  1.00  0.00     0.006 A 
ENDBRANCH  51  65
BRANCH  52  73
ATOM     73  C   UNL     1       1.839  10.941   7.237  1.00  0.00     0.057 A 
ATOM     74  C   UNL     1       3.016  11.412   6.641  1.00  0.00     0.134 A 
ATOM     75  C   UNL     1       0.636  11.534   6.837  1.00  0.00     0.134 A 
ATOM     76  F   UNL     1       4.204  10.903   6.999  1.00  0.00    -0.206 F 
ATOM     77  C   UNL     1       3.000  12.448   5.705  1.00  0.00     0.040 A 
ATOM     78  C   UNL     1       0.602  12.552   5.881  1.00  0.00     0.040 A 
ATOM     79  F   UNL     1      -0.527  11.132   7.370  1.00  0.00    -0.206 F 
ATOM     80  C   UNL     1       1.789  13.018   5.319  1.00  0.00     0.006 A 
ENDBRANCH  52  73
BRANCH  64  81
ATOM     81  C   UNL     1       4.561  10.697  13.642  1.00  0.00     0.057 A 
ATOM     82  C   UNL     1       4.012  11.872  14.168  1.00  0.00     0.134 A 
ATOM     83  C   UNL     1       5.915  10.444  13.905  1.00  0.00     0.134 A 
ATOM     84  F   UNL     1       2.724  12.179  13.949  1.00  0.00    -0.206 F 
ATOM     85  C   UNL     1       4.787  12.780  14.893  1.00  0.00     0.040 A 
ATOM     86  C   UNL     1       6.691  11.326  14.658  1.00  0.00     0.040 A 
ATOM     87  F   UNL     1       6.503   9.329  13.446  1.00  0.00    -0.206 F 
ATOM     88  C   UNL     1       6.130  12.504  15.144  1.00  0.00     0.006 A 
ENDBRANCH  64  81
ENDBRANCH  38  39
ENDBRANCH  31  33
ENDBRANCH  30  31
ENDBRANCH  29  30
ENDBRANCH  28  29
ENDBRANCH  27  28
ENDBRANCH  26  27
ENDBRANCH   1  26
TORSDOF 21
