REMARK SMILES CCC[N@@H+]1CC2(CC[NH+](c3nccnc3C)CC2)C[C@H]1C(=O)OCCOCCOCCOC(=O)c1ccc(-c2c3nc(c(-c4c(F)cccc4F)c4ccc([nH]4)c(-c4c(F)cccc4F)c4nc(c(-c5c(F)cccc5F)c5ccc2[nH]5)C=C4)C=C3)cc1
REMARK SMILES IDX 27 1 26 2 25 3 24 4 23 5 21 6 22 7 20 8 4 9 5 10 6 12 19 13
REMARK SMILES IDX 7 14 18 15 8 16 17 17 9 18 3 20 2 21 1 22 10 23 11 24 15 25
REMARK SMILES IDX 12 26 14 27 16 28 13 29 28 30 29 31 30 32 31 33 32 34 33 35
REMARK SMILES IDX 34 36 35 37 36 38 88 39 37 40 87 41 38 42 39 43 40 44 81 45
REMARK SMILES IDX 41 46 86 47 80 48 82 49 42 50 85 51 79 52 78 53 43 55 69 56
REMARK SMILES IDX 52 57 68 58 53 59 56 60 67 61 83 62 54 63 55 64 66 66 84 67
REMARK SMILES IDX 57 68 44 69 45 70 50 71 46 72 47 73 49 74 51 75 48 76 70 77
REMARK SMILES IDX 71 78 76 79 72 80 73 81 75 82 77 83 74 84 58 85 59 86 64 87
REMARK SMILES IDX 60 88 61 89 63 90 65 91 62 92
REMARK H PARENT 4 11 9 19 82 54 56 65
REMARK Flexibility Score: inf
ROOT
ATOM      1  C   UNL     1      -0.442  -6.317   1.836  1.00  0.00     0.188 C 
ENDROOT
BRANCH   1   2
ATOM      2  O   UNL     1      -0.520  -6.894   3.135  1.00  0.00    -0.376 OA
BRANCH   2   3
ATOM      3  C   UNL     1      -0.520  -6.054   4.280  1.00  0.00     0.202 C 
BRANCH   3   4
ATOM      4  C   UNL     1       0.597  -5.014   4.453  1.00  0.00     0.261 C 
BRANCH   4   5
ATOM      5  O   UNL     1       0.843  -4.168   3.314  1.00  0.00    -0.459 OA
BRANCH   5   6
ATOM      6  C   UNL     1       2.007  -4.378   2.648  1.00  0.00     0.365 C 
ATOM      7  O   UNL     1       2.848  -5.206   2.995  1.00  0.00    -0.245 OA
BRANCH   6   8
ATOM      8  C   UNL     1       2.272  -3.451   1.446  1.00  0.00     0.295 C 
ATOM      9  N   UNL     1       1.122  -2.712   0.829  1.00  0.00    -0.323 N 
ATOM     10  C   UNL     1       0.914  -1.550   1.690  1.00  0.00     0.270 C 
ATOM     11  H   UNL     1       0.264  -3.262   0.785  1.00  0.00     0.348 HD
ATOM     12  C   UNL     1       2.296  -1.153   2.238  1.00  0.00     0.036 C 
ATOM     13  C   UNL     1       3.207  -2.361   1.928  1.00  0.00     0.091 C 
ATOM     14  C   UNL     1       2.178  -0.904   3.765  1.00  0.00     0.075 C 
ATOM     15  C   UNL     1       2.901   0.067   1.505  1.00  0.00     0.075 C 
ATOM     16  C   UNL     1       1.615   0.481   4.105  1.00  0.00     0.269 C 
ATOM     17  C   UNL     1       2.227   1.378   1.880  1.00  0.00     0.269 C 
ATOM     18  N   UNL     1       2.318   1.476   3.320  1.00  0.00    -0.284 N 
ATOM     19  H   UNL     1       2.913   1.763   4.050  1.00  0.00     0.355 HD
BRANCH   9  20
ATOM     20  C   UNL     1       1.394  -2.394  -0.590  1.00  0.00     0.262 C 
BRANCH  20  21
ATOM     21  C   UNL     1       0.375  -1.514  -1.350  1.00  0.00     0.058 C 
ATOM     22  C   UNL     1       0.665  -0.015  -1.351  1.00  0.00     0.010 C 
ENDBRANCH  20  21
ENDBRANCH   9  20
BRANCH  18  23
ATOM     23  C   UNL     1       2.893   2.605   3.843  1.00  0.00     0.247 A 
ATOM     24  N   UNL     1       2.469   3.788   3.336  1.00  0.00    -0.202 NA
ATOM     25  C   UNL     1       3.964   2.578   4.759  1.00  0.00     0.119 A 
ATOM     26  C   UNL     1       3.094   4.903   3.767  1.00  0.00     0.137 A 
ATOM     27  N   UNL     1       4.577   3.712   5.205  1.00  0.00    -0.252 NA
ATOM     28  C   UNL     1       4.576   1.300   5.248  1.00  0.00     0.075 C 
ATOM     29  C   UNL     1       4.123   4.867   4.683  1.00  0.00     0.132 A 
ENDBRANCH  18  23
ENDBRANCH   6   8
ENDBRANCH   5   6
ENDBRANCH   4   5
ENDBRANCH   3   4
ENDBRANCH   2   3
ENDBRANCH   1   2
BRANCH   1  30
ATOM     30  C   UNL     1      -1.214  -5.021   1.518  1.00  0.00     0.188 C 
BRANCH  30  31
ATOM     31  O   UNL     1      -2.053  -4.563   2.545  1.00  0.00    -0.376 OA
BRANCH  31  32
ATOM     32  C   UNL     1      -3.438  -4.818   2.478  1.00  0.00     0.202 C 
BRANCH  32  33
ATOM     33  C   UNL     1      -4.061  -6.024   1.746  1.00  0.00     0.261 C 
BRANCH  33  34
ATOM     34  O   UNL     1      -3.248  -6.766   0.827  1.00  0.00    -0.460 OA
BRANCH  34  35
ATOM     35  C   UNL     1      -3.306  -6.420  -0.483  1.00  0.00     0.338 C 
ATOM     36  O   UNL     1      -3.966  -5.523  -0.981  1.00  0.00    -0.246 OA
BRANCH  35  37
ATOM     37  C   UNL     1      -2.271  -7.194  -1.206  1.00  0.00     0.060 A 
ATOM     38  C   UNL     1      -1.146  -6.534  -1.722  1.00  0.00     0.016 A 
ATOM     39  C   UNL     1      -2.398  -8.577  -1.344  1.00  0.00     0.016 A 
ATOM     40  C   UNL     1      -0.139  -7.259  -2.369  1.00  0.00     0.010 A 
ATOM     41  C   UNL     1      -1.404  -9.295  -2.016  1.00  0.00     0.010 A 
ATOM     42  C   UNL     1      -0.273  -8.642  -2.540  1.00  0.00    -0.014 A 
BRANCH  42  43
ATOM     43  C   UNL     1       0.696  -9.414  -3.360  1.00  0.00     0.031 A 
ATOM     44  C   UNL     1       0.336  -9.756  -4.779  1.00  0.00     0.074 A 
ATOM     45  C   UNL     1       1.857  -9.852  -2.841  1.00  0.00     0.049 A 
ATOM     46  N   UNL     1       0.944 -10.547  -5.625  1.00  0.00    -0.248 NA
ATOM     47  C   UNL     1      -0.880  -9.121  -5.311  1.00  0.00     0.031 C 
ATOM     48  C   UNL     1       2.350  -9.556  -1.498  1.00  0.00     0.029 A 
ATOM     49  N   UNL     1       2.821 -10.670  -3.382  1.00  0.00    -0.354 N 
ATOM     50  C   UNL     1       0.179 -10.519  -6.784  1.00  0.00     0.074 A 
ATOM     51  C   UNL     1      -0.947  -9.647  -6.526  1.00  0.00     0.031 C 
ATOM     52  C   UNL     1       3.511 -10.207  -1.308  1.00  0.00     0.029 A 
ATOM     53  C   UNL     1       3.819 -11.001  -2.497  1.00  0.00     0.049 A 
ATOM     54  H   UNL     1       2.799 -10.988  -4.313  1.00  0.00     0.167 HD
ATOM     55  C   UNL     1       0.396 -11.161  -7.956  1.00  0.00     0.037 A 
ATOM     56  C   UNL     1       4.838 -11.876  -2.616  1.00  0.00     0.037 A 
ATOM     57  C   UNL     1       1.511 -12.037  -8.209  1.00  0.00     0.049 A 
ATOM     58  C   UNL     1       5.000 -12.660  -3.895  1.00  0.00     0.074 A 
ATOM     59  C   UNL     1       1.829 -12.711  -9.374  1.00  0.00     0.029 A 
ATOM     60  N   UNL     1       2.481 -12.371  -7.276  1.00  0.00    -0.354 N 
ATOM     61  N   UNL     1       4.292 -12.606  -4.997  1.00  0.00    -0.248 NA
ATOM     62  C   UNL     1       6.101 -13.635  -3.942  1.00  0.00     0.031 C 
ATOM     63  C   UNL     1       2.955 -13.503  -9.129  1.00  0.00     0.029 A 
ATOM     64  C   UNL     1       3.375 -13.275  -7.828  1.00  0.00     0.049 A 
ATOM     65  H   UNL     1       2.528 -12.019  -6.358  1.00  0.00     0.167 HD
ATOM     66  C   UNL     1       4.872 -13.519  -5.871  1.00  0.00     0.074 A 
ATOM     67  C   UNL     1       6.003 -14.099  -5.180  1.00  0.00     0.031 C 
ATOM     68  C   UNL     1       4.499 -13.848  -7.132  1.00  0.00     0.037 A 
BRANCH  55  69
ATOM     69  C   UNL     1      -0.615 -10.969  -9.049  1.00  0.00     0.057 A 
ATOM     70  C   UNL     1      -0.740  -9.757  -9.740  1.00  0.00     0.134 A 
ATOM     71  C   UNL     1      -1.447 -12.026  -9.442  1.00  0.00     0.134 A 
ATOM     72  F   UNL     1       0.018  -8.702  -9.405  1.00  0.00    -0.206 F 
ATOM     73  C   UNL     1      -1.672  -9.596 -10.767  1.00  0.00     0.040 A 
ATOM     74  C   UNL     1      -2.362 -11.886 -10.486  1.00  0.00     0.040 A 
ATOM     75  F   UNL     1      -1.375 -13.216  -8.826  1.00  0.00    -0.206 F 
ATOM     76  C   UNL     1      -2.480 -10.666 -11.148  1.00  0.00     0.006 A 
ENDBRANCH  55  69
BRANCH  56  77
ATOM     77  C   UNL     1       5.771 -12.098  -1.480  1.00  0.00     0.057 A 
ATOM     78  C   UNL     1       7.117 -11.725  -1.565  1.00  0.00     0.134 A 
ATOM     79  C   UNL     1       5.349 -12.722  -0.299  1.00  0.00     0.134 A 
ATOM     80  F   UNL     1       7.590 -11.153  -2.682  1.00  0.00    -0.206 F 
ATOM     81  C   UNL     1       8.014 -11.978  -0.525  1.00  0.00     0.040 A 
ATOM     82  C   UNL     1       6.228 -12.954   0.760  1.00  0.00     0.040 A 
ATOM     83  F   UNL     1       4.074 -13.112  -0.156  1.00  0.00    -0.206 F 
ATOM     84  C   UNL     1       7.567 -12.589   0.645  1.00  0.00     0.006 A 
ENDBRANCH  56  77
BRANCH  68  85
ATOM     85  C   UNL     1       5.331 -14.865  -7.861  1.00  0.00     0.057 A 
ATOM     86  C   UNL     1       5.308 -16.223  -7.518  1.00  0.00     0.134 A 
ATOM     87  C   UNL     1       6.124 -14.491  -8.955  1.00  0.00     0.134 A 
ATOM     88  F   UNL     1       4.580 -16.648  -6.473  1.00  0.00    -0.206 F 
ATOM     89  C   UNL     1       6.056 -17.168  -8.223  1.00  0.00     0.040 A 
ATOM     90  C   UNL     1       6.853 -15.431  -9.685  1.00  0.00     0.040 A 
ATOM     91  F   UNL     1       6.185 -13.209  -9.345  1.00  0.00    -0.206 F 
ATOM     92  C   UNL     1       6.825 -16.774  -9.316  1.00  0.00     0.006 A 
ENDBRANCH  68  85
ENDBRANCH  42  43
ENDBRANCH  35  37
ENDBRANCH  34  35
ENDBRANCH  33  34
ENDBRANCH  32  33
ENDBRANCH  31  32
ENDBRANCH  30  31
ENDBRANCH   1  30
TORSDOF 20
