REMARK SMILES CCn1ncc(CNc2ccccc2C(=O)OCCOCCOCCOC(=O)c2ccc(-c3c4nc(c(-c5c(F)cccc5F)c5ccc([nH]5)c(-c5c(F)cccc5F)c5nc(c(-c6c(F)cccc6F)c6ccc3[nH]6)C=C5)C=C4)cc2)c1C
REMARK SMILES IDX 21 1 20 2 19 3 18 4 17 5 15 6 16 7 14 8 9 9 10 10 11 11
REMARK SMILES IDX 13 12 12 13 8 14 7 16 6 17 3 18 4 19 83 20 5 21 84 22 2 23
REMARK SMILES IDX 1 24 22 25 23 26 24 27 25 28 26 29 27 30 28 31 29 32 30 33
REMARK SMILES IDX 82 34 31 35 81 36 32 37 33 38 34 39 75 40 35 41 80 42 74 43
REMARK SMILES IDX 76 44 36 45 79 46 73 47 72 48 37 50 63 51 46 52 62 53 47 54
REMARK SMILES IDX 50 55 61 56 77 57 48 58 49 59 60 61 78 62 51 63 38 64 39 65
REMARK SMILES IDX 44 66 40 67 41 68 43 69 45 70 42 71 64 72 65 73 70 74 66 75
REMARK SMILES IDX 67 76 69 77 71 78 68 79 52 80 53 81 58 82 54 83 55 84 57 85
REMARK SMILES IDX 59 86 56 87
REMARK H PARENT 8 15 76 49 50 60
REMARK Flexibility Score: inf
ROOT
ATOM      1  C   UNL     1      -0.591  -9.772  -1.694  1.00  0.00     0.188 C 
ENDROOT
BRANCH   1   2
ATOM      2  O   UNL     1      -0.155 -10.048  -3.017  1.00  0.00    -0.376 OA
BRANCH   2   3
ATOM      3  C   UNL     1       0.161  -8.949  -3.871  1.00  0.00     0.202 C 
BRANCH   3   4
ATOM      4  C   UNL     1      -0.686  -7.669  -3.818  1.00  0.00     0.261 C 
BRANCH   4   5
ATOM      5  O   UNL     1      -0.769  -7.149  -2.485  1.00  0.00    -0.460 OA
BRANCH   5   6
ATOM      6  C   UNL     1      -1.898  -6.482  -2.157  1.00  0.00     0.340 C 
ATOM      7  O   UNL     1      -2.805  -6.190  -2.920  1.00  0.00    -0.246 OA
BRANCH   6   8
ATOM      8  C   UNL     1      -1.989  -6.339  -0.682  1.00  0.00     0.083 A 
ATOM      9  C   UNL     1      -0.997  -5.816   0.173  1.00  0.00     0.049 A 
ATOM     10  C   UNL     1      -1.297  -5.821   1.557  1.00  0.00     0.026 A 
ATOM     11  C   UNL     1      -2.491  -6.331   2.076  1.00  0.00     0.002 A 
ATOM     12  C   UNL     1      -3.193  -6.858  -0.151  1.00  0.00     0.018 A 
ATOM     13  C   UNL     1      -3.441  -6.859   1.219  1.00  0.00     0.001 A 
BRANCH   9  14
ATOM     14  N   UNL     1       0.219  -5.254  -0.156  1.00  0.00    -0.380 N 
ATOM     15  H   UNL     1       0.814  -5.072   0.607  1.00  0.00     0.160 HD
BRANCH  14  16
ATOM     16  C   UNL     1       0.758  -4.889  -1.453  1.00  0.00     0.152 C 
BRANCH  16  17
ATOM     17  C   UNL     1       1.143  -3.456  -1.569  1.00  0.00     0.012 A 
ATOM     18  N   UNL     1       1.137  -1.262  -1.564  1.00  0.00    -0.270 N 
ATOM     19  N   UNL     1       2.345  -1.587  -2.069  1.00  0.00    -0.181 NA
ATOM     20  C   UNL     1       0.368  -2.352  -1.250  1.00  0.00     0.040 A 
ATOM     21  C   UNL     1       2.343  -2.919  -2.072  1.00  0.00     0.141 A 
ATOM     22  C   UNL     1      -1.002  -2.301  -0.674  1.00  0.00     0.067 C 
BRANCH  18  23
ATOM     23  C   UNL     1       0.810   0.138  -1.378  1.00  0.00     0.141 C 
ATOM     24  C   UNL     1       1.124   0.597   0.033  1.00  0.00     0.029 C 
ENDBRANCH  18  23
ENDBRANCH  16  17
ENDBRANCH  14  16
ENDBRANCH   9  14
ENDBRANCH   6   8
ENDBRANCH   5   6
ENDBRANCH   4   5
ENDBRANCH   3   4
ENDBRANCH   2   3
ENDBRANCH   1   2
BRANCH   1  25
ATOM     25  C   UNL     1       0.370  -9.100  -0.683  1.00  0.00     0.188 C 
BRANCH  25  26
ATOM     26  O   UNL     1       1.386  -8.240  -1.153  1.00  0.00    -0.376 OA
BRANCH  26  27
ATOM     27  C   UNL     1       2.670  -8.672  -1.566  1.00  0.00     0.202 C 
BRANCH  27  28
ATOM     28  C   UNL     1       3.221 -10.092  -1.460  1.00  0.00     0.261 C 
BRANCH  28  29
ATOM     29  O   UNL     1       2.253 -11.119  -1.421  1.00  0.00    -0.460 OA
BRANCH  29  30
ATOM     30  C   UNL     1       2.053 -11.616  -0.181  1.00  0.00     0.338 C 
ATOM     31  O   UNL     1       2.532 -11.211   0.863  1.00  0.00    -0.246 OA
BRANCH  30  32
ATOM     32  C   UNL     1       1.141 -12.761  -0.260  1.00  0.00     0.060 A 
ATOM     33  C   UNL     1       0.651 -13.249   0.954  1.00  0.00     0.016 A 
ATOM     34  C   UNL     1       0.987 -13.461  -1.463  1.00  0.00     0.016 A 
ATOM     35  C   UNL     1       0.225 -14.555   1.006  1.00  0.00     0.010 A 
ATOM     36  C   UNL     1       0.565 -14.770  -1.410  1.00  0.00     0.010 A 
ATOM     37  C   UNL     1       0.301 -15.324  -0.158  1.00  0.00    -0.014 A 
BRANCH  37  38
ATOM     38  C   UNL     1       0.280 -16.761   0.013  1.00  0.00     0.031 A 
ATOM     39  C   UNL     1      -1.040 -17.393   0.187  1.00  0.00     0.074 A 
ATOM     40  C   UNL     1       1.421 -17.472  -0.060  1.00  0.00     0.049 A 
ATOM     41  N   UNL     1      -1.447 -18.125   1.171  1.00  0.00    -0.248 NA
ATOM     42  C   UNL     1      -2.049 -17.141  -0.850  1.00  0.00     0.031 C 
ATOM     43  C   UNL     1       2.740 -17.020  -0.514  1.00  0.00     0.029 A 
ATOM     44  N   UNL     1       1.602 -18.802   0.151  1.00  0.00    -0.354 N 
ATOM     45  C   UNL     1      -2.709 -18.572   0.804  1.00  0.00     0.074 A 
ATOM     46  C   UNL     1      -3.075 -17.856  -0.394  1.00  0.00     0.031 C 
ATOM     47  C   UNL     1       3.512 -18.100  -0.760  1.00  0.00     0.029 A 
ATOM     48  C   UNL     1       2.782 -19.297  -0.376  1.00  0.00     0.049 A 
ATOM     49  H   UNL     1       0.952 -19.363   0.634  1.00  0.00     0.167 HD
ATOM     50  C   UNL     1      -3.295 -19.648   1.390  1.00  0.00     0.037 A 
ATOM     51  C   UNL     1       3.083 -20.602  -0.572  1.00  0.00     0.037 A 
ATOM     52  C   UNL     1      -2.732 -19.958   2.673  1.00  0.00     0.049 A 
ATOM     53  C   UNL     1       2.176 -21.413   0.281  1.00  0.00     0.074 A 
ATOM     54  C   UNL     1      -2.567 -19.250   3.849  1.00  0.00     0.029 A 
ATOM     55  N   UNL     1      -1.924 -21.062   2.798  1.00  0.00    -0.354 N 
ATOM     56  N   UNL     1       2.244 -21.479   1.581  1.00  0.00    -0.248 NA
ATOM     57  C   UNL     1       0.912 -21.848  -0.298  1.00  0.00     0.031 C 
ATOM     58  C   UNL     1      -1.322 -19.693   4.382  1.00  0.00     0.029 A 
ATOM     59  C   UNL     1      -0.820 -20.655   3.505  1.00  0.00     0.049 A 
ATOM     60  H   UNL     1      -2.102 -21.965   2.450  1.00  0.00     0.167 HD
ATOM     61  C   UNL     1       0.924 -21.565   2.003  1.00  0.00     0.074 A 
ATOM     62  C   UNL     1       0.162 -21.896   0.804  1.00  0.00     0.031 C 
ATOM     63  C   UNL     1       0.528 -21.088   3.220  1.00  0.00     0.037 A 
BRANCH  50  64
ATOM     64  C   UNL     1      -4.194 -20.579   0.636  1.00  0.00     0.057 A 
ATOM     65  C   UNL     1      -5.069 -21.432   1.320  1.00  0.00     0.134 A 
ATOM     66  C   UNL     1      -4.047 -20.831  -0.744  1.00  0.00     0.134 A 
ATOM     67  F   UNL     1      -5.241 -21.319   2.646  1.00  0.00    -0.206 F 
ATOM     68  C   UNL     1      -5.748 -22.471   0.674  1.00  0.00     0.040 A 
ATOM     69  C   UNL     1      -4.758 -21.829  -1.409  1.00  0.00     0.040 A 
ATOM     70  F   UNL     1      -3.142 -20.179  -1.489  1.00  0.00    -0.206 F 
ATOM     71  C   UNL     1      -5.599 -22.668  -0.695  1.00  0.00     0.006 A 
ENDBRANCH  50  64
BRANCH  51  72
ATOM     72  C   UNL     1       3.906 -21.188  -1.655  1.00  0.00     0.057 A 
ATOM     73  C   UNL     1       4.371 -22.506  -1.576  1.00  0.00     0.134 A 
ATOM     74  C   UNL     1       4.063 -20.554  -2.902  1.00  0.00     0.134 A 
ATOM     75  F   UNL     1       4.219 -23.216  -0.449  1.00  0.00    -0.206 F 
ATOM     76  C   UNL     1       4.954 -23.157  -2.671  1.00  0.00     0.040 A 
ATOM     77  C   UNL     1       4.660 -21.185  -3.997  1.00  0.00     0.040 A 
ATOM     78  F   UNL     1       3.568 -19.329  -3.132  1.00  0.00    -0.206 F 
ATOM     79  C   UNL     1       5.098 -22.497  -3.888  1.00  0.00     0.006 A 
ENDBRANCH  51  72
BRANCH  63  80
ATOM     80  C   UNL     1       1.588 -20.696   4.211  1.00  0.00     0.057 A 
ATOM     81  C   UNL     1       2.521 -19.673   3.984  1.00  0.00     0.134 A 
ATOM     82  C   UNL     1       1.563 -21.254   5.495  1.00  0.00     0.134 A 
ATOM     83  F   UNL     1       2.544 -19.000   2.826  1.00  0.00    -0.206 F 
ATOM     84  C   UNL     1       3.421 -19.262   4.972  1.00  0.00     0.040 A 
ATOM     85  C   UNL     1       2.434 -20.829   6.502  1.00  0.00     0.040 A 
ATOM     86  F   UNL     1       0.654 -22.192   5.809  1.00  0.00    -0.206 F 
ATOM     87  C   UNL     1       3.376 -19.837   6.238  1.00  0.00     0.006 A 
ENDBRANCH  63  80
ENDBRANCH  37  38
ENDBRANCH  30  32
ENDBRANCH  29  30
ENDBRANCH  28  29
ENDBRANCH  27  28
ENDBRANCH  26  27
ENDBRANCH  25  26
ENDBRANCH   1  25
TORSDOF 21
