REMARK SMILES O=C(Cc1c(C(=O)c2cc3c(cn2)CCCC3)[nH]c2cc(Cl)ccc12)OCCOCCOCCOC(=O)c1ccc(-c2c3nc(c(-c4c(F)cccc4F)c4ccc([nH]4)c(-c4c(F)cccc4F)c4nc(c(-c5c(F)cccc5F)c5ccc2[nH]5)C=C4)C=C3)cc1
REMARK SMILES IDX 30 1 29 2 28 3 27 4 26 5 2 6 1 7 3 8 4 9 5 10 25 11 18 12
REMARK SMILES IDX 19 13 24 14 20 16 23 17 21 18 22 19 6 20 7 21 8 22 9 23
REMARK SMILES IDX 13 24 10 25 12 26 11 27 17 28 14 29 16 30 15 31 31 32 32 33
REMARK SMILES IDX 33 34 34 35 35 36 36 37 37 38 38 39 39 40 91 41 40 42 90 43
REMARK SMILES IDX 41 44 42 45 43 46 84 47 44 48 89 49 83 50 85 51 45 52 88 53
REMARK SMILES IDX 82 54 81 55 46 57 72 58 55 59 71 60 56 61 59 62 70 63 86 64
REMARK SMILES IDX 57 65 58 66 69 68 87 69 60 70 47 71 48 72 53 73 49 74 50 75
REMARK SMILES IDX 52 76 54 77 51 78 73 79 74 80 79 81 75 82 76 83 78 84 80 85
REMARK SMILES IDX 77 86 61 87 62 88 67 89 63 90 64 91 66 92 68 93 65 94
REMARK H PARENT 18 15 85 56 59 67
REMARK Flexibility Score: inf
ROOT
ATOM      1  C   UNL     1       3.373  -1.143   2.105  1.00  0.00     0.188 C 
ENDROOT
BRANCH   1   2
ATOM      2  O   UNL     1       4.681  -0.658   1.864  1.00  0.00    -0.376 OA
BRANCH   2   3
ATOM      3  C   UNL     1       4.972  -0.327   0.520  1.00  0.00     0.202 C 
BRANCH   3   4
ATOM      4  C   UNL     1       4.220   0.900   0.034  1.00  0.00     0.261 C 
BRANCH   4   5
ATOM      5  O   UNL     1       2.776   0.794  -0.065  1.00  0.00    -0.463 OA
BRANCH   5   6
ATOM      6  C   UNL     1       1.925  -0.087  -0.618  1.00  0.00     0.310 C 
ATOM      7  O   UNL     1       0.731  -0.016  -0.304  1.00  0.00    -0.252 OA
BRANCH   6   8
ATOM      8  C   UNL     1       2.367  -1.258  -1.458  1.00  0.00     0.161 C 
BRANCH   8   9
ATOM      9  C   UNL     1       3.545  -1.147  -2.368  1.00  0.00     0.000 A 
ATOM     10  C   UNL     1       3.946  -0.040  -3.099  1.00  0.00     0.093 A 
ATOM     11  C   UNL     1       4.377  -2.243  -2.770  1.00  0.00     0.004 A 
ATOM     12  N   UNL     1       5.104  -0.387  -3.759  1.00  0.00    -0.351 N 
ATOM     13  C   UNL     1       5.303  -1.746  -3.684  1.00  0.00     0.048 A 
ATOM     14  C   UNL     1       4.386  -3.624  -2.480  1.00  0.00     0.012 A 
ATOM     15  H   UNL     1       5.702   0.245  -4.219  1.00  0.00     0.167 HD
ATOM     16  C   UNL     1       6.209  -2.571  -4.364  1.00  0.00     0.047 A 
ATOM     17  C   UNL     1       5.269  -4.468  -3.162  1.00  0.00     0.021 A 
ATOM     18  C   UNL     1       6.152  -3.944  -4.102  1.00  0.00     0.043 A 
ATOM     19  Cl  UNL     1       7.177  -5.012  -4.983  1.00  0.00    -0.084 Cl
BRANCH  10  20
ATOM     20  C   UNL     1       3.256   1.231  -3.204  1.00  0.00     0.227 C 
ATOM     21  O   UNL     1       2.062   1.373  -2.958  1.00  0.00    -0.285 OA
BRANCH  20  22
ATOM     22  C   UNL     1       3.976   2.382  -3.751  1.00  0.00     0.113 A 
ATOM     23  C   UNL     1       3.658   2.723  -5.049  1.00  0.00     0.036 A 
ATOM     24  N   UNL     1       4.902   3.000  -2.977  1.00  0.00    -0.252 NA
ATOM     25  C   UNL     1       4.320   3.800  -5.612  1.00  0.00    -0.041 A 
ATOM     26  C   UNL     1       5.485   4.085  -3.529  1.00  0.00     0.115 A 
ATOM     27  C   UNL     1       5.248   4.512  -4.836  1.00  0.00    -0.026 A 
ATOM     28  C   UNL     1       4.060   4.112  -7.057  1.00  0.00     0.036 C 
ATOM     29  C   UNL     1       5.915   5.750  -5.371  1.00  0.00     0.037 C 
ATOM     30  C   UNL     1       4.518   5.509  -7.447  1.00  0.00     0.005 C 
ATOM     31  C   UNL     1       5.915   5.787  -6.900  1.00  0.00     0.005 C 
ENDBRANCH  20  22
ENDBRANCH  10  20
ENDBRANCH   8   9
ENDBRANCH   6   8
ENDBRANCH   5   6
ENDBRANCH   4   5
ENDBRANCH   3   4
ENDBRANCH   2   3
ENDBRANCH   1   2
BRANCH   1  32
ATOM     32  C   UNL     1       2.436  -0.177   2.856  1.00  0.00     0.188 C 
BRANCH  32  33
ATOM     33  O   UNL     1       2.973   0.864   3.659  1.00  0.00    -0.376 OA
BRANCH  33  34
ATOM     34  C   UNL     1       4.196   0.666   4.348  1.00  0.00     0.202 C 
BRANCH  34  35
ATOM     35  C   UNL     1       4.237  -0.432   5.419  1.00  0.00     0.261 C 
BRANCH  35  36
ATOM     36  O   UNL     1       3.990  -1.762   4.923  1.00  0.00    -0.460 OA
BRANCH  36  37
ATOM     37  C   UNL     1       2.803  -2.329   5.276  1.00  0.00     0.338 C 
ATOM     38  O   UNL     1       1.961  -1.863   6.012  1.00  0.00    -0.246 OA
BRANCH  37  39
ATOM     39  C   UNL     1       2.576  -3.559   4.467  1.00  0.00     0.060 A 
ATOM     40  C   UNL     1       3.543  -4.560   4.358  1.00  0.00     0.016 A 
ATOM     41  C   UNL     1       1.357  -3.691   3.784  1.00  0.00     0.016 A 
ATOM     42  C   UNL     1       3.268  -5.714   3.609  1.00  0.00     0.010 A 
ATOM     43  C   UNL     1       1.092  -4.835   3.021  1.00  0.00     0.010 A 
ATOM     44  C   UNL     1       2.033  -5.872   2.953  1.00  0.00    -0.014 A 
BRANCH  44  45
ATOM     45  C   UNL     1       1.655  -7.189   2.369  1.00  0.00     0.031 A 
ATOM     46  C   UNL     1       1.724  -7.474   0.897  1.00  0.00     0.074 A 
ATOM     47  C   UNL     1       1.207  -8.144   3.208  1.00  0.00     0.049 A 
ATOM     48  N   UNL     1       1.488  -8.598   0.265  1.00  0.00    -0.248 NA
ATOM     49  C   UNL     1       2.100  -6.359   0.019  1.00  0.00     0.031 C 
ATOM     50  C   UNL     1       1.055  -7.984   4.655  1.00  0.00     0.029 A 
ATOM     51  N   UNL     1       0.794  -9.431   2.969  1.00  0.00    -0.354 N 
ATOM     52  C   UNL     1       1.710  -8.339  -1.081  1.00  0.00     0.074 A 
ATOM     53  C   UNL     1       2.058  -6.934  -1.178  1.00  0.00     0.031 C 
ATOM     54  C   UNL     1       0.593  -9.132   5.176  1.00  0.00     0.029 A 
ATOM     55  C   UNL     1       0.396 -10.099   4.101  1.00  0.00     0.049 A 
ATOM     56  H   UNL     1       0.785  -9.836   2.072  1.00  0.00     0.167 HD
ATOM     57  C   UNL     1       1.643  -9.195  -2.132  1.00  0.00     0.037 A 
ATOM     58  C   UNL     1      -0.079 -11.348   4.259  1.00  0.00     0.037 A 
ATOM     59  C   UNL     1       1.258 -10.584  -2.040  1.00  0.00     0.049 A 
ATOM     60  C   UNL     1      -0.205 -12.253   3.065  1.00  0.00     0.074 A 
ATOM     61  C   UNL     1       1.201 -11.533  -3.049  1.00  0.00     0.029 A 
ATOM     62  N   UNL     1       0.838 -11.219  -0.881  1.00  0.00    -0.354 N 
ATOM     63  N   UNL     1       0.115 -12.025   1.816  1.00  0.00    -0.248 NA
ATOM     64  C   UNL     1      -0.751 -13.596   3.309  1.00  0.00     0.031 C 
ATOM     65  C   UNL     1       0.697 -12.723  -2.513  1.00  0.00     0.029 A 
ATOM     66  C   UNL     1       0.492 -12.534  -1.157  1.00  0.00     0.049 A 
ATOM     67  H   UNL     1       0.791 -10.798   0.008  1.00  0.00     0.167 HD
ATOM     68  C   UNL     1      -0.151 -13.206   1.134  1.00  0.00     0.074 A 
ATOM     69  C   UNL     1      -0.650 -14.151   2.110  1.00  0.00     0.031 C 
ATOM     70  C   UNL     1       0.009 -13.480  -0.183  1.00  0.00     0.037 A 
BRANCH  57  71
ATOM     71  C   UNL     1       1.997  -8.662  -3.492  1.00  0.00     0.057 A 
ATOM     72  C   UNL     1       1.023  -8.530  -4.490  1.00  0.00     0.134 A 
ATOM     73  C   UNL     1       3.321  -8.364  -3.841  1.00  0.00     0.134 A 
ATOM     74  F   UNL     1      -0.263  -8.812  -4.229  1.00  0.00    -0.206 F 
ATOM     75  C   UNL     1       1.353  -8.131  -5.787  1.00  0.00     0.040 A 
ATOM     76  C   UNL     1       3.662  -7.943  -5.128  1.00  0.00     0.040 A 
ATOM     77  F   UNL     1       4.303  -8.461  -2.931  1.00  0.00    -0.206 F 
ATOM     78  C   UNL     1       2.676  -7.834  -6.108  1.00  0.00     0.006 A 
ENDBRANCH  57  71
BRANCH  58  79
ATOM     79  C   UNL     1      -0.464 -11.836   5.607  1.00  0.00     0.057 A 
ATOM     80  C   UNL     1      -1.595 -11.340   6.265  1.00  0.00     0.134 A 
ATOM     81  C   UNL     1       0.264 -12.847   6.245  1.00  0.00     0.134 A 
ATOM     82  F   UNL     1      -2.331 -10.367   5.707  1.00  0.00    -0.206 F 
ATOM     83  C   UNL     1      -1.993 -11.836   7.506  1.00  0.00     0.040 A 
ATOM     84  C   UNL     1      -0.139 -13.373   7.473  1.00  0.00     0.040 A 
ATOM     85  F   UNL     1       1.346 -13.375   5.655  1.00  0.00    -0.206 F 
ATOM     86  C   UNL     1      -1.271 -12.865   8.108  1.00  0.00     0.006 A 
ENDBRANCH  58  79
BRANCH  70  87
ATOM     87  C   UNL     1      -0.307 -14.877  -0.638  1.00  0.00     0.057 A 
ATOM     88  C   UNL     1       0.720 -15.746  -1.029  1.00  0.00     0.134 A 
ATOM     89  C   UNL     1      -1.621 -15.360  -0.704  1.00  0.00     0.134 A 
ATOM     90  F   UNL     1       2.000 -15.348  -0.995  1.00  0.00    -0.206 F 
ATOM     91  C   UNL     1       0.452 -17.043  -1.471  1.00  0.00     0.040 A 
ATOM     92  C   UNL     1      -1.899 -16.665  -1.118  1.00  0.00     0.040 A 
ATOM     93  F   UNL     1      -2.650 -14.586  -0.327  1.00  0.00    -0.206 F 
ATOM     94  C   UNL     1      -0.861 -17.508  -1.509  1.00  0.00     0.006 A 
ENDBRANCH  70  87
ENDBRANCH  44  45
ENDBRANCH  37  39
ENDBRANCH  36  37
ENDBRANCH  35  36
ENDBRANCH  34  35
ENDBRANCH  33  34
ENDBRANCH  32  33
ENDBRANCH   1  32
TORSDOF 20
