REMARK SMILES CC[NH+]1CC[NH+]([C@@H]2CC(=O)N(c3ccc(C(=O)OCCOCCOCCOC(=O)c4ccc(-c5c6nc(c(-c7c(F)cccc7F)c7ccc([nH]7)c(-c7c(F)cccc7F)c7nc(c(-c8c(F)cccc8F)c8ccc5[nH]8)C=C7)C=C6)cc4)cc3)C2=O)CC1
REMARK SMILES IDX 22 1 21 2 20 3 19 4 18 5 16 6 17 7 15 8 12 9 13 10 85 11
REMARK SMILES IDX 14 12 84 13 11 14 7 15 8 16 86 17 9 18 87 19 10 20 6 21 3 22
REMARK SMILES IDX 4 23 89 24 5 26 88 27 2 29 1 30 23 31 24 32 25 33 26 34
REMARK SMILES IDX 27 35 28 36 29 37 30 38 31 39 83 40 32 41 82 42 33 43 34 44
REMARK SMILES IDX 35 45 76 46 36 47 81 48 75 49 77 50 37 51 80 52 74 53 73 54
REMARK SMILES IDX 38 56 64 57 47 58 63 59 48 60 51 61 62 62 78 63 49 64 50 65
REMARK SMILES IDX 61 67 79 68 52 69 39 70 40 71 45 72 41 73 42 74 44 75 46 76
REMARK SMILES IDX 43 77 65 78 66 79 71 80 67 81 68 82 70 83 72 84 69 85 53 86
REMARK SMILES IDX 54 87 59 88 55 89 56 90 58 91 60 92 57 93
REMARK H PARENT 3 25 6 28 77 55 51 66
REMARK Flexibility Score: inf
ROOT
ATOM      1  C   UNL     1       4.423 -11.057   4.003  1.00  0.00     0.188 C 
ENDROOT
BRANCH   1   2
ATOM      2  O   UNL     1       4.552 -12.467   4.061  1.00  0.00    -0.376 OA
BRANCH   2   3
ATOM      3  C   UNL     1       5.208 -13.185   3.025  1.00  0.00     0.202 C 
BRANCH   3   4
ATOM      4  C   UNL     1       5.058 -12.841   1.532  1.00  0.00     0.261 C 
BRANCH   4   5
ATOM      5  O   UNL     1       5.007 -11.451   1.208  1.00  0.00    -0.460 OA
BRANCH   5   6
ATOM      6  C   UNL     1       3.787 -10.983   0.833  1.00  0.00     0.338 C 
ATOM      7  O   UNL     1       2.760 -11.611   0.712  1.00  0.00    -0.246 OA
BRANCH   6   8
ATOM      8  C   UNL     1       3.854  -9.505   0.782  1.00  0.00     0.060 A 
ATOM      9  C   UNL     1       3.887  -6.701   0.682  1.00  0.00     0.052 A 
ATOM     10  C   UNL     1       2.876  -7.367   1.385  1.00  0.00     0.028 A 
ATOM     11  C   UNL     1       4.927  -7.462   0.118  1.00  0.00     0.028 A 
ATOM     12  C   UNL     1       2.841  -8.766   1.407  1.00  0.00     0.018 A 
ATOM     13  C   UNL     1       4.922  -8.854   0.174  1.00  0.00     0.018 A 
BRANCH   9  14
ATOM     14  N   UNL     1       3.836  -5.301   0.458  1.00  0.00    -0.245 N 
ATOM     15  C   UNL     1       3.484  -2.991   0.689  1.00  0.00     0.285 C 
ATOM     16  C   UNL     1       3.952  -3.282  -0.721  1.00  0.00     0.176 C 
ATOM     17  C   UNL     1       3.264  -4.373   1.305  1.00  0.00     0.292 C 
ATOM     18  C   UNL     1       4.281  -4.733  -0.714  1.00  0.00     0.240 C 
ATOM     19  O   UNL     1       2.755  -4.577   2.401  1.00  0.00    -0.267 OA
ATOM     20  O   UNL     1       4.764  -5.282  -1.696  1.00  0.00    -0.274 OA
BRANCH  15  21
ATOM     21  N   UNL     1       2.369  -2.046   0.878  1.00  0.00    -0.315 N 
ATOM     22  N   UNL     1       0.951  -1.012  -1.581  1.00  0.00    -0.326 N 
ATOM     23  C   UNL     1       2.265  -0.506  -1.169  1.00  0.00     0.324 C 
ATOM     24  C   UNL     1       0.607  -2.301  -0.969  1.00  0.00     0.324 C 
ATOM     25  H   UNL     1       1.054  -1.213  -2.575  1.00  0.00     0.348 HD
ATOM     26  C   UNL     1       2.631  -0.707   0.324  1.00  0.00     0.325 C 
ATOM     27  C   UNL     1       1.022  -2.501   0.505  1.00  0.00     0.325 C 
ATOM     28  H   UNL     1       2.345  -1.991   1.896  1.00  0.00     0.349 HD
BRANCH  22  29
ATOM     29  C   UNL     1      -0.125  -0.020  -1.557  1.00  0.00     0.259 C 
ATOM     30  C   UNL     1      -0.273   0.829  -0.301  1.00  0.00     0.071 C 
ENDBRANCH  22  29
ENDBRANCH  15  21
ENDBRANCH   9  14
ENDBRANCH   6   8
ENDBRANCH   5   6
ENDBRANCH   4   5
ENDBRANCH   3   4
ENDBRANCH   2   3
ENDBRANCH   1   2
BRANCH   1  31
ATOM     31  C   UNL     1       5.668 -10.170   3.800  1.00  0.00     0.188 C 
BRANCH  31  32
ATOM     32  O   UNL     1       6.845 -10.869   3.479  1.00  0.00    -0.376 OA
BRANCH  32  33
ATOM     33  C   UNL     1       7.712 -11.298   4.515  1.00  0.00     0.202 C 
BRANCH  33  34
ATOM     34  C   UNL     1       7.338 -11.438   6.009  1.00  0.00     0.261 C 
BRANCH  34  35
ATOM     35  O   UNL     1       6.062 -10.966   6.452  1.00  0.00    -0.460 OA
BRANCH  35  36
ATOM     36  C   UNL     1       6.035  -9.742   7.029  1.00  0.00     0.338 C 
ATOM     37  O   UNL     1       6.966  -8.970   7.173  1.00  0.00    -0.246 OA
BRANCH  36  38
ATOM     38  C   UNL     1       4.629  -9.397   7.322  1.00  0.00     0.060 A 
ATOM     39  C   UNL     1       4.017  -8.373   6.588  1.00  0.00     0.016 A 
ATOM     40  C   UNL     1       3.930 -10.063   8.330  1.00  0.00     0.016 A 
ATOM     41  C   UNL     1       2.706  -7.995   6.876  1.00  0.00     0.010 A 
ATOM     42  C   UNL     1       2.622  -9.670   8.630  1.00  0.00     0.010 A 
ATOM     43  C   UNL     1       2.013  -8.616   7.924  1.00  0.00    -0.014 A 
BRANCH  43  44
ATOM     44  C   UNL     1       0.714  -8.063   8.382  1.00  0.00     0.031 A 
ATOM     45  C   UNL     1       0.689  -7.183   9.600  1.00  0.00     0.074 A 
ATOM     46  C   UNL     1      -0.428  -8.335   7.726  1.00  0.00     0.049 A 
ATOM     47  N   UNL     1      -0.330  -6.631  10.208  1.00  0.00    -0.248 NA
ATOM     48  C   UNL     1       1.991  -6.895  10.220  1.00  0.00     0.031 C 
ATOM     49  C   UNL     1      -0.535  -9.152   6.520  1.00  0.00     0.029 A 
ATOM     50  N   UNL     1      -1.720  -7.959   7.999  1.00  0.00    -0.354 N 
ATOM     51  C   UNL     1       0.205  -5.941  11.288  1.00  0.00     0.074 A 
ATOM     52  C   UNL     1       1.634  -6.171  11.270  1.00  0.00     0.031 C 
ATOM     53  C   UNL     1      -1.829  -9.231   6.165  1.00  0.00     0.029 A 
ATOM     54  C   UNL     1      -2.641  -8.498   7.136  1.00  0.00     0.049 A 
ATOM     55  H   UNL     1      -1.962  -7.360   8.742  1.00  0.00     0.167 HD
ATOM     56  C   UNL     1      -0.434  -5.179  12.209  1.00  0.00     0.037 A 
ATOM     57  C   UNL     1      -3.987  -8.430   7.144  1.00  0.00     0.037 A 
ATOM     58  C   UNL     1      -1.857  -4.956  12.227  1.00  0.00     0.049 A 
ATOM     59  C   UNL     1      -4.685  -7.628   8.210  1.00  0.00     0.074 A 
ATOM     60  C   UNL     1      -2.595  -4.170  13.094  1.00  0.00     0.029 A 
ATOM     61  N   UNL     1      -2.760  -5.536  11.348  1.00  0.00    -0.354 N 
ATOM     62  N   UNL     1      -4.169  -6.942   9.202  1.00  0.00    -0.248 NA
ATOM     63  C   UNL     1      -6.153  -7.587   8.155  1.00  0.00     0.031 C 
ATOM     64  C   UNL     1      -3.949  -4.327  12.782  1.00  0.00     0.029 A 
ATOM     65  C   UNL     1      -4.052  -5.156  11.677  1.00  0.00     0.049 A 
ATOM     66  H   UNL     1      -2.519  -6.130  10.601  1.00  0.00     0.167 HD
ATOM     67  C   UNL     1      -5.244  -6.369   9.872  1.00  0.00     0.074 A 
ATOM     68  C   UNL     1      -6.440  -6.777   9.165  1.00  0.00     0.031 C 
ATOM     69  C   UNL     1      -5.239  -5.574  10.972  1.00  0.00     0.037 A 
BRANCH  56  70
ATOM     70  C   UNL     1       0.403  -4.572  13.299  1.00  0.00     0.057 A 
ATOM     71  C   UNL     1       1.334  -3.554  13.049  1.00  0.00     0.134 A 
ATOM     72  C   UNL     1       0.273  -5.014  14.622  1.00  0.00     0.134 A 
ATOM     73  F   UNL     1       1.519  -3.092  11.803  1.00  0.00    -0.206 F 
ATOM     74  C   UNL     1       2.131  -3.026  14.067  1.00  0.00     0.040 A 
ATOM     75  C   UNL     1       1.041  -4.471  15.653  1.00  0.00     0.040 A 
ATOM     76  F   UNL     1      -0.603  -5.980  14.935  1.00  0.00    -0.206 F 
ATOM     77  C   UNL     1       1.982  -3.482  15.375  1.00  0.00     0.006 A 
ENDBRANCH  56  70
BRANCH  57  78
ATOM     78  C   UNL     1      -4.763  -9.158   6.108  1.00  0.00     0.057 A 
ATOM     79  C   UNL     1      -5.461  -8.475   5.106  1.00  0.00     0.134 A 
ATOM     80  C   UNL     1      -4.819 -10.557   6.093  1.00  0.00     0.134 A 
ATOM     81  F   UNL     1      -5.468  -7.134   5.082  1.00  0.00    -0.206 F 
ATOM     82  C   UNL     1      -6.191  -9.156   4.130  1.00  0.00     0.040 A 
ATOM     83  C   UNL     1      -5.522 -11.252   5.108  1.00  0.00     0.040 A 
ATOM     84  F   UNL     1      -4.173 -11.270   7.028  1.00  0.00    -0.206 F 
ATOM     85  C   UNL     1      -6.214 -10.550   4.124  1.00  0.00     0.006 A 
ENDBRANCH  57  78
BRANCH  69  86
ATOM     86  C   UNL     1      -6.566  -5.066  11.465  1.00  0.00     0.057 A 
ATOM     87  C   UNL     1      -7.508  -5.909  12.070  1.00  0.00     0.134 A 
ATOM     88  C   UNL     1      -6.890  -3.706  11.367  1.00  0.00     0.134 A 
ATOM     89  F   UNL     1      -7.268  -7.223  12.188  1.00  0.00    -0.206 F 
ATOM     90  C   UNL     1      -8.732  -5.422  12.534  1.00  0.00     0.040 A 
ATOM     91  C   UNL     1      -8.097  -3.203  11.855  1.00  0.00     0.040 A 
ATOM     92  F   UNL     1      -6.031  -2.839  10.809  1.00  0.00    -0.206 F 
ATOM     93  C   UNL     1      -9.026  -4.064  12.434  1.00  0.00     0.006 A 
ENDBRANCH  69  86
ENDBRANCH  43  44
ENDBRANCH  36  38
ENDBRANCH  35  36
ENDBRANCH  34  35
ENDBRANCH  33  34
ENDBRANCH  32  33
ENDBRANCH  31  32
ENDBRANCH   1  31
TORSDOF 20
