REMARK SMILES O=C(CN1C(=O)/C(=C2/Sc3ccccc3N2CCCS(=O)(=O)[O-])SC1=S)OCCOCCOCCOC(=O)c1ccc(-c2c3nc(c(-c4c(F)cccc4F)c4ccc([nH]4)c(-c4c(F)cccc4F)c4nc(c(-c5c(F)cccc5F)c5ccc2[nH]5)C=C4)C=C3)cc1
REMARK SMILES IDX 30 1 29 2 28 3 27 4 2 5 1 6 3 7 4 8 5 9 25 10 6 11 7 12
REMARK SMILES IDX 24 13 26 14 8 15 9 16 16 17 10 18 15 19 11 20 14 21 12 22
REMARK SMILES IDX 13 23 17 24 18 25 19 26 20 27 21 28 22 29 23 30 31 31 32 32
REMARK SMILES IDX 33 33 34 34 35 35 36 36 37 37 38 38 39 39 40 40 92 41 41 42
REMARK SMILES IDX 91 43 42 44 43 45 44 46 85 47 45 48 90 49 84 50 86 51 46 52
REMARK SMILES IDX 89 53 83 54 82 55 47 57 73 58 56 59 72 60 57 61 60 62 71 63
REMARK SMILES IDX 87 64 58 65 59 66 70 68 88 69 61 70 48 71 49 72 54 73 50 74
REMARK SMILES IDX 51 75 53 76 55 77 52 78 74 79 75 80 80 81 76 82 77 83 79 84
REMARK SMILES IDX 81 85 78 86 62 87 63 88 68 89 64 90 65 91 67 92 69 93 66 94
REMARK H PARENT 86 56 60 67
REMARK Flexibility Score: inf
ROOT
ATOM      1  O   UNL     1       4.735  -0.225   2.618  1.00  0.00    -0.376 OA
ENDROOT
BRANCH   1   2
ATOM      2  C   UNL     1       4.936   0.726   1.600  1.00  0.00     0.202 C 
BRANCH   2   3
ATOM      3  C   UNL     1       3.730   1.224   0.814  1.00  0.00     0.261 C 
BRANCH   3   4
ATOM      4  O   UNL     1       2.852   0.336  -0.030  1.00  0.00    -0.462 OA
BRANCH   4   5
ATOM      5  C   UNL     1       2.416  -0.651  -0.823  1.00  0.00     0.326 C 
ATOM      6  O   UNL     1       1.228  -0.606  -1.163  1.00  0.00    -0.250 OA
BRANCH   5   7
ATOM      7  C   UNL     1       3.269  -1.818  -1.354  1.00  0.00     0.250 C 
BRANCH   7   8
ATOM      8  N   UNL     1       3.203  -1.968  -2.861  1.00  0.00    -0.281 N 
ATOM      9  C   UNL     1       3.971  -1.194  -3.679  1.00  0.00     0.269 C 
ATOM     10  C   UNL     1       2.765  -3.050  -3.584  1.00  0.00     0.148 C 
ATOM     11  O   UNL     1       5.105  -0.833  -3.410  1.00  0.00    -0.268 OA
ATOM     12  C   UNL     1       3.484  -1.136  -5.066  1.00  0.00     0.111 C 
ATOM     13  S   UNL     1       2.819  -2.704  -5.336  1.00  0.00    -0.052 SA
ATOM     14  S   UNL     1       2.352  -4.556  -3.027  1.00  0.00    -0.052 S 
ATOM     15  C   UNL     1       3.527  -0.052  -5.879  1.00  0.00     0.100 C 
ATOM     16  S   UNL     1       3.209  -0.287  -7.649  1.00  0.00    -0.068 SA
ATOM     17  N   UNL     1       3.754   1.318  -5.572  1.00  0.00    -0.334 N 
ATOM     18  C   UNL     1       3.370   1.470  -7.904  1.00  0.00     0.037 A 
ATOM     19  C   UNL     1       3.493   2.160  -6.694  1.00  0.00     0.056 A 
ATOM     20  C   UNL     1       3.428   2.153  -9.109  1.00  0.00     0.017 A 
ATOM     21  C   UNL     1       3.449   3.555  -6.676  1.00  0.00     0.027 A 
ATOM     22  C   UNL     1       3.485   3.551  -9.091  1.00  0.00     0.001 A 
ATOM     23  C   UNL     1       3.444   4.252  -7.881  1.00  0.00     0.002 A 
BRANCH  17  24
ATOM     24  C   UNL     1       4.822   1.889  -4.752  1.00  0.00     0.124 C 
BRANCH  24  25
ATOM     25  C   UNL     1       4.266   2.566  -3.511  1.00  0.00     0.037 C 
BRANCH  25  26
ATOM     26  C   UNL     1       4.287   1.647  -2.338  1.00  0.00     0.124 C 
BRANCH  26  27
ATOM     27  S   UNL     1       5.948   1.130  -1.802  1.00  0.00     0.095 S 
ATOM     28  O   UNL     1       5.868  -0.082  -1.049  1.00  0.00    -0.243 OA
ATOM     29  O   UNL     1       6.967   1.337  -2.820  1.00  0.00    -0.243 OA
ATOM     30  O   UNL     1       6.235   2.314  -0.751  1.00  0.00    -0.748 OA
ENDBRANCH  26  27
ENDBRANCH  25  26
ENDBRANCH  24  25
ENDBRANCH  17  24
ENDBRANCH   7   8
ENDBRANCH   5   7
ENDBRANCH   4   5
ENDBRANCH   3   4
ENDBRANCH   2   3
ENDBRANCH   1   2
BRANCH   1  31
ATOM     31  C   UNL     1       3.479  -0.856   2.639  1.00  0.00     0.188 C 
BRANCH  31  32
ATOM     32  C   UNL     1       2.319  -0.001   3.189  1.00  0.00     0.188 C 
BRANCH  32  33
ATOM     33  O   UNL     1       2.534   1.103   4.061  1.00  0.00    -0.376 OA
BRANCH  33  34
ATOM     34  C   UNL     1       3.736   1.259   4.793  1.00  0.00     0.202 C 
BRANCH  34  35
ATOM     35  C   UNL     1       4.144   0.200   5.830  1.00  0.00     0.261 C 
BRANCH  35  36
ATOM     36  O   UNL     1       3.913  -1.169   5.470  1.00  0.00    -0.460 OA
BRANCH  36  37
ATOM     37  C   UNL     1       2.690  -1.672   5.777  1.00  0.00     0.338 C 
ATOM     38  O   UNL     1       1.796  -1.099   6.375  1.00  0.00    -0.246 OA
BRANCH  37  39
ATOM     39  C   UNL     1       2.508  -2.976   5.079  1.00  0.00     0.060 A 
ATOM     40  C   UNL     1       3.506  -3.954   5.086  1.00  0.00     0.016 A 
ATOM     41  C   UNL     1       1.331  -3.191   4.343  1.00  0.00     0.016 A 
ATOM     42  C   UNL     1       3.291  -5.168   4.420  1.00  0.00     0.010 A 
ATOM     43  C   UNL     1       1.131  -4.389   3.651  1.00  0.00     0.010 A 
ATOM     44  C   UNL     1       2.087  -5.410   3.729  1.00  0.00    -0.014 A 
BRANCH  44  45
ATOM     45  C   UNL     1       1.720  -6.793   3.326  1.00  0.00     0.031 A 
ATOM     46  C   UNL     1       1.751  -7.280   1.910  1.00  0.00     0.074 A 
ATOM     47  C   UNL     1       1.286  -7.622   4.294  1.00  0.00     0.049 A 
ATOM     48  N   UNL     1       1.508  -8.485   1.448  1.00  0.00    -0.248 NA
ATOM     49  C   UNL     1       2.088  -6.292   0.882  1.00  0.00     0.031 C 
ATOM     50  C   UNL     1       1.146  -7.263   5.707  1.00  0.00     0.029 A 
ATOM     51  N   UNL     1       0.880  -8.930   4.237  1.00  0.00    -0.354 N 
ATOM     52  C   UNL     1       1.693  -8.411   0.074  1.00  0.00     0.074 A 
ATOM     53  C   UNL     1       2.015  -7.034  -0.215  1.00  0.00     0.031 C 
ATOM     54  C   UNL     1       0.710  -8.333   6.387  1.00  0.00     0.029 A 
ATOM     55  C   UNL     1       0.511  -9.440   5.456  1.00  0.00     0.049 A 
ATOM     56  H   UNL     1       0.856  -9.452   3.404  1.00  0.00     0.167 HD
ATOM     57  C   UNL     1       1.619  -9.391  -0.862  1.00  0.00     0.037 A 
ATOM     58  C   UNL     1       0.060 -10.662   5.790  1.00  0.00     0.037 A 
ATOM     59  C   UNL     1       1.250 -10.756  -0.585  1.00  0.00     0.049 A 
ATOM     60  C   UNL     1      -0.076 -11.719   4.731  1.00  0.00     0.074 A 
ATOM     61  C   UNL     1       1.181 -11.828  -1.459  1.00  0.00     0.029 A 
ATOM     62  N   UNL     1       0.861 -11.229   0.657  1.00  0.00    -0.354 N 
ATOM     63  N   UNL     1       0.213 -11.659   3.454  1.00  0.00    -0.248 NA
ATOM     64  C   UNL     1      -0.595 -13.022   5.168  1.00  0.00     0.031 C 
ATOM     65  C   UNL     1       0.694 -12.936  -0.757  1.00  0.00     0.029 A 
ATOM     66  C   UNL     1       0.520 -12.569   0.567  1.00  0.00     0.049 A 
ATOM     67  H   UNL     1       0.832 -10.693   1.482  1.00  0.00     0.167 HD
ATOM     68  C   UNL     1      -0.053 -12.924   2.945  1.00  0.00     0.074 A 
ATOM     69  C   UNL     1      -0.510 -13.734   4.054  1.00  0.00     0.031 C 
ATOM     70  C   UNL     1       0.072 -13.374   1.673  1.00  0.00     0.037 A 
BRANCH  57  71
ATOM     71  C   UNL     1       1.949  -9.029  -2.286  1.00  0.00     0.057 A 
ATOM     72  C   UNL     1       0.965  -9.036  -3.284  1.00  0.00     0.134 A 
ATOM     73  C   UNL     1       3.262  -8.739  -2.682  1.00  0.00     0.134 A 
ATOM     74  F   UNL     1      -0.309  -9.327  -2.982  1.00  0.00    -0.206 F 
ATOM     75  C   UNL     1       1.275  -8.768  -4.620  1.00  0.00     0.040 A 
ATOM     76  C   UNL     1       3.580  -8.444  -4.010  1.00  0.00     0.040 A 
ATOM     77  F   UNL     1       4.255  -8.718  -1.779  1.00  0.00    -0.206 F 
ATOM     78  C   UNL     1       2.585  -8.463  -4.984  1.00  0.00     0.006 A 
ENDBRANCH  57  71
BRANCH  58  79
ATOM     79  C   UNL     1      -0.285 -10.965   7.200  1.00  0.00     0.057 A 
ATOM     80  C   UNL     1      -1.396 -10.383   7.821  1.00  0.00     0.134 A 
ATOM     81  C   UNL     1       0.466 -11.882   7.944  1.00  0.00     0.134 A 
ATOM     82  F   UNL     1      -2.148  -9.487   7.164  1.00  0.00    -0.206 F 
ATOM     83  C   UNL     1      -1.754 -10.708   9.129  1.00  0.00     0.040 A 
ATOM     84  C   UNL     1       0.101 -12.240   9.242  1.00  0.00     0.040 A 
ATOM     85  F   UNL     1       1.534 -12.482   7.398  1.00  0.00    -0.206 F 
ATOM     86  C   UNL     1      -1.012 -11.651   9.837  1.00  0.00     0.006 A 
ENDBRANCH  58  79
BRANCH  70  87
ATOM     87  C   UNL     1      -0.245 -14.820   1.420  1.00  0.00     0.057 A 
ATOM     88  C   UNL     1       0.773 -15.724   1.090  1.00  0.00     0.134 A 
ATOM     89  C   UNL     1      -1.553 -15.319   1.488  1.00  0.00     0.134 A 
ATOM     90  F   UNL     1       2.047 -15.313   0.999  1.00  0.00    -0.206 F 
ATOM     91  C   UNL     1       0.503 -17.070   0.839  1.00  0.00     0.040 A 
ATOM     92  C   UNL     1      -1.831 -16.670   1.270  1.00  0.00     0.040 A 
ATOM     93  F   UNL     1      -2.574 -14.511   1.813  1.00  0.00    -0.206 F 
ATOM     94  C   UNL     1      -0.801 -17.549   0.938  1.00  0.00     0.006 A 
ENDBRANCH  70  87
ENDBRANCH  44  45
ENDBRANCH  37  39
ENDBRANCH  36  37
ENDBRANCH  35  36
ENDBRANCH  34  35
ENDBRANCH  33  34
ENDBRANCH  32  33
ENDBRANCH  31  32
ENDBRANCH   1  31
TORSDOF 22
