REMARK SMILES COc1ccc(-c2[nH]nc3nc(-c4ccc(C(F)(F)F)cc4)cc(C(=O)OCCOCCOCCOC(=O)c4ccc(-c5c6nc(c(-c7c(F)cccc7F)c7ccc([nH]7)c(-c7c(F)cccc7F)c7nc(c(-c8c(F)cccc8F)c8ccc5[nH]8)C=C7)C=C6)cc4)c23)cc1
REMARK SMILES IDX 31 1 30 2 29 3 28 4 27 5 25 6 26 7 24 8 7 9 8 10 93 11 9 12
REMARK SMILES IDX 10 14 11 15 23 16 12 17 6 18 3 19 4 20 95 21 5 22 94 23 2 24
REMARK SMILES IDX 1 25 13 26 14 27 22 28 15 29 21 30 16 31 17 32 18 33 19 34
REMARK SMILES IDX 20 35 32 36 33 37 34 38 35 39 36 40 37 41 38 42 39 43 40 44
REMARK SMILES IDX 92 45 41 46 91 47 42 48 43 49 44 50 85 51 45 52 90 53 84 54
REMARK SMILES IDX 86 55 46 56 89 57 83 58 82 59 47 61 73 62 56 63 72 64 57 65
REMARK SMILES IDX 60 66 71 67 87 68 58 69 59 70 70 72 88 73 61 74 48 75 49 76
REMARK SMILES IDX 54 77 50 78 51 79 53 80 55 81 52 82 74 83 75 84 80 85 76 86
REMARK SMILES IDX 77 87 79 88 81 89 78 90 62 91 63 92 68 93 64 94 65 95 67 96
REMARK SMILES IDX 69 97 66 98
REMARK H PARENT 8 13 86 60 60 71
REMARK Flexibility Score: inf
ROOT
ATOM      1  C   UNL     1       4.877   4.202   2.599  1.00  0.00     0.188 C 
ENDROOT
BRANCH   1   2
ATOM      2  O   UNL     1       4.755   3.999   1.201  1.00  0.00    -0.376 OA
BRANCH   2   3
ATOM      3  C   UNL     1       3.778   4.842   0.567  1.00  0.00     0.202 C 
BRANCH   3   4
ATOM      4  C   UNL     1       3.630   6.320   1.025  1.00  0.00     0.261 C 
BRANCH   4   5
ATOM      5  O   UNL     1       3.604   6.565   2.452  1.00  0.00    -0.460 OA
BRANCH   5   6
ATOM      6  C   UNL     1       2.574   6.068   3.189  1.00  0.00     0.339 C 
ATOM      7  O   UNL     1       1.501   5.753   2.747  1.00  0.00    -0.246 OA
BRANCH   6   8
ATOM      8  C   UNL     1       3.062   5.863   4.589  1.00  0.00     0.075 A 
ATOM      9  C   UNL     1       1.812   3.775   5.312  1.00  0.00     0.075 A 
ATOM     10  N   UNL     1       1.675   3.230   6.570  1.00  0.00    -0.275 N 
ATOM     11  C   UNL     1       2.608   4.895   5.502  1.00  0.00     0.061 A 
ATOM     12  N   UNL     1       2.465   3.774   7.503  1.00  0.00    -0.154 NA
ATOM     13  H   UNL     1       1.045   2.499   6.767  1.00  0.00     0.190 HD
ATOM     14  C   UNL     1       3.081   4.759   6.854  1.00  0.00     0.182 A 
ATOM     15  N   UNL     1       4.069   5.527   7.368  1.00  0.00    -0.226 NA
ATOM     16  C   UNL     1       4.122   6.614   5.155  1.00  0.00     0.045 A 
ATOM     17  C   UNL     1       4.582   6.430   6.492  1.00  0.00     0.074 A 
BRANCH   9  18
ATOM     18  C   UNL     1       1.327   3.035   4.156  1.00  0.00     0.001 A 
ATOM     19  C   UNL     1       0.494   1.593   1.887  1.00  0.00     0.118 A 
ATOM     20  C   UNL     1      -0.299   2.615   2.419  1.00  0.00     0.047 A 
ATOM     21  C   UNL     1       1.686   1.259   2.523  1.00  0.00     0.047 A 
ATOM     22  C   UNL     1       0.106   3.326   3.554  1.00  0.00     0.014 A 
ATOM     23  C   UNL     1       2.096   1.972   3.655  1.00  0.00     0.014 A 
BRANCH  19  24
ATOM     24  O   UNL     1      -0.000   1.016   0.750  1.00  0.00    -0.497 OA
ATOM     25  C   UNL     1       0.784  -0.009   0.152  1.00  0.00     0.278 C 
ENDBRANCH  19  24
ENDBRANCH   9  18
BRANCH  17  26
ATOM     26  C   UNL     1       5.653   7.283   7.069  1.00  0.00     0.000 A 
ATOM     27  C   UNL     1       6.605   6.773   7.975  1.00  0.00     0.011 A 
ATOM     28  C   UNL     1       5.715   8.657   6.784  1.00  0.00     0.011 A 
ATOM     29  C   UNL     1       7.564   7.603   8.578  1.00  0.00     0.014 A 
ATOM     30  C   UNL     1       6.666   9.490   7.386  1.00  0.00     0.014 A 
ATOM     31  C   UNL     1       7.597   8.975   8.296  1.00  0.00     0.056 A 
BRANCH  31  32
ATOM     32  C   UNL     1       8.596   9.881   8.976  1.00  0.00     0.416 C 
ATOM     33  F   UNL     1       8.457   9.892  10.331  1.00  0.00    -0.166 F 
ATOM     34  F   UNL     1       9.886   9.520   8.733  1.00  0.00    -0.166 F 
ATOM     35  F   UNL     1       8.497  11.184   8.585  1.00  0.00    -0.166 F 
ENDBRANCH  31  32
ENDBRANCH  17  26
ENDBRANCH   6   8
ENDBRANCH   5   6
ENDBRANCH   4   5
ENDBRANCH   3   4
ENDBRANCH   2   3
ENDBRANCH   1   2
BRANCH   1  36
ATOM     36  C   UNL     1       5.937   3.424   3.344  1.00  0.00     0.188 C 
BRANCH  36  37
ATOM     37  O   UNL     1       7.279   3.722   2.958  1.00  0.00    -0.376 OA
BRANCH  37  38
ATOM     38  C   UNL     1       7.561   3.808   1.562  1.00  0.00     0.202 C 
BRANCH  38  39
ATOM     39  C   UNL     1       7.601   2.492   0.791  1.00  0.00     0.261 C 
BRANCH  39  40
ATOM     40  O   UNL     1       6.558   1.595   1.137  1.00  0.00    -0.460 OA
BRANCH  40  41
ATOM     41  C   UNL     1       6.861   0.813   2.197  1.00  0.00     0.338 C 
ATOM     42  O   UNL     1       7.835   0.886   2.928  1.00  0.00    -0.246 OA
BRANCH  41  43
ATOM     43  C   UNL     1       5.871  -0.263   2.294  1.00  0.00     0.060 A 
ATOM     44  C   UNL     1       6.027  -1.108   3.393  1.00  0.00     0.016 A 
ATOM     45  C   UNL     1       5.230  -0.661   1.114  1.00  0.00     0.016 A 
ATOM     46  C   UNL     1       5.871  -2.452   3.173  1.00  0.00     0.010 A 
ATOM     47  C   UNL     1       5.091  -2.004   0.891  1.00  0.00     0.010 A 
ATOM     48  C   UNL     1       5.534  -2.874   1.882  1.00  0.00    -0.014 A 
BRANCH  48  49
ATOM     49  C   UNL     1       5.599  -4.286   1.608  1.00  0.00     0.031 A 
ATOM     50  C   UNL     1       4.482  -5.013   2.232  1.00  0.00     0.074 A 
ATOM     51  C   UNL     1       6.546  -4.834   0.825  1.00  0.00     0.049 A 
ATOM     52  N   UNL     1       4.539  -5.801   3.251  1.00  0.00    -0.248 NA
ATOM     53  C   UNL     1       3.119  -4.648   1.817  1.00  0.00     0.031 C 
ATOM     54  C   UNL     1       7.537  -4.172  -0.026  1.00  0.00     0.029 A 
ATOM     55  N   UNL     1       6.758  -6.151   0.570  1.00  0.00    -0.354 N 
ATOM     56  C   UNL     1       3.232  -6.213   3.461  1.00  0.00     0.074 A 
ATOM     57  C   UNL     1       2.392  -5.319   2.709  1.00  0.00     0.031 C 
ATOM     58  C   UNL     1       8.082  -5.083  -0.867  1.00  0.00     0.029 A 
ATOM     59  C   UNL     1       7.581  -6.402  -0.520  1.00  0.00     0.049 A 
ATOM     60  H   UNL     1       6.360  -6.870   1.114  1.00  0.00     0.167 HD
ATOM     61  C   UNL     1       2.976  -7.436   3.992  1.00  0.00     0.037 A 
ATOM     62  C   UNL     1       7.747  -7.612  -1.115  1.00  0.00     0.037 A 
ATOM     63  C   UNL     1       4.124  -7.949   4.699  1.00  0.00     0.049 A 
ATOM     64  C   UNL     1       7.320  -8.647  -0.134  1.00  0.00     0.074 A 
ATOM     65  C   UNL     1       4.883  -7.496   5.762  1.00  0.00     0.029 A 
ATOM     66  N   UNL     1       4.894  -8.900   4.072  1.00  0.00    -0.354 N 
ATOM     67  N   UNL     1       7.973  -8.912   0.963  1.00  0.00    -0.248 NA
ATOM     68  C   UNL     1       5.915  -9.033  -0.130  1.00  0.00     0.031 C 
ATOM     69  C   UNL     1       6.228  -7.834   5.429  1.00  0.00     0.029 A 
ATOM     70  C   UNL     1       6.208  -8.535   4.223  1.00  0.00     0.049 A 
ATOM     71  H   UNL     1       4.562  -9.698   3.600  1.00  0.00     0.167 HD
ATOM     72  C   UNL     1       6.991  -9.085   1.928  1.00  0.00     0.074 A 
ATOM     73  C   UNL     1       5.741  -9.217   1.182  1.00  0.00     0.031 C 
ATOM     74  C   UNL     1       7.234  -8.807   3.243  1.00  0.00     0.037 A 
BRANCH  61  75
ATOM     75  C   UNL     1       1.849  -8.312   3.511  1.00  0.00     0.057 A 
ATOM     76  C   UNL     1       1.575  -9.504   4.199  1.00  0.00     0.134 A 
ATOM     77  C   UNL     1       1.220  -8.188   2.252  1.00  0.00     0.134 A 
ATOM     78  F   UNL     1       2.128  -9.748   5.397  1.00  0.00    -0.206 F 
ATOM     79  C   UNL     1       0.796 -10.525   3.644  1.00  0.00     0.040 A 
ATOM     80  C   UNL     1       0.397  -9.177   1.714  1.00  0.00     0.040 A 
ATOM     81  F   UNL     1       1.444  -7.160   1.425  1.00  0.00    -0.206 F 
ATOM     82  C   UNL     1       0.209 -10.365   2.395  1.00  0.00     0.006 A 
ENDBRANCH  61  75
BRANCH  62  83
ATOM     83  C   UNL     1       7.904  -7.912  -2.558  1.00  0.00     0.057 A 
ATOM     84  C   UNL     1       8.310  -9.182  -2.995  1.00  0.00     0.134 A 
ATOM     85  C   UNL     1       7.388  -7.058  -3.548  1.00  0.00     0.134 A 
ATOM     86  F   UNL     1       8.774 -10.086  -2.120  1.00  0.00    -0.206 F 
ATOM     87  C   UNL     1       8.187  -9.586  -4.332  1.00  0.00     0.040 A 
ATOM     88  C   UNL     1       7.266  -7.447  -4.887  1.00  0.00     0.040 A 
ATOM     89  F   UNL     1       6.898  -5.849  -3.237  1.00  0.00    -0.206 F 
ATOM     90  C   UNL     1       7.652  -8.721  -5.281  1.00  0.00     0.006 A 
ENDBRANCH  62  83
BRANCH  74  91
ATOM     91  C   UNL     1       8.656  -8.530   3.654  1.00  0.00     0.057 A 
ATOM     92  C   UNL     1       9.414  -7.444   3.189  1.00  0.00     0.134 A 
ATOM     93  C   UNL     1       9.222  -9.302   4.674  1.00  0.00     0.134 A 
ATOM     94  F   UNL     1       8.918  -6.588   2.287  1.00  0.00    -0.206 F 
ATOM     95  C   UNL     1      10.692  -7.168   3.686  1.00  0.00     0.040 A 
ATOM     96  C   UNL     1      10.482  -9.017   5.204  1.00  0.00     0.040 A 
ATOM     97  F   UNL     1       8.534 -10.323   5.210  1.00  0.00    -0.206 F 
ATOM     98  C   UNL     1      11.227  -7.953   4.703  1.00  0.00     0.006 A 
ENDBRANCH  74  91
ENDBRANCH  48  49
ENDBRANCH  41  43
ENDBRANCH  40  41
ENDBRANCH  39  40
ENDBRANCH  38  39
ENDBRANCH  37  38
ENDBRANCH  36  37
ENDBRANCH   1  36
TORSDOF 21
