REMARK SMILES O=C(Cn1c2ccccc2c(=O)c2ccccc21)N[C@@H](Cc1ccccc1)C(=O)OCCOCCOCCOC(=O)c1ccc(-c2c3nc(c(-c4c(F)cccc4F)c4ccc([nH]4)c(-c4c(F)cccc4F)c4nc(c(-c5c(F)cccc5F)c5ccc2[nH]5)C=C4)C=C3)cc1
REMARK SMILES IDX 34 1 33 2 32 3 31 4 30 5 28 6 29 7 20 8 19 9 1 10 2 11 3 13
REMARK SMILES IDX 4 14 5 15 18 16 6 17 10 18 13 19 17 20 7 21 9 22 11 23 14 24
REMARK SMILES IDX 16 25 8 26 12 27 15 28 21 29 22 30 23 31 27 32 24 33 26 34
REMARK SMILES IDX 25 35 35 36 36 37 37 38 38 39 39 40 40 41 41 42 42 43 43 44
REMARK SMILES IDX 95 45 44 46 94 47 45 48 46 49 47 50 88 51 48 52 93 53 87 54
REMARK SMILES IDX 89 55 49 56 92 57 86 58 85 59 50 61 76 62 59 63 75 64 60 65
REMARK SMILES IDX 63 66 74 67 90 68 61 69 62 70 73 72 91 73 64 74 51 75 52 76
REMARK SMILES IDX 57 77 53 78 54 79 56 80 58 81 55 82 77 83 78 84 83 85 79 86
REMARK SMILES IDX 80 87 82 88 84 89 81 90 65 91 66 92 71 93 67 94 68 95 70 96
REMARK SMILES IDX 72 97 69 98
REMARK H PARENT 19 12 89 60 63 71
REMARK Flexibility Score: inf
ROOT
ATOM      1  C   UNL     1       2.133  -2.809   4.063  1.00  0.00     0.188 C 
ENDROOT
BRANCH   1   2
ATOM      2  O   UNL     1       2.903  -3.928   4.489  1.00  0.00    -0.376 OA
BRANCH   2   3
ATOM      3  C   UNL     1       4.053  -4.261   3.717  1.00  0.00     0.202 C 
BRANCH   3   4
ATOM      4  C   UNL     1       3.768  -4.708   2.287  1.00  0.00     0.261 C 
BRANCH   4   5
ATOM      5  O   UNL     1       3.444  -3.605   1.410  1.00  0.00    -0.462 OA
BRANCH   5   6
ATOM      6  C   UNL     1       2.363  -3.787   0.605  1.00  0.00     0.329 C 
ATOM      7  O   UNL     1       1.607  -4.753   0.674  1.00  0.00    -0.250 OA
BRANCH   6   8
ATOM      8  C   UNL     1       2.290  -2.796  -0.575  1.00  0.00     0.196 C 
BRANCH   8   9
ATOM      9  N   UNL     1       2.954  -1.485  -0.512  1.00  0.00    -0.341 N 
ATOM     10  O   UNL     1       1.593  -0.460   1.005  1.00  0.00    -0.273 OA
ATOM     11  C   UNL     1       2.553  -0.400   0.242  1.00  0.00     0.240 C 
ATOM     12  H   UNL     1       3.763  -1.369  -1.061  1.00  0.00     0.164 HD
BRANCH  11  13
ATOM     13  C   UNL     1       3.341   0.905  -0.062  1.00  0.00     0.222 C 
BRANCH  13  14
ATOM     14  N   UNL     1       4.298   1.385   0.974  1.00  0.00    -0.331 N 
ATOM     15  C   UNL     1       4.271   2.763   1.338  1.00  0.00     0.053 A 
ATOM     16  C   UNL     1       5.278   0.515   1.511  1.00  0.00     0.053 A 
ATOM     17  C   UNL     1       3.549   3.757   0.650  1.00  0.00     0.027 A 
ATOM     18  C   UNL     1       5.045   3.216   2.429  1.00  0.00     0.046 A 
ATOM     19  C   UNL     1       6.026   0.894   2.639  1.00  0.00     0.046 A 
ATOM     20  C   UNL     1       5.614  -0.729   0.968  1.00  0.00     0.027 A 
ATOM     21  C   UNL     1       3.578   5.107   1.044  1.00  0.00     0.002 A 
ATOM     22  C   UNL     1       5.075   4.563   2.829  1.00  0.00     0.014 A 
ATOM     23  C   UNL     1       5.883   2.259   3.175  1.00  0.00     0.197 A 
ATOM     24  C   UNL     1       6.957   0.036   3.252  1.00  0.00     0.014 A 
ATOM     25  C   UNL     1       6.519  -1.608   1.579  1.00  0.00     0.002 A 
ATOM     26  C   UNL     1       4.337   5.510   2.135  1.00  0.00     0.001 A 
ATOM     27  O   UNL     1       6.509   2.605   4.174  1.00  0.00    -0.288 OA
ATOM     28  C   UNL     1       7.181  -1.232   2.735  1.00  0.00     0.001 A 
ENDBRANCH  13  14
ENDBRANCH  11  13
ENDBRANCH   8   9
BRANCH   8  29
ATOM     29  C   UNL     1       2.819  -3.575  -1.818  1.00  0.00     0.072 C 
BRANCH  29  30
ATOM     30  C   UNL     1       4.298  -3.934  -1.742  1.00  0.00    -0.045 A 
ATOM     31  C   UNL     1       5.293  -3.025  -2.133  1.00  0.00     0.004 A 
ATOM     32  C   UNL     1       4.697  -5.168  -1.206  1.00  0.00     0.004 A 
ATOM     33  C   UNL     1       6.643  -3.303  -1.910  1.00  0.00     0.000 A 
ATOM     34  C   UNL     1       6.050  -5.455  -1.006  1.00  0.00     0.000 A 
ATOM     35  C   UNL     1       7.021  -4.515  -1.338  1.00  0.00     0.000 A 
ENDBRANCH  29  30
ENDBRANCH   8  29
ENDBRANCH   6   8
ENDBRANCH   5   6
ENDBRANCH   4   5
ENDBRANCH   3   4
ENDBRANCH   2   3
ENDBRANCH   1   2
BRANCH   1  36
ATOM     36  C   UNL     1       2.902  -1.545   3.668  1.00  0.00     0.188 C 
BRANCH  36  37
ATOM     37  O   UNL     1       4.156  -1.329   4.294  1.00  0.00    -0.376 OA
BRANCH  37  38
ATOM     38  C   UNL     1       4.168  -1.142   5.701  1.00  0.00     0.202 C 
BRANCH  38  39
ATOM     39  C   UNL     1       4.018   0.330   6.079  1.00  0.00     0.261 C 
BRANCH  39  40
ATOM     40  O   UNL     1       2.622   0.656   6.066  1.00  0.00    -0.460 OA
BRANCH  40  41
ATOM     41  C   UNL     1       2.199   1.480   5.082  1.00  0.00     0.338 C 
ATOM     42  O   UNL     1       2.869   2.168   4.336  1.00  0.00    -0.246 OA
BRANCH  41  43
ATOM     43  C   UNL     1       0.754   1.234   4.904  1.00  0.00     0.060 A 
ATOM     44  C   UNL     1      -0.064   0.955   6.001  1.00  0.00     0.016 A 
ATOM     45  C   UNL     1       0.239   1.200   3.601  1.00  0.00     0.016 A 
ATOM     46  C   UNL     1      -1.403   0.653   5.794  1.00  0.00     0.010 A 
ATOM     47  C   UNL     1      -1.104   0.896   3.392  1.00  0.00     0.010 A 
ATOM     48  C   UNL     1      -1.934   0.646   4.492  1.00  0.00    -0.014 A 
BRANCH  48  49
ATOM     49  C   UNL     1      -3.401   0.600   4.336  1.00  0.00     0.031 A 
ATOM     50  C   UNL     1      -4.127  -0.658   3.999  1.00  0.00     0.074 A 
ATOM     51  C   UNL     1      -4.064   1.746   4.572  1.00  0.00     0.049 A 
ATOM     52  N   UNL     1      -5.415  -0.889   4.032  1.00  0.00    -0.248 NA
ATOM     53  C   UNL     1      -3.315  -1.802   3.564  1.00  0.00     0.031 C 
ATOM     54  C   UNL     1      -3.429   3.033   4.873  1.00  0.00     0.029 A 
ATOM     55  N   UNL     1      -5.404   2.010   4.630  1.00  0.00    -0.354 N 
ATOM     56  C   UNL     1      -5.571  -2.214   3.652  1.00  0.00     0.074 A 
ATOM     57  C   UNL     1      -4.248  -2.720   3.344  1.00  0.00     0.031 C 
ATOM     58  C   UNL     1      -4.380   3.940   5.129  1.00  0.00     0.029 A 
ATOM     59  C   UNL     1      -5.685   3.304   4.993  1.00  0.00     0.049 A 
ATOM     60  H   UNL     1      -6.098   1.341   4.431  1.00  0.00     0.167 HD
ATOM     61  C   UNL     1      -6.718  -2.934   3.586  1.00  0.00     0.037 A 
ATOM     62  C   UNL     1      -6.867   3.903   5.214  1.00  0.00     0.037 A 
ATOM     63  C   UNL     1      -8.028  -2.394   3.863  1.00  0.00     0.049 A 
ATOM     64  C   UNL     1      -8.119   3.087   5.098  1.00  0.00     0.074 A 
ATOM     65  C   UNL     1      -9.251  -3.043   3.858  1.00  0.00     0.029 A 
ATOM     66  N   UNL     1      -8.286  -1.065   4.174  1.00  0.00    -0.354 N 
ATOM     67  N   UNL     1      -8.252   1.810   4.835  1.00  0.00    -0.248 NA
ATOM     68  C   UNL     1      -9.385   3.796   5.319  1.00  0.00     0.031 C 
ATOM     69  C   UNL     1     -10.251  -2.098   4.114  1.00  0.00     0.029 A 
ATOM     70  C   UNL     1      -9.650  -0.868   4.328  1.00  0.00     0.049 A 
ATOM     71  H   UNL     1      -7.601  -0.365   4.270  1.00  0.00     0.167 HD
ATOM     72  C   UNL     1      -9.615   1.555   4.876  1.00  0.00     0.074 A 
ATOM     73  C   UNL     1     -10.261   2.807   5.217  1.00  0.00     0.031 C 
ATOM     74  C   UNL     1     -10.274   0.392   4.650  1.00  0.00     0.037 A 
BRANCH  61  75
ATOM     75  C   UNL     1      -6.606  -4.379   3.195  1.00  0.00     0.057 A 
ATOM     76  C   UNL     1      -7.103  -4.835   1.968  1.00  0.00     0.134 A 
ATOM     77  C   UNL     1      -6.042  -5.332   4.055  1.00  0.00     0.134 A 
ATOM     78  F   UNL     1      -7.666  -3.980   1.100  1.00  0.00    -0.206 F 
ATOM     79  C   UNL     1      -7.043  -6.183   1.609  1.00  0.00     0.040 A 
ATOM     80  C   UNL     1      -5.954  -6.679   3.698  1.00  0.00     0.040 A 
ATOM     81  F   UNL     1      -5.544  -4.963   5.245  1.00  0.00    -0.206 F 
ATOM     82  C   UNL     1      -6.461  -7.109   2.473  1.00  0.00     0.006 A 
ENDBRANCH  61  75
BRANCH  62  83
ATOM     83  C   UNL     1      -6.910   5.333   5.598  1.00  0.00     0.057 A 
ATOM     84  C   UNL     1      -6.555   6.340   4.693  1.00  0.00     0.134 A 
ATOM     85  C   UNL     1      -7.304   5.726   6.882  1.00  0.00     0.134 A 
ATOM     86  F   UNL     1      -6.155   6.026   3.452  1.00  0.00    -0.206 F 
ATOM     87  C   UNL     1      -6.589   7.688   5.051  1.00  0.00     0.040 A 
ATOM     88  C   UNL     1      -7.368   7.071   7.245  1.00  0.00     0.040 A 
ATOM     89  F   UNL     1      -7.662   4.806   7.790  1.00  0.00    -0.206 F 
ATOM     90  C   UNL     1      -7.007   8.057   6.328  1.00  0.00     0.006 A 
ENDBRANCH  62  83
BRANCH  74  91
ATOM     91  C   UNL     1     -11.769   0.436   4.775  1.00  0.00     0.057 A 
ATOM     92  C   UNL     1     -12.415  -0.179   5.854  1.00  0.00     0.134 A 
ATOM     93  C   UNL     1     -12.568   1.096   3.831  1.00  0.00     0.134 A 
ATOM     94  F   UNL     1     -11.710  -0.831   6.790  1.00  0.00    -0.206 F 
ATOM     95  C   UNL     1     -13.803  -0.135   5.993  1.00  0.00     0.040 A 
ATOM     96  C   UNL     1     -13.954   1.171   3.975  1.00  0.00     0.040 A 
ATOM     97  F   UNL     1     -12.008   1.722   2.785  1.00  0.00    -0.206 F 
ATOM     98  C   UNL     1     -14.575   0.550   5.057  1.00  0.00     0.006 A 
ENDBRANCH  74  91
ENDBRANCH  48  49
ENDBRANCH  41  43
ENDBRANCH  40  41
ENDBRANCH  39  40
ENDBRANCH  38  39
ENDBRANCH  37  38
ENDBRANCH  36  37
ENDBRANCH   1  36
TORSDOF 22
