REMARK SMILES Cc1cscc1CNC(=O)CC(C)(C)C(=O)OCCOCCOCCOC(=O)c1ccc(-c2c3nc(c(-c4c(F)cccc4F)c4ccc([nH]4)c(-c4c(F)cccc4F)c4nc(c(-c5c(F)cccc5F)c5ccc2[nH]5)C=C4)C=C3)cc1
REMARK SMILES IDX 21 1 20 2 19 3 18 4 17 5 15 6 16 7 12 8 13 9 14 10 11 11
REMARK SMILES IDX 9 12 8 13 10 15 7 16 6 17 1 18 2 19 3 20 4 21 5 22 22 23
REMARK SMILES IDX 23 24 24 25 25 26 26 27 27 28 28 29 29 30 30 31 82 32 31 33
REMARK SMILES IDX 81 34 32 35 33 36 34 37 75 38 35 39 80 40 74 41 76 42 36 43
REMARK SMILES IDX 79 44 73 45 72 46 37 48 63 49 46 50 62 51 47 52 50 53 61 54
REMARK SMILES IDX 77 55 48 56 49 57 60 59 78 60 51 61 38 62 39 63 44 64 40 65
REMARK SMILES IDX 41 66 43 67 45 68 42 69 64 70 65 71 70 72 66 73 67 74 69 75
REMARK SMILES IDX 71 76 68 77 52 78 53 79 58 80 54 81 55 82 57 83 59 84 56 85
REMARK H PARENT 8 14 76 47 50 58
REMARK Flexibility Score: inf
ROOT
ATOM      1  C   UNL     1      -3.529   6.128  -0.650  1.00  0.00     0.188 C 
ENDROOT
BRANCH   1   2
ATOM      2  O   UNL     1      -4.628   5.388  -1.138  1.00  0.00    -0.376 OA
BRANCH   2   3
ATOM      3  C   UNL     1      -5.032   4.185  -0.501  1.00  0.00     0.202 C 
BRANCH   3   4
ATOM      4  C   UNL     1      -4.032   3.084  -0.100  1.00  0.00     0.261 C 
BRANCH   4   5
ATOM      5  O   UNL     1      -3.014   3.426   0.873  1.00  0.00    -0.463 OA
BRANCH   5   6
ATOM      6  C   UNL     1      -1.761   3.523   0.358  1.00  0.00     0.312 C 
ATOM      7  O   UNL     1      -1.560   3.369  -0.839  1.00  0.00    -0.252 OA
BRANCH   6   8
ATOM      8  C   UNL     1      -0.626   3.779   1.387  1.00  0.00     0.071 C 
ATOM      9  C   UNL     1      -0.247   2.416   1.989  1.00  0.00     0.024 C 
ATOM     10  C   UNL     1      -0.992   4.643   2.623  1.00  0.00     0.024 C 
BRANCH   8  11
ATOM     11  C   UNL     1       0.599   4.467   0.691  1.00  0.00     0.118 C 
BRANCH  11  12
ATOM     12  C   UNL     1       0.788   4.305  -0.815  1.00  0.00     0.221 C 
ATOM     13  N   UNL     1       1.246   3.140  -1.346  1.00  0.00    -0.352 N 
ATOM     14  H   UNL     1       1.121   3.043  -2.317  1.00  0.00     0.163 HD
ATOM     15  O   UNL     1       0.528   5.243  -1.575  1.00  0.00    -0.275 OA
BRANCH  13  16
ATOM     16  C   UNL     1       1.886   2.027  -0.695  1.00  0.00     0.152 C 
BRANCH  16  17
ATOM     17  C   UNL     1       1.093   0.748  -0.764  1.00  0.00    -0.015 A 
ATOM     18  C   UNL     1       3.034  -0.730   0.139  1.00  0.00     0.045 C 
ATOM     19  C   UNL     1       1.622  -0.520  -0.299  1.00  0.00    -0.035 A 
ATOM     20  C   UNL     1       0.655  -1.508  -0.290  1.00  0.00     0.068 A 
ATOM     21  S   UNL     1      -0.836  -0.977  -0.919  1.00  0.00    -0.152 S 
ATOM     22  C   UNL     1      -0.206   0.582  -1.217  1.00  0.00     0.070 A 
ENDBRANCH  16  17
ENDBRANCH  13  16
ENDBRANCH  11  12
ENDBRANCH   8  11
ENDBRANCH   6   8
ENDBRANCH   5   6
ENDBRANCH   4   5
ENDBRANCH   3   4
ENDBRANCH   2   3
ENDBRANCH   1   2
BRANCH   1  23
ATOM     23  C   UNL     1      -3.340   6.302   0.854  1.00  0.00     0.188 C 
BRANCH  23  24
ATOM     24  O   UNL     1      -4.269   5.747   1.745  1.00  0.00    -0.376 OA
BRANCH  24  25
ATOM     25  C   UNL     1      -5.433   6.442   2.146  1.00  0.00     0.202 C 
BRANCH  25  26
ATOM     26  C   UNL     1      -5.848   7.849   1.681  1.00  0.00     0.261 C 
BRANCH  26  27
ATOM     27  O   UNL     1      -4.917   8.614   0.918  1.00  0.00    -0.460 OA
BRANCH  27  28
ATOM     28  C   UNL     1      -4.008   9.334   1.618  1.00  0.00     0.338 C 
ATOM     29  O   UNL     1      -3.896   9.410   2.829  1.00  0.00    -0.246 OA
BRANCH  28  30
ATOM     30  C   UNL     1      -3.010   9.826   0.643  1.00  0.00     0.060 A 
ATOM     31  C   UNL     1      -1.667   9.441   0.787  1.00  0.00     0.016 A 
ATOM     32  C   UNL     1      -3.410  10.615  -0.436  1.00  0.00     0.016 A 
ATOM     33  C   UNL     1      -0.713   9.865  -0.137  1.00  0.00     0.010 A 
ATOM     34  C   UNL     1      -2.450  11.069  -1.339  1.00  0.00     0.010 A 
ATOM     35  C   UNL     1      -1.095  10.724  -1.173  1.00  0.00    -0.014 A 
BRANCH  35  36
ATOM     36  C   UNL     1      -0.075  11.486  -1.929  1.00  0.00     0.031 A 
ATOM     37  C   UNL     1       0.238  12.877  -1.454  1.00  0.00     0.074 A 
ATOM     38  C   UNL     1       0.527  10.991  -3.022  1.00  0.00     0.049 A 
ATOM     39  N   UNL     1       0.949  13.815  -2.023  1.00  0.00    -0.248 NA
ATOM     40  C   UNL     1      -0.348  13.265  -0.160  1.00  0.00     0.031 C 
ATOM     41  C   UNL     1       0.371   9.635  -3.541  1.00  0.00     0.029 A 
ATOM     42  N   UNL     1       1.382  11.600  -3.907  1.00  0.00    -0.354 N 
ATOM     43  C   UNL     1       0.868  14.911  -1.173  1.00  0.00     0.074 A 
ATOM     44  C   UNL     1       0.030  14.528  -0.060  1.00  0.00     0.031 C 
ATOM     45  C   UNL     1       1.093   9.520  -4.670  1.00  0.00     0.029 A 
ATOM     46  C   UNL     1       1.720  10.806  -4.976  1.00  0.00     0.049 A 
ATOM     47  H   UNL     1       1.721  12.516  -3.788  1.00  0.00     0.167 HD
ATOM     48  C   UNL     1       1.438  16.130  -1.313  1.00  0.00     0.037 A 
ATOM     49  C   UNL     1       2.427  11.102  -6.084  1.00  0.00     0.037 A 
ATOM     50  C   UNL     1       2.271  16.504  -2.423  1.00  0.00     0.049 A 
ATOM     51  C   UNL     1       2.972  12.496  -6.269  1.00  0.00     0.074 A 
ATOM     52  C   UNL     1       2.916  17.706  -2.648  1.00  0.00     0.029 A 
ATOM     53  N   UNL     1       2.561  15.682  -3.502  1.00  0.00    -0.354 N 
ATOM     54  N   UNL     1       2.904  13.528  -5.462  1.00  0.00    -0.248 NA
ATOM     55  C   UNL     1       3.687  12.769  -7.525  1.00  0.00     0.031 C 
ATOM     56  C   UNL     1       3.545  17.634  -3.894  1.00  0.00     0.029 A 
ATOM     57  C   UNL     1       3.349  16.364  -4.413  1.00  0.00     0.049 A 
ATOM     58  H   UNL     1       2.252  14.754  -3.605  1.00  0.00     0.167 HD
ATOM     59  C   UNL     1       3.605  14.553  -6.088  1.00  0.00     0.074 A 
ATOM     60  C   UNL     1       4.083  14.022  -7.347  1.00  0.00     0.031 C 
ATOM     61  C   UNL     1       3.842  15.815  -5.652  1.00  0.00     0.037 A 
BRANCH  48  62
ATOM     62  C   UNL     1       1.125  17.157  -0.266  1.00  0.00     0.057 A 
ATOM     63  C   UNL     1       1.603  17.058   1.048  1.00  0.00     0.134 A 
ATOM     64  C   UNL     1       0.325  18.263  -0.580  1.00  0.00     0.134 A 
ATOM     65  F   UNL     1       2.359  16.013   1.420  1.00  0.00    -0.206 F 
ATOM     66  C   UNL     1       1.268  18.003   2.019  1.00  0.00     0.040 A 
ATOM     67  C   UNL     1       0.010  19.231   0.374  1.00  0.00     0.040 A 
ATOM     68  F   UNL     1      -0.165  18.421  -1.819  1.00  0.00    -0.206 F 
ATOM     69  C   UNL     1       0.473  19.097   1.681  1.00  0.00     0.006 A 
ENDBRANCH  48  62
BRANCH  49  70
ATOM     70  C   UNL     1       2.661  10.061  -7.117  1.00  0.00     0.057 A 
ATOM     71  C   UNL     1       3.943   9.545  -7.339  1.00  0.00     0.134 A 
ATOM     72  C   UNL     1       1.622   9.571  -7.918  1.00  0.00     0.134 A 
ATOM     73  F   UNL     1       4.984   9.996  -6.624  1.00  0.00    -0.206 F 
ATOM     74  C   UNL     1       4.187   8.588  -8.326  1.00  0.00     0.040 A 
ATOM     75  C   UNL     1       1.847   8.596  -8.891  1.00  0.00     0.040 A 
ATOM     76  F   UNL     1       0.372  10.030  -7.763  1.00  0.00    -0.206 F 
ATOM     77  C   UNL     1       3.135   8.106  -9.101  1.00  0.00     0.006 A 
ENDBRANCH  49  70
BRANCH  61  78
ATOM     78  C   UNL     1       4.714  16.700  -6.496  1.00  0.00     0.057 A 
ATOM     79  C   UNL     1       4.269  17.261  -7.699  1.00  0.00     0.134 A 
ATOM     80  C   UNL     1       5.992  17.061  -6.048  1.00  0.00     0.134 A 
ATOM     81  F   UNL     1       3.060  16.950  -8.190  1.00  0.00    -0.206 F 
ATOM     82  C   UNL     1       5.068  18.143  -8.430  1.00  0.00     0.040 A 
ATOM     83  C   UNL     1       6.788  17.963  -6.755  1.00  0.00     0.040 A 
ATOM     84  F   UNL     1       6.475  16.568  -4.897  1.00  0.00    -0.206 F 
ATOM     85  C   UNL     1       6.327  18.505  -7.952  1.00  0.00     0.006 A 
ENDBRANCH  61  78
ENDBRANCH  35  36
ENDBRANCH  28  30
ENDBRANCH  27  28
ENDBRANCH  26  27
ENDBRANCH  25  26
ENDBRANCH  24  25
ENDBRANCH  23  24
ENDBRANCH   1  23
TORSDOF 21
