REMARK SMILES COc1ccc2c(c1)[C@H]([NH2+][C@@H](C(=O)OCCOCCOCCOC(=O)c1ccc(-c3c4nc(c(-c5c(F)cccc5F)c5ccc([nH]5)c(-c5c(F)cccc5F)c5nc(c(-c6c(F)cccc6F)c6ccc3[nH]6)C=C5)C=C4)cc1)C1CC1)CC2
REMARK SMILES IDX 18 1 17 2 16 3 15 4 14 5 12 6 13 7 11 8 10 9 9 12 3 13 4 14
REMARK SMILES IDX 8 15 5 16 7 17 6 18 84 19 83 20 2 21 1 22 80 23 81 24 82 25
REMARK SMILES IDX 19 26 20 27 21 28 22 29 23 30 24 31 25 32 26 33 27 34 79 35
REMARK SMILES IDX 28 36 78 37 29 38 30 39 31 40 72 41 32 42 77 43 71 44 73 45
REMARK SMILES IDX 33 46 76 47 70 48 69 49 34 51 60 52 43 53 59 54 44 55 47 56
REMARK SMILES IDX 58 57 74 58 45 59 46 60 57 62 75 63 48 64 35 65 36 66 41 67
REMARK SMILES IDX 37 68 38 69 40 70 42 71 39 72 61 73 62 74 67 75 63 76 64 77
REMARK SMILES IDX 66 78 68 79 65 80 49 81 50 82 55 83 51 84 52 85 54 86 56 87
REMARK SMILES IDX 53 88
REMARK H PARENT 10 10 10 11 73 50 47 61
REMARK Flexibility Score: inf
ROOT
ATOM      1  C   UNL     1      -5.187   1.881  -6.324  1.00  0.00     0.188 C 
ENDROOT
BRANCH   1   2
ATOM      2  O   UNL     1      -5.781   1.187  -7.410  1.00  0.00    -0.376 OA
BRANCH   2   3
ATOM      3  C   UNL     1      -4.914   0.693  -8.432  1.00  0.00     0.202 C 
BRANCH   3   4
ATOM      4  C   UNL     1      -3.810   1.616  -8.989  1.00  0.00     0.261 C 
BRANCH   4   5
ATOM      5  O   UNL     1      -2.897   2.142  -7.995  1.00  0.00    -0.459 OA
BRANCH   5   6
ATOM      6  C   UNL     1      -2.564   3.458  -8.123  1.00  0.00     0.365 C 
ATOM      7  O   UNL     1      -2.940   4.164  -9.058  1.00  0.00    -0.245 OA
BRANCH   6   8
ATOM      8  C   UNL     1      -1.837   4.077  -6.880  1.00  0.00     0.297 C 
BRANCH   8   9
ATOM      9  N   UNL     1      -0.978   3.109  -6.157  1.00  0.00    -0.328 N 
ATOM     10  H   UNL     1      -1.579   2.502  -5.599  1.00  0.00     0.347 HD
ATOM     11  H   UNL     1      -0.450   2.599  -6.865  1.00  0.00     0.347 HD
BRANCH   9  12
ATOM     12  C   UNL     1      -0.003   3.726  -5.271  1.00  0.00     0.215 C 
ATOM     13  C   UNL     1       0.964   1.341  -2.379  1.00  0.00     0.119 A 
ATOM     14  C   UNL     1       2.272   1.819  -2.196  1.00  0.00     0.047 A 
ATOM     15  C   UNL     1       0.161   1.855  -3.414  1.00  0.00     0.056 A 
ATOM     16  C   UNL     1       2.789   2.815  -3.027  1.00  0.00     0.008 A 
ATOM     17  C   UNL     1       0.676   2.848  -4.241  1.00  0.00     0.016 A 
ATOM     18  C   UNL     1       1.986   3.314  -4.037  1.00  0.00    -0.038 A 
ATOM     19  C   UNL     1       2.308   4.443  -4.968  1.00  0.00     0.042 C 
ATOM     20  C   UNL     1       1.223   4.261  -6.033  1.00  0.00     0.075 C 
BRANCH  13  21
ATOM     21  O   UNL     1       0.371   0.376  -1.606  1.00  0.00    -0.497 OA
ATOM     22  C   UNL     1       0.973   0.109  -0.342  1.00  0.00     0.278 C 
ENDBRANCH  13  21
ENDBRANCH   9  12
ENDBRANCH   8   9
BRANCH   8  23
ATOM     23  C   UNL     1      -2.870   4.856  -6.064  1.00  0.00     0.059 C 
ATOM     24  C   UNL     1      -2.945   5.099  -4.567  1.00  0.00     0.011 C 
ATOM     25  C   UNL     1      -2.445   6.185  -5.473  1.00  0.00     0.011 C 
ENDBRANCH   8  23
ENDBRANCH   6   8
ENDBRANCH   5   6
ENDBRANCH   4   5
ENDBRANCH   3   4
ENDBRANCH   2   3
ENDBRANCH   1   2
BRANCH   1  26
ATOM     26  C   UNL     1      -4.047   1.196  -5.564  1.00  0.00     0.188 C 
BRANCH  26  27
ATOM     27  O   UNL     1      -3.501   0.065  -6.193  1.00  0.00    -0.376 OA
BRANCH  27  28
ATOM     28  C   UNL     1      -3.595  -1.216  -5.588  1.00  0.00     0.202 C 
BRANCH  28  29
ATOM     29  C   UNL     1      -4.830  -1.682  -4.784  1.00  0.00     0.261 C 
BRANCH  29  30
ATOM     30  O   UNL     1      -5.500  -0.721  -3.953  1.00  0.00    -0.460 OA
BRANCH  30  31
ATOM     31  C   UNL     1      -4.883  -0.361  -2.801  1.00  0.00     0.338 C 
ATOM     32  O   UNL     1      -3.851  -0.829  -2.348  1.00  0.00    -0.246 OA
BRANCH  31  33
ATOM     33  C   UNL     1      -5.513   0.901  -2.330  1.00  0.00     0.060 A 
ATOM     34  C   UNL     1      -4.704   2.041  -2.199  1.00  0.00     0.016 A 
ATOM     35  C   UNL     1      -6.885   0.986  -2.088  1.00  0.00     0.016 A 
ATOM     36  C   UNL     1      -5.261   3.260  -1.803  1.00  0.00     0.010 A 
ATOM     37  C   UNL     1      -7.436   2.201  -1.663  1.00  0.00     0.010 A 
ATOM     38  C   UNL     1      -6.624   3.338  -1.492  1.00  0.00    -0.014 A 
BRANCH  38  39
ATOM     39  C   UNL     1      -7.153   4.548  -0.811  1.00  0.00     0.031 A 
ATOM     40  C   UNL     1      -7.294   4.520   0.688  1.00  0.00     0.074 A 
ATOM     41  C   UNL     1      -7.476   5.664  -1.490  1.00  0.00     0.049 A 
ATOM     42  N   UNL     1      -7.762   5.434   1.499  1.00  0.00    -0.248 NA
ATOM     43  C   UNL     1      -6.843   3.291   1.360  1.00  0.00     0.031 C 
ATOM     44  C   UNL     1      -7.349   5.846  -2.933  1.00  0.00     0.029 A 
ATOM     45  N   UNL     1      -7.990   6.858  -1.043  1.00  0.00    -0.354 N 
ATOM     46  C   UNL     1      -7.669   4.889   2.773  1.00  0.00     0.074 A 
ATOM     47  C   UNL     1      -7.128   3.555   2.626  1.00  0.00     0.031 C 
ATOM     48  C   UNL     1      -7.787   7.076  -3.257  1.00  0.00     0.029 A 
ATOM     49  C   UNL     1      -8.257   7.755  -2.049  1.00  0.00     0.049 A 
ATOM     50  H   UNL     1      -8.152   7.052  -0.091  1.00  0.00     0.167 HD
ATOM     51  C   UNL     1      -7.997   5.449   3.962  1.00  0.00     0.037 A 
ATOM     52  C   UNL     1      -8.836   8.972  -2.002  1.00  0.00     0.037 A 
ATOM     53  C   UNL     1      -8.539   6.774   4.115  1.00  0.00     0.049 A 
ATOM     54  C   UNL     1      -9.270   9.543  -0.674  1.00  0.00     0.074 A 
ATOM     55  C   UNL     1      -8.881   7.434   5.282  1.00  0.00     0.029 A 
ATOM     56  N   UNL     1      -8.831   7.635   3.068  1.00  0.00    -0.354 N 
ATOM     57  N   UNL     1      -9.149   9.033   0.528  1.00  0.00    -0.248 NA
ATOM     58  C   UNL     1      -9.919  10.863  -0.699  1.00  0.00     0.031 C 
ATOM     59  C   UNL     1      -9.438   8.670   4.939  1.00  0.00     0.029 A 
ATOM     60  C   UNL     1      -9.381   8.807   3.561  1.00  0.00     0.049 A 
ATOM     61  H   UNL     1      -8.671   7.442   2.116  1.00  0.00     0.167 HD
ATOM     62  C   UNL     1      -9.679   9.978   1.401  1.00  0.00     0.074 A 
ATOM     63  C   UNL     1     -10.104  11.100   0.592  1.00  0.00     0.031 C 
ATOM     64  C   UNL     1      -9.801   9.922   2.750  1.00  0.00     0.037 A 
BRANCH  51  65
ATOM     65  C   UNL     1      -7.811   4.612   5.195  1.00  0.00     0.057 A 
ATOM     66  C   UNL     1      -6.542   4.293   5.694  1.00  0.00     0.134 A 
ATOM     67  C   UNL     1      -8.922   4.148   5.912  1.00  0.00     0.134 A 
ATOM     68  F   UNL     1      -5.436   4.693   5.047  1.00  0.00    -0.206 F 
ATOM     69  C   UNL     1      -6.383   3.524   6.848  1.00  0.00     0.040 A 
ATOM     70  C   UNL     1      -8.776   3.403   7.082  1.00  0.00     0.040 A 
ATOM     71  F   UNL     1     -10.166   4.420   5.491  1.00  0.00    -0.206 F 
ATOM     72  C   UNL     1      -7.504   3.084   7.550  1.00  0.00     0.006 A 
ENDBRANCH  51  65
BRANCH  52  73
ATOM     73  C   UNL     1      -9.069   9.739  -3.255  1.00  0.00     0.057 A 
ATOM     74  C   UNL     1      -8.398  10.940  -3.511  1.00  0.00     0.134 A 
ATOM     75  C   UNL     1     -10.004   9.309  -4.205  1.00  0.00     0.134 A 
ATOM     76  F   UNL     1      -7.513  11.421  -2.626  1.00  0.00    -0.206 F 
ATOM     77  C   UNL     1      -8.661  11.696  -4.655  1.00  0.00     0.040 A 
ATOM     78  C   UNL     1     -10.255  10.040  -5.368  1.00  0.00     0.040 A 
ATOM     79  F   UNL     1     -10.687   8.170  -4.018  1.00  0.00    -0.206 F 
ATOM     80  C   UNL     1      -9.588  11.242  -5.591  1.00  0.00     0.006 A 
ENDBRANCH  52  73
BRANCH  64  81
ATOM     81  C   UNL     1     -10.385  11.121   3.446  1.00  0.00     0.057 A 
ATOM     82  C   UNL     1     -11.738  11.466   3.326  1.00  0.00     0.134 A 
ATOM     83  C   UNL     1      -9.588  11.924   4.274  1.00  0.00     0.134 A 
ATOM     84  F   UNL     1     -12.556  10.747   2.543  1.00  0.00    -0.206 F 
ATOM     85  C   UNL     1     -12.269  12.581   3.978  1.00  0.00     0.040 A 
ATOM     86  C   UNL     1     -10.114  13.023   4.956  1.00  0.00     0.040 A 
ATOM     87  F   UNL     1      -8.287  11.646   4.445  1.00  0.00    -0.206 F 
ATOM     88  C   UNL     1     -11.457  13.359   4.801  1.00  0.00     0.006 A 
ENDBRANCH  64  81
ENDBRANCH  38  39
ENDBRANCH  31  33
ENDBRANCH  30  31
ENDBRANCH  29  30
ENDBRANCH  28  29
ENDBRANCH  27  28
ENDBRANCH  26  27
ENDBRANCH   1  26
TORSDOF 21
