REMARK SMILES [NH3+][C@@H]1CCCCC[C@H]1C(=O)N1[C@@H](C2CC2)SC[C@H]1C(=O)OCCOCCOCCOC(=O)c1ccc(-c2c3nc(c(-c4c(F)cccc4F)c4ccc([nH]4)c(-c4c(F)cccc4F)c4nc(c(-c5c(F)cccc5F)c5ccc2[nH]5)C=C4)C=C3)cc1
REMARK SMILES IDX 24 1 23 2 22 3 21 4 19 5 20 6 18 7 11 8 12 9 16 10 17 11
REMARK SMILES IDX 9 12 10 13 8 14 2 15 1 16 3 20 4 21 7 23 6 24 5 25 13 27
REMARK SMILES IDX 14 28 15 29 25 30 26 31 27 32 28 33 29 34 30 35 31 36 32 37
REMARK SMILES IDX 33 38 34 39 86 40 35 41 85 42 36 43 37 44 38 45 79 46 39 47
REMARK SMILES IDX 84 48 78 49 80 50 40 51 83 52 77 53 76 54 41 56 67 57 50 58
REMARK SMILES IDX 66 59 51 60 54 61 65 62 81 63 52 64 53 65 64 67 82 68 55 69
REMARK SMILES IDX 42 70 43 71 48 72 44 73 45 74 47 75 49 76 46 77 68 78 69 79
REMARK SMILES IDX 74 80 70 81 71 82 73 83 75 84 72 85 56 86 57 87 62 88 58 89
REMARK SMILES IDX 59 90 61 91 63 92 60 93
REMARK H PARENT 1 17 1 18 1 19 80 55 54 66
REMARK Flexibility Score: 90.00
ROOT
ATOM      1  O   UNL     1      -5.316   3.289   1.616  1.00  0.00    -0.376 OA
ENDROOT
BRANCH   1   2
ATOM      2  C   UNL     1      -4.691   4.032   2.650  1.00  0.00     0.202 C 
BRANCH   2   3
ATOM      3  C   UNL     1      -4.265   3.232   3.881  1.00  0.00     0.261 C 
BRANCH   3   4
ATOM      4  O   UNL     1      -3.375   2.132   3.581  1.00  0.00    -0.462 OA
BRANCH   4   5
ATOM      5  C   UNL     1      -3.801   0.904   3.956  1.00  0.00     0.329 C 
ATOM      6  O   UNL     1      -4.861   0.703   4.549  1.00  0.00    -0.250 OA
BRANCH   5   7
ATOM      7  C   UNL     1      -2.807  -0.252   3.721  1.00  0.00     0.206 C 
ATOM      8  N   UNL     1      -1.590  -0.232   2.869  1.00  0.00    -0.315 N 
ATOM      9  C   UNL     1      -0.374   0.051   3.603  1.00  0.00     0.147 C 
ATOM     10  S   UNL     1      -0.604  -0.643   5.241  1.00  0.00    -0.134 SA
ATOM     11  C   UNL     1      -2.402  -0.739   5.118  1.00  0.00     0.109 C 
BRANCH   8  12
ATOM     12  C   UNL     1      -1.733  -0.591   1.545  1.00  0.00     0.233 C 
ATOM     13  O   UNL     1      -2.838  -0.369   1.019  1.00  0.00    -0.274 OA
BRANCH  12  14
ATOM     14  C   UNL     1      -0.765  -1.520   0.739  1.00  0.00     0.136 C 
BRANCH  14  15
ATOM     15  C   UNL     1       0.772  -1.355   0.763  1.00  0.00     0.193 C 
BRANCH  15  16
ATOM     16  N   UNL     1       1.141  -0.059   0.185  1.00  0.00    -0.354 N 
ATOM     17  H   UNL     1       2.156   0.045   0.203  1.00  0.00     0.344 HD
ATOM     18  H   UNL     1       0.713   0.690   0.729  1.00  0.00     0.344 HD
ATOM     19  H   UNL     1       0.811  -0.010  -0.779  1.00  0.00     0.344 HD
ENDBRANCH  15  16
BRANCH  15  20
ATOM     20  C   UNL     1       1.587  -2.426  -0.010  1.00  0.00     0.066 C 
BRANCH  20  21
ATOM     21  C   UNL     1       1.545  -3.812   0.635  1.00  0.00     0.006 CG0
ATOM     22  G   UNL     1       0.404  -4.692   0.143  1.00  0.00     0.000 G0
ENDBRANCH  20  21
ENDBRANCH  15  20
ENDBRANCH  14  15
BRANCH  14  23
ATOM     23  C   UNL     1      -1.264  -2.963   1.013  1.00  0.00     0.020 C 
BRANCH  23  24
ATOM     24  C   UNL     1      -0.912  -3.963  -0.090  1.00  0.00     0.001 C 
BRANCH  24  25
ATOM     25  C   UNL     1       0.404  -4.692   0.143  1.00  0.00     0.000 CG0
ATOM     26  G   UNL     1       1.545  -3.812   0.635  1.00  0.00     0.000 G0
ENDBRANCH  24  25
ENDBRANCH  23  24
ENDBRANCH  14  23
ENDBRANCH  12  14
ENDBRANCH   8  12
BRANCH   9  27
ATOM     27  C   UNL     1      -0.044   1.520   3.545  1.00  0.00     0.022 C 
ATOM     28  C   UNL     1      -0.591   2.577   4.478  1.00  0.00     0.007 C 
ATOM     29  C   UNL     1       0.859   2.192   4.562  1.00  0.00     0.007 C 
ENDBRANCH   9  27
ENDBRANCH   5   7
ENDBRANCH   4   5
ENDBRANCH   3   4
ENDBRANCH   2   3
ENDBRANCH   1   2
BRANCH   1  30
ATOM     30  C   UNL     1      -4.534   2.336   0.897  1.00  0.00     0.188 C 
BRANCH  30  31
ATOM     31  C   UNL     1      -3.034   2.606   0.680  1.00  0.00     0.188 C 
BRANCH  31  32
ATOM     32  O   UNL     1      -2.753   3.983   0.454  1.00  0.00    -0.376 OA
BRANCH  32  33
ATOM     33  C   UNL     1      -1.992   4.238  -0.717  1.00  0.00     0.202 C 
BRANCH  33  34
ATOM     34  C   UNL     1      -2.910   4.428  -1.926  1.00  0.00     0.261 C 
BRANCH  34  35
ATOM     35  O   UNL     1      -3.781   3.314  -2.196  1.00  0.00    -0.460 OA
BRANCH  35  36
ATOM     36  C   UNL     1      -3.201   2.180  -2.635  1.00  0.00     0.338 C 
ATOM     37  O   UNL     1      -2.004   1.996  -2.832  1.00  0.00    -0.246 OA
BRANCH  36  38
ATOM     38  C   UNL     1      -4.230   1.128  -2.730  1.00  0.00     0.060 A 
ATOM     39  C   UNL     1      -4.047  -0.076  -2.042  1.00  0.00     0.016 A 
ATOM     40  C   UNL     1      -5.362   1.317  -3.526  1.00  0.00     0.016 A 
ATOM     41  C   UNL     1      -4.982  -1.108  -2.165  1.00  0.00     0.010 A 
ATOM     42  C   UNL     1      -6.285   0.277  -3.668  1.00  0.00     0.010 A 
ATOM     43  C   UNL     1      -6.086  -0.953  -3.013  1.00  0.00    -0.014 A 
BRANCH  43  44
ATOM     44  C   UNL     1      -6.929  -2.118  -3.386  1.00  0.00     0.031 A 
ATOM     45  C   UNL     1      -6.676  -2.779  -4.714  1.00  0.00     0.074 A 
ATOM     46  C   UNL     1      -7.906  -2.580  -2.585  1.00  0.00     0.049 A 
ATOM     47  N   UNL     1      -7.377  -3.688  -5.342  1.00  0.00    -0.248 NA
ATOM     48  C   UNL     1      -5.467  -2.347  -5.433  1.00  0.00     0.031 C 
ATOM     49  C   UNL     1      -8.211  -2.084  -1.246  1.00  0.00     0.029 A 
ATOM     50  N   UNL     1      -8.837  -3.567  -2.802  1.00  0.00    -0.354 N 
ATOM     51  C   UNL     1      -6.710  -3.915  -6.539  1.00  0.00     0.074 A 
ATOM     52  C   UNL     1      -5.557  -3.042  -6.556  1.00  0.00     0.031 C 
ATOM     53  C   UNL     1      -9.273  -2.757  -0.766  1.00  0.00     0.029 A 
ATOM     54  C   UNL     1      -9.750  -3.694  -1.783  1.00  0.00     0.049 A 
ATOM     55  H   UNL     1      -8.849  -4.130  -3.609  1.00  0.00     0.167 HD
ATOM     56  C   UNL     1      -7.031  -4.773  -7.537  1.00  0.00     0.037 A 
ATOM     57  C   UNL     1     -10.864  -4.450  -1.700  1.00  0.00     0.037 A 
ATOM     58  C   UNL     1      -8.171  -5.650  -7.515  1.00  0.00     0.049 A 
ATOM     59  C   UNL     1     -11.248  -5.339  -2.856  1.00  0.00     0.074 A 
ATOM     60  C   UNL     1      -8.583  -6.553  -8.479  1.00  0.00     0.029 A 
ATOM     61  N   UNL     1      -9.082  -5.731  -6.473  1.00  0.00    -0.354 N 
ATOM     62  N   UNL     1     -10.627  -5.534  -3.995  1.00  0.00    -0.248 NA
ATOM     63  C   UNL     1     -12.496  -6.107  -2.720  1.00  0.00     0.031 C 
ATOM     64  C   UNL     1      -9.768  -7.151  -8.039  1.00  0.00     0.029 A 
ATOM     65  C   UNL     1     -10.064  -6.658  -6.778  1.00  0.00     0.049 A 
ATOM     66  H   UNL     1      -9.037  -5.208  -5.641  1.00  0.00     0.167 HD
ATOM     67  C   UNL     1     -11.385  -6.469  -4.690  1.00  0.00     0.074 A 
ATOM     68  C   UNL     1     -12.512  -6.806  -3.846  1.00  0.00     0.031 C 
ATOM     69  C   UNL     1     -11.166  -7.003  -5.917  1.00  0.00     0.037 A 
BRANCH  56  70
ATOM     70  C   UNL     1      -6.153  -4.773  -8.753  1.00  0.00     0.057 A 
ATOM     71  C   UNL     1      -4.858  -5.305  -8.736  1.00  0.00     0.134 A 
ATOM     72  C   UNL     1      -6.620  -4.247  -9.964  1.00  0.00     0.134 A 
ATOM     73  F   UNL     1      -4.344  -5.809  -7.604  1.00  0.00    -0.206 F 
ATOM     74  C   UNL     1      -4.049  -5.291  -9.874  1.00  0.00     0.040 A 
ATOM     75  C   UNL     1      -5.832  -4.251 -11.115  1.00  0.00     0.040 A 
ATOM     76  F   UNL     1      -7.854  -3.725 -10.050  1.00  0.00    -0.206 F 
ATOM     77  C   UNL     1      -4.539  -4.768 -11.070  1.00  0.00     0.006 A 
ENDBRANCH  56  70
BRANCH  57  78
ATOM     78  C   UNL     1     -11.726  -4.382  -0.491  1.00  0.00     0.057 A 
ATOM     79  C   UNL     1     -11.852  -5.475   0.375  1.00  0.00     0.134 A 
ATOM     80  C   UNL     1     -12.474  -3.236  -0.192  1.00  0.00     0.134 A 
ATOM     81  F   UNL     1     -11.186  -6.612   0.126  1.00  0.00    -0.206 F 
ATOM     82  C   UNL     1     -12.700  -5.437   1.484  1.00  0.00     0.040 A 
ATOM     83  C   UNL     1     -13.305  -3.175   0.928  1.00  0.00     0.040 A 
ATOM     84  F   UNL     1     -12.407  -2.157  -0.986  1.00  0.00    -0.206 F 
ATOM     85  C   UNL     1     -13.425  -4.281   1.766  1.00  0.00     0.006 A 
ENDBRANCH  57  78
BRANCH  69  86
ATOM     86  C   UNL     1     -12.121  -8.055  -6.402  1.00  0.00     0.057 A 
ATOM     87  C   UNL     1     -13.415  -7.742  -6.837  1.00  0.00     0.134 A 
ATOM     88  C   UNL     1     -11.713  -9.392  -6.496  1.00  0.00     0.134 A 
ATOM     89  F   UNL     1     -13.871  -6.483  -6.764  1.00  0.00    -0.206 F 
ATOM     90  C   UNL     1     -14.273  -8.725  -7.336  1.00  0.00     0.040 A 
ATOM     91  C   UNL     1     -12.552 -10.378  -7.016  1.00  0.00     0.040 A 
ATOM     92  F   UNL     1     -10.482  -9.757  -6.106  1.00  0.00    -0.206 F 
ATOM     93  C   UNL     1     -13.838 -10.046  -7.435  1.00  0.00     0.006 A 
ENDBRANCH  69  86
ENDBRANCH  43  44
ENDBRANCH  36  38
ENDBRANCH  35  36
ENDBRANCH  34  35
ENDBRANCH  33  34
ENDBRANCH  32  33
ENDBRANCH  31  32
ENDBRANCH  30  31
ENDBRANCH   1  30
TORSDOF 21
