REMARK SMILES CC1(C)[C@H](C(=O)Nc2ccc(NC(=O)C[NH+]3CCCCC3)cc2)[C@@H]1C(=O)OCCOCCOCCOC(=O)c1ccc(-c2c3nc(c(-c4c(F)cccc4F)c4ccc([nH]4)c(-c4c(F)cccc4F)c4nc(c(-c5c(F)cccc5F)c5ccc2[nH]5)C=C4)C=C3)cc1
REMARK SMILES IDX 30 1 29 2 28 3 27 4 25 5 26 6 24 7 1 8 2 9 3 10 4 11 5 12
REMARK SMILES IDX 6 13 7 14 8 16 9 17 23 18 10 19 22 20 11 21 12 22 13 23
REMARK SMILES IDX 14 25 15 26 16 27 17 28 21 29 18 31 20 32 19 33 31 34 32 35
REMARK SMILES IDX 33 36 34 37 35 38 36 39 37 40 38 41 39 42 40 43 92 44 41 45
REMARK SMILES IDX 91 46 42 47 43 48 44 49 85 50 45 51 90 52 84 53 86 54 46 55
REMARK SMILES IDX 89 56 83 57 82 58 47 60 73 61 56 62 72 63 57 64 60 65 71 66
REMARK SMILES IDX 87 67 58 68 59 69 70 71 88 72 61 73 48 74 49 75 54 76 50 77
REMARK SMILES IDX 51 78 53 79 55 80 52 81 74 82 75 83 80 84 76 85 77 86 79 87
REMARK SMILES IDX 81 88 78 89 62 90 63 91 68 92 64 93 65 94 67 95 69 96 66 97
REMARK H PARENT 7 15 12 24 16 30 86 59 60 70
REMARK Flexibility Score: inf
ROOT
ATOM      1  O   UNL     1      -2.590   1.606   4.442  1.00  0.00    -0.376 OA
ENDROOT
BRANCH   1   2
ATOM      2  C   UNL     1      -3.140   2.614   3.613  1.00  0.00     0.202 C 
BRANCH   2   3
ATOM      3  C   UNL     1      -2.514   2.889   2.244  1.00  0.00     0.261 C 
BRANCH   3   4
ATOM      4  O   UNL     1      -2.268   1.786   1.350  1.00  0.00    -0.463 OA
BRANCH   4   5
ATOM      5  C   UNL     1      -0.960   1.426   1.188  1.00  0.00     0.310 C 
ATOM      6  O   UNL     1      -0.019   1.891   1.831  1.00  0.00    -0.252 OA
BRANCH   5   7
ATOM      7  C   UNL     1      -0.811   0.208   0.366  1.00  0.00     0.118 C 
ATOM      8  C   UNL     1       0.797  -1.736  -0.262  1.00  0.00     0.013 C 
ATOM      9  C   UNL     1       0.477  -0.254  -0.328  1.00  0.00    -0.009 C 
ATOM     10  C   UNL     1       1.733   0.567  -0.279  1.00  0.00     0.013 C 
ATOM     11  C   UNL     1      -0.769   0.118  -1.126  1.00  0.00     0.100 C 
BRANCH  11  12
ATOM     12  C   UNL     1      -0.984   1.138  -2.196  1.00  0.00     0.228 C 
ATOM     13  O   UNL     1      -1.240   0.701  -3.320  1.00  0.00    -0.274 OA
ATOM     14  N   UNL     1      -1.266   2.458  -1.961  1.00  0.00    -0.326 N 
ATOM     15  H   UNL     1      -2.055   2.802  -2.439  1.00  0.00     0.169 HD
BRANCH  14  16
ATOM     16  C   UNL     1      -0.622   3.388  -1.157  1.00  0.00     0.041 A 
ATOM     17  C   UNL     1      -1.412   4.289  -0.474  1.00  0.00     0.028 A 
ATOM     18  C   UNL     1       0.753   3.430  -0.989  1.00  0.00     0.028 A 
ATOM     19  C   UNL     1      -0.853   4.997   0.590  1.00  0.00     0.028 A 
ATOM     20  C   UNL     1       1.314   4.189   0.048  1.00  0.00     0.028 A 
ATOM     21  C   UNL     1       0.498   4.922   0.910  1.00  0.00     0.041 A 
BRANCH  21  22
ATOM     22  N   UNL     1       1.078   5.427   2.090  1.00  0.00    -0.321 N 
ATOM     23  C   UNL     1       0.633   6.228   3.109  1.00  0.00     0.279 C 
ATOM     24  H   UNL     1       2.012   5.139   2.210  1.00  0.00     0.170 HD
ATOM     25  O   UNL     1       1.359   6.325   4.109  1.00  0.00    -0.268 OA
BRANCH  23  26
ATOM     26  C   UNL     1      -0.699   6.994   3.069  1.00  0.00     0.363 C 
BRANCH  26  27
ATOM     27  N   UNL     1      -0.865   7.679   1.787  1.00  0.00    -0.327 N 
ATOM     28  C   UNL     1      -2.239   7.985   1.407  1.00  0.00     0.262 C 
ATOM     29  C   UNL     1       0.033   8.807   1.575  1.00  0.00     0.262 C 
ATOM     30  H   UNL     1      -0.567   6.957   1.130  1.00  0.00     0.348 HD
ATOM     31  C   UNL     1      -2.262   8.195  -0.110  1.00  0.00     0.062 C 
ATOM     32  C   UNL     1       0.092   9.101   0.075  1.00  0.00     0.062 C 
ATOM     33  C   UNL     1      -1.298   9.300  -0.531  1.00  0.00     0.012 C 
ENDBRANCH  26  27
ENDBRANCH  23  26
ENDBRANCH  21  22
ENDBRANCH  14  16
ENDBRANCH  11  12
ENDBRANCH   5   7
ENDBRANCH   4   5
ENDBRANCH   3   4
ENDBRANCH   2   3
ENDBRANCH   1   2
BRANCH   1  34
ATOM     34  C   UNL     1      -2.286   0.346   3.864  1.00  0.00     0.188 C 
BRANCH  34  35
ATOM     35  C   UNL     1      -3.363  -0.371   3.021  1.00  0.00     0.188 C 
BRANCH  35  36
ATOM     36  O   UNL     1      -4.513   0.402   2.779  1.00  0.00    -0.376 OA
BRANCH  36  37
ATOM     37  C   UNL     1      -5.646   0.205   3.606  1.00  0.00     0.202 C 
BRANCH  37  38
ATOM     38  C   UNL     1      -5.569  -0.180   5.102  1.00  0.00     0.261 C 
BRANCH  38  39
ATOM     39  O   UNL     1      -4.337  -0.699   5.623  1.00  0.00    -0.460 OA
BRANCH  39  40
ATOM     40  C   UNL     1      -4.174  -2.043   5.615  1.00  0.00     0.338 C 
ATOM     41  O   UNL     1      -4.954  -2.871   5.182  1.00  0.00    -0.246 OA
BRANCH  40  42
ATOM     42  C   UNL     1      -2.780  -2.355   6.016  1.00  0.00     0.060 A 
ATOM     43  C   UNL     1      -1.936  -2.979   5.084  1.00  0.00     0.016 A 
ATOM     44  C   UNL     1      -2.299  -2.025   7.285  1.00  0.00     0.016 A 
ATOM     45  C   UNL     1      -0.624  -3.309   5.431  1.00  0.00     0.010 A 
ATOM     46  C   UNL     1      -0.994  -2.387   7.643  1.00  0.00     0.010 A 
ATOM     47  C   UNL     1      -0.164  -3.066   6.731  1.00  0.00    -0.014 A 
BRANCH  47  48
ATOM     48  C   UNL     1       1.077  -3.736   7.201  1.00  0.00     0.031 A 
ATOM     49  C   UNL     1       0.936  -5.041   7.941  1.00  0.00     0.074 A 
ATOM     50  C   UNL     1       2.301  -3.238   6.952  1.00  0.00     0.049 A 
ATOM     51  N   UNL     1       1.857  -5.807   8.468  1.00  0.00    -0.248 NA
ATOM     52  C   UNL     1      -0.436  -5.548   8.109  1.00  0.00     0.031 C 
ATOM     53  C   UNL     1       2.584  -2.012   6.210  1.00  0.00     0.029 A 
ATOM     54  N   UNL     1       3.541  -3.711   7.308  1.00  0.00    -0.354 N 
ATOM     55  C   UNL     1       1.176  -6.879   9.033  1.00  0.00     0.074 A 
ATOM     56  C   UNL     1      -0.235  -6.649   8.815  1.00  0.00     0.031 C 
ATOM     57  C   UNL     1       3.915  -1.821   6.177  1.00  0.00     0.029 A 
ATOM     58  C   UNL     1       4.576  -2.896   6.918  1.00  0.00     0.049 A 
ATOM     59  H   UNL     1       3.676  -4.555   7.796  1.00  0.00     0.167 HD
ATOM     60  C   UNL     1       1.679  -7.964   9.668  1.00  0.00     0.037 A 
ATOM     61  C   UNL     1       5.901  -2.997   7.151  1.00  0.00     0.037 A 
ATOM     62  C   UNL     1       3.081  -8.193   9.893  1.00  0.00     0.049 A 
ATOM     63  C   UNL     1       6.432  -4.176   7.929  1.00  0.00     0.074 A 
ATOM     64  C   UNL     1       3.689  -9.268  10.517  1.00  0.00     0.029 A 
ATOM     65  N   UNL     1       4.094  -7.327   9.511  1.00  0.00    -0.354 N 
ATOM     66  N   UNL     1       5.784  -5.197   8.435  1.00  0.00    -0.248 NA
ATOM     67  C   UNL     1       7.884  -4.217   8.162  1.00  0.00     0.031 C 
ATOM     68  C   UNL     1       5.065  -9.026  10.563  1.00  0.00     0.029 A 
ATOM     69  C   UNL     1       5.321  -7.832   9.908  1.00  0.00     0.049 A 
ATOM     70  H   UNL     1       3.961  -6.479   9.028  1.00  0.00     0.167 HD
ATOM     71  C   UNL     1       6.749  -6.018   9.010  1.00  0.00     0.074 A 
ATOM     72  C   UNL     1       8.028  -5.380   8.782  1.00  0.00     0.031 C 
ATOM     73  C   UNL     1       6.591  -7.196   9.664  1.00  0.00     0.037 A 
BRANCH  60  74
ATOM     74  C   UNL     1       0.697  -8.972  10.193  1.00  0.00     0.057 A 
ATOM     75  C   UNL     1      -0.045  -9.800   9.341  1.00  0.00     0.134 A 
ATOM     76  C   UNL     1       0.510  -9.131  11.572  1.00  0.00     0.134 A 
ATOM     77  F   UNL     1       0.074  -9.688   8.009  1.00  0.00    -0.206 F 
ATOM     78  C   UNL     1      -0.956 -10.733   9.841  1.00  0.00     0.040 A 
ATOM     79  C   UNL     1      -0.376 -10.080  12.084  1.00  0.00     0.040 A 
ATOM     80  F   UNL     1       1.190  -8.372  12.444  1.00  0.00    -0.206 F 
ATOM     81  C   UNL     1      -1.117 -10.880  11.217  1.00  0.00     0.006 A 
ENDBRANCH  60  74
BRANCH  61  82
ATOM     82  C   UNL     1       6.830  -1.949   6.654  1.00  0.00     0.057 A 
ATOM     83  C   UNL     1       7.772  -2.224   5.655  1.00  0.00     0.134 A 
ATOM     84  C   UNL     1       6.825  -0.656   7.193  1.00  0.00     0.134 A 
ATOM     85  F   UNL     1       7.848  -3.451   5.118  1.00  0.00    -0.206 F 
ATOM     86  C   UNL     1       8.686  -1.261   5.224  1.00  0.00     0.040 A 
ATOM     87  C   UNL     1       7.715   0.325   6.752  1.00  0.00     0.040 A 
ATOM     88  F   UNL     1       5.954  -0.329   8.158  1.00  0.00    -0.206 F 
ATOM     89  C   UNL     1       8.655   0.021   5.769  1.00  0.00     0.006 A 
ENDBRANCH  61  82
BRANCH  73  90
ATOM     90  C   UNL     1       7.831  -7.904  10.132  1.00  0.00     0.057 A 
ATOM     91  C   UNL     1       8.611  -7.426  11.192  1.00  0.00     0.134 A 
ATOM     92  C   UNL     1       8.227  -9.109   9.534  1.00  0.00     0.134 A 
ATOM     93  F   UNL     1       8.294  -6.274  11.804  1.00  0.00    -0.206 F 
ATOM     94  C   UNL     1       9.754  -8.104  11.622  1.00  0.00     0.040 A 
ATOM     95  C   UNL     1       9.349  -9.812   9.975  1.00  0.00     0.040 A 
ATOM     96  F   UNL     1       7.519  -9.633   8.522  1.00  0.00    -0.206 F 
ATOM     97  C   UNL     1      10.121  -9.304  11.017  1.00  0.00     0.006 A 
ENDBRANCH  73  90
ENDBRANCH  47  48
ENDBRANCH  40  42
ENDBRANCH  39  40
ENDBRANCH  38  39
ENDBRANCH  37  38
ENDBRANCH  36  37
ENDBRANCH  35  36
ENDBRANCH  34  35
ENDBRANCH   1  34
TORSDOF 22
