REMARK SMILES CC(C)[C@H](C)CNC(=O)N1CC(n2cc(C(=O)OCCOCCOCCOC(=O)c3ccc(-c4c5nc(c(-c6c(F)cccc6F)c6ccc([nH]6)c(-c6c(F)cccc6F)c6nc(c(-c7c(F)cccc7F)c7ccc4[nH]7)C=C6)C=C5)cc3)nn2)C1
REMARK SMILES IDX 22 1 21 2 20 3 19 4 18 5 16 6 17 7 15 8 13 9 14 10 85 11
REMARK SMILES IDX 84 12 12 13 7 14 8 15 9 17 10 18 11 19 86 20 6 21 4 22 5 23
REMARK SMILES IDX 2 24 1 25 3 26 23 27 24 28 25 29 26 30 27 31 28 32 29 33
REMARK SMILES IDX 30 34 31 35 83 36 32 37 82 38 33 39 34 40 35 41 76 42 36 43
REMARK SMILES IDX 81 44 75 45 77 46 37 47 80 48 74 49 73 50 38 52 64 53 47 54
REMARK SMILES IDX 63 55 48 56 51 57 62 58 78 59 49 60 50 61 61 63 79 64 52 65
REMARK SMILES IDX 39 66 40 67 45 68 41 69 42 70 44 71 46 72 43 73 65 74 66 75
REMARK SMILES IDX 71 76 67 77 68 78 70 79 72 80 69 81 53 82 54 83 59 84 55 85
REMARK SMILES IDX 56 86 58 87 60 88 57 89
REMARK H PARENT 7 16 77 51 51 62
REMARK Flexibility Score: inf
ROOT
ATOM      1  C   UNL     1     -11.693  -2.074   4.401  1.00  0.00     0.188 C 
ENDROOT
BRANCH   1   2
ATOM      2  O   UNL     1     -12.666  -2.982   3.900  1.00  0.00    -0.376 OA
BRANCH   2   3
ATOM      3  C   UNL     1     -12.264  -4.255   3.403  1.00  0.00     0.202 C 
BRANCH   3   4
ATOM      4  C   UNL     1     -11.082  -4.389   2.421  1.00  0.00     0.261 C 
BRANCH   4   5
ATOM      5  O   UNL     1      -9.863  -3.751   2.835  1.00  0.00    -0.458 OA
BRANCH   5   6
ATOM      6  C   UNL     1      -9.439  -2.708   2.063  1.00  0.00     0.360 C 
ATOM      7  O   UNL     1      -9.951  -2.397   0.991  1.00  0.00    -0.244 OA
BRANCH   6   8
ATOM      8  C   UNL     1      -8.374  -1.930   2.681  1.00  0.00     0.190 A 
ATOM      9  N   UNL     1      -6.704  -1.153   3.830  1.00  0.00    -0.245 N 
ATOM     10  C   UNL     1      -7.498  -2.262   3.700  1.00  0.00     0.147 A 
ATOM     11  N   UNL     1      -7.103  -0.173   3.006  1.00  0.00    -0.066 NA
ATOM     12  N   UNL     1      -8.119  -0.634   2.296  1.00  0.00    -0.123 NA
BRANCH   9  13
ATOM     13  C   UNL     1      -5.484  -1.124   4.580  1.00  0.00     0.148 C 
ATOM     14  N   UNL     1      -1.332  -0.968   3.690  1.00  0.00    -0.338 N 
ATOM     15  C   UNL     1      -2.272  -0.229   4.331  1.00  0.00     0.317 C 
ATOM     16  H   UNL     1      -0.454  -0.988   4.135  1.00  0.00     0.165 HD
ATOM     17  O   UNL     1      -1.889   0.648   5.107  1.00  0.00    -0.249 OA
ATOM     18  N   UNL     1      -3.583  -0.475   4.123  1.00  0.00    -0.320 N 
ATOM     19  C   UNL     1      -4.748   0.225   4.653  1.00  0.00     0.150 C 
ATOM     20  C   UNL     1      -4.337  -1.621   3.678  1.00  0.00     0.150 C 
BRANCH  14  21
ATOM     21  C   UNL     1      -1.401  -1.740   2.453  1.00  0.00     0.121 C 
BRANCH  21  22
ATOM     22  C   UNL     1      -1.069  -0.867   1.222  1.00  0.00     0.008 C 
ATOM     23  C   UNL     1       0.393  -0.397   1.293  1.00  0.00     0.010 C 
BRANCH  22  24
ATOM     24  C   UNL     1      -1.398  -1.517  -0.160  1.00  0.00    -0.013 C 
ATOM     25  C   UNL     1      -0.301  -2.432  -0.713  1.00  0.00     0.008 C 
ATOM     26  C   UNL     1      -2.737  -2.260  -0.183  1.00  0.00     0.008 C 
ENDBRANCH  22  24
ENDBRANCH  21  22
ENDBRANCH  14  21
ENDBRANCH   9  13
ENDBRANCH   6   8
ENDBRANCH   5   6
ENDBRANCH   4   5
ENDBRANCH   3   4
ENDBRANCH   2   3
ENDBRANCH   1   2
BRANCH   1  27
ATOM     27  C   UNL     1     -10.664  -2.553   5.446  1.00  0.00     0.188 C 
BRANCH  27  28
ATOM     28  O   UNL     1     -10.457  -3.951   5.449  1.00  0.00    -0.376 OA
BRANCH  28  29
ATOM     29  C   UNL     1     -10.886  -4.724   6.561  1.00  0.00     0.202 C 
BRANCH  29  30
ATOM     30  C   UNL     1     -12.291  -4.569   7.152  1.00  0.00     0.261 C 
BRANCH  30  31
ATOM     31  O   UNL     1     -12.871  -3.277   7.084  1.00  0.00    -0.460 OA
BRANCH  31  32
ATOM     32  C   UNL     1     -12.466  -2.418   8.040  1.00  0.00     0.338 C 
ATOM     33  O   UNL     1     -11.488  -2.529   8.758  1.00  0.00    -0.246 OA
BRANCH  32  34
ATOM     34  C   UNL     1     -13.447  -1.332   8.130  1.00  0.00     0.060 A 
ATOM     35  C   UNL     1     -13.068  -0.173   8.809  1.00  0.00     0.016 A 
ATOM     36  C   UNL     1     -14.781  -1.577   7.767  1.00  0.00     0.016 A 
ATOM     37  C   UNL     1     -14.057   0.658   9.291  1.00  0.00     0.010 A 
ATOM     38  C   UNL     1     -15.768  -0.753   8.260  1.00  0.00     0.010 A 
ATOM     39  C   UNL     1     -15.395   0.305   9.085  1.00  0.00    -0.014 A 
BRANCH  39  40
ATOM     40  C   UNL     1     -16.400   1.051   9.813  1.00  0.00     0.031 A 
ATOM     41  C   UNL     1     -16.736   2.381   9.267  1.00  0.00     0.074 A 
ATOM     42  C   UNL     1     -17.047   0.517  10.866  1.00  0.00     0.049 A 
ATOM     43  N   UNL     1     -16.633   3.528   9.851  1.00  0.00    -0.248 NA
ATOM     44  C   UNL     1     -17.177   2.446   7.867  1.00  0.00     0.031 C 
ATOM     45  C   UNL     1     -17.029  -0.879  11.315  1.00  0.00     0.029 A 
ATOM     46  N   UNL     1     -17.953   1.103  11.696  1.00  0.00    -0.354 N 
ATOM     47  C   UNL     1     -17.174   4.448   8.961  1.00  0.00     0.074 A 
ATOM     48  C   UNL     1     -17.370   3.755   7.714  1.00  0.00     0.031 C 
ATOM     49  C   UNL     1     -18.038  -1.071  12.192  1.00  0.00     0.029 A 
ATOM     50  C   UNL     1     -18.690   0.203  12.449  1.00  0.00     0.049 A 
ATOM     51  H   UNL     1     -18.075   2.078  11.755  1.00  0.00     0.167 HD
ATOM     52  C   UNL     1     -17.642   5.651   9.382  1.00  0.00     0.037 A 
ATOM     53  C   UNL     1     -19.807   0.477  13.164  1.00  0.00     0.037 A 
ATOM     54  C   UNL     1     -17.083   6.037  10.649  1.00  0.00     0.049 A 
ATOM     55  C   UNL     1     -19.855   1.942  13.395  1.00  0.00     0.074 A 
ATOM     56  C   UNL     1     -15.801   6.231  11.130  1.00  0.00     0.029 A 
ATOM     57  N   UNL     1     -17.888   5.990  11.759  1.00  0.00    -0.354 N 
ATOM     58  N   UNL     1     -19.061   2.593  14.197  1.00  0.00    -0.248 NA
ATOM     59  C   UNL     1     -20.574   2.763  12.432  1.00  0.00     0.031 C 
ATOM     60  C   UNL     1     -15.845   5.824  12.495  1.00  0.00     0.029 A 
ATOM     61  C   UNL     1     -17.153   5.424  12.767  1.00  0.00     0.049 A 
ATOM     62  H   UNL     1     -18.820   6.303  11.819  1.00  0.00     0.167 HD
ATOM     63  C   UNL     1     -18.860   3.818  13.579  1.00  0.00     0.074 A 
ATOM     64  C   UNL     1     -19.910   3.912  12.571  1.00  0.00     0.031 C 
ATOM     65  C   UNL     1     -17.696   4.511  13.746  1.00  0.00     0.037 A 
BRANCH  52  66
ATOM     66  C   UNL     1     -18.876   6.294   8.807  1.00  0.00     0.057 A 
ATOM     67  C   UNL     1     -19.182   7.624   9.137  1.00  0.00     0.134 A 
ATOM     68  C   UNL     1     -19.916   5.571   8.185  1.00  0.00     0.134 A 
ATOM     69  F   UNL     1     -18.284   8.401   9.762  1.00  0.00    -0.206 F 
ATOM     70  C   UNL     1     -20.449   8.176   8.916  1.00  0.00     0.040 A 
ATOM     71  C   UNL     1     -21.166   6.130   7.910  1.00  0.00     0.040 A 
ATOM     72  F   UNL     1     -19.815   4.265   7.907  1.00  0.00    -0.206 F 
ATOM     73  C   UNL     1     -21.447   7.427   8.303  1.00  0.00     0.006 A 
ENDBRANCH  52  66
BRANCH  53  74
ATOM     74  C   UNL     1     -20.961  -0.406  13.442  1.00  0.00     0.057 A 
ATOM     75  C   UNL     1     -21.888  -0.089  14.444  1.00  0.00     0.134 A 
ATOM     76  C   UNL     1     -21.326  -1.449  12.572  1.00  0.00     0.134 A 
ATOM     77  F   UNL     1     -21.653   0.919  15.296  1.00  0.00    -0.206 F 
ATOM     78  C   UNL     1     -23.114  -0.756  14.562  1.00  0.00     0.040 A 
ATOM     79  C   UNL     1     -22.539  -2.134  12.688  1.00  0.00     0.040 A 
ATOM     80  F   UNL     1     -20.560  -1.783  11.523  1.00  0.00    -0.206 F 
ATOM     81  C   UNL     1     -23.445  -1.779  13.678  1.00  0.00     0.006 A 
ENDBRANCH  53  74
BRANCH  65  82
ATOM     82  C   UNL     1     -16.784   4.090  14.861  1.00  0.00     0.057 A 
ATOM     83  C   UNL     1     -16.156   2.837  14.925  1.00  0.00     0.134 A 
ATOM     84  C   UNL     1     -16.421   5.032  15.830  1.00  0.00     0.134 A 
ATOM     85  F   UNL     1     -16.360   1.910  13.980  1.00  0.00    -0.206 F 
ATOM     86  C   UNL     1     -15.248   2.521  15.940  1.00  0.00     0.040 A 
ATOM     87  C   UNL     1     -15.490   4.741  16.829  1.00  0.00     0.040 A 
ATOM     88  F   UNL     1     -16.936   6.272  15.795  1.00  0.00    -0.206 F 
ATOM     89  C   UNL     1     -14.910   3.477  16.894  1.00  0.00     0.006 A 
ENDBRANCH  65  82
ENDBRANCH  39  40
ENDBRANCH  32  34
ENDBRANCH  31  32
ENDBRANCH  30  31
ENDBRANCH  29  30
ENDBRANCH  28  29
ENDBRANCH  27  28
ENDBRANCH   1  27
TORSDOF 21
