REMARK SMILES C=CC[C@@]1(C(=O)OCCOCCOCCOC(=O)c2ccc(-c3c4nc(c(-c5c(F)cccc5F)c5ccc([nH]5)c(-c5c(F)cccc5F)c5nc(c(-c6c(F)cccc6F)c6ccc3[nH]6)C=C5)C=C4)cc2)CCCN(C(=O)c2ccc3c(c2)OCO3)C1
REMARK SMILES IDX 11 1 10 2 9 3 8 4 7 5 5 6 6 7 4 8 73 9 88 10 74 11 76 12
REMARK SMILES IDX 75 13 3 14 2 15 1 16 77 17 78 18 79 19 80 20 84 21 81 22
REMARK SMILES IDX 83 23 82 24 85 25 87 26 86 27 12 28 13 29 14 30 15 31 16 32
REMARK SMILES IDX 17 33 18 34 19 35 20 36 72 37 21 38 71 39 22 40 23 41 24 42
REMARK SMILES IDX 65 43 25 44 70 45 64 46 66 47 26 48 69 49 63 50 62 51 27 53
REMARK SMILES IDX 53 54 36 55 52 56 37 57 40 58 51 59 67 60 38 61 39 62 50 64
REMARK SMILES IDX 68 65 41 66 28 67 29 68 34 69 30 70 31 71 33 72 35 73 32 74
REMARK SMILES IDX 54 75 55 76 60 77 56 78 57 79 59 80 61 81 58 82 42 83 43 84
REMARK SMILES IDX 48 85 44 86 45 87 47 88 49 89 46 90
REMARK H PARENT 66 52 40 63
REMARK Flexibility Score: inf
ROOT
ATOM      1  C   UNL     1      -1.173  -1.465  -1.563  1.00  0.00     0.188 C 
ENDROOT
BRANCH   1   2
ATOM      2  O   UNL     1       0.147  -1.375  -2.086  1.00  0.00    -0.376 OA
BRANCH   2   3
ATOM      3  C   UNL     1       1.181  -1.043  -1.167  1.00  0.00     0.202 C 
BRANCH   3   4
ATOM      4  C   UNL     1       1.281   0.417  -0.702  1.00  0.00     0.261 C 
BRANCH   4   5
ATOM      5  O   UNL     1       0.111   0.989  -0.094  1.00  0.00    -0.463 OA
BRANCH   5   6
ATOM      6  C   UNL     1      -0.690   1.678  -0.950  1.00  0.00     0.314 C 
ATOM      7  O   UNL     1      -0.638   1.547  -2.170  1.00  0.00    -0.252 OA
BRANCH   6   8
ATOM      8  C   UNL     1      -1.591   2.709  -0.262  1.00  0.00     0.089 C 
ATOM      9  C   UNL     1      -2.283   3.563  -1.372  1.00  0.00     0.023 C 
ATOM     10  C   UNL     1      -0.697   3.627   0.581  1.00  0.00     0.138 C 
ATOM     11  C   UNL     1      -1.318   4.415  -2.191  1.00  0.00     0.023 C 
ATOM     12  N   UNL     1       0.219   4.413  -0.238  1.00  0.00    -0.337 N 
ATOM     13  C   UNL     1      -0.387   5.224  -1.305  1.00  0.00     0.120 C 
BRANCH   8  14
ATOM     14  C   UNL     1      -2.750   2.142   0.598  1.00  0.00     0.047 C 
BRANCH  14  15
ATOM     15  C   UNL     1      -2.550   0.994   1.533  1.00  0.00    -0.034 C 
ATOM     16  C   UNL     1      -1.966   1.036   2.735  1.00  0.00     0.004 C 
ENDBRANCH  14  15
ENDBRANCH   8  14
BRANCH  12  17
ATOM     17  C   UNL     1       1.574   4.424   0.095  1.00  0.00     0.254 C 
ATOM     18  O   UNL     1       2.135   3.599   0.805  1.00  0.00    -0.269 OA
BRANCH  17  19
ATOM     19  C   UNL     1       2.352   5.563  -0.418  1.00  0.00     0.043 A 
ATOM     20  C   UNL     1       3.352   5.353  -1.385  1.00  0.00     0.018 A 
ATOM     21  C   UNL     1       1.925   6.846  -0.054  1.00  0.00     0.064 A 
ATOM     22  C   UNL     1       3.874   6.449  -2.077  1.00  0.00     0.051 A 
ATOM     23  C   UNL     1       2.417   7.888  -0.794  1.00  0.00     0.166 A 
ATOM     24  C   UNL     1       3.352   7.696  -1.787  1.00  0.00     0.165 A 
ATOM     25  O   UNL     1       1.986   9.174  -0.719  1.00  0.00    -0.454 OA
ATOM     26  O   UNL     1       3.621   8.851  -2.455  1.00  0.00    -0.454 OA
ATOM     27  C   UNL     1       2.603   9.715  -1.905  1.00  0.00     0.468 C 
ENDBRANCH  17  19
ENDBRANCH  12  17
ENDBRANCH   6   8
ENDBRANCH   5   6
ENDBRANCH   4   5
ENDBRANCH   3   4
ENDBRANCH   2   3
ENDBRANCH   1   2
BRANCH   1  28
ATOM     28  C   UNL     1      -1.335  -2.312  -0.306  1.00  0.00     0.188 C 
BRANCH  28  29
ATOM     29  O   UNL     1      -0.855  -1.647   0.852  1.00  0.00    -0.376 OA
BRANCH  29  30
ATOM     30  C   UNL     1      -0.634  -2.402   2.039  1.00  0.00     0.202 C 
BRANCH  30  31
ATOM     31  C   UNL     1      -1.342  -3.748   2.277  1.00  0.00     0.261 C 
BRANCH  31  32
ATOM     32  O   UNL     1      -2.575  -3.952   1.577  1.00  0.00    -0.460 OA
BRANCH  32  33
ATOM     33  C   UNL     1      -3.622  -3.159   1.909  1.00  0.00     0.338 C 
ATOM     34  O   UNL     1      -3.690  -2.405   2.864  1.00  0.00    -0.246 OA
BRANCH  33  35
ATOM     35  C   UNL     1      -4.583  -3.191   0.769  1.00  0.00     0.060 A 
ATOM     36  C   UNL     1      -5.197  -1.991   0.388  1.00  0.00     0.016 A 
ATOM     37  C   UNL     1      -4.777  -4.343  -0.005  1.00  0.00     0.016 A 
ATOM     38  C   UNL     1      -6.000  -1.939  -0.756  1.00  0.00     0.010 A 
ATOM     39  C   UNL     1      -5.594  -4.295  -1.141  1.00  0.00     0.010 A 
ATOM     40  C   UNL     1      -6.222  -3.095  -1.516  1.00  0.00    -0.014 A 
BRANCH  40  41
ATOM     41  C   UNL     1      -7.233  -3.090  -2.603  1.00  0.00     0.031 A 
ATOM     42  C   UNL     1      -8.614  -3.601  -2.299  1.00  0.00     0.074 A 
ATOM     43  C   UNL     1      -6.949  -2.626  -3.834  1.00  0.00     0.049 A 
ATOM     44  N   UNL     1      -9.637  -3.765  -3.098  1.00  0.00    -0.248 NA
ATOM     45  C   UNL     1      -8.875  -3.972  -0.899  1.00  0.00     0.031 C 
ATOM     46  C   UNL     1      -5.674  -2.047  -4.250  1.00  0.00     0.029 A 
ATOM     47  N   UNL     1      -7.726  -2.579  -4.967  1.00  0.00    -0.354 N 
ATOM     48  C   UNL     1     -10.659  -4.263  -2.301  1.00  0.00     0.074 A 
ATOM     49  C   UNL     1     -10.128  -4.395  -0.962  1.00  0.00     0.031 C 
ATOM     50  C   UNL     1      -5.751  -1.716  -5.552  1.00  0.00     0.029 A 
ATOM     51  C   UNL     1      -7.064  -2.097  -6.071  1.00  0.00     0.049 A 
ATOM     52  H   UNL     1      -8.669  -2.863  -4.986  1.00  0.00     0.167 HD
ATOM     53  C   UNL     1     -11.928  -4.579  -2.652  1.00  0.00     0.037 A 
ATOM     54  C   UNL     1      -7.462  -2.006  -7.356  1.00  0.00     0.037 A 
ATOM     55  C   UNL     1     -12.460  -4.454  -3.982  1.00  0.00     0.049 A 
ATOM     56  C   UNL     1      -8.846  -2.464  -7.743  1.00  0.00     0.074 A 
ATOM     57  C   UNL     1     -13.738  -4.739  -4.429  1.00  0.00     0.029 A 
ATOM     58  N   UNL     1     -11.740  -4.016  -5.083  1.00  0.00    -0.354 N 
ATOM     59  N   UNL     1      -9.810  -2.925  -6.982  1.00  0.00    -0.248 NA
ATOM     60  C   UNL     1      -9.194  -2.397  -9.171  1.00  0.00     0.031 C 
ATOM     61  C   UNL     1     -13.776  -4.527  -5.811  1.00  0.00     0.029 A 
ATOM     62  C   UNL     1     -12.537  -4.057  -6.215  1.00  0.00     0.049 A 
ATOM     63  H   UNL     1     -10.801  -3.720  -5.063  1.00  0.00     0.167 HD
ATOM     64  C   UNL     1     -10.880  -3.181  -7.833  1.00  0.00     0.074 A 
ATOM     65  C   UNL     1     -10.454  -2.807  -9.165  1.00  0.00     0.031 C 
ATOM     66  C   UNL     1     -12.104  -3.683  -7.537  1.00  0.00     0.037 A 
BRANCH  53  67
ATOM     67  C   UNL     1     -12.821  -5.130  -1.580  1.00  0.00     0.057 A 
ATOM     68  C   UNL     1     -13.332  -4.325  -0.553  1.00  0.00     0.134 A 
ATOM     69  C   UNL     1     -13.198  -6.478  -1.595  1.00  0.00     0.134 A 
ATOM     70  F   UNL     1     -12.994  -3.030  -0.472  1.00  0.00    -0.206 F 
ATOM     71  C   UNL     1     -14.172  -4.848   0.431  1.00  0.00     0.040 A 
ATOM     72  C   UNL     1     -14.058  -7.006  -0.631  1.00  0.00     0.040 A 
ATOM     73  F   UNL     1     -12.745  -7.302  -2.552  1.00  0.00    -0.206 F 
ATOM     74  C   UNL     1     -14.543  -6.191   0.389  1.00  0.00     0.006 A 
ENDBRANCH  53  67
BRANCH  54  75
ATOM     75  C   UNL     1      -6.527  -1.501  -8.395  1.00  0.00     0.057 A 
ATOM     76  C   UNL     1      -6.762  -0.294  -9.064  1.00  0.00     0.134 A 
ATOM     77  C   UNL     1      -5.399  -2.238  -8.777  1.00  0.00     0.134 A 
ATOM     78  F   UNL     1      -7.844   0.442  -8.768  1.00  0.00    -0.206 F 
ATOM     79  C   UNL     1      -5.920   0.154 -10.084  1.00  0.00     0.040 A 
ATOM     80  C   UNL     1      -4.533  -1.789  -9.776  1.00  0.00     0.040 A 
ATOM     81  F   UNL     1      -5.122  -3.409  -8.184  1.00  0.00    -0.206 F 
ATOM     82  C   UNL     1      -4.798  -0.592 -10.438  1.00  0.00     0.006 A 
ENDBRANCH  54  75
BRANCH  66  83
ATOM     83  C   UNL     1     -13.083  -3.835  -8.667  1.00  0.00     0.057 A 
ATOM     84  C   UNL     1     -12.936  -4.828  -9.644  1.00  0.00     0.134 A 
ATOM     85  C   UNL     1     -14.211  -3.008  -8.752  1.00  0.00     0.134 A 
ATOM     86  F   UNL     1     -11.873  -5.646  -9.627  1.00  0.00    -0.206 F 
ATOM     87  C   UNL     1     -13.863  -4.979 -10.677  1.00  0.00     0.040 A 
ATOM     88  C   UNL     1     -15.159  -3.167  -9.765  1.00  0.00     0.040 A 
ATOM     89  F   UNL     1     -14.419  -2.044  -7.843  1.00  0.00    -0.206 F 
ATOM     90  C   UNL     1     -14.982  -4.151 -10.735  1.00  0.00     0.006 A 
ENDBRANCH  66  83
ENDBRANCH  40  41
ENDBRANCH  33  35
ENDBRANCH  32  33
ENDBRANCH  31  32
ENDBRANCH  30  31
ENDBRANCH  29  30
ENDBRANCH  28  29
ENDBRANCH   1  28
TORSDOF 21
