REMARK SMILES C#CCN(CC(=O)OCCOCCOCCOC(=O)c1ccc(-c2c3nc(c(-c4c(F)cccc4F)c4ccc([nH]4)c(-c4c(F)cccc4F)c4nc(c(-c5c(F)cccc5F)c5ccc2[nH]5)C=C4)C=C3)cc1)C(=O)CCc1ccc(Cl)cc1Cl
REMARK SMILES IDX 11 1 10 2 9 3 8 4 6 5 7 6 5 7 4 8 3 9 2 10 1 11 74 12 75 13
REMARK SMILES IDX 76 14 77 15 78 16 79 17 84 18 80 19 83 20 85 21 81 22 82 23
REMARK SMILES IDX 12 24 13 25 14 26 15 27 16 28 17 29 18 30 19 31 20 32 21 33
REMARK SMILES IDX 73 34 22 35 72 36 23 37 24 38 25 39 66 40 26 41 71 42 65 43
REMARK SMILES IDX 67 44 27 45 70 46 64 47 63 48 28 50 54 51 37 52 53 53 38 54
REMARK SMILES IDX 41 55 52 56 68 57 39 58 40 59 51 61 69 62 42 63 29 64 30 65
REMARK SMILES IDX 35 66 31 67 32 68 34 69 36 70 33 71 55 72 56 73 61 74 57 75
REMARK SMILES IDX 58 76 60 77 62 78 59 79 43 80 44 81 49 82 45 83 46 84 48 85
REMARK SMILES IDX 50 86 47 87
REMARK H PARENT 67 49 41 60
REMARK Flexibility Score: inf
ROOT
ATOM      1  O   UNL     1      -6.800  -3.524  -1.571  1.00  0.00    -0.376 OA
ENDROOT
BRANCH   1   2
ATOM      2  C   UNL     1      -7.377  -2.237  -1.383  1.00  0.00     0.202 C 
BRANCH   2   3
ATOM      3  C   UNL     1      -6.865  -1.488  -0.153  1.00  0.00     0.261 C 
BRANCH   3   4
ATOM      4  O   UNL     1      -5.427  -1.356  -0.150  1.00  0.00    -0.462 OA
BRANCH   4   5
ATOM      5  C   UNL     1      -4.877  -1.344   1.089  1.00  0.00     0.325 C 
ATOM      6  O   UNL     1      -5.529  -1.260   2.127  1.00  0.00    -0.250 OA
BRANCH   5   7
ATOM      7  C   UNL     1      -3.396  -1.728   1.111  1.00  0.00     0.243 C 
BRANCH   7   8
ATOM      8  N   UNL     1      -2.419  -1.406   0.063  1.00  0.00    -0.320 N 
BRANCH   8   9
ATOM      9  C   UNL     1      -1.916  -0.039   0.002  1.00  0.00     0.210 C 
BRANCH   9  10
ATOM     10  C   UNL     1      -0.396  -0.039   0.002  1.00  0.00    -0.085 C 
ATOM     11  C   UNL     1       0.908  -0.039   0.002  1.00  0.00     0.006 C 
ENDBRANCH   9  10
ENDBRANCH   8   9
BRANCH   8  12
ATOM     12  C   UNL     1      -1.929  -2.283  -0.884  1.00  0.00     0.224 C 
ATOM     13  O   UNL     1      -1.567  -1.892  -1.999  1.00  0.00    -0.275 OA
BRANCH  12  14
ATOM     14  C   UNL     1      -1.780  -3.755  -0.545  1.00  0.00     0.105 C 
BRANCH  14  15
ATOM     15  C   UNL     1      -0.777  -4.113   0.561  1.00  0.00     0.047 C 
BRANCH  15  16
ATOM     16  C   UNL     1      -1.303  -3.969   1.971  1.00  0.00    -0.029 A 
ATOM     17  C   UNL     1      -0.808  -2.920   2.765  1.00  0.00     0.007 A 
ATOM     18  C   UNL     1      -2.334  -4.776   2.491  1.00  0.00     0.045 A 
ATOM     19  C   UNL     1      -1.392  -2.627   4.000  1.00  0.00     0.021 A 
ATOM     20  C   UNL     1      -2.925  -4.474   3.719  1.00  0.00     0.041 A 
ATOM     21  Cl  UNL     1      -2.984  -6.111   1.612  1.00  0.00    -0.084 Cl
ATOM     22  C   UNL     1      -2.463  -3.390   4.458  1.00  0.00     0.042 A 
ATOM     23  Cl  UNL     1      -3.247  -2.964   5.927  1.00  0.00    -0.084 Cl
ENDBRANCH  15  16
ENDBRANCH  14  15
ENDBRANCH  12  14
ENDBRANCH   8  12
ENDBRANCH   7   8
ENDBRANCH   5   7
ENDBRANCH   4   5
ENDBRANCH   3   4
ENDBRANCH   2   3
ENDBRANCH   1   2
BRANCH   1  24
ATOM     24  C   UNL     1      -5.440  -3.579  -2.005  1.00  0.00     0.188 C 
BRANCH  24  25
ATOM     25  C   UNL     1      -4.921  -2.466  -2.925  1.00  0.00     0.188 C 
BRANCH  25  26
ATOM     26  O   UNL     1      -5.851  -2.209  -3.978  1.00  0.00    -0.376 OA
BRANCH  26  27
ATOM     27  C   UNL     1      -5.226  -1.989  -5.236  1.00  0.00     0.202 C 
BRANCH  27  28
ATOM     28  C   UNL     1      -5.093  -3.314  -5.980  1.00  0.00     0.261 C 
BRANCH  28  29
ATOM     29  O   UNL     1      -4.378  -4.266  -5.168  1.00  0.00    -0.460 OA
BRANCH  29  30
ATOM     30  C   UNL     1      -3.435  -5.002  -5.789  1.00  0.00     0.338 C 
ATOM     31  O   UNL     1      -3.074  -4.911  -6.948  1.00  0.00    -0.246 OA
BRANCH  30  32
ATOM     32  C   UNL     1      -2.937  -6.038  -4.859  1.00  0.00     0.060 A 
ATOM     33  C   UNL     1      -2.463  -5.711  -3.588  1.00  0.00     0.016 A 
ATOM     34  C   UNL     1      -2.863  -7.355  -5.311  1.00  0.00     0.016 A 
ATOM     35  C   UNL     1      -1.853  -6.693  -2.794  1.00  0.00     0.010 A 
ATOM     36  C   UNL     1      -2.287  -8.341  -4.503  1.00  0.00     0.010 A 
ATOM     37  C   UNL     1      -1.735  -8.012  -3.254  1.00  0.00    -0.014 A 
BRANCH  37  38
ATOM     38  C   UNL     1      -0.912  -9.013  -2.516  1.00  0.00     0.031 A 
ATOM     39  C   UNL     1       0.369  -9.508  -3.135  1.00  0.00     0.074 A 
ATOM     40  C   UNL     1      -1.255  -9.462  -1.294  1.00  0.00     0.049 A 
ATOM     41  N   UNL     1       1.134 -10.509  -2.778  1.00  0.00    -0.248 NA
ATOM     42  C   UNL     1       0.849  -8.776  -4.318  1.00  0.00     0.031 C 
ATOM     43  C   UNL     1      -2.409  -9.017  -0.519  1.00  0.00     0.029 A 
ATOM     44  N   UNL     1      -0.650 -10.395  -0.485  1.00  0.00    -0.354 N 
ATOM     45  C   UNL     1       2.149 -10.565  -3.726  1.00  0.00     0.074 A 
ATOM     46  C   UNL     1       1.914  -9.486  -4.662  1.00  0.00     0.031 C 
ATOM     47  C   UNL     1      -2.409  -9.647   0.668  1.00  0.00     0.029 A 
ATOM     48  C   UNL     1      -1.303 -10.600   0.707  1.00  0.00     0.049 A 
ATOM     49  H   UNL     1       0.174 -10.872  -0.736  1.00  0.00     0.167 HD
ATOM     50  C   UNL     1       3.175 -11.445  -3.818  1.00  0.00     0.037 A 
ATOM     51  C   UNL     1      -1.063 -11.480   1.699  1.00  0.00     0.037 A 
ATOM     52  C   UNL     1       3.439 -12.496  -2.871  1.00  0.00     0.049 A 
ATOM     53  C   UNL     1       0.051 -12.483   1.552  1.00  0.00     0.074 A 
ATOM     54  C   UNL     1       4.429 -13.463  -2.907  1.00  0.00     0.029 A 
ATOM     55  N   UNL     1       2.720 -12.703  -1.706  1.00  0.00    -0.354 N 
ATOM     56  N   UNL     1       0.939 -12.603   0.596  1.00  0.00    -0.248 NA
ATOM     57  C   UNL     1       0.169 -13.501   2.609  1.00  0.00     0.031 C 
ATOM     58  C   UNL     1       4.292 -14.273  -1.773  1.00  0.00     0.029 A 
ATOM     59  C   UNL     1       3.239 -13.787  -1.017  1.00  0.00     0.049 A 
ATOM     60  H   UNL     1       1.953 -12.161  -1.410  1.00  0.00     0.167 HD
ATOM     61  C   UNL     1       1.713 -13.707   0.930  1.00  0.00     0.074 A 
ATOM     62  C   UNL     1       1.215 -14.202   2.196  1.00  0.00     0.031 C 
ATOM     63  C   UNL     1       2.733 -14.273   0.240  1.00  0.00     0.037 A 
BRANCH  50  64
ATOM     64  C   UNL     1       4.054 -11.341  -5.026  1.00  0.00     0.057 A 
ATOM     65  C   UNL     1       5.026 -10.342  -5.158  1.00  0.00     0.134 A 
ATOM     66  C   UNL     1       3.926 -12.265  -6.071  1.00  0.00     0.134 A 
ATOM     67  F   UNL     1       5.182  -9.416  -4.201  1.00  0.00    -0.206 F 
ATOM     68  C   UNL     1       5.827 -10.255  -6.298  1.00  0.00     0.040 A 
ATOM     69  C   UNL     1       4.735 -12.201  -7.205  1.00  0.00     0.040 A 
ATOM     70  F   UNL     1       3.014 -13.247  -6.003  1.00  0.00    -0.206 F 
ATOM     71  C   UNL     1       5.686 -11.189  -7.323  1.00  0.00     0.006 A 
ENDBRANCH  50  64
BRANCH  51  72
ATOM     72  C   UNL     1      -1.927 -11.505   2.907  1.00  0.00     0.057 A 
ATOM     73  C   UNL     1      -1.422 -11.148   4.163  1.00  0.00     0.134 A 
ATOM     74  C   UNL     1      -3.262 -11.925   2.846  1.00  0.00     0.134 A 
ATOM     75  F   UNL     1      -0.141 -10.772   4.293  1.00  0.00    -0.206 F 
ATOM     76  C   UNL     1      -2.208 -11.217   5.315  1.00  0.00     0.040 A 
ATOM     77  C   UNL     1      -4.067 -11.972   3.984  1.00  0.00     0.040 A 
ATOM     78  F   UNL     1      -3.803 -12.292   1.675  1.00  0.00    -0.206 F 
ATOM     79  C   UNL     1      -3.538 -11.624   5.225  1.00  0.00     0.006 A 
ENDBRANCH  51  72
BRANCH  63  80
ATOM     80  C   UNL     1       3.378 -15.485   0.843  1.00  0.00     0.057 A 
ATOM     81  C   UNL     1       2.747 -16.735   0.826  1.00  0.00     0.134 A 
ATOM     82  C   UNL     1       4.652 -15.410   1.420  1.00  0.00     0.134 A 
ATOM     83  F   UNL     1       1.520 -16.870   0.299  1.00  0.00    -0.206 F 
ATOM     84  C   UNL     1       3.350 -17.865   1.381  1.00  0.00     0.040 A 
ATOM     85  C   UNL     1       5.274 -16.537   1.961  1.00  0.00     0.040 A 
ATOM     86  F   UNL     1       5.313 -14.244   1.463  1.00  0.00    -0.206 F 
ATOM     87  C   UNL     1       4.620 -17.768   1.947  1.00  0.00     0.006 A 
ENDBRANCH  63  80
ENDBRANCH  37  38
ENDBRANCH  30  32
ENDBRANCH  29  30
ENDBRANCH  28  29
ENDBRANCH  27  28
ENDBRANCH  26  27
ENDBRANCH  25  26
ENDBRANCH  24  25
ENDBRANCH   1  24
TORSDOF 24
