REMARK SMILES COc1ccc(-c2nc(NCC(=O)OCCOCCOCCOC(=O)c3ccc(-c4c5nc(c(-c6c(F)cccc6F)c6ccc([nH]6)c(-c6c(F)cccc6F)c6nc(c(-c7c(F)cccc7F)c7ccc4[nH]7)C=C6)C=C5)cc3)sc2-c2ccc(OC)cc2)cc1
REMARK SMILES IDX 18 1 17 2 16 3 15 4 14 5 12 6 13 7 11 8 10 9 9 11 7 12 8 13
REMARK SMILES IDX 81 14 80 15 6 16 3 17 4 18 91 19 5 20 90 21 2 22 1 23 82 24
REMARK SMILES IDX 83 25 89 26 84 27 88 28 85 29 86 30 87 31 19 32 20 33 21 34
REMARK SMILES IDX 22 35 23 36 24 37 25 38 26 39 27 40 79 41 28 42 78 43 29 44
REMARK SMILES IDX 30 45 31 46 72 47 32 48 77 49 71 50 73 51 33 52 76 53 70 54
REMARK SMILES IDX 69 55 34 57 60 58 43 59 59 60 44 61 47 62 58 63 74 64 45 65
REMARK SMILES IDX 46 66 57 68 75 69 48 70 35 71 36 72 41 73 37 74 38 75 40 76
REMARK SMILES IDX 42 77 39 78 61 79 62 80 67 81 63 82 64 83 66 84 68 85 65 86
REMARK SMILES IDX 49 87 50 88 55 89 51 90 52 91 54 92 56 93 53 94
REMARK H PARENT 10 10 73 56 47 67
REMARK Flexibility Score: inf
ROOT
ATOM      1  C   UNL     1       6.955  -8.581  -7.390  1.00  0.00     0.188 C 
ENDROOT
BRANCH   1   2
ATOM      2  O   UNL     1       7.984  -8.108  -8.254  1.00  0.00    -0.376 OA
BRANCH   2   3
ATOM      3  C   UNL     1       8.016  -6.721  -8.587  1.00  0.00     0.202 C 
BRANCH   3   4
ATOM      4  C   UNL     1       6.732  -6.078  -9.143  1.00  0.00     0.261 C 
BRANCH   4   5
ATOM      5  O   UNL     1       5.557  -6.285  -8.329  1.00  0.00    -0.462 OA
BRANCH   5   6
ATOM      6  C   UNL     1       4.424  -6.682  -8.971  1.00  0.00     0.325 C 
ATOM      7  O   UNL     1       4.319  -6.742 -10.193  1.00  0.00    -0.250 OA
BRANCH   6   8
ATOM      8  C   UNL     1       3.332  -7.243  -8.047  1.00  0.00     0.238 C 
BRANCH   8   9
ATOM      9  N   UNL     1       3.296  -6.768  -6.669  1.00  0.00    -0.351 N 
ATOM     10  H   UNL     1       3.857  -7.247  -6.017  1.00  0.00     0.163 HD
BRANCH   9  11
ATOM     11  C   UNL     1       2.566  -5.736  -6.204  1.00  0.00     0.184 A 
ATOM     12  C   UNL     1       1.637  -4.418  -4.679  1.00  0.00     0.091 A 
ATOM     13  N   UNL     1       2.536  -5.445  -4.920  1.00  0.00    -0.220 NA
ATOM     14  C   UNL     1       0.991  -3.938  -5.807  1.00  0.00     0.064 A 
ATOM     15  S   UNL     1       1.583  -4.743  -7.195  1.00  0.00    -0.096 S 
BRANCH  12  16
ATOM     16  C   UNL     1       1.434  -3.839  -3.354  1.00  0.00     0.002 A 
ATOM     17  C   UNL     1       0.966  -2.322  -1.039  1.00  0.00     0.118 A 
ATOM     18  C   UNL     1      -0.069  -3.061  -1.610  1.00  0.00     0.047 A 
ATOM     19  C   UNL     1       2.254  -2.410  -1.566  1.00  0.00     0.047 A 
ATOM     20  C   UNL     1       0.161  -3.812  -2.767  1.00  0.00     0.014 A 
ATOM     21  C   UNL     1       2.489  -3.171  -2.719  1.00  0.00     0.014 A 
BRANCH  17  22
ATOM     22  O   UNL     1       0.648  -1.573   0.062  1.00  0.00    -0.497 OA
ATOM     23  C   UNL     1       1.137  -0.234  -0.004  1.00  0.00     0.278 C 
ENDBRANCH  17  22
ENDBRANCH  12  16
BRANCH  14  24
ATOM     24  C   UNL     1       0.018  -2.871  -5.983  1.00  0.00    -0.006 A 
ATOM     25  C   UNL     1      -1.237  -3.137  -6.541  1.00  0.00     0.013 A 
ATOM     26  C   UNL     1       0.341  -1.565  -5.606  1.00  0.00     0.013 A 
ATOM     27  C   UNL     1      -2.145  -2.099  -6.740  1.00  0.00     0.047 A 
ATOM     28  C   UNL     1      -0.572  -0.529  -5.800  1.00  0.00     0.047 A 
ATOM     29  C   UNL     1      -1.817  -0.792  -6.374  1.00  0.00     0.118 A 
BRANCH  29  30
ATOM     30  O   UNL     1      -2.787   0.135  -6.633  1.00  0.00    -0.497 OA
ATOM     31  C   UNL     1      -2.523   1.460  -6.190  1.00  0.00     0.278 C 
ENDBRANCH  29  30
ENDBRANCH  14  24
ENDBRANCH   9  11
ENDBRANCH   8   9
ENDBRANCH   6   8
ENDBRANCH   5   6
ENDBRANCH   4   5
ENDBRANCH   3   4
ENDBRANCH   2   3
ENDBRANCH   1   2
BRANCH   1  32
ATOM     32  C   UNL     1       6.572  -7.742  -6.158  1.00  0.00     0.188 C 
BRANCH  32  33
ATOM     33  O   UNL     1       7.362  -6.591  -5.980  1.00  0.00    -0.376 OA
BRANCH  33  34
ATOM     34  C   UNL     1       8.036  -6.436  -4.749  1.00  0.00     0.202 C 
BRANCH  34  35
ATOM     35  C   UNL     1       9.059  -7.520  -4.375  1.00  0.00     0.261 C 
BRANCH  35  36
ATOM     36  O   UNL     1       8.646  -8.886  -4.568  1.00  0.00    -0.460 OA
BRANCH  36  37
ATOM     37  C   UNL     1       7.802  -9.414  -3.656  1.00  0.00     0.338 C 
ATOM     38  O   UNL     1       7.351  -8.858  -2.662  1.00  0.00    -0.246 OA
BRANCH  37  39
ATOM     39  C   UNL     1       7.321 -10.714  -4.177  1.00  0.00     0.060 A 
ATOM     40  C   UNL     1       5.954 -10.885  -4.441  1.00  0.00     0.016 A 
ATOM     41  C   UNL     1       8.217 -11.758  -4.411  1.00  0.00     0.016 A 
ATOM     42  C   UNL     1       5.476 -12.108  -4.919  1.00  0.00     0.010 A 
ATOM     43  C   UNL     1       7.735 -12.990  -4.864  1.00  0.00     0.010 A 
ATOM     44  C   UNL     1       6.359 -13.181  -5.093  1.00  0.00    -0.014 A 
BRANCH  44  45
ATOM     45  C   UNL     1       5.836 -14.554  -5.314  1.00  0.00     0.031 A 
ATOM     46  C   UNL     1       5.726 -15.473  -4.128  1.00  0.00     0.074 A 
ATOM     47  C   UNL     1       5.472 -14.988  -6.533  1.00  0.00     0.049 A 
ATOM     48  N   UNL     1       5.396 -16.738  -4.080  1.00  0.00    -0.248 NA
ATOM     49  C   UNL     1       6.038 -14.880  -2.818  1.00  0.00     0.031 C 
ATOM     50  C   UNL     1       5.482 -14.189  -7.756  1.00  0.00     0.029 A 
ATOM     51  N   UNL     1       5.035 -16.225  -6.941  1.00  0.00    -0.354 N 
ATOM     52  C   UNL     1       5.476 -17.096  -2.740  1.00  0.00     0.074 A 
ATOM     53  C   UNL     1       5.913 -15.923  -2.013  1.00  0.00     0.031 C 
ATOM     54  C   UNL     1       5.087 -14.962  -8.783  1.00  0.00     0.029 A 
ATOM     55  C   UNL     1       4.834 -16.318  -8.296  1.00  0.00     0.049 A 
ATOM     56  H   UNL     1       4.882 -16.974  -6.320  1.00  0.00     0.167 HD
ATOM     57  C   UNL     1       5.207 -18.291  -2.164  1.00  0.00     0.037 A 
ATOM     58  C   UNL     1       4.513 -17.384  -9.058  1.00  0.00     0.037 A 
ATOM     59  C   UNL     1       4.778 -19.459  -2.887  1.00  0.00     0.049 A 
ATOM     60  C   UNL     1       4.303 -18.728  -8.407  1.00  0.00     0.074 A 
ATOM     61  C   UNL     1       4.462 -20.712  -2.391  1.00  0.00     0.029 A 
ATOM     62  N   UNL     1       4.618 -19.522  -4.263  1.00  0.00    -0.354 N 
ATOM     63  N   UNL     1       4.360 -19.054  -7.138  1.00  0.00    -0.248 NA
ATOM     64  C   UNL     1       3.985 -19.854  -9.299  1.00  0.00     0.031 C 
ATOM     65  C   UNL     1       4.170 -21.549  -3.472  1.00  0.00     0.029 A 
ATOM     66  C   UNL     1       4.239 -20.801  -4.637  1.00  0.00     0.049 A 
ATOM     67  H   UNL     1       4.754 -18.769  -4.883  1.00  0.00     0.167 HD
ATOM     68  C   UNL     1       4.053 -20.410  -7.077  1.00  0.00     0.074 A 
ATOM     69  C   UNL     1       3.800 -20.842  -8.435  1.00  0.00     0.031 C 
ATOM     70  C   UNL     1       3.984 -21.221  -5.992  1.00  0.00     0.037 A 
BRANCH  57  71
ATOM     71  C   UNL     1       5.409 -18.401  -0.680  1.00  0.00     0.057 A 
ATOM     72  C   UNL     1       4.577 -17.745   0.237  1.00  0.00     0.134 A 
ATOM     73  C   UNL     1       6.447 -19.186  -0.161  1.00  0.00     0.134 A 
ATOM     74  F   UNL     1       3.574 -16.965  -0.193  1.00  0.00    -0.206 F 
ATOM     75  C   UNL     1       4.790 -17.839   1.614  1.00  0.00     0.040 A 
ATOM     76  C   UNL     1       6.650 -19.313   1.214  1.00  0.00     0.040 A 
ATOM     77  F   UNL     1       7.279 -19.845  -0.981  1.00  0.00    -0.206 F 
ATOM     78  C   UNL     1       5.825 -18.631   2.105  1.00  0.00     0.006 A 
ENDBRANCH  57  71
BRANCH  58  79
ATOM     79  C   UNL     1       4.384 -17.235 -10.531  1.00  0.00     0.057 A 
ATOM     80  C   UNL     1       3.144 -17.370 -11.167  1.00  0.00     0.134 A 
ATOM     81  C   UNL     1       5.498 -16.980 -11.341  1.00  0.00     0.134 A 
ATOM     82  F   UNL     1       2.044 -17.644 -10.450  1.00  0.00    -0.206 F 
ATOM     83  C   UNL     1       3.018 -17.272 -12.554  1.00  0.00     0.040 A 
ATOM     84  C   UNL     1       5.382 -16.852 -12.726  1.00  0.00     0.040 A 
ATOM     85  F   UNL     1       6.715 -16.844 -10.795  1.00  0.00    -0.206 F 
ATOM     86  C   UNL     1       4.140 -17.005 -13.337  1.00  0.00     0.006 A 
ENDBRANCH  58  79
BRANCH  70  87
ATOM     87  C   UNL     1       3.576 -22.651  -6.218  1.00  0.00     0.057 A 
ATOM     88  C   UNL     1       4.418 -23.575  -6.849  1.00  0.00     0.134 A 
ATOM     89  C   UNL     1       2.339 -23.120  -5.754  1.00  0.00     0.134 A 
ATOM     90  F   UNL     1       5.612 -23.193  -7.327  1.00  0.00    -0.206 F 
ATOM     91  C   UNL     1       4.035 -24.906  -7.034  1.00  0.00     0.040 A 
ATOM     92  C   UNL     1       1.958 -24.454  -5.905  1.00  0.00     0.040 A 
ATOM     93  F   UNL     1       1.488 -22.292  -5.130  1.00  0.00    -0.206 F 
ATOM     94  C   UNL     1       2.804 -25.350  -6.553  1.00  0.00     0.006 A 
ENDBRANCH  70  87
ENDBRANCH  44  45
ENDBRANCH  37  39
ENDBRANCH  36  37
ENDBRANCH  35  36
ENDBRANCH  34  35
ENDBRANCH  33  34
ENDBRANCH  32  33
ENDBRANCH   1  32
TORSDOF 23
