REMARK SMILES O=C(NC1(C(=O)OCCOCCOCCOC(=O)c2ccc(-c3c4nc(c(-c5c(F)cccc5F)c5ccc([nH]5)c(-c5c(F)cccc5F)c5nc(c(-c6c(F)cccc6F)c6ccc3[nH]6)C=C5)C=C4)cc2)CC[NH2+]CC1)OCC1c2ccccc2-c2ccccc21
REMARK SMILES IDX 11 1 10 2 9 3 8 4 7 5 5 6 6 7 4 8 73 9 77 10 74 11 76 12
REMARK SMILES IDX 75 13 3 16 1 17 2 18 78 20 79 21 80 22 81 23 92 24 82 25
REMARK SMILES IDX 86 26 87 27 91 28 83 29 85 30 88 31 90 32 84 33 89 34 12 35
REMARK SMILES IDX 13 36 14 37 15 38 16 39 17 40 18 41 19 42 20 43 72 44 21 45
REMARK SMILES IDX 71 46 22 47 23 48 24 49 65 50 25 51 70 52 64 53 66 54 26 55
REMARK SMILES IDX 69 56 63 57 62 58 27 60 53 61 36 62 52 63 37 64 40 65 51 66
REMARK SMILES IDX 67 67 38 68 39 69 50 71 68 72 41 73 28 74 29 75 34 76 30 77
REMARK SMILES IDX 31 78 33 79 35 80 32 81 54 82 55 83 60 84 56 85 57 86 59 87
REMARK SMILES IDX 61 88 58 89 42 90 43 91 48 92 44 93 45 94 47 95 49 96 46 97
REMARK H PARENT 75 14 75 15 3 19 66 59 40 70
REMARK Flexibility Score: inf
ROOT
ATOM      1  C   UNL     1       4.392  -3.382   1.254  1.00  0.00     0.188 C 
ENDROOT
BRANCH   1   2
ATOM      2  O   UNL     1       4.930  -4.586   0.719  1.00  0.00    -0.376 OA
BRANCH   2   3
ATOM      3  C   UNL     1       6.267  -4.459   0.241  1.00  0.00     0.202 C 
BRANCH   3   4
ATOM      4  C   UNL     1       6.382  -3.931  -1.201  1.00  0.00     0.261 C 
BRANCH   4   5
ATOM      5  O   UNL     1       6.036  -2.537  -1.374  1.00  0.00    -0.461 OA
BRANCH   5   6
ATOM      6  C   UNL     1       4.841  -2.291  -1.978  1.00  0.00     0.332 C 
ATOM      7  O   UNL     1       4.029  -3.166  -2.273  1.00  0.00    -0.249 OA
BRANCH   6   8
ATOM      8  C   UNL     1       4.567  -0.794  -2.273  1.00  0.00     0.151 C 
ATOM      9  C   UNL     1       5.620   0.223  -1.827  1.00  0.00     0.102 C 
ATOM     10  C   UNL     1       4.525  -0.642  -3.812  1.00  0.00     0.102 C 
ATOM     11  C   UNL     1       5.191   1.643  -2.196  1.00  0.00     0.263 C 
ATOM     12  C   UNL     1       4.281   0.803  -4.268  1.00  0.00     0.263 C 
ATOM     13  N   UNL     1       5.180   1.774  -3.647  1.00  0.00    -0.346 N 
ATOM     14  H   UNL     1       6.125   1.623  -4.000  1.00  0.00     0.346 HD
ATOM     15  H   UNL     1       4.850   2.710  -3.880  1.00  0.00     0.346 HD
BRANCH   8  16
ATOM     16  N   UNL     1       3.236  -0.535  -1.668  1.00  0.00    -0.305 N 
ATOM     17  O   UNL     1       1.841   0.024   0.028  1.00  0.00    -0.225 OA
ATOM     18  C   UNL     1       2.953  -0.294  -0.350  1.00  0.00     0.408 C 
ATOM     19  H   UNL     1       2.469  -0.538  -2.285  1.00  0.00     0.168 HD
BRANCH  18  20
ATOM     20  O   UNL     1       4.039  -0.379   0.472  1.00  0.00    -0.449 OA
BRANCH  20  21
ATOM     21  C   UNL     1       4.309   0.864   1.114  1.00  0.00     0.248 C 
BRANCH  21  22
ATOM     22  C   UNL     1       5.679   1.002   1.844  1.00  0.00     0.088 C 
ATOM     23  C   UNL     1       6.996   0.400   1.321  1.00  0.00    -0.029 A 
ATOM     24  C   UNL     1       6.014   2.506   1.744  1.00  0.00    -0.029 A 
ATOM     25  C   UNL     1       7.384  -0.913   1.146  1.00  0.00     0.005 A 
ATOM     26  C   UNL     1       7.943   1.408   1.077  1.00  0.00    -0.014 A 
ATOM     27  C   UNL     1       7.274   2.677   1.143  1.00  0.00    -0.014 A 
ATOM     28  C   UNL     1       5.142   3.573   1.908  1.00  0.00     0.005 A 
ATOM     29  C   UNL     1       8.724  -1.229   0.886  1.00  0.00     0.000 A 
ATOM     30  C   UNL     1       9.283   1.117   0.842  1.00  0.00     0.009 A 
ATOM     31  C   UNL     1       7.601   3.870   0.527  1.00  0.00     0.009 A 
ATOM     32  C   UNL     1       5.474   4.778   1.294  1.00  0.00     0.000 A 
ATOM     33  C   UNL     1       9.680  -0.218   0.781  1.00  0.00     0.001 A 
ATOM     34  C   UNL     1       6.673   4.912   0.575  1.00  0.00     0.001 A 
ENDBRANCH  21  22
ENDBRANCH  20  21
ENDBRANCH  18  20
ENDBRANCH   8  16
ENDBRANCH   6   8
ENDBRANCH   5   6
ENDBRANCH   4   5
ENDBRANCH   3   4
ENDBRANCH   2   3
ENDBRANCH   1   2
BRANCH   1  35
ATOM     35  C   UNL     1       4.691  -3.184   2.741  1.00  0.00     0.188 C 
BRANCH  35  36
ATOM     36  O   UNL     1       6.027  -2.761   2.997  1.00  0.00    -0.376 OA
BRANCH  36  37
ATOM     37  C   UNL     1       6.549  -3.094   4.279  1.00  0.00     0.202 C 
BRANCH  37  38
ATOM     38  C   UNL     1       5.959  -2.350   5.488  1.00  0.00     0.261 C 
BRANCH  38  39
ATOM     39  O   UNL     1       4.521  -2.388   5.514  1.00  0.00    -0.460 OA
BRANCH  39  40
ATOM     40  C   UNL     1       3.920  -1.200   5.252  1.00  0.00     0.338 C 
ATOM     41  O   UNL     1       4.455  -0.108   5.147  1.00  0.00    -0.246 OA
BRANCH  40  42
ATOM     42  C   UNL     1       2.513  -1.427   4.855  1.00  0.00     0.060 A 
ATOM     43  C   UNL     1       2.080  -0.783   3.689  1.00  0.00     0.016 A 
ATOM     44  C   UNL     1       1.637  -2.244   5.562  1.00  0.00     0.016 A 
ATOM     45  C   UNL     1       0.773  -0.903   3.237  1.00  0.00     0.010 A 
ATOM     46  C   UNL     1       0.311  -2.352   5.124  1.00  0.00     0.010 A 
ATOM     47  C   UNL     1      -0.134  -1.654   3.981  1.00  0.00    -0.014 A 
BRANCH  47  48
ATOM     48  C   UNL     1      -1.583  -1.523   3.706  1.00  0.00     0.031 A 
ATOM     49  C   UNL     1      -2.393  -0.673   4.642  1.00  0.00     0.074 A 
ATOM     50  C   UNL     1      -2.165  -2.097   2.639  1.00  0.00     0.049 A 
ATOM     51  N   UNL     1      -3.689  -0.555   4.754  1.00  0.00    -0.248 NA
ATOM     52  C   UNL     1      -1.627   0.154   5.590  1.00  0.00     0.031 C 
ATOM     53  C   UNL     1      -1.473  -2.829   1.581  1.00  0.00     0.029 A 
ATOM     54  N   UNL     1      -3.489  -2.159   2.283  1.00  0.00    -0.354 N 
ATOM     55  C   UNL     1      -3.894   0.319   5.814  1.00  0.00     0.074 A 
ATOM     56  C   UNL     1      -2.592   0.696   6.316  1.00  0.00     0.031 C 
ATOM     57  C   UNL     1      -2.383  -3.291   0.706  1.00  0.00     0.029 A 
ATOM     58  C   UNL     1      -3.721  -2.938   1.176  1.00  0.00     0.049 A 
ATOM     59  H   UNL     1      -4.203  -1.691   2.773  1.00  0.00     0.167 HD
ATOM     60  C   UNL     1      -5.067   0.759   6.325  1.00  0.00     0.037 A 
ATOM     61  C   UNL     1      -4.885  -3.354   0.639  1.00  0.00     0.037 A 
ATOM     62  C   UNL     1      -6.354   0.398   5.796  1.00  0.00     0.049 A 
ATOM     63  C   UNL     1      -6.181  -2.939   1.288  1.00  0.00     0.074 A 
ATOM     64  C   UNL     1      -7.607   0.784   6.236  1.00  0.00     0.029 A 
ATOM     65  N   UNL     1      -6.550  -0.436   4.704  1.00  0.00    -0.354 N 
ATOM     66  N   UNL     1      -6.380  -2.156   2.322  1.00  0.00    -0.248 NA
ATOM     67  C   UNL     1      -7.417  -3.475   0.700  1.00  0.00     0.031 C 
ATOM     68  C   UNL     1      -8.563   0.135   5.448  1.00  0.00     0.029 A 
ATOM     69  C   UNL     1      -7.906  -0.600   4.474  1.00  0.00     0.049 A 
ATOM     70  H   UNL     1      -5.833  -0.850   4.172  1.00  0.00     0.167 HD
ATOM     71  C   UNL     1      -7.758  -2.077   2.485  1.00  0.00     0.074 A 
ATOM     72  C   UNL     1      -8.347  -2.885   1.438  1.00  0.00     0.031 C 
ATOM     73  C   UNL     1      -8.473  -1.397   3.415  1.00  0.00     0.037 A 
BRANCH  60  74
ATOM     74  C   UNL     1      -5.005   1.624   7.549  1.00  0.00     0.057 A 
ATOM     75  C   UNL     1      -4.521   2.938   7.521  1.00  0.00     0.134 A 
ATOM     76  C   UNL     1      -5.447   1.127   8.783  1.00  0.00     0.134 A 
ATOM     77  F   UNL     1      -4.061   3.470   6.378  1.00  0.00    -0.206 F 
ATOM     78  C   UNL     1      -4.452   3.715   8.679  1.00  0.00     0.040 A 
ATOM     79  C   UNL     1      -5.412   1.904   9.940  1.00  0.00     0.040 A 
ATOM     80  F   UNL     1      -5.921  -0.124   8.882  1.00  0.00    -0.206 F 
ATOM     81  C   UNL     1      -4.906   3.200   9.892  1.00  0.00     0.006 A 
ENDBRANCH  60  74
BRANCH  61  82
ATOM     82  C   UNL     1      -4.888  -4.252  -0.546  1.00  0.00     0.057 A 
ATOM     83  C   UNL     1      -5.407  -3.830  -1.775  1.00  0.00     0.134 A 
ATOM     84  C   UNL     1      -4.409  -5.567  -0.469  1.00  0.00     0.134 A 
ATOM     85  F   UNL     1      -5.910  -2.594  -1.907  1.00  0.00    -0.206 F 
ATOM     86  C   UNL     1      -5.469  -4.685  -2.878  1.00  0.00     0.040 A 
ATOM     87  C   UNL     1      -4.436  -6.423  -1.572  1.00  0.00     0.040 A 
ATOM     88  F   UNL     1      -3.905  -6.040   0.680  1.00  0.00    -0.206 F 
ATOM     89  C   UNL     1      -4.976  -5.985  -2.779  1.00  0.00     0.006 A 
ENDBRANCH  61  82
BRANCH  73  90
ATOM     90  C   UNL     1      -9.971  -1.446   3.310  1.00  0.00     0.057 A 
ATOM     91  C   UNL     1     -10.702  -2.603   3.609  1.00  0.00     0.134 A 
ATOM     92  C   UNL     1     -10.694  -0.301   2.950  1.00  0.00     0.134 A 
ATOM     93  F   UNL     1     -10.072  -3.737   3.950  1.00  0.00    -0.206 F 
ATOM     94  C   UNL     1     -12.095  -2.625   3.530  1.00  0.00     0.040 A 
ATOM     95  C   UNL     1     -12.088  -0.301   2.899  1.00  0.00     0.040 A 
ATOM     96  F   UNL     1     -10.057   0.845   2.663  1.00  0.00    -0.206 F 
ATOM     97  C   UNL     1     -12.792  -1.469   3.182  1.00  0.00     0.006 A 
ENDBRANCH  73  90
ENDBRANCH  47  48
ENDBRANCH  40  42
ENDBRANCH  39  40
ENDBRANCH  38  39
ENDBRANCH  37  38
ENDBRANCH  36  37
ENDBRANCH  35  36
ENDBRANCH   1  35
TORSDOF 21
