REMARK SMILES CNC(=O)CCn1c(SCC(=O)OCCOCCOCCOC(=O)c2ccc(-c3c4nc(c(-c5c(F)cccc5F)c5ccc([nH]5)c(-c5c(F)cccc5F)c5nc(c(-c6c(F)cccc6F)c6ccc3[nH]6)C=C5)C=C4)cc2)nc2ccc(C)cc21
REMARK SMILES IDX 16 1 15 2 14 3 13 4 11 5 12 6 10 7 9 8 8 9 7 10 86 11 79 12
REMARK SMILES IDX 80 13 85 14 81 15 83 16 82 17 84 18 6 19 5 20 3 21 1 22 2 23
REMARK SMILES IDX 4 25 17 26 18 27 19 28 20 29 21 30 22 31 23 32 24 33 25 34
REMARK SMILES IDX 26 35 78 36 27 37 77 38 28 39 29 40 30 41 71 42 31 43 76 44
REMARK SMILES IDX 70 45 72 46 32 47 75 48 69 49 68 50 33 52 59 53 42 54 58 55
REMARK SMILES IDX 43 56 46 57 57 58 73 59 44 60 45 61 56 63 74 64 47 65 34 66
REMARK SMILES IDX 35 67 40 68 36 69 37 70 39 71 41 72 38 73 60 74 61 75 66 76
REMARK SMILES IDX 62 77 63 78 65 79 67 80 64 81 48 82 49 83 54 84 50 85 51 86
REMARK SMILES IDX 53 87 55 88 52 89
REMARK H PARENT 2 24 72 51 46 62
REMARK Flexibility Score: inf
ROOT
ATOM      1  O   UNL     1       0.090  -1.920  -4.004  1.00  0.00    -0.376 OA
ENDROOT
BRANCH   1   2
ATOM      2  C   UNL     1      -0.710  -2.569  -3.009  1.00  0.00     0.202 C 
BRANCH   2   3
ATOM      3  C   UNL     1       0.053  -3.407  -1.960  1.00  0.00     0.261 C 
BRANCH   3   4
ATOM      4  O   UNL     1       0.093  -2.974  -0.549  1.00  0.00    -0.463 OA
BRANCH   4   5
ATOM      5  C   UNL     1       1.138  -2.198  -0.119  1.00  0.00     0.316 C 
ATOM      6  O   UNL     1       1.757  -1.495  -0.899  1.00  0.00    -0.251 OA
BRANCH   5   7
ATOM      7  C   UNL     1       1.611  -2.449   1.297  1.00  0.00     0.200 C 
BRANCH   7   8
ATOM      8  S   UNL     1       1.560  -1.224   2.601  1.00  0.00    -0.076 SA
BRANCH   8   9
ATOM      9  C   UNL     1       1.988   0.386   2.135  1.00  0.00     0.169 A 
ATOM     10  N   UNL     1       1.192   1.460   2.485  1.00  0.00    -0.318 N 
ATOM     11  C   UNL     1       1.744   2.598   1.924  1.00  0.00     0.069 A 
ATOM     12  N   UNL     1       3.162   0.823   1.735  1.00  0.00    -0.222 NA
ATOM     13  C   UNL     1       3.018   2.189   1.552  1.00  0.00     0.090 A 
ATOM     14  C   UNL     1       1.287   3.916   1.750  1.00  0.00     0.032 A 
ATOM     15  C   UNL     1       3.905   3.137   1.003  1.00  0.00     0.031 A 
ATOM     16  C   UNL     1       2.144   4.828   1.106  1.00  0.00    -0.049 A 
ATOM     17  C   UNL     1       3.445   4.441   0.760  1.00  0.00     0.006 A 
ATOM     18  C   UNL     1       1.684   6.232   0.820  1.00  0.00     0.044 C 
BRANCH  10  19
ATOM     19  C   UNL     1       0.158   1.473   3.507  1.00  0.00     0.135 C 
BRANCH  19  20
ATOM     20  C   UNL     1      -1.239   1.150   3.007  1.00  0.00     0.122 C 
BRANCH  20  21
ATOM     21  C   UNL     1      -1.485  -0.340   2.951  1.00  0.00     0.221 C 
ATOM     22  C   UNL     1      -1.566  -0.302   0.447  1.00  0.00     0.142 C 
ATOM     23  N   UNL     1      -1.635  -0.938   1.736  1.00  0.00    -0.359 N 
ATOM     24  H   UNL     1      -1.810  -1.907   1.740  1.00  0.00     0.163 HD
ATOM     25  O   UNL     1      -1.528  -1.025   3.972  1.00  0.00    -0.275 OA
ENDBRANCH  20  21
ENDBRANCH  19  20
ENDBRANCH  10  19
ENDBRANCH   8   9
ENDBRANCH   7   8
ENDBRANCH   5   7
ENDBRANCH   4   5
ENDBRANCH   3   4
ENDBRANCH   2   3
ENDBRANCH   1   2
BRANCH   1  26
ATOM     26  C   UNL     1       0.903  -0.827  -3.583  1.00  0.00     0.188 C 
BRANCH  26  27
ATOM     27  C   UNL     1       0.281   0.071  -2.503  1.00  0.00     0.188 C 
BRANCH  27  28
ATOM     28  O   UNL     1      -0.872   0.819  -2.856  1.00  0.00    -0.376 OA
BRANCH  28  29
ATOM     29  C   UNL     1      -0.681   1.794  -3.880  1.00  0.00     0.202 C 
BRANCH  29  30
ATOM     30  C   UNL     1       0.515   2.746  -3.688  1.00  0.00     0.261 C 
BRANCH  30  31
ATOM     31  O   UNL     1       1.754   2.041  -3.947  1.00  0.00    -0.460 OA
BRANCH  31  32
ATOM     32  C   UNL     1       2.840   2.501  -3.272  1.00  0.00     0.338 C 
ATOM     33  O   UNL     1       2.976   3.619  -2.806  1.00  0.00    -0.246 OA
BRANCH  32  34
ATOM     34  C   UNL     1       3.625   1.316  -2.842  1.00  0.00     0.060 A 
ATOM     35  C   UNL     1       4.373   0.472  -3.662  1.00  0.00     0.016 A 
ATOM     36  C   UNL     1       3.476   0.982  -1.506  1.00  0.00     0.016 A 
ATOM     37  C   UNL     1       4.904  -0.735  -3.136  1.00  0.00     0.010 A 
ATOM     38  C   UNL     1       4.016  -0.192  -0.994  1.00  0.00     0.010 A 
ATOM     39  C   UNL     1       4.667  -1.109  -1.804  1.00  0.00    -0.014 A 
BRANCH  39  40
ATOM     40  C   UNL     1       5.289  -2.249  -1.097  1.00  0.00     0.031 A 
ATOM     41  C   UNL     1       6.675  -1.963  -0.718  1.00  0.00     0.074 A 
ATOM     42  C   UNL     1       4.791  -3.421  -0.628  1.00  0.00     0.049 A 
ATOM     43  N   UNL     1       7.682  -2.415  -1.379  1.00  0.00    -0.248 NA
ATOM     44  C   UNL     1       7.009  -1.043   0.367  1.00  0.00     0.031 C 
ATOM     45  C   UNL     1       3.469  -3.989  -0.832  1.00  0.00     0.029 A 
ATOM     46  N   UNL     1       5.383  -4.379   0.171  1.00  0.00    -0.354 N 
ATOM     47  C   UNL     1       8.802  -2.015  -0.686  1.00  0.00     0.074 A 
ATOM     48  C   UNL     1       8.343  -1.042   0.278  1.00  0.00     0.031 C 
ATOM     49  C   UNL     1       3.256  -5.055  -0.021  1.00  0.00     0.029 A 
ATOM     50  C   UNL     1       4.517  -5.368   0.633  1.00  0.00     0.049 A 
ATOM     51  H   UNL     1       6.341  -4.364   0.396  1.00  0.00     0.167 HD
ATOM     52  C   UNL     1       9.958  -2.710  -0.847  1.00  0.00     0.037 A 
ATOM     53  C   UNL     1       4.810  -6.556   1.219  1.00  0.00     0.037 A 
ATOM     54  C   UNL     1       9.850  -3.644  -1.954  1.00  0.00     0.049 A 
ATOM     55  C   UNL     1       6.065  -7.016   0.595  1.00  0.00     0.074 A 
ATOM     56  C   UNL     1       9.670  -3.544  -3.319  1.00  0.00     0.029 A 
ATOM     57  N   UNL     1       9.537  -4.938  -1.615  1.00  0.00    -0.354 N 
ATOM     58  N   UNL     1       6.165  -7.346  -0.663  1.00  0.00    -0.248 NA
ATOM     59  C   UNL     1       7.324  -6.818   1.294  1.00  0.00     0.031 C 
ATOM     60  C   UNL     1       8.938  -4.708  -3.707  1.00  0.00     0.029 A 
ATOM     61  C   UNL     1       8.716  -5.484  -2.570  1.00  0.00     0.049 A 
ATOM     62  H   UNL     1       9.853  -5.404  -0.808  1.00  0.00     0.167 HD
ATOM     63  C   UNL     1       7.441  -6.947  -1.015  1.00  0.00     0.074 A 
ATOM     64  C   UNL     1       8.153  -6.807   0.248  1.00  0.00     0.031 C 
ATOM     65  C   UNL     1       7.711  -6.486  -2.270  1.00  0.00     0.037 A 
BRANCH  52  66
ATOM     66  C   UNL     1      11.032  -2.854   0.197  1.00  0.00     0.057 A 
ATOM     67  C   UNL     1      10.851  -2.634   1.575  1.00  0.00     0.134 A 
ATOM     68  C   UNL     1      12.224  -3.514  -0.154  1.00  0.00     0.134 A 
ATOM     69  F   UNL     1       9.739  -2.089   2.079  1.00  0.00    -0.206 F 
ATOM     70  C   UNL     1      11.771  -3.064   2.535  1.00  0.00     0.040 A 
ATOM     71  C   UNL     1      13.124  -3.995   0.801  1.00  0.00     0.040 A 
ATOM     72  F   UNL     1      12.511  -3.785  -1.436  1.00  0.00    -0.206 F 
ATOM     73  C   UNL     1      12.896  -3.778   2.152  1.00  0.00     0.006 A 
ENDBRANCH  52  66
BRANCH  53  74
ATOM     74  C   UNL     1       4.105  -7.316   2.276  1.00  0.00     0.057 A 
ATOM     75  C   UNL     1       3.489  -6.636   3.342  1.00  0.00     0.134 A 
ATOM     76  C   UNL     1       4.244  -8.703   2.434  1.00  0.00     0.134 A 
ATOM     77  F   UNL     1       3.354  -5.302   3.309  1.00  0.00    -0.206 F 
ATOM     78  C   UNL     1       3.068  -7.291   4.508  1.00  0.00     0.040 A 
ATOM     79  C   UNL     1       3.818  -9.374   3.592  1.00  0.00     0.040 A 
ATOM     80  F   UNL     1       4.846  -9.439   1.489  1.00  0.00    -0.206 F 
ATOM     81  C   UNL     1       3.242  -8.665   4.642  1.00  0.00     0.006 A 
ENDBRANCH  53  74
BRANCH  65  82
ATOM     82  C   UNL     1       6.750  -6.865  -3.364  1.00  0.00     0.057 A 
ATOM     83  C   UNL     1       7.187  -7.702  -4.394  1.00  0.00     0.134 A 
ATOM     84  C   UNL     1       5.452  -6.355  -3.481  1.00  0.00     0.134 A 
ATOM     85  F   UNL     1       8.434  -8.197  -4.378  1.00  0.00    -0.206 F 
ATOM     86  C   UNL     1       6.370  -8.021  -5.484  1.00  0.00     0.040 A 
ATOM     87  C   UNL     1       4.611  -6.685  -4.549  1.00  0.00     0.040 A 
ATOM     88  F   UNL     1       4.977  -5.485  -2.591  1.00  0.00    -0.206 F 
ATOM     89  C   UNL     1       5.073  -7.518  -5.560  1.00  0.00     0.006 A 
ENDBRANCH  65  82
ENDBRANCH  39  40
ENDBRANCH  32  34
ENDBRANCH  31  32
ENDBRANCH  30  31
ENDBRANCH  29  30
ENDBRANCH  28  29
ENDBRANCH  27  28
ENDBRANCH  26  27
ENDBRANCH   1  26
TORSDOF 22
