REMARK SMILES Cc1ccc(Nc2nc3c(c(OCC(=O)OCCOCCOCCOC(=O)c4ccc(-c5c6nc(c(-c7c(F)cccc7F)c7ccc([nH]7)c(-c7c(F)cccc7F)c7nc(c(-c8c(F)cccc8F)c8ccc5[nH]8)C=C7)C=C6)cc4)n2)C[N@H+](Cc2ccccc2)CC3)cc1F
REMARK SMILES IDX 20 1 19 2 18 3 17 4 16 5 14 6 15 7 13 8 12 9 11 10 7 11 8 12
REMARK SMILES IDX 82 13 9 14 10 15 93 16 83 17 92 18 84 19 6 21 5 23 1 24 2 25
REMARK SMILES IDX 3 26 95 27 4 28 94 29 96 30 85 31 86 32 87 33 91 34 88 35
REMARK SMILES IDX 90 36 89 37 21 38 22 39 23 40 24 41 25 42 26 43 27 44 28 45
REMARK SMILES IDX 29 46 81 47 30 48 80 49 31 50 32 51 33 52 74 53 34 54 79 55
REMARK SMILES IDX 73 56 75 57 35 58 78 59 72 60 71 61 36 63 62 64 45 65 61 66
REMARK SMILES IDX 46 67 49 68 60 69 76 70 47 71 48 72 59 74 77 75 50 76 37 77
REMARK SMILES IDX 38 78 43 79 39 80 40 81 42 82 44 83 41 84 63 85 64 86 69 87
REMARK SMILES IDX 65 88 66 89 68 90 70 91 67 92 51 93 52 94 57 95 53 96 54 97
REMARK SMILES IDX 56 98 58 99 55 100
REMARK H PARENT 84 20 6 22 75 62 49 73
REMARK Flexibility Score: inf
ROOT
ATOM      1  C   UNL     1      -6.010  -3.902  -1.268  1.00  0.00     0.188 C 
ENDROOT
BRANCH   1   2
ATOM      2  O   UNL     1      -7.283  -3.551  -1.783  1.00  0.00    -0.376 OA
BRANCH   2   3
ATOM      3  C   UNL     1      -8.276  -4.561  -1.781  1.00  0.00     0.202 C 
BRANCH   3   4
ATOM      4  C   UNL     1      -7.955  -5.838  -2.572  1.00  0.00     0.261 C 
BRANCH   4   5
ATOM      5  O   UNL     1      -6.586  -6.280  -2.437  1.00  0.00    -0.461 OA
BRANCH   5   6
ATOM      6  C   UNL     1      -5.777  -6.137  -3.530  1.00  0.00     0.344 C 
ATOM      7  O   UNL     1      -6.184  -5.929  -4.668  1.00  0.00    -0.248 OA
BRANCH   6   8
ATOM      8  C   UNL     1      -4.269  -6.144  -3.170  1.00  0.00     0.353 C 
BRANCH   8   9
ATOM      9  O   UNL     1      -3.961  -6.564  -1.844  1.00  0.00    -0.465 OA
BRANCH   9  10
ATOM     10  C   UNL     1      -2.939  -5.880  -1.183  1.00  0.00     0.228 A 
ATOM     11  C   UNL     1      -2.256  -3.961  -0.026  1.00  0.00     0.230 A 
ATOM     12  N   UNL     1      -1.225  -4.660   0.457  1.00  0.00    -0.217 NA
ATOM     13  N   UNL     1      -3.105  -4.541  -0.911  1.00  0.00    -0.177 NA
ATOM     14  C   UNL     1      -1.184  -6.003   0.312  1.00  0.00     0.064 A 
ATOM     15  C   UNL     1      -2.046  -6.688  -0.505  1.00  0.00     0.090 A 
ATOM     16  C   UNL     1      -0.306  -6.758   1.274  1.00  0.00     0.118 C 
ATOM     17  C   UNL     1      -2.161  -8.193  -0.433  1.00  0.00     0.307 C 
ATOM     18  C   UNL     1      -0.931  -8.091   1.650  1.00  0.00     0.269 C 
ATOM     19  N   UNL     1      -1.148  -8.850   0.421  1.00  0.00    -0.327 N 
ATOM     20  H   UNL     1      -0.290  -8.846  -0.132  1.00  0.00     0.348 HD
BRANCH  11  21
ATOM     21  N   UNL     1      -2.525  -2.693   0.599  1.00  0.00    -0.324 N 
ATOM     22  H   UNL     1      -3.437  -2.563   0.947  1.00  0.00     0.170 HD
BRANCH  21  23
ATOM     23  C   UNL     1      -1.608  -1.587   0.774  1.00  0.00     0.044 A 
ATOM     24  C   UNL     1       2.551   1.289   0.408  1.00  0.00     0.047 C 
ATOM     25  C   UNL     1       1.231   0.741   0.947  1.00  0.00    -0.015 A 
ATOM     26  C   UNL     1      -0.524   1.354   1.581  1.00  0.00     0.008 A 
ATOM     27  C   UNL     1       1.398  -0.940   0.282  1.00  0.00     0.128 A 
ATOM     28  C   UNL     1      -1.935   0.095   1.545  1.00  0.00     0.026 A 
ATOM     29  C   UNL     1       0.041  -2.024   0.172  1.00  0.00     0.065 A 
ATOM     30  F   UNL     1       2.593  -1.361  -0.164  1.00  0.00    -0.207 F 
ENDBRANCH  21  23
ENDBRANCH  11  21
BRANCH  19  31
ATOM     31  C   UNL     1      -1.399 -10.274   0.705  1.00  0.00     0.299 C 
BRANCH  31  32
ATOM     32  C   UNL     1      -2.598 -10.582   1.582  1.00  0.00     0.006 A 
ATOM     33  C   UNL     1      -2.451 -10.812   2.960  1.00  0.00     0.009 A 
ATOM     34  C   UNL     1      -3.888 -10.600   1.034  1.00  0.00     0.009 A 
ATOM     35  C   UNL     1      -3.572 -11.014   3.769  1.00  0.00     0.001 A 
ATOM     36  C   UNL     1      -5.007 -10.771   1.847  1.00  0.00     0.001 A 
ATOM     37  C   UNL     1      -4.850 -10.976   3.214  1.00  0.00     0.000 A 
ENDBRANCH  31  32
ENDBRANCH  19  31
ENDBRANCH   9  10
ENDBRANCH   8   9
ENDBRANCH   6   8
ENDBRANCH   5   6
ENDBRANCH   4   5
ENDBRANCH   3   4
ENDBRANCH   2   3
ENDBRANCH   1   2
BRANCH   1  38
ATOM     38  C   UNL     1      -5.864  -4.726   0.020  1.00  0.00     0.188 C 
BRANCH  38  39
ATOM     39  O   UNL     1      -7.039  -4.784   0.786  1.00  0.00    -0.376 OA
BRANCH  39  40
ATOM     40  C   UNL     1      -7.213  -3.813   1.793  1.00  0.00     0.202 C 
BRANCH  40  41
ATOM     41  C   UNL     1      -6.558  -2.420   1.705  1.00  0.00     0.261 C 
BRANCH  41  42
ATOM     42  O   UNL     1      -6.375  -1.791   0.401  1.00  0.00    -0.460 OA
BRANCH  42  43
ATOM     43  C   UNL     1      -5.260  -1.004   0.363  1.00  0.00     0.338 C 
ATOM     44  O   UNL     1      -4.628  -0.806   1.398  1.00  0.00    -0.246 OA
BRANCH  43  45
ATOM     45  C   UNL     1      -4.655  -0.442  -0.942  1.00  0.00     0.060 A 
ATOM     46  C   UNL     1      -3.751  -1.228  -1.709  1.00  0.00     0.016 A 
ATOM     47  C   UNL     1      -4.233   0.866  -0.726  1.00  0.00     0.016 A 
ATOM     48  C   UNL     1      -2.354  -0.949  -1.763  1.00  0.00     0.010 A 
ATOM     49  C   UNL     1      -2.855   1.148  -0.763  1.00  0.00     0.010 A 
ATOM     50  C   UNL     1      -1.887   0.122  -1.018  1.00  0.00    -0.014 A 
BRANCH  50  51
ATOM     51  C   UNL     1      -0.491   0.141   0.042  1.00  0.00     0.031 A 
ATOM     52  C   UNL     1      -0.005   1.862  -0.603  1.00  0.00     0.074 A 
ATOM     53  C   UNL     1      -0.051  -0.544   1.767  1.00  0.00     0.049 A 
ATOM     54  N   UNL     1       0.510   2.763   0.211  1.00  0.00    -0.248 NA
ATOM     55  C   UNL     1      -0.185   2.549  -1.888  1.00  0.00     0.031 C 
ATOM     56  C   UNL     1       0.543   0.395   3.155  1.00  0.00     0.029 A 
ATOM     57  N   UNL     1      -0.349  -1.629   2.768  1.00  0.00    -0.354 N 
ATOM     58  C   UNL     1       0.848   3.945  -0.272  1.00  0.00     0.074 A 
ATOM     59  C   UNL     1       0.299   3.804  -1.621  1.00  0.00     0.031 C 
ATOM     60  C   UNL     1       0.139  -0.038   4.338  1.00  0.00     0.029 A 
ATOM     61  C   UNL     1       0.077  -1.422   4.126  1.00  0.00     0.049 A 
ATOM     62  H   UNL     1      -0.821  -2.451   2.502  1.00  0.00     0.167 HD
ATOM     63  C   UNL     1       1.454   4.776   0.650  1.00  0.00     0.037 A 
ATOM     64  C   UNL     1       1.129  -2.113   4.667  1.00  0.00     0.037 A 
ATOM     65  C   UNL     1       1.979   4.138   1.965  1.00  0.00     0.049 A 
ATOM     66  C   UNL     1       2.478  -1.437   4.316  1.00  0.00     0.074 A 
ATOM     67  C   UNL     1       1.535   4.051   3.280  1.00  0.00     0.029 A 
ATOM     68  N   UNL     1       3.227   3.476   2.053  1.00  0.00    -0.354 N 
ATOM     69  N   UNL     1       2.768  -0.147   4.436  1.00  0.00    -0.248 NA
ATOM     70  C   UNL     1       3.512  -2.172   3.601  1.00  0.00     0.031 C 
ATOM     71  C   UNL     1       2.384   3.128   4.021  1.00  0.00     0.029 A 
ATOM     72  C   UNL     1       3.356   2.605   3.174  1.00  0.00     0.049 A 
ATOM     73  H   UNL     1       3.946   3.607   1.394  1.00  0.00     0.167 HD
ATOM     74  C   UNL     1       3.858   0.159   3.632  1.00  0.00     0.074 A 
ATOM     75  C   UNL     1       4.316  -1.174   3.199  1.00  0.00     0.031 C 
ATOM     76  C   UNL     1       4.307   1.411   3.197  1.00  0.00     0.037 A 
BRANCH  63  77
ATOM     77  C   UNL     1       1.482   6.268   0.464  1.00  0.00     0.057 A 
ATOM     78  C   UNL     1       2.328   7.071   1.249  1.00  0.00     0.134 A 
ATOM     79  C   UNL     1       0.583   6.972  -0.359  1.00  0.00     0.134 A 
ATOM     80  F   UNL     1       3.220   6.528   2.092  1.00  0.00    -0.206 F 
ATOM     81  C   UNL     1       2.285   8.470   1.215  1.00  0.00     0.040 A 
ATOM     82  C   UNL     1       0.560   8.369  -0.434  1.00  0.00     0.040 A 
ATOM     83  F   UNL     1      -0.355   6.343  -1.081  1.00  0.00    -0.206 F 
ATOM     84  C   UNL     1       1.407   9.125   0.362  1.00  0.00     0.006 A 
ENDBRANCH  63  77
BRANCH  64  85
ATOM     85  C   UNL     1       0.677  -3.533   4.857  1.00  0.00     0.057 A 
ATOM     86  C   UNL     1      -0.191  -3.670   5.971  1.00  0.00     0.134 A 
ATOM     87  C   UNL     1       0.251  -4.171   3.700  1.00  0.00     0.134 A 
ATOM     88  F   UNL     1       0.191  -3.209   7.171  1.00  0.00    -0.206 F 
ATOM     89  C   UNL     1      -1.540  -4.044   5.833  1.00  0.00     0.040 A 
ATOM     90  C   UNL     1      -1.124  -4.437   3.547  1.00  0.00     0.040 A 
ATOM     91  F   UNL     1       1.038  -4.173   2.611  1.00  0.00    -0.206 F 
ATOM     92  C   UNL     1      -2.035  -4.337   4.581  1.00  0.00     0.006 A 
ENDBRANCH  64  85
BRANCH  76  93
ATOM     93  C   UNL     1       5.749   1.467   2.635  1.00  0.00     0.057 A 
ATOM     94  C   UNL     1       6.775   0.630   3.141  1.00  0.00     0.134 A 
ATOM     95  C   UNL     1       6.205   2.373   1.660  1.00  0.00     0.134 A 
ATOM     96  F   UNL     1       6.553  -0.200   4.173  1.00  0.00    -0.206 F 
ATOM     97  C   UNL     1       8.081   0.598   2.626  1.00  0.00     0.040 A 
ATOM     98  C   UNL     1       7.529   2.405   1.189  1.00  0.00     0.040 A 
ATOM     99  F   UNL     1       5.402   3.278   1.092  1.00  0.00    -0.206 F 
ATOM    100  C   UNL     1       8.466   1.494   1.646  1.00  0.00     0.006 A 
ENDBRANCH  76  93
ENDBRANCH  50  51
ENDBRANCH  43  45
ENDBRANCH  42  43
ENDBRANCH  41  42
ENDBRANCH  40  41
ENDBRANCH  39  40
ENDBRANCH  38  39
ENDBRANCH   1  38
TORSDOF 23
