REMARK SMILES C[C@H]1[C@H](C(=O)OCCOCCOCCOC(=O)c2ccc(-c3c4nc(c(-c5c(F)cccc5F)c5ccc([nH]5)c(-c5c(F)cccc5F)c5nc(c(-c6c(F)cccc6F)c6ccc3[nH]6)C=C5)C=C4)cc2)CCN1S(=O)(=O)N(C)Cc1ccccc1
REMARK SMILES IDX 10 1 9 2 8 3 7 4 6 5 4 6 5 7 3 8 1 9 2 10 74 11 72 12 73 13
REMARK SMILES IDX 75 14 76 15 77 16 78 17 79 18 80 19 81 20 82 21 86 22 83 23
REMARK SMILES IDX 85 24 84 25 11 26 12 27 13 28 14 29 15 30 16 31 17 32 18 33
REMARK SMILES IDX 19 34 71 35 20 36 70 37 21 38 22 39 23 40 64 41 24 42 69 43
REMARK SMILES IDX 63 44 65 45 25 46 68 47 62 48 61 49 26 51 52 52 35 53 51 54
REMARK SMILES IDX 36 55 39 56 50 57 66 58 37 59 38 60 49 62 67 63 40 64 27 65
REMARK SMILES IDX 28 66 33 67 29 68 30 69 32 70 34 71 31 72 53 73 54 74 59 75
REMARK SMILES IDX 55 76 56 77 58 78 60 79 57 80 41 81 42 82 47 83 43 84 44 85
REMARK SMILES IDX 46 86 48 87 45 88
REMARK H PARENT 65 50 39 61
REMARK Flexibility Score: inf
ROOT
ATOM      1  C   UNL     1       1.296   4.077   1.562  1.00  0.00     0.188 C 
ENDROOT
BRANCH   1   2
ATOM      2  O   UNL     1       0.649   4.884   2.536  1.00  0.00    -0.376 OA
BRANCH   2   3
ATOM      3  C   UNL     1      -0.092   4.193   3.544  1.00  0.00     0.202 C 
BRANCH   3   4
ATOM      4  C   UNL     1      -1.186   3.226   3.060  1.00  0.00     0.261 C 
BRANCH   4   5
ATOM      5  O   UNL     1      -0.723   2.177   2.174  1.00  0.00    -0.463 OA
BRANCH   5   6
ATOM      6  C   UNL     1      -1.356   2.105   0.975  1.00  0.00     0.310 C 
ATOM      7  O   UNL     1      -2.249   2.872   0.620  1.00  0.00    -0.252 OA
BRANCH   6   8
ATOM      8  C   UNL     1      -0.827   1.061   0.005  1.00  0.00     0.118 C 
ATOM      9  C   UNL     1       1.435   0.131  -0.614  1.00  0.00     0.027 C 
ATOM     10  C   UNL     1       0.301   0.110   0.433  1.00  0.00     0.085 C 
ATOM     11  N   UNL     1      -0.265  -1.288   0.401  1.00  0.00    -0.185 NA
ATOM     12  C   UNL     1      -1.986   0.162  -0.412  1.00  0.00     0.034 C 
ATOM     13  C   UNL     1      -1.386  -1.219  -0.587  1.00  0.00     0.105 C 
BRANCH  11  14
ATOM     14  S   UNL     1      -0.755  -1.940   1.888  1.00  0.00     0.282 S 
ATOM     15  O   UNL     1      -1.467  -0.883   2.565  1.00  0.00    -0.195 OA
ATOM     16  O   UNL     1      -1.411  -3.201   1.619  1.00  0.00    -0.195 OA
BRANCH  14  17
ATOM     17  N   UNL     1       0.644  -2.314   2.715  1.00  0.00    -0.188 NA
ATOM     18  C   UNL     1       1.967  -1.779   2.433  1.00  0.00     0.126 C 
BRANCH  17  19
ATOM     19  C   UNL     1       0.467  -2.857   4.078  1.00  0.00     0.138 C 
BRANCH  19  20
ATOM     20  C   UNL     1      -0.025  -1.906   5.152  1.00  0.00    -0.033 A 
ATOM     21  C   UNL     1       0.100  -0.511   5.067  1.00  0.00     0.005 A 
ATOM     22  C   UNL     1      -0.628  -2.445   6.301  1.00  0.00     0.005 A 
ATOM     23  C   UNL     1      -0.400   0.321   6.070  1.00  0.00     0.000 A 
ATOM     24  C   UNL     1      -1.123  -1.613   7.307  1.00  0.00     0.000 A 
ATOM     25  C   UNL     1      -1.015  -0.230   7.188  1.00  0.00     0.000 A 
ENDBRANCH  19  20
ENDBRANCH  17  19
ENDBRANCH  14  17
ENDBRANCH  11  14
ENDBRANCH   6   8
ENDBRANCH   5   6
ENDBRANCH   4   5
ENDBRANCH   3   4
ENDBRANCH   2   3
ENDBRANCH   1   2
BRANCH   1  26
ATOM     26  C   UNL     1       2.337   3.088   2.097  1.00  0.00     0.188 C 
BRANCH  26  27
ATOM     27  O   UNL     1       2.016   2.463   3.325  1.00  0.00    -0.376 OA
BRANCH  27  28
ATOM     28  C   UNL     1       3.067   1.847   4.067  1.00  0.00     0.202 C 
BRANCH  28  29
ATOM     29  C   UNL     1       4.381   2.621   4.303  1.00  0.00     0.261 C 
BRANCH  29  30
ATOM     30  O   UNL     1       5.095   3.097   3.142  1.00  0.00    -0.460 OA
BRANCH  30  31
ATOM     31  C   UNL     1       5.285   2.267   2.091  1.00  0.00     0.338 C 
ATOM     32  O   UNL     1       5.116   1.058   2.076  1.00  0.00    -0.246 OA
BRANCH  31  33
ATOM     33  C   UNL     1       5.426   3.113   0.870  1.00  0.00     0.060 A 
ATOM     34  C   UNL     1       4.776   2.704  -0.305  1.00  0.00     0.016 A 
ATOM     35  C   UNL     1       6.080   4.348   0.900  1.00  0.00     0.016 A 
ATOM     36  C   UNL     1       4.787   3.512  -1.448  1.00  0.00     0.010 A 
ATOM     37  C   UNL     1       6.112   5.146  -0.248  1.00  0.00     0.010 A 
ATOM     38  C   UNL     1       5.489   4.723  -1.437  1.00  0.00    -0.014 A 
BRANCH  38  39
ATOM     39  C   UNL     1       5.797   5.442  -2.700  1.00  0.00     0.031 A 
ATOM     40  C   UNL     1       7.154   5.213  -3.309  1.00  0.00     0.074 A 
ATOM     41  C   UNL     1       4.940   6.302  -3.278  1.00  0.00     0.049 A 
ATOM     42  N   UNL     1       7.759   5.858  -4.270  1.00  0.00    -0.248 NA
ATOM     43  C   UNL     1       7.938   4.106  -2.736  1.00  0.00     0.031 C 
ATOM     44  C   UNL     1       3.571   6.565  -2.841  1.00  0.00     0.029 A 
ATOM     45  N   UNL     1       5.117   7.140  -4.354  1.00  0.00    -0.354 N 
ATOM     46  C   UNL     1       9.005   5.257  -4.395  1.00  0.00     0.074 A 
ATOM     47  C   UNL     1       9.075   4.207  -3.404  1.00  0.00     0.031 C 
ATOM     48  C   UNL     1       3.042   7.524  -3.623  1.00  0.00     0.029 A 
ATOM     49  C   UNL     1       4.051   7.979  -4.580  1.00  0.00     0.049 A 
ATOM     50  H   UNL     1       5.929   7.139  -4.910  1.00  0.00     0.167 HD
ATOM     51  C   UNL     1      10.005   5.556  -5.256  1.00  0.00     0.037 A 
ATOM     52  C   UNL     1       3.927   9.022  -5.427  1.00  0.00     0.037 A 
ATOM     53  C   UNL     1       9.931   6.600  -6.242  1.00  0.00     0.049 A 
ATOM     54  C   UNL     1       5.088   9.402  -6.316  1.00  0.00     0.074 A 
ATOM     55  C   UNL     1      10.888   6.980  -7.166  1.00  0.00     0.029 A 
ATOM     56  N   UNL     1       8.839   7.434  -6.425  1.00  0.00    -0.354 N 
ATOM     57  N   UNL     1       6.266   8.838  -6.426  1.00  0.00    -0.248 NA
ATOM     58  C   UNL     1       4.905  10.571  -7.192  1.00  0.00     0.031 C 
ATOM     59  C   UNL     1      10.397   8.082  -7.870  1.00  0.00     0.029 A 
ATOM     60  C   UNL     1       9.109   8.344  -7.432  1.00  0.00     0.049 A 
ATOM     61  H   UNL     1       7.999   7.387  -5.915  1.00  0.00     0.167 HD
ATOM     62  C   UNL     1       6.945   9.552  -7.409  1.00  0.00     0.074 A 
ATOM     63  C   UNL     1       6.050  10.595  -7.862  1.00  0.00     0.031 C 
ATOM     64  C   UNL     1       8.194   9.355  -7.897  1.00  0.00     0.037 A 
BRANCH  51  65
ATOM     65  C   UNL     1      11.279   4.773  -5.137  1.00  0.00     0.057 A 
ATOM     66  C   UNL     1      11.361   3.423  -5.500  1.00  0.00     0.134 A 
ATOM     67  C   UNL     1      12.447   5.389  -4.670  1.00  0.00     0.134 A 
ATOM     68  F   UNL     1      10.274   2.768  -5.936  1.00  0.00    -0.206 F 
ATOM     69  C   UNL     1      12.553   2.707  -5.380  1.00  0.00     0.040 A 
ATOM     70  C   UNL     1      13.652   4.692  -4.575  1.00  0.00     0.040 A 
ATOM     71  F   UNL     1      12.439   6.681  -4.306  1.00  0.00    -0.206 F 
ATOM     72  C   UNL     1      13.705   3.345  -4.923  1.00  0.00     0.006 A 
ENDBRANCH  51  65
BRANCH  52  73
ATOM     73  C   UNL     1       2.670   9.818  -5.458  1.00  0.00     0.057 A 
ATOM     74  C   UNL     1       1.839   9.821  -6.586  1.00  0.00     0.134 A 
ATOM     75  C   UNL     1       2.287  10.624  -4.379  1.00  0.00     0.134 A 
ATOM     76  F   UNL     1       2.166   9.095  -7.665  1.00  0.00    -0.206 F 
ATOM     77  C   UNL     1       0.686  10.606  -6.646  1.00  0.00     0.040 A 
ATOM     78  C   UNL     1       1.121  11.392  -4.413  1.00  0.00     0.040 A 
ATOM     79  F   UNL     1       3.040  10.675  -3.271  1.00  0.00    -0.206 F 
ATOM     80  C   UNL     1       0.320  11.390  -5.554  1.00  0.00     0.006 A 
ENDBRANCH  52  73
BRANCH  64  81
ATOM     81  C   UNL     1       8.658  10.226  -9.029  1.00  0.00     0.057 A 
ATOM     82  C   UNL     1       9.026  11.563  -8.841  1.00  0.00     0.134 A 
ATOM     83  C   UNL     1       8.836   9.679 -10.308  1.00  0.00     0.134 A 
ATOM     84  F   UNL     1       8.874  12.150  -7.644  1.00  0.00    -0.206 F 
ATOM     85  C   UNL     1       9.551  12.327  -9.886  1.00  0.00     0.040 A 
ATOM     86  C   UNL     1       9.384  10.424 -11.352  1.00  0.00     0.040 A 
ATOM     87  F   UNL     1       8.514   8.400 -10.552  1.00  0.00    -0.206 F 
ATOM     88  C   UNL     1       9.743  11.753 -11.143  1.00  0.00     0.006 A 
ENDBRANCH  64  81
ENDBRANCH  38  39
ENDBRANCH  31  33
ENDBRANCH  30  31
ENDBRANCH  29  30
ENDBRANCH  28  29
ENDBRANCH  27  28
ENDBRANCH  26  27
ENDBRANCH   1  26
TORSDOF 21
