REMARK SMILES Cc1cccc(NC(=O)COc2ccc(N3C[C@@H](C(=O)OCCOCCOCCOC(=O)c4ccc(-c5c6nc(c(-c7c(F)cccc7F)c7ccc([nH]7)c(-c7c(F)cccc7F)c7nc(c(-c8c(F)cccc8F)c8ccc5[nH]8)C=C7)C=C6)cc4)CC3=O)cc2)c1
REMARK SMILES IDX 24 1 23 2 22 3 21 4 19 5 20 6 18 7 16 8 17 9 88 10 87 11
REMARK SMILES IDX 89 12 15 13 12 14 13 15 91 16 14 17 90 18 11 19 10 20 8 21
REMARK SMILES IDX 7 22 9 24 6 25 1 26 2 27 3 28 92 29 4 30 5 31 25 32 26 33
REMARK SMILES IDX 27 34 28 35 29 36 30 37 31 38 32 39 33 40 34 41 86 42 35 43
REMARK SMILES IDX 85 44 36 45 37 46 38 47 79 48 39 49 84 50 78 51 80 52 40 53
REMARK SMILES IDX 83 54 77 55 76 56 41 58 67 59 50 60 66 61 51 62 54 63 65 64
REMARK SMILES IDX 81 65 52 66 53 67 64 69 82 70 55 71 42 72 43 73 48 74 44 75
REMARK SMILES IDX 45 76 47 77 49 78 46 79 68 80 69 81 74 82 70 83 71 84 73 85
REMARK SMILES IDX 75 86 72 87 56 88 57 89 62 90 58 91 59 92 61 93 63 94 60 95
REMARK H PARENT 7 23 80 57 54 68
REMARK Flexibility Score: inf
ROOT
ATOM      1  O   UNL     1      -8.104   4.718 -13.563  1.00  0.00    -0.376 OA
ENDROOT
BRANCH   1   2
ATOM      2  C   UNL     1      -8.517   4.449 -12.228  1.00  0.00     0.202 C 
BRANCH   2   3
ATOM      3  C   UNL     1      -7.399   4.432 -11.147  1.00  0.00     0.261 C 
BRANCH   3   4
ATOM      4  O   UNL     1      -6.347   3.386 -10.874  1.00  0.00    -0.463 OA
BRANCH   4   5
ATOM      5  C   UNL     1      -6.559   2.323 -10.055  1.00  0.00     0.311 C 
ATOM      6  O   UNL     1      -7.679   1.859  -9.909  1.00  0.00    -0.252 OA
BRANCH   5   7
ATOM      7  C   UNL     1      -5.483   1.550  -9.313  1.00  0.00     0.128 C 
ATOM      8  N   UNL     1      -4.715   1.626  -7.026  1.00  0.00    -0.312 N 
ATOM      9  C   UNL     1      -5.872   1.277  -7.828  1.00  0.00     0.141 C 
ATOM     10  C   UNL     1      -3.684   2.136  -7.811  1.00  0.00     0.227 C 
ATOM     11  C   UNL     1      -4.054   2.017  -9.275  1.00  0.00     0.117 C 
ATOM     12  O   UNL     1      -2.594   2.559  -7.437  1.00  0.00    -0.274 OA
BRANCH   8  13
ATOM     13  C   UNL     1      -4.650   1.465  -5.603  1.00  0.00     0.044 A 
ATOM     14  C   UNL     1      -4.320   1.038  -2.799  1.00  0.00     0.120 A 
ATOM     15  C   UNL     1      -4.997   0.113  -3.596  1.00  0.00     0.048 A 
ATOM     16  C   UNL     1      -3.825   2.192  -3.393  1.00  0.00     0.048 A 
ATOM     17  C   UNL     1      -5.198   0.341  -4.973  1.00  0.00     0.030 A 
ATOM     18  C   UNL     1      -3.968   2.385  -4.787  1.00  0.00     0.030 A 
BRANCH  14  19
ATOM     19  O   UNL     1      -4.080   0.654  -1.510  1.00  0.00    -0.484 OA
BRANCH  19  20
ATOM     20  C   UNL     1      -4.260   1.615  -0.483  1.00  0.00     0.329 C 
BRANCH  20  21
ATOM     21  C   UNL     1      -3.141   2.596  -0.128  1.00  0.00     0.262 C 
ATOM     22  N   UNL     1      -1.843   2.239   0.066  1.00  0.00    -0.323 N 
ATOM     23  H   UNL     1      -1.259   3.014   0.232  1.00  0.00     0.170 HD
ATOM     24  O   UNL     1      -3.410   3.798   0.011  1.00  0.00    -0.271 OA
BRANCH  22  25
ATOM     25  C   UNL     1      -1.140   1.023   0.086  1.00  0.00     0.041 A 
ATOM     26  C   UNL     1       2.573   0.102  -0.048  1.00  0.00     0.044 C 
ATOM     27  C   UNL     1       1.079  -0.018   0.028  1.00  0.00    -0.049 A 
ATOM     28  C   UNL     1       0.480  -1.277   0.062  1.00  0.00     0.003 A 
ATOM     29  C   UNL     1       0.262   1.122   0.049  1.00  0.00     0.029 A 
ATOM     30  C   UNL     1      -0.908  -1.387   0.137  1.00  0.00     0.002 A 
ATOM     31  C   UNL     1      -1.713  -0.242   0.158  1.00  0.00     0.026 A 
ENDBRANCH  22  25
ENDBRANCH  20  21
ENDBRANCH  19  20
ENDBRANCH  14  19
ENDBRANCH   8  13
ENDBRANCH   5   7
ENDBRANCH   4   5
ENDBRANCH   3   4
ENDBRANCH   2   3
ENDBRANCH   1   2
BRANCH   1  32
ATOM     32  C   UNL     1      -7.007   3.899 -13.910  1.00  0.00     0.188 C 
BRANCH  32  33
ATOM     33  C   UNL     1      -5.694   4.673 -13.833  1.00  0.00     0.188 C 
BRANCH  33  34
ATOM     34  O   UNL     1      -5.626   5.625 -12.787  1.00  0.00    -0.376 OA
BRANCH  34  35
ATOM     35  C   UNL     1      -6.102   6.942 -13.072  1.00  0.00     0.202 C 
BRANCH  35  36
ATOM     36  C   UNL     1      -4.906   7.868 -12.842  1.00  0.00     0.261 C 
BRANCH  36  37
ATOM     37  O   UNL     1      -4.689   8.033 -11.419  1.00  0.00    -0.460 OA
BRANCH  37  38
ATOM     38  C   UNL     1      -4.146   6.973 -10.758  1.00  0.00     0.338 C 
ATOM     39  O   UNL     1      -3.214   6.287 -11.143  1.00  0.00    -0.246 OA
BRANCH  38  40
ATOM     40  C   UNL     1      -5.039   6.621  -9.602  1.00  0.00     0.060 A 
ATOM     41  C   UNL     1      -4.809   5.443  -8.894  1.00  0.00     0.016 A 
ATOM     42  C   UNL     1      -6.256   7.285  -9.405  1.00  0.00     0.016 A 
ATOM     43  C   UNL     1      -5.873   4.824  -8.213  1.00  0.00     0.010 A 
ATOM     44  C   UNL     1      -7.324   6.629  -8.778  1.00  0.00     0.010 A 
ATOM     45  C   UNL     1      -7.181   5.317  -8.310  1.00  0.00    -0.014 A 
BRANCH  45  46
ATOM     46  C   UNL     1      -8.407   4.577  -7.853  1.00  0.00     0.031 A 
ATOM     47  C   UNL     1      -8.451   4.430  -6.382  1.00  0.00     0.074 A 
ATOM     48  C   UNL     1      -9.447   3.997  -8.562  1.00  0.00     0.049 A 
ATOM     49  N   UNL     1      -9.085   3.499  -5.747  1.00  0.00    -0.248 NA
ATOM     50  C   UNL     1      -7.601   5.250  -5.496  1.00  0.00     0.031 C 
ATOM     51  C   UNL     1     -10.838   3.915  -8.138  1.00  0.00     0.029 A 
ATOM     52  N   UNL     1      -9.533   3.307  -9.792  1.00  0.00    -0.354 N 
ATOM     53  C   UNL     1      -9.171   4.008  -4.473  1.00  0.00     0.074 A 
ATOM     54  C   UNL     1      -7.960   4.753  -4.313  1.00  0.00     0.031 C 
ATOM     55  C   UNL     1     -11.544   3.104  -8.957  1.00  0.00     0.029 A 
ATOM     56  C   UNL     1     -10.644   2.475  -9.913  1.00  0.00     0.049 A 
ATOM     57  H   UNL     1      -8.862   3.406 -10.506  1.00  0.00     0.167 HD
ATOM     58  C   UNL     1     -10.421   4.183  -3.951  1.00  0.00     0.037 A 
ATOM     59  C   UNL     1     -10.661   1.179 -10.391  1.00  0.00     0.037 A 
ATOM     60  C   UNL     1     -11.420   3.364  -4.663  1.00  0.00     0.049 A 
ATOM     61  C   UNL     1     -11.241   0.295  -9.324  1.00  0.00     0.074 A 
ATOM     62  C   UNL     1     -12.601   3.654  -5.331  1.00  0.00     0.029 A 
ATOM     63  N   UNL     1     -11.141   2.028  -4.957  1.00  0.00    -0.354 N 
ATOM     64  N   UNL     1     -11.250   0.671  -8.082  1.00  0.00    -0.248 NA
ATOM     65  C   UNL     1     -11.800  -1.039  -9.508  1.00  0.00     0.031 C 
ATOM     66  C   UNL     1     -13.047   2.478  -5.988  1.00  0.00     0.029 A 
ATOM     67  C   UNL     1     -12.144   1.466  -5.715  1.00  0.00     0.049 A 
ATOM     68  H   UNL     1     -10.333   1.550  -4.662  1.00  0.00     0.167 HD
ATOM     69  C   UNL     1     -11.904  -0.249  -7.327  1.00  0.00     0.074 A 
ATOM     70  C   UNL     1     -12.177  -1.335  -8.248  1.00  0.00     0.031 C 
ATOM     71  C   UNL     1     -12.153   0.037  -6.019  1.00  0.00     0.037 A 
BRANCH  58  72
ATOM     72  C   UNL     1     -10.800   5.343  -3.020  1.00  0.00     0.057 A 
ATOM     73  C   UNL     1     -12.141   5.502  -2.617  1.00  0.00     0.134 A 
ATOM     74  C   UNL     1      -9.960   6.387  -2.561  1.00  0.00     0.134 A 
ATOM     75  F   UNL     1     -13.075   4.584  -2.900  1.00  0.00    -0.206 F 
ATOM     76  C   UNL     1     -12.610   6.612  -1.896  1.00  0.00     0.040 A 
ATOM     77  C   UNL     1     -10.409   7.480  -1.806  1.00  0.00     0.040 A 
ATOM     78  F   UNL     1      -8.652   6.456  -2.810  1.00  0.00    -0.206 F 
ATOM     79  C   UNL     1     -11.743   7.607  -1.483  1.00  0.00     0.006 A 
ENDBRANCH  58  72
BRANCH  59  80
ATOM     80  C   UNL     1      -9.708   0.620 -11.425  1.00  0.00     0.057 A 
ATOM     81  C   UNL     1      -9.732   1.089 -12.748  1.00  0.00     0.134 A 
ATOM     82  C   UNL     1      -8.662  -0.276 -11.133  1.00  0.00     0.134 A 
ATOM     83  F   UNL     1     -10.749   1.853 -13.171  1.00  0.00    -0.206 F 
ATOM     84  C   UNL     1      -8.694   0.834 -13.665  1.00  0.00     0.040 A 
ATOM     85  C   UNL     1      -7.594  -0.506 -12.027  1.00  0.00     0.040 A 
ATOM     86  F   UNL     1      -8.575  -0.857  -9.928  1.00  0.00    -0.206 F 
ATOM     87  C   UNL     1      -7.586   0.086 -13.284  1.00  0.00     0.006 A 
ENDBRANCH  59  80
BRANCH  71  88
ATOM     88  C   UNL     1     -12.553  -0.913  -4.926  1.00  0.00     0.057 A 
ATOM     89  C   UNL     1     -12.480  -2.307  -5.009  1.00  0.00     0.134 A 
ATOM     90  C   UNL     1     -12.903  -0.410  -3.647  1.00  0.00     0.134 A 
ATOM     91  F   UNL     1     -12.056  -2.934  -6.112  1.00  0.00    -0.206 F 
ATOM     92  C   UNL     1     -12.789  -3.137  -3.924  1.00  0.00     0.040 A 
ATOM     93  C   UNL     1     -13.154  -1.225  -2.547  1.00  0.00     0.040 A 
ATOM     94  F   UNL     1     -12.988   0.901  -3.385  1.00  0.00    -0.206 F 
ATOM     95  C   UNL     1     -13.115  -2.598  -2.686  1.00  0.00     0.006 A 
ENDBRANCH  71  88
ENDBRANCH  45  46
ENDBRANCH  38  40
ENDBRANCH  37  38
ENDBRANCH  36  37
ENDBRANCH  35  36
ENDBRANCH  34  35
ENDBRANCH  33  34
ENDBRANCH  32  33
ENDBRANCH   1  32
TORSDOF 22
