REMARK SMILES O=C(OCCOCCOCCOC(=O)[C@@H](c1ccccc1)N1C(=O)/C(=C\c2ccc(-c3ccc(F)cc3)o2)SC1=S)c1ccc(-c2c3nc(c(-c4c(F)cccc4F)c4ccc([nH]4)c(-c4c(F)cccc4F)c4nc(c(-c5c(F)cccc5F)c5ccc2[nH]5)C=C4)C=C3)cc1
REMARK SMILES IDX 8 1 7 2 6 3 5 4 4 5 3 6 2 7 1 8 42 9 43 10 95 11 44 12 94 13
REMARK SMILES IDX 45 14 46 15 47 16 88 17 48 18 93 19 87 20 89 21 49 22 92 23
REMARK SMILES IDX 86 24 85 25 50 27 76 28 59 29 75 30 60 31 63 32 74 33 90 34
REMARK SMILES IDX 61 35 62 36 73 38 91 39 64 40 51 41 52 42 57 43 53 44 54 45
REMARK SMILES IDX 56 46 58 47 55 48 77 49 78 50 83 51 79 52 80 53 82 54 84 55
REMARK SMILES IDX 81 56 65 57 66 58 71 59 67 60 68 61 70 62 72 63 69 64 9 65
REMARK SMILES IDX 10 66 11 67 12 68 13 69 14 70 15 71 16 72 17 73 21 74 18 75
REMARK SMILES IDX 20 76 19 77 22 78 23 79 40 80 24 81 25 82 39 83 41 84 26 85
REMARK SMILES IDX 27 86 28 87 38 88 29 89 30 90 31 91 32 92 37 93 33 94 36 95
REMARK SMILES IDX 34 96 35 97
REMARK H PARENT 89 26 63 37
REMARK Flexibility Score: inf
ROOT
ATOM      1  C   UNL     1       2.115  -2.378  -1.356  1.00  0.00     0.188 C 
ENDROOT
BRANCH   1   2
ATOM      2  C   UNL     1       2.827  -1.460  -0.361  1.00  0.00     0.188 C 
BRANCH   2   3
ATOM      3  O   UNL     1       4.197  -1.187  -0.680  1.00  0.00    -0.376 OA
BRANCH   3   4
ATOM      4  C   UNL     1       5.094  -1.505   0.392  1.00  0.00     0.202 C 
BRANCH   4   5
ATOM      5  C   UNL     1       5.076  -0.557   1.601  1.00  0.00     0.261 C 
BRANCH   5   6
ATOM      6  O   UNL     1       3.830   0.117   1.808  1.00  0.00    -0.460 OA
BRANCH   6   7
ATOM      7  C   UNL     1       3.383   1.282   1.289  1.00  0.00     0.338 C 
ATOM      8  O   UNL     1       2.291   1.694   1.683  1.00  0.00    -0.246 OA
BRANCH   7   9
ATOM      9  C   UNL     1       4.075   2.081   0.217  1.00  0.00     0.060 A 
ATOM     10  C   UNL     1       5.204   1.709  -0.524  1.00  0.00     0.016 A 
ATOM     11  C   UNL     1       3.450   3.289  -0.141  1.00  0.00     0.016 A 
ATOM     12  C   UNL     1       5.685   2.476  -1.600  1.00  0.00     0.010 A 
ATOM     13  C   UNL     1       3.899   4.039  -1.238  1.00  0.00     0.010 A 
ATOM     14  C   UNL     1       5.033   3.643  -1.982  1.00  0.00    -0.014 A 
BRANCH  14  15
ATOM     15  C   UNL     1       5.649   4.625  -2.922  1.00  0.00     0.031 A 
ATOM     16  C   UNL     1       6.029   5.925  -2.273  1.00  0.00     0.074 A 
ATOM     17  C   UNL     1       5.951   4.412  -4.225  1.00  0.00     0.049 A 
ATOM     18  N   UNL     1       6.269   7.090  -2.798  1.00  0.00    -0.248 NA
ATOM     19  C   UNL     1       6.126   5.895  -0.796  1.00  0.00     0.031 C 
ATOM     20  C   UNL     1       5.931   3.121  -4.910  1.00  0.00     0.029 A 
ATOM     21  N   UNL     1       6.350   5.287  -5.222  1.00  0.00    -0.354 N 
ATOM     22  C   UNL     1       6.575   7.906  -1.718  1.00  0.00     0.074 A 
ATOM     23  C   UNL     1       6.291   7.171  -0.511  1.00  0.00     0.031 C 
ATOM     24  C   UNL     1       6.298   3.294  -6.198  1.00  0.00     0.029 A 
ATOM     25  C   UNL     1       6.411   4.714  -6.487  1.00  0.00     0.049 A 
ATOM     26  H   UNL     1       6.571   6.231  -5.050  1.00  0.00     0.167 HD
ATOM     27  C   UNL     1       7.165   9.120  -1.732  1.00  0.00     0.037 A 
ATOM     28  C   UNL     1       6.436   5.299  -7.713  1.00  0.00     0.037 A 
ATOM     29  C   UNL     1       7.465   9.803  -2.952  1.00  0.00     0.049 A 
ATOM     30  C   UNL     1       6.598   6.800  -7.718  1.00  0.00     0.074 A 
ATOM     31  C   UNL     1       8.066  11.028  -3.143  1.00  0.00     0.029 A 
ATOM     32  N   UNL     1       7.168   9.287  -4.209  1.00  0.00    -0.354 N 
ATOM     33  N   UNL     1       6.696   7.617  -6.694  1.00  0.00    -0.248 NA
ATOM     34  C   UNL     1       6.704   7.461  -9.026  1.00  0.00     0.031 C 
ATOM     35  C   UNL     1       8.076  11.281  -4.519  1.00  0.00     0.029 A 
ATOM     36  C   UNL     1       7.543  10.185  -5.184  1.00  0.00     0.049 A 
ATOM     37  H   UNL     1       6.751   8.411  -4.377  1.00  0.00     0.167 HD
ATOM     38  C   UNL     1       6.987   8.860  -7.231  1.00  0.00     0.074 A 
ATOM     39  C   UNL     1       6.909   8.721  -8.672  1.00  0.00     0.031 C 
ATOM     40  C   UNL     1       7.395   9.988  -6.603  1.00  0.00     0.037 A 
BRANCH  27  41
ATOM     41  C   UNL     1       7.506   9.702  -0.394  1.00  0.00     0.057 A 
ATOM     42  C   UNL     1       8.458   9.096   0.447  1.00  0.00     0.134 A 
ATOM     43  C   UNL     1       6.775  10.771   0.128  1.00  0.00     0.134 A 
ATOM     44  F   UNL     1       9.171   8.042   0.020  1.00  0.00    -0.206 F 
ATOM     45  C   UNL     1       8.607   9.482   1.780  1.00  0.00     0.040 A 
ATOM     46  C   UNL     1       6.941  11.189   1.450  1.00  0.00     0.040 A 
ATOM     47  F   UNL     1       5.850  11.392  -0.619  1.00  0.00    -0.206 F 
ATOM     48  C   UNL     1       7.841  10.528   2.286  1.00  0.00     0.006 A 
ENDBRANCH  27  41
BRANCH  28  49
ATOM     49  C   UNL     1       6.203   4.577  -9.022  1.00  0.00     0.057 A 
ATOM     50  C   UNL     1       7.083   3.661  -9.594  1.00  0.00     0.134 A 
ATOM     51  C   UNL     1       5.078   4.881  -9.813  1.00  0.00     0.134 A 
ATOM     52  F   UNL     1       8.251   3.389  -8.998  1.00  0.00    -0.206 F 
ATOM     53  C   UNL     1       6.816   3.040 -10.833  1.00  0.00     0.040 A 
ATOM     54  C   UNL     1       4.762   4.241 -11.016  1.00  0.00     0.040 A 
ATOM     55  F   UNL     1       4.300   5.909  -9.477  1.00  0.00    -0.206 F 
ATOM     56  C   UNL     1       5.636   3.302 -11.531  1.00  0.00     0.006 A 
ENDBRANCH  28  49
BRANCH  40  57
ATOM     57  C   UNL     1       7.896  11.085  -7.480  1.00  0.00     0.057 A 
ATOM     58  C   UNL     1       7.043  11.973  -8.136  1.00  0.00     0.134 A 
ATOM     59  C   UNL     1       9.278  11.280  -7.597  1.00  0.00     0.134 A 
ATOM     60  F   UNL     1       5.713  11.804  -8.085  1.00  0.00    -0.206 F 
ATOM     61  C   UNL     1       7.553  13.038  -8.875  1.00  0.00     0.040 A 
ATOM     62  C   UNL     1       9.799  12.355  -8.307  1.00  0.00     0.040 A 
ATOM     63  F   UNL     1      10.137  10.445  -6.992  1.00  0.00    -0.206 F 
ATOM     64  C   UNL     1       8.933  13.240  -8.947  1.00  0.00     0.006 A 
ENDBRANCH  40  57
ENDBRANCH  14  15
ENDBRANCH   7   9
ENDBRANCH   6   7
ENDBRANCH   5   6
ENDBRANCH   4   5
ENDBRANCH   3   4
ENDBRANCH   2   3
ENDBRANCH   1   2
BRANCH   1  65
ATOM     65  O   UNL     1       2.632  -3.687  -1.546  1.00  0.00    -0.376 OA
BRANCH  65  66
ATOM     66  C   UNL     1       3.977  -3.838  -1.968  1.00  0.00     0.202 C 
BRANCH  66  67
ATOM     67  C   UNL     1       4.437  -3.375  -3.364  1.00  0.00     0.261 C 
BRANCH  67  68
ATOM     68  O   UNL     1       3.865  -2.188  -3.933  1.00  0.00    -0.461 OA
BRANCH  68  69
ATOM     69  C   UNL     1       2.704  -2.412  -4.605  1.00  0.00     0.334 C 
ATOM     70  O   UNL     1       2.110  -3.487  -4.559  1.00  0.00    -0.249 OA
BRANCH  69  71
ATOM     71  C   UNL     1       2.226  -1.269  -5.511  1.00  0.00     0.232 C 
BRANCH  71  72
ATOM     72  C   UNL     1       2.068   0.138  -4.910  1.00  0.00    -0.014 A 
ATOM     73  C   UNL     1       2.621   0.521  -3.692  1.00  0.00     0.006 A 
ATOM     74  C   UNL     1       1.296   1.106  -5.593  1.00  0.00     0.006 A 
ATOM     75  C   UNL     1       2.360   1.781  -3.161  1.00  0.00     0.000 A 
ATOM     76  C   UNL     1       1.103   2.397  -5.082  1.00  0.00     0.000 A 
ATOM     77  C   UNL     1       1.640   2.739  -3.856  1.00  0.00     0.000 A 
ENDBRANCH  71  72
BRANCH  71  78
ATOM     78  N   UNL     1       2.812  -1.298  -6.868  1.00  0.00    -0.274 N 
ATOM     79  C   UNL     1       3.663  -0.295  -7.274  1.00  0.00     0.267 C 
ATOM     80  C   UNL     1       2.560  -2.226  -7.856  1.00  0.00     0.149 C 
ATOM     81  O   UNL     1       4.577   0.177  -6.632  1.00  0.00    -0.268 OA
ATOM     82  C   UNL     1       3.378  -0.043  -8.722  1.00  0.00     0.084 C 
ATOM     83  S   UNL     1       3.151  -1.609  -9.418  1.00  0.00    -0.054 SA
ATOM     84  S   UNL     1       1.797  -3.699  -7.759  1.00  0.00    -0.052 S 
ATOM     85  C   UNL     1       2.947   1.086  -9.317  1.00  0.00     0.068 C 
BRANCH  85  86
ATOM     86  C   UNL     1       2.796   2.333  -8.640  1.00  0.00     0.128 A 
ATOM     87  C   UNL     1       3.492   2.797  -7.545  1.00  0.00     0.051 A 
ATOM     88  O   UNL     1       1.913   3.352  -8.996  1.00  0.00    -0.457 OA
ATOM     89  C   UNL     1       3.022   4.057  -7.173  1.00  0.00     0.051 A 
ATOM     90  C   UNL     1       2.093   4.400  -8.120  1.00  0.00     0.134 A 
BRANCH  90  91
ATOM     91  C   UNL     1       1.506   5.697  -8.427  1.00  0.00     0.017 A 
ATOM     92  C   UNL     1       0.260   5.853  -9.030  1.00  0.00     0.015 A 
ATOM     93  C   UNL     1       2.287   6.847  -8.178  1.00  0.00     0.015 A 
ATOM     94  C   UNL     1      -0.143   7.121  -9.467  1.00  0.00     0.040 A 
ATOM     95  C   UNL     1       1.923   8.092  -8.676  1.00  0.00     0.040 A 
ATOM     96  C   UNL     1       0.710   8.215  -9.328  1.00  0.00     0.123 A 
ATOM     97  F   UNL     1       0.361   9.400  -9.844  1.00  0.00    -0.207 F 
ENDBRANCH  90  91
ENDBRANCH  85  86
ENDBRANCH  71  78
ENDBRANCH  69  71
ENDBRANCH  68  69
ENDBRANCH  67  68
ENDBRANCH  66  67
ENDBRANCH  65  66
ENDBRANCH   1  65
TORSDOF 21
