REMARK SMILES CCC(C)(C)NC(=O)[C@@H](C)Oc1ccc(C)nc1C(=O)OCCOCCOCCOC(=O)c1ccc(-c2c3nc(c(-c4c(F)cccc4F)c4ccc([nH]4)c(-c4c(F)cccc4F)c4nc(c(-c5c(F)cccc5F)c5ccc2[nH]5)C=C4)C=C3)cc1
REMARK SMILES IDX 24 1 23 2 22 3 21 4 19 5 20 6 18 7 12 8 13 9 14 10 17 11
REMARK SMILES IDX 15 12 16 13 11 14 9 15 10 16 7 17 6 18 8 20 3 21 4 22 5 23
REMARK SMILES IDX 2 24 1 25 25 26 26 27 27 28 28 29 29 30 30 31 31 32 32 33
REMARK SMILES IDX 33 34 34 35 86 36 35 37 85 38 36 39 37 40 38 41 79 42 39 43
REMARK SMILES IDX 84 44 78 45 80 46 40 47 83 48 77 49 76 50 41 52 67 53 50 54
REMARK SMILES IDX 66 55 51 56 54 57 65 58 81 59 52 60 53 61 64 63 82 64 55 65
REMARK SMILES IDX 42 66 43 67 48 68 44 69 45 70 47 71 49 72 46 73 68 74 69 75
REMARK SMILES IDX 74 76 70 77 71 78 73 79 75 80 72 81 56 82 57 83 62 84 58 85
REMARK SMILES IDX 59 86 61 87 63 88 60 89
REMARK H PARENT 6 19 80 51 54 62
REMARK Flexibility Score: inf
ROOT
ATOM      1  O   UNL     1      -2.614   2.716  -2.437  1.00  0.00    -0.376 OA
ENDROOT
BRANCH   1   2
ATOM      2  C   UNL     1      -1.501   3.055  -3.261  1.00  0.00     0.202 C 
BRANCH   2   3
ATOM      3  C   UNL     1      -0.172   3.357  -2.549  1.00  0.00     0.261 C 
BRANCH   3   4
ATOM      4  O   UNL     1       0.205   2.416  -1.524  1.00  0.00    -0.458 OA
BRANCH   4   5
ATOM      5  C   UNL     1       0.050   2.882  -0.254  1.00  0.00     0.360 C 
ATOM      6  O   UNL     1      -0.294   4.016   0.056  1.00  0.00    -0.244 OA
BRANCH   5   7
ATOM      7  C   UNL     1       0.190   1.811   0.772  1.00  0.00     0.190 A 
ATOM      8  C   UNL     1       1.398   1.179   1.055  1.00  0.00     0.153 A 
ATOM      9  C   UNL     1       1.512   0.628   2.324  1.00  0.00     0.051 A 
ATOM     10  C   UNL     1       0.374   0.443   3.109  1.00  0.00     0.027 A 
ATOM     11  N   UNL     1      -0.951   1.590   1.499  1.00  0.00    -0.243 NA
ATOM     12  C   UNL     1      -0.856   0.815   2.597  1.00  0.00     0.039 A 
ATOM     13  C   UNL     1      -2.128   0.293   3.191  1.00  0.00     0.067 C 
BRANCH   8  14
ATOM     14  O   UNL     1       2.379   1.059   0.120  1.00  0.00    -0.478 OA
BRANCH  14  15
ATOM     15  C   UNL     1       2.981  -0.235  -0.092  1.00  0.00     0.259 C 
ATOM     16  C   UNL     1       2.718  -0.725  -1.529  1.00  0.00     0.064 C 
BRANCH  15  17
ATOM     17  C   UNL     1       3.125  -1.462   0.904  1.00  0.00     0.261 C 
ATOM     18  N   UNL     1       2.455  -2.656   0.783  1.00  0.00    -0.348 N 
ATOM     19  H   UNL     1       2.945  -3.337   0.268  1.00  0.00     0.164 HD
ATOM     20  O   UNL     1       4.032  -1.442   1.750  1.00  0.00    -0.271 OA
BRANCH  18  21
ATOM     21  C   UNL     1       1.115  -3.123   1.287  1.00  0.00     0.034 C 
ATOM     22  C   UNL     1       0.971  -2.835   2.801  1.00  0.00     0.034 C 
ATOM     23  C   UNL     1       1.138  -4.678   1.170  1.00  0.00     0.034 C 
BRANCH  21  24
ATOM     24  C   UNL     1      -0.174  -2.730   0.496  1.00  0.00     0.024 C 
ATOM     25  C   UNL     1      -0.229  -1.437  -0.263  1.00  0.00     0.006 C 
ENDBRANCH  21  24
ENDBRANCH  18  21
ENDBRANCH  15  17
ENDBRANCH  14  15
ENDBRANCH   8  14
ENDBRANCH   5   7
ENDBRANCH   4   5
ENDBRANCH   3   4
ENDBRANCH   2   3
ENDBRANCH   1   2
BRANCH   1  26
ATOM     26  C   UNL     1      -2.556   1.457  -1.768  1.00  0.00     0.188 C 
BRANCH  26  27
ATOM     27  C   UNL     1      -2.372   0.253  -2.681  1.00  0.00     0.188 C 
BRANCH  27  28
ATOM     28  O   UNL     1      -1.208   0.290  -3.485  1.00  0.00    -0.376 OA
BRANCH  28  29
ATOM     29  C   UNL     1      -1.122  -0.631  -4.571  1.00  0.00     0.202 C 
BRANCH  29  30
ATOM     30  C   UNL     1      -2.371  -1.031  -5.401  1.00  0.00     0.261 C 
BRANCH  30  31
ATOM     31  O   UNL     1      -3.600  -1.313  -4.699  1.00  0.00    -0.460 OA
BRANCH  31  32
ATOM     32  C   UNL     1      -3.602  -2.316  -3.795  1.00  0.00     0.338 C 
ATOM     33  O   UNL     1      -2.714  -3.145  -3.640  1.00  0.00    -0.246 OA
BRANCH  32  34
ATOM     34  C   UNL     1      -4.721  -2.100  -2.831  1.00  0.00     0.060 A 
ATOM     35  C   UNL     1      -4.448  -2.260  -1.463  1.00  0.00     0.016 A 
ATOM     36  C   UNL     1      -6.000  -1.696  -3.229  1.00  0.00     0.016 A 
ATOM     37  C   UNL     1      -5.445  -2.058  -0.503  1.00  0.00     0.010 A 
ATOM     38  C   UNL     1      -7.008  -1.519  -2.267  1.00  0.00     0.010 A 
ATOM     39  C   UNL     1      -6.747  -1.730  -0.899  1.00  0.00    -0.014 A 
BRANCH  39  40
ATOM     40  C   UNL     1      -7.869  -1.812   0.080  1.00  0.00     0.031 A 
ATOM     41  C   UNL     1      -8.716  -3.060   0.088  1.00  0.00     0.074 A 
ATOM     42  C   UNL     1      -8.136  -0.827   0.959  1.00  0.00     0.049 A 
ATOM     43  N   UNL     1      -9.790  -3.338   0.784  1.00  0.00    -0.248 NA
ATOM     44  C   UNL     1      -8.293  -4.141  -0.817  1.00  0.00     0.031 C 
ATOM     45  C   UNL     1      -7.375   0.411   1.107  1.00  0.00     0.029 A 
ATOM     46  N   UNL     1      -9.145  -0.713   1.888  1.00  0.00    -0.354 N 
ATOM     47  C   UNL     1     -10.183  -4.609   0.383  1.00  0.00     0.074 A 
ATOM     48  C   UNL     1      -9.242  -5.044  -0.626  1.00  0.00     0.031 C 
ATOM     49  C   UNL     1      -7.957   1.170   2.054  1.00  0.00     0.029 A 
ATOM     50  C   UNL     1      -9.152   0.490   2.554  1.00  0.00     0.049 A 
ATOM     51  H   UNL     1      -9.801  -1.427   2.061  1.00  0.00     0.167 HD
ATOM     52  C   UNL     1     -11.232  -5.350   0.813  1.00  0.00     0.037 A 
ATOM     53  C   UNL     1     -10.037   0.997   3.438  1.00  0.00     0.037 A 
ATOM     54  C   UNL     1     -12.163  -4.931   1.826  1.00  0.00     0.049 A 
ATOM     55  C   UNL     1     -11.241   0.179   3.845  1.00  0.00     0.074 A 
ATOM     56  C   UNL     1     -13.231  -5.636   2.355  1.00  0.00     0.029 A 
ATOM     57  N   UNL     1     -12.148  -3.697   2.454  1.00  0.00    -0.354 N 
ATOM     58  N   UNL     1     -11.579  -1.037   3.490  1.00  0.00    -0.248 NA
ATOM     59  C   UNL     1     -12.190   0.809   4.778  1.00  0.00     0.031 C 
ATOM     60  C   UNL     1     -13.901  -4.804   3.256  1.00  0.00     0.029 A 
ATOM     61  C   UNL     1     -13.210  -3.606   3.339  1.00  0.00     0.049 A 
ATOM     62  H   UNL     1     -11.482  -2.989   2.296  1.00  0.00     0.167 HD
ATOM     63  C   UNL     1     -12.749  -1.328   4.184  1.00  0.00     0.074 A 
ATOM     64  C   UNL     1     -13.058  -0.168   4.990  1.00  0.00     0.031 C 
ATOM     65  C   UNL     1     -13.500  -2.457   4.157  1.00  0.00     0.037 A 
BRANCH  52  66
ATOM     66  C   UNL     1     -11.459  -6.684   0.163  1.00  0.00     0.057 A 
ATOM     67  C   UNL     1     -10.624  -7.783   0.401  1.00  0.00     0.134 A 
ATOM     68  C   UNL     1     -12.569  -6.883  -0.668  1.00  0.00     0.134 A 
ATOM     69  F   UNL     1      -9.536  -7.656   1.175  1.00  0.00    -0.206 F 
ATOM     70  C   UNL     1     -10.877  -9.028  -0.177  1.00  0.00     0.040 A 
ATOM     71  C   UNL     1     -12.848  -8.130  -1.228  1.00  0.00     0.040 A 
ATOM     72  F   UNL     1     -13.412  -5.873  -0.934  1.00  0.00    -0.206 F 
ATOM     73  C   UNL     1     -11.998  -9.207  -0.986  1.00  0.00     0.006 A 
ENDBRANCH  52  66
BRANCH  53  74
ATOM     74  C   UNL     1      -9.859   2.368   3.991  1.00  0.00     0.057 A 
ATOM     75  C   UNL     1      -9.626   2.579   5.356  1.00  0.00     0.134 A 
ATOM     76  C   UNL     1      -9.996   3.503   3.182  1.00  0.00     0.134 A 
ATOM     77  F   UNL     1      -9.519   1.535   6.192  1.00  0.00    -0.206 F 
ATOM     78  C   UNL     1      -9.568   3.864   5.901  1.00  0.00     0.040 A 
ATOM     79  C   UNL     1      -9.907   4.794   3.707  1.00  0.00     0.040 A 
ATOM     80  F   UNL     1     -10.230   3.374   1.868  1.00  0.00    -0.206 F 
ATOM     81  C   UNL     1      -9.705   4.977   5.074  1.00  0.00     0.006 A 
ENDBRANCH  53  74
BRANCH  65  82
ATOM     82  C   UNL     1     -14.695  -2.526   5.067  1.00  0.00     0.057 A 
ATOM     83  C   UNL     1     -15.848  -1.762   4.845  1.00  0.00     0.134 A 
ATOM     84  C   UNL     1     -14.707  -3.407   6.157  1.00  0.00     0.134 A 
ATOM     85  F   UNL     1     -15.903  -0.892   3.825  1.00  0.00    -0.206 F 
ATOM     86  C   UNL     1     -16.958  -1.852   5.689  1.00  0.00     0.040 A 
ATOM     87  C   UNL     1     -15.821  -3.529   6.989  1.00  0.00     0.040 A 
ATOM     88  F   UNL     1     -13.642  -4.179   6.421  1.00  0.00    -0.206 F 
ATOM     89  C   UNL     1     -16.949  -2.744   6.760  1.00  0.00     0.006 A 
ENDBRANCH  65  82
ENDBRANCH  39  40
ENDBRANCH  32  34
ENDBRANCH  31  32
ENDBRANCH  30  31
ENDBRANCH  29  30
ENDBRANCH  28  29
ENDBRANCH  27  28
ENDBRANCH  26  27
ENDBRANCH   1  26
TORSDOF 22
