REMARK SMILES Cc1cc(NC(=O)[C@H]2[C@@H](C(=O)OCCOCCOCCOC(=O)c3ccc(-c4c5nc(c(-c6c(F)cccc6F)c6ccc([nH]6)c(-c6c(F)cccc6F)c6nc(c(-c7c(F)cccc7F)c7ccc4[nH]7)C=C6)C=C5)cc3)C2(C)C)n(-c2ccc(F)cc2)n1
REMARK SMILES IDX 16 1 15 2 14 3 13 4 12 5 10 6 11 7 9 8 8 9 78 10 79 11 80 12
REMARK SMILES IDX 6 13 5 14 7 16 4 17 1 18 2 19 3 20 89 21 81 22 82 23 83 24
REMARK SMILES IDX 88 25 84 26 87 27 85 28 86 29 17 30 18 31 19 32 20 33 21 34
REMARK SMILES IDX 22 35 23 36 24 37 25 38 77 39 26 40 76 41 27 42 28 43 29 44
REMARK SMILES IDX 70 45 30 46 75 47 69 48 71 49 31 50 74 51 68 52 67 53 32 55
REMARK SMILES IDX 58 56 41 57 57 58 42 59 45 60 56 61 72 62 43 63 44 64 55 66
REMARK SMILES IDX 73 67 46 68 33 69 34 70 39 71 35 72 36 73 38 74 40 75 37 76
REMARK SMILES IDX 59 77 60 78 65 79 61 80 62 81 64 82 66 83 63 84 47 85 48 86
REMARK SMILES IDX 53 87 49 88 50 89 52 90 54 91 51 92
REMARK H PARENT 5 15 71 54 45 65
REMARK Flexibility Score: inf
ROOT
ATOM      1  C   UNL     1      -1.145  -2.184  10.569  1.00  0.00     0.188 C 
ENDROOT
BRANCH   1   2
ATOM      2  O   UNL     1      -1.035  -3.130  11.607  1.00  0.00    -0.376 OA
BRANCH   2   3
ATOM      3  C   UNL     1      -0.575  -4.443  11.301  1.00  0.00     0.202 C 
BRANCH   3   4
ATOM      4  C   UNL     1      -0.580  -4.983   9.853  1.00  0.00     0.261 C 
BRANCH   4   5
ATOM      5  O   UNL     1       0.114  -4.121   8.936  1.00  0.00    -0.463 OA
BRANCH   5   6
ATOM      6  C   UNL     1      -0.536  -3.829   7.782  1.00  0.00     0.310 C 
ATOM      7  O   UNL     1      -1.485  -4.437   7.311  1.00  0.00    -0.252 OA
BRANCH   6   8
ATOM      8  C   UNL     1      -0.232  -2.461   7.301  1.00  0.00     0.118 C 
ATOM      9  C   UNL     1      -0.024  -2.202   5.847  1.00  0.00     0.100 C 
ATOM     10  C   UNL     1       1.093  -1.867   6.835  1.00  0.00    -0.009 C 
ATOM     11  C   UNL     1       2.349  -2.700   6.859  1.00  0.00     0.013 C 
ATOM     12  C   UNL     1       1.385  -0.403   7.102  1.00  0.00     0.013 C 
BRANCH   9  13
ATOM     13  C   UNL     1       0.117  -3.244   4.837  1.00  0.00     0.230 C 
ATOM     14  N   UNL     1       0.045  -2.930   3.456  1.00  0.00    -0.310 N 
ATOM     15  H   UNL     1       0.092  -3.721   2.872  1.00  0.00     0.171 HD
ATOM     16  O   UNL     1       0.436  -4.386   5.089  1.00  0.00    -0.274 OA
BRANCH  14  17
ATOM     17  C   UNL     1      -0.078  -1.732   2.755  1.00  0.00     0.136 A 
ATOM     18  C   UNL     1       0.918   0.208  -0.198  1.00  0.00     0.069 C 
ATOM     19  C   UNL     1       0.344  -0.380   1.034  1.00  0.00     0.062 A 
ATOM     20  C   UNL     1       0.568  -1.669   1.535  1.00  0.00     0.072 A 
ATOM     21  N   UNL     1      -0.464   0.321   1.827  1.00  0.00    -0.171 NA
ATOM     22  N   UNL     1      -0.710  -0.482   2.893  1.00  0.00    -0.217 N 
BRANCH  22  23
ATOM     23  C   UNL     1      -1.567   0.036   3.888  1.00  0.00     0.067 A 
ATOM     24  C   UNL     1      -1.008   0.709   4.981  1.00  0.00     0.031 A 
ATOM     25  C   UNL     1      -2.957  -0.018   3.736  1.00  0.00     0.031 A 
ATOM     26  C   UNL     1      -1.828   1.110   6.040  1.00  0.00     0.041 A 
ATOM     27  C   UNL     1      -3.776   0.446   4.774  1.00  0.00     0.041 A 
ATOM     28  C   UNL     1      -3.203   0.953   5.937  1.00  0.00     0.123 A 
ATOM     29  F   UNL     1      -3.983   1.299   6.969  1.00  0.00    -0.207 F 
ENDBRANCH  22  23
ENDBRANCH  14  17
ENDBRANCH   9  13
ENDBRANCH   6   8
ENDBRANCH   5   6
ENDBRANCH   4   5
ENDBRANCH   3   4
ENDBRANCH   2   3
ENDBRANCH   1   2
BRANCH   1  30
ATOM     30  C   UNL     1       0.106  -1.372  10.217  1.00  0.00     0.188 C 
BRANCH  30  31
ATOM     31  O   UNL     1       1.369  -1.917   9.873  1.00  0.00    -0.376 OA
BRANCH  31  32
ATOM     32  C   UNL     1       2.202  -2.697  10.722  1.00  0.00     0.202 C 
BRANCH  32  33
ATOM     33  C   UNL     1       2.572  -2.255  12.135  1.00  0.00     0.261 C 
BRANCH  33  34
ATOM     34  O   UNL     1       1.675  -1.314  12.661  1.00  0.00    -0.460 OA
BRANCH  34  35
ATOM     35  C   UNL     1       1.896  -0.063  12.204  1.00  0.00     0.338 C 
ATOM     36  O   UNL     1       2.776   0.323  11.457  1.00  0.00    -0.246 OA
BRANCH  35  37
ATOM     37  C   UNL     1       0.837   0.784  12.761  1.00  0.00     0.060 A 
ATOM     38  C   UNL     1       0.850   2.119  12.365  1.00  0.00     0.016 A 
ATOM     39  C   UNL     1       0.147   0.319  13.885  1.00  0.00     0.016 A 
ATOM     40  C   UNL     1       0.549   3.041  13.326  1.00  0.00     0.010 A 
ATOM     41  C   UNL     1      -0.093   1.231  14.861  1.00  0.00     0.010 A 
ATOM     42  C   UNL     1       0.242   2.556  14.597  1.00  0.00    -0.014 A 
BRANCH  42  43
ATOM     43  C   UNL     1       0.244   3.477  15.700  1.00  0.00     0.031 A 
ATOM     44  C   UNL     1      -1.063   4.136  15.807  1.00  0.00     0.074 A 
ATOM     45  C   UNL     1       1.297   3.539  16.537  1.00  0.00     0.049 A 
ATOM     46  N   UNL     1      -1.373   5.326  15.414  1.00  0.00    -0.248 NA
ATOM     47  C   UNL     1      -2.229   3.281  16.102  1.00  0.00     0.031 C 
ATOM     48  C   UNL     1       2.464   2.644  16.567  1.00  0.00     0.029 A 
ATOM     49  N   UNL     1       1.490   4.337  17.623  1.00  0.00    -0.354 N 
ATOM     50  C   UNL     1      -2.719   5.441  15.741  1.00  0.00     0.074 A 
ATOM     51  C   UNL     1      -3.233   4.105  15.801  1.00  0.00     0.031 C 
ATOM     52  C   UNL     1       3.112   2.794  17.745  1.00  0.00     0.029 A 
ATOM     53  C   UNL     1       2.492   3.880  18.480  1.00  0.00     0.049 A 
ATOM     54  H   UNL     1       0.973   5.158  17.788  1.00  0.00     0.167 HD
ATOM     55  C   UNL     1      -3.147   6.540  16.418  1.00  0.00     0.037 A 
ATOM     56  C   UNL     1       2.710   4.336  19.738  1.00  0.00     0.037 A 
ATOM     57  C   UNL     1      -2.164   7.592  16.335  1.00  0.00     0.049 A 
ATOM     58  C   UNL     1       2.047   5.659  19.846  1.00  0.00     0.074 A 
ATOM     59  C   UNL     1      -1.718   8.472  15.374  1.00  0.00     0.029 A 
ATOM     60  N   UNL     1      -1.195   7.514  17.302  1.00  0.00    -0.354 N 
ATOM     61  N   UNL     1       2.443   6.713  19.186  1.00  0.00    -0.248 NA
ATOM     62  C   UNL     1       0.689   5.731  20.378  1.00  0.00     0.031 C 
ATOM     63  C   UNL     1      -0.397   8.848  15.757  1.00  0.00     0.029 A 
ATOM     64  C   UNL     1      -0.080   8.227  16.962  1.00  0.00     0.049 A 
ATOM     65  H   UNL     1      -1.292   7.006  18.140  1.00  0.00     0.167 HD
ATOM     66  C   UNL     1       1.274   7.374  18.861  1.00  0.00     0.074 A 
ATOM     67  C   UNL     1       0.257   6.829  19.751  1.00  0.00     0.031 C 
ATOM     68  C   UNL     1       1.162   8.045  17.680  1.00  0.00     0.037 A 
BRANCH  55  69
ATOM     69  C   UNL     1      -4.129   6.495  17.575  1.00  0.00     0.057 A 
ATOM     70  C   UNL     1      -4.574   7.717  18.107  1.00  0.00     0.134 A 
ATOM     71  C   UNL     1      -4.427   5.363  18.367  1.00  0.00     0.134 A 
ATOM     72  F   UNL     1      -4.346   8.870  17.461  1.00  0.00    -0.206 F 
ATOM     73  C   UNL     1      -5.201   7.809  19.356  1.00  0.00     0.040 A 
ATOM     74  C   UNL     1      -5.095   5.440  19.591  1.00  0.00     0.040 A 
ATOM     75  F   UNL     1      -4.017   4.127  18.071  1.00  0.00    -0.206 F 
ATOM     76  C   UNL     1      -5.458   6.669  20.106  1.00  0.00     0.006 A 
ENDBRANCH  55  69
BRANCH  56  77
ATOM     77  C   UNL     1       3.191   3.599  20.925  1.00  0.00     0.057 A 
ATOM     78  C   UNL     1       3.734   4.268  22.030  1.00  0.00     0.134 A 
ATOM     79  C   UNL     1       2.869   2.244  21.117  1.00  0.00     0.134 A 
ATOM     80  F   UNL     1       4.036   5.572  21.953  1.00  0.00    -0.206 F 
ATOM     81  C   UNL     1       3.924   3.633  23.265  1.00  0.00     0.040 A 
ATOM     82  C   UNL     1       3.055   1.598  22.344  1.00  0.00     0.040 A 
ATOM     83  F   UNL     1       2.277   1.532  20.148  1.00  0.00    -0.206 F 
ATOM     84  C   UNL     1       3.572   2.296  23.428  1.00  0.00     0.006 A 
ENDBRANCH  56  77
BRANCH  68  85
ATOM     85  C   UNL     1       2.425   8.492  17.017  1.00  0.00     0.057 A 
ATOM     86  C   UNL     1       3.361   7.636  16.422  1.00  0.00     0.134 A 
ATOM     87  C   UNL     1       2.648   9.868  16.898  1.00  0.00     0.134 A 
ATOM     88  F   UNL     1       3.186   6.307  16.430  1.00  0.00    -0.206 F 
ATOM     89  C   UNL     1       4.487   8.135  15.759  1.00  0.00     0.040 A 
ATOM     90  C   UNL     1       3.748  10.379  16.212  1.00  0.00     0.040 A 
ATOM     91  F   UNL     1       1.767  10.740  17.413  1.00  0.00    -0.206 F 
ATOM     92  C   UNL     1       4.677   9.511  15.646  1.00  0.00     0.006 A 
ENDBRANCH  68  85
ENDBRANCH  42  43
ENDBRANCH  35  37
ENDBRANCH  34  35
ENDBRANCH  33  34
ENDBRANCH  32  33
ENDBRANCH  31  32
ENDBRANCH  30  31
ENDBRANCH   1  30
TORSDOF 20
