REMARK SMILES O=C(C[C@@H]([NH2+]Cc1cccnc1)C(=O)OCCOCCOCCOC(=O)c1ccc(-c2c3nc(c(-c4c(F)cccc4F)c4ccc([nH]4)c(-c4c(F)cccc4F)c4nc(c(-c5c(F)cccc5F)c5ccc2[nH]5)C=C4)C=C3)cc1)Nc1ccc2ccccc2c1
REMARK SMILES IDX 19 1 18 2 17 3 16 4 15 5 13 6 14 7 4 8 3 9 2 10 1 11 81 12
REMARK SMILES IDX 82 14 83 15 91 16 84 17 90 18 85 19 89 20 86 21 88 22 87 23
REMARK SMILES IDX 5 24 6 27 7 28 8 29 12 30 9 31 11 32 10 33 20 34 21 35 22 36
REMARK SMILES IDX 23 37 24 38 25 39 26 40 27 41 28 42 80 43 29 44 79 45 30 46
REMARK SMILES IDX 31 47 32 48 73 49 33 50 78 51 72 52 74 53 34 54 77 55 71 56
REMARK SMILES IDX 70 57 35 59 61 60 44 61 60 62 45 63 48 64 59 65 75 66 46 67
REMARK SMILES IDX 47 68 58 70 76 71 49 72 36 73 37 74 42 75 38 76 39 77 41 78
REMARK SMILES IDX 43 79 40 80 62 81 63 82 68 83 64 84 65 85 67 86 69 87 66 88
REMARK SMILES IDX 50 89 51 90 56 91 52 92 53 93 55 94 57 95 54 96
REMARK H PARENT 81 13 5 25 5 26 74 58 48 69
REMARK Flexibility Score: inf
ROOT
ATOM      1  C   UNL     1       3.843  -3.466  -3.647  1.00  0.00     0.188 C 
ENDROOT
BRANCH   1   2
ATOM      2  O   UNL     1       4.971  -4.252  -3.989  1.00  0.00    -0.376 OA
BRANCH   2   3
ATOM      3  C   UNL     1       5.995  -4.516  -3.039  1.00  0.00     0.202 C 
BRANCH   3   4
ATOM      4  C   UNL     1       6.646  -3.392  -2.207  1.00  0.00     0.261 C 
BRANCH   4   5
ATOM      5  O   UNL     1       5.765  -2.529  -1.453  1.00  0.00    -0.459 OA
BRANCH   5   6
ATOM      6  C   UNL     1       5.576  -1.304  -2.003  1.00  0.00     0.365 C 
ATOM      7  O   UNL     1       6.096  -0.989  -3.071  1.00  0.00    -0.245 OA
BRANCH   6   8
ATOM      8  C   UNL     1       4.538  -0.397  -1.278  1.00  0.00     0.303 C 
BRANCH   8   9
ATOM      9  C   UNL     1       4.008  -0.915   0.087  1.00  0.00     0.177 C 
BRANCH   9  10
ATOM     10  C   UNL     1       2.870  -0.036   0.624  1.00  0.00     0.231 C 
ATOM     11  O   UNL     1       1.689  -0.343   0.507  1.00  0.00    -0.274 OA
ATOM     12  N   UNL     1       3.359   1.166   1.105  1.00  0.00    -0.326 N 
ATOM     13  H   UNL     1       4.334   1.225   1.228  1.00  0.00     0.169 HD
BRANCH  12  14
ATOM     14  C   UNL     1       2.614   2.308   1.435  1.00  0.00     0.041 A 
ATOM     15  C   UNL     1       3.039   3.506   0.854  1.00  0.00     0.027 A 
ATOM     16  C   UNL     1       1.603   2.322   2.396  1.00  0.00     0.034 A 
ATOM     17  C   UNL     1       2.433   4.712   1.185  1.00  0.00     0.011 A 
ATOM     18  C   UNL     1       1.098   3.562   2.860  1.00  0.00    -0.016 A 
ATOM     19  C   UNL     1       1.491   4.760   2.212  1.00  0.00    -0.018 A 
ATOM     20  C   UNL     1       0.271   3.670   3.994  1.00  0.00     0.009 A 
ATOM     21  C   UNL     1       0.993   5.998   2.641  1.00  0.00     0.009 A 
ATOM     22  C   UNL     1      -0.138   4.921   4.472  1.00  0.00     0.001 A 
ATOM     23  C   UNL     1       0.202   6.081   3.783  1.00  0.00     0.001 A 
ENDBRANCH  12  14
ENDBRANCH   9  10
ENDBRANCH   8   9
BRANCH   8  24
ATOM     24  N   UNL     1       5.028   1.007  -1.100  1.00  0.00    -0.330 N 
ATOM     25  H   UNL     1       5.641   1.012  -0.284  1.00  0.00     0.347 HD
ATOM     26  H   UNL     1       4.175   1.561  -1.024  1.00  0.00     0.347 HD
BRANCH  24  27
ATOM     27  C   UNL     1       5.768   1.636  -2.202  1.00  0.00     0.299 C 
BRANCH  27  28
ATOM     28  C   UNL     1       4.905   2.129  -3.333  1.00  0.00     0.024 A 
ATOM     29  C   UNL     1       4.199   1.286  -4.198  1.00  0.00     0.013 A 
ATOM     30  C   UNL     1       4.801   3.496  -3.577  1.00  0.00     0.120 A 
ATOM     31  C   UNL     1       3.407   1.822  -5.210  1.00  0.00     0.021 A 
ATOM     32  N   UNL     1       4.051   4.048  -4.556  1.00  0.00    -0.264 NA
ATOM     33  C   UNL     1       3.364   3.197  -5.346  1.00  0.00     0.111 A 
ENDBRANCH  27  28
ENDBRANCH  24  27
ENDBRANCH   8  24
ENDBRANCH   6   8
ENDBRANCH   5   6
ENDBRANCH   4   5
ENDBRANCH   3   4
ENDBRANCH   2   3
ENDBRANCH   1   2
BRANCH   1  34
ATOM     34  C   UNL     1       3.187  -3.607  -2.268  1.00  0.00     0.188 C 
BRANCH  34  35
ATOM     35  O   UNL     1       3.854  -4.445  -1.362  1.00  0.00    -0.376 OA
BRANCH  35  36
ATOM     36  C   UNL     1       3.337  -5.731  -1.065  1.00  0.00     0.202 C 
BRANCH  36  37
ATOM     37  C   UNL     1       2.512  -6.579  -2.055  1.00  0.00     0.261 C 
BRANCH  37  38
ATOM     38  O   UNL     1       1.729  -5.896  -3.043  1.00  0.00    -0.460 OA
BRANCH  38  39
ATOM     39  C   UNL     1       0.519  -5.422  -2.659  1.00  0.00     0.338 C 
ATOM     40  O   UNL     1       0.004  -5.526  -1.557  1.00  0.00    -0.246 OA
BRANCH  39  41
ATOM     41  C   UNL     1       0.039  -4.531  -3.741  1.00  0.00     0.060 A 
ATOM     42  C   UNL     1      -0.092  -3.155  -3.490  1.00  0.00     0.016 A 
ATOM     43  C   UNL     1      -0.217  -5.041  -5.014  1.00  0.00     0.016 A 
ATOM     44  C   UNL     1      -0.470  -2.286  -4.516  1.00  0.00     0.010 A 
ATOM     45  C   UNL     1      -0.631  -4.175  -6.029  1.00  0.00     0.010 A 
ATOM     46  C   UNL     1      -0.771  -2.796  -5.784  1.00  0.00    -0.014 A 
BRANCH  46  47
ATOM     47  C   UNL     1      -1.389  -1.934  -6.821  1.00  0.00     0.031 A 
ATOM     48  C   UNL     1      -2.881  -1.981  -6.991  1.00  0.00     0.074 A 
ATOM     49  C   UNL     1      -0.644  -1.155  -7.625  1.00  0.00     0.049 A 
ATOM     50  N   UNL     1      -3.630  -1.451  -7.923  1.00  0.00    -0.248 NA
ATOM     51  C   UNL     1      -3.626  -2.738  -5.973  1.00  0.00     0.031 C 
ATOM     52  C   UNL     1       0.804  -0.982  -7.534  1.00  0.00     0.029 A 
ATOM     53  N   UNL     1      -1.010  -0.384  -8.702  1.00  0.00    -0.354 N 
ATOM     54  C   UNL     1      -4.931  -1.825  -7.615  1.00  0.00     0.074 A 
ATOM     55  C   UNL     1      -4.868  -2.642  -6.422  1.00  0.00     0.031 C 
ATOM     56  C   UNL     1       1.208  -0.178  -8.535  1.00  0.00     0.029 A 
ATOM     57  C   UNL     1       0.055   0.179  -9.361  1.00  0.00     0.049 A 
ATOM     58  H   UNL     1      -1.947  -0.249  -8.974  1.00  0.00     0.167 HD
ATOM     59  C   UNL     1      -6.076  -1.516  -8.269  1.00  0.00     0.037 A 
ATOM     60  C   UNL     1       0.098   0.864 -10.522  1.00  0.00     0.037 A 
ATOM     61  C   UNL     1      -6.135  -0.708  -9.458  1.00  0.00     0.049 A 
ATOM     62  C   UNL     1      -1.178   1.113 -11.288  1.00  0.00     0.074 A 
ATOM     63  C   UNL     1      -7.250  -0.317 -10.177  1.00  0.00     0.029 A 
ATOM     64  N   UNL     1      -5.032  -0.179 -10.110  1.00  0.00    -0.354 N 
ATOM     65  N   UNL     1      -2.408   0.778 -10.980  1.00  0.00    -0.248 NA
ATOM     66  C   UNL     1      -1.058   1.828 -12.568  1.00  0.00     0.031 C 
ATOM     67  C   UNL     1      -6.817   0.393 -11.301  1.00  0.00     0.029 A 
ATOM     68  C   UNL     1      -5.437   0.500 -11.247  1.00  0.00     0.049 A 
ATOM     69  H   UNL     1      -4.099  -0.273  -9.809  1.00  0.00     0.167 HD
ATOM     70  C   UNL     1      -3.207   1.261 -12.012  1.00  0.00     0.074 A 
ATOM     71  C   UNL     1      -2.325   1.926 -12.947  1.00  0.00     0.031 C 
ATOM     72  C   UNL     1      -4.550   1.163 -12.170  1.00  0.00     0.037 A 
BRANCH  59  73
ATOM     73  C   UNL     1      -7.355  -2.089  -7.733  1.00  0.00     0.057 A 
ATOM     74  C   UNL     1      -7.920  -1.651  -6.529  1.00  0.00     0.134 A 
ATOM     75  C   UNL     1      -8.049  -3.070  -8.453  1.00  0.00     0.134 A 
ATOM     76  F   UNL     1      -7.300  -0.724  -5.783  1.00  0.00    -0.206 F 
ATOM     77  C   UNL     1      -9.117  -2.187  -6.047  1.00  0.00     0.040 A 
ATOM     78  C   UNL     1      -9.260  -3.592  -7.997  1.00  0.00     0.040 A 
ATOM     79  F   UNL     1      -7.566  -3.531  -9.617  1.00  0.00    -0.206 F 
ATOM     80  C   UNL     1      -9.794  -3.155  -6.787  1.00  0.00     0.006 A 
ENDBRANCH  59  73
BRANCH  60  81
ATOM     81  C   UNL     1       1.400   1.334 -11.062  1.00  0.00     0.057 A 
ATOM     82  C   UNL     1       1.699   2.699 -11.149  1.00  0.00     0.134 A 
ATOM     83  C   UNL     1       2.365   0.434 -11.532  1.00  0.00     0.134 A 
ATOM     84  F   UNL     1       0.804   3.612 -10.742  1.00  0.00    -0.206 F 
ATOM     85  C   UNL     1       2.901   3.152 -11.695  1.00  0.00     0.040 A 
ATOM     86  C   UNL     1       3.583   0.872 -12.053  1.00  0.00     0.040 A 
ATOM     87  F   UNL     1       2.140  -0.887 -11.482  1.00  0.00    -0.206 F 
ATOM     88  C   UNL     1       3.850   2.236 -12.143  1.00  0.00     0.006 A 
ENDBRANCH  60  81
BRANCH  72  89
ATOM     89  C   UNL     1      -5.161   1.811 -13.380  1.00  0.00     0.057 A 
ATOM     90  C   UNL     1      -4.998   1.280 -14.666  1.00  0.00     0.134 A 
ATOM     91  C   UNL     1      -5.979   2.941 -13.248  1.00  0.00     0.134 A 
ATOM     92  F   UNL     1      -4.220   0.206 -14.865  1.00  0.00    -0.206 F 
ATOM     93  C   UNL     1      -5.614   1.860 -15.778  1.00  0.00     0.040 A 
ATOM     94  C   UNL     1      -6.623   3.512 -14.348  1.00  0.00     0.040 A 
ATOM     95  F   UNL     1      -6.188   3.494 -12.044  1.00  0.00    -0.206 F 
ATOM     96  C   UNL     1      -6.437   2.973 -15.619  1.00  0.00     0.006 A 
ENDBRANCH  72  89
ENDBRANCH  46  47
ENDBRANCH  39  41
ENDBRANCH  38  39
ENDBRANCH  37  38
ENDBRANCH  36  37
ENDBRANCH  35  36
ENDBRANCH  34  35
ENDBRANCH   1  34
TORSDOF 23
