REMARK SMILES Cc1cc(C)cc(Oc2nc3ccccn3c(=O)c2/C=C2\SC(=S)N(CCC(=O)OCCOCCOCCOC(=O)c3ccc(-c4c5nc(c(-c6c(F)cccc6F)c6ccc([nH]6)c(-c6c(F)cccc6F)c6nc(c(-c7c(F)cccc7F)c7ccc4[nH]7)C=C6)C=C5)cc3)C2=O)c1
REMARK SMILES IDX 33 1 32 2 31 3 30 4 28 5 29 6 27 7 26 8 25 9 20 10 21 11
REMARK SMILES IDX 22 12 96 13 23 14 97 15 24 16 19 17 9 18 10 19 11 20 17 21
REMARK SMILES IDX 12 22 16 23 18 24 13 25 15 26 14 27 8 28 7 29 1 30 2 31 3 32
REMARK SMILES IDX 98 33 4 34 5 35 6 36 34 37 35 38 36 39 37 40 38 41 39 42
REMARK SMILES IDX 40 43 41 44 42 45 43 46 95 47 44 48 94 49 45 50 46 51 47 52
REMARK SMILES IDX 88 53 48 54 93 55 87 56 89 57 49 58 92 59 86 60 85 61 50 63
REMARK SMILES IDX 76 64 59 65 75 66 60 67 63 68 74 69 90 70 61 71 62 72 73 74
REMARK SMILES IDX 91 75 64 76 51 77 52 78 57 79 53 80 54 81 56 82 58 83 55 84
REMARK SMILES IDX 77 85 78 86 83 87 79 88 80 89 82 90 84 91 81 92 65 93 66 94
REMARK SMILES IDX 71 95 67 96 68 97 70 98 72 99 69 100
REMARK H PARENT 89 62 63 73
REMARK Flexibility Score: inf
ROOT
ATOM      1  O   UNL     1      -0.743   0.205   6.190  1.00  0.00    -0.376 OA
ENDROOT
BRANCH   1   2
ATOM      2  C   UNL     1      -1.116  -0.396   4.950  1.00  0.00     0.202 C 
BRANCH   2   3
ATOM      3  C   UNL     1      -1.275   0.575   3.754  1.00  0.00     0.261 C 
BRANCH   3   4
ATOM      4  O   UNL     1      -0.041   1.105   3.205  1.00  0.00    -0.463 OA
BRANCH   4   5
ATOM      5  C   UNL     1       0.423   2.284   3.679  1.00  0.00     0.307 C 
ATOM      6  O   UNL     1      -0.221   3.049   4.387  1.00  0.00    -0.252 OA
BRANCH   5   7
ATOM      7  C   UNL     1       1.858   2.573   3.254  1.00  0.00     0.144 C 
BRANCH   7   8
ATOM      8  C   UNL     1       3.010   1.672   3.748  1.00  0.00     0.139 C 
BRANCH   8   9
ATOM      9  N   UNL     1       3.324   0.463   2.962  1.00  0.00    -0.292 N 
ATOM     10  C   UNL     1       2.095  -2.748   1.967  1.00  0.00     0.041 C 
ATOM     11  C   UNL     1       2.951  -1.742   2.199  1.00  0.00     0.081 C 
ATOM     12  S   UNL     1       4.457  -1.357   1.495  1.00  0.00    -0.054 SA
ATOM     13  C   UNL     1       2.503  -0.639   3.059  1.00  0.00     0.266 C 
ATOM     14  C   UNL     1       4.476   0.255   2.228  1.00  0.00     0.148 C 
ATOM     15  O   UNL     1       1.498  -0.748   3.722  1.00  0.00    -0.268 OA
ATOM     16  S   UNL     1       5.753   1.303   1.988  1.00  0.00    -0.052 S 
BRANCH  10  17
ATOM     17  C   UNL     1       2.236  -3.743   0.929  1.00  0.00     0.104 A 
ATOM     18  C   UNL     1       1.392  -3.852  -0.121  1.00  0.00     0.234 A 
ATOM     19  N   UNL     1       1.577  -4.754  -1.136  1.00  0.00    -0.194 NA
ATOM     20  C   UNL     1       2.653  -5.473  -1.132  1.00  0.00     0.143 A 
ATOM     21  C   UNL     1       3.380  -4.692   1.005  1.00  0.00     0.269 A 
ATOM     22  C   UNL     1       2.913  -6.379  -2.284  1.00  0.00     0.048 A 
ATOM     23  N   UNL     1       3.599  -5.461  -0.121  1.00  0.00    -0.267 N 
ATOM     24  O   UNL     1       4.048  -4.771   2.038  1.00  0.00    -0.268 OA
ATOM     25  C   UNL     1       4.042  -7.098  -2.326  1.00  0.00     0.005 A 
ATOM     26  C   UNL     1       4.744  -6.244  -0.194  1.00  0.00     0.096 A 
ATOM     27  C   UNL     1       4.992  -7.028  -1.248  1.00  0.00     0.019 A 
BRANCH  18  28
ATOM     28  O   UNL     1       0.204  -3.117  -0.225  1.00  0.00    -0.438 OA
BRANCH  28  29
ATOM     29  C   UNL     1       0.187  -1.740  -0.287  1.00  0.00     0.130 A 
ATOM     30  C   UNL     1       2.421   1.323  -0.562  1.00  0.00     0.044 C 
ATOM     31  C   UNL     1       1.202   0.460  -0.442  1.00  0.00    -0.047 A 
ATOM     32  C   UNL     1      -0.050   1.046  -0.216  1.00  0.00     0.007 A 
ATOM     33  C   UNL     1       1.299  -0.935  -0.533  1.00  0.00     0.050 A 
ATOM     34  C   UNL     1      -1.196   0.255  -0.078  1.00  0.00    -0.047 A 
ATOM     35  C   UNL     1      -2.535   0.913   0.083  1.00  0.00     0.044 C 
ATOM     36  C   UNL     1      -1.063  -1.140  -0.089  1.00  0.00     0.050 A 
ENDBRANCH  28  29
ENDBRANCH  18  28
ENDBRANCH  10  17
ENDBRANCH   8   9
ENDBRANCH   7   8
ENDBRANCH   5   7
ENDBRANCH   4   5
ENDBRANCH   3   4
ENDBRANCH   2   3
ENDBRANCH   1   2
BRANCH   1  37
ATOM     37  C   UNL     1       0.616   0.603   6.255  1.00  0.00     0.188 C 
BRANCH  37  38
ATOM     38  C   UNL     1       1.541  -0.369   6.952  1.00  0.00     0.188 C 
BRANCH  38  39
ATOM     39  O   UNL     1       2.123  -1.415   6.179  1.00  0.00    -0.376 OA
BRANCH  39  40
ATOM     40  C   UNL     1       1.627  -2.718   6.461  1.00  0.00     0.202 C 
BRANCH  40  41
ATOM     41  C   UNL     1       2.058  -3.332   7.811  1.00  0.00     0.261 C 
BRANCH  41  42
ATOM     42  O   UNL     1       2.115  -2.397   8.905  1.00  0.00    -0.460 OA
BRANCH  42  43
ATOM     43  C   UNL     1       3.276  -1.695   9.016  1.00  0.00     0.338 C 
ATOM     44  O   UNL     1       4.322  -1.914   8.429  1.00  0.00    -0.246 OA
BRANCH  43  45
ATOM     45  C   UNL     1       3.019  -0.449   9.794  1.00  0.00     0.060 A 
ATOM     46  C   UNL     1       3.577   0.755   9.329  1.00  0.00     0.016 A 
ATOM     47  C   UNL     1       2.186  -0.436  10.913  1.00  0.00     0.016 A 
ATOM     48  C   UNL     1       3.304   1.965   9.971  1.00  0.00     0.010 A 
ATOM     49  C   UNL     1       1.955   0.767  11.590  1.00  0.00     0.010 A 
ATOM     50  C   UNL     1       2.534   1.969  11.139  1.00  0.00    -0.014 A 
BRANCH  50  51
ATOM     51  C   UNL     1       2.566   3.150  12.038  1.00  0.00     0.031 A 
ATOM     52  C   UNL     1       3.566   3.132  13.163  1.00  0.00     0.074 A 
ATOM     53  C   UNL     1       1.761   4.215  11.872  1.00  0.00     0.049 A 
ATOM     54  N   UNL     1       3.725   3.967  14.156  1.00  0.00    -0.248 NA
ATOM     55  C   UNL     1       4.517   2.006  13.165  1.00  0.00     0.031 C 
ATOM     56  C   UNL     1       0.804   4.401  10.785  1.00  0.00     0.029 A 
ATOM     57  N   UNL     1       1.619   5.346  12.642  1.00  0.00    -0.354 N 
ATOM     58  C   UNL     1       4.785   3.465  14.901  1.00  0.00     0.074 A 
ATOM     59  C   UNL     1       5.209   2.236  14.269  1.00  0.00     0.031 C 
ATOM     60  C   UNL     1       0.157   5.568  10.968  1.00  0.00     0.029 A 
ATOM     61  C   UNL     1       0.625   6.189  12.207  1.00  0.00     0.049 A 
ATOM     62  H   UNL     1       2.177   5.533  13.431  1.00  0.00     0.167 HD
ATOM     63  C   UNL     1       5.363   3.985  16.009  1.00  0.00     0.037 A 
ATOM     64  C   UNL     1       0.132   7.313  12.768  1.00  0.00     0.037 A 
ATOM     65  C   UNL     1       4.935   5.200  16.646  1.00  0.00     0.049 A 
ATOM     66  C   UNL     1       0.711   7.806  14.074  1.00  0.00     0.074 A 
ATOM     67  C   UNL     1       5.442   5.799  17.786  1.00  0.00     0.029 A 
ATOM     68  N   UNL     1       3.895   6.000  16.200  1.00  0.00    -0.354 N 
ATOM     69  N   UNL     1       1.708   7.325  14.777  1.00  0.00    -0.248 NA
ATOM     70  C   UNL     1       0.089   9.002  14.666  1.00  0.00     0.031 C 
ATOM     71  C   UNL     1       4.674   6.935  18.058  1.00  0.00     0.029 A 
ATOM     72  C   UNL     1       3.732   7.078  17.052  1.00  0.00     0.049 A 
ATOM     73  H   UNL     1       3.354   5.827  15.396  1.00  0.00     0.167 HD
ATOM     74  C   UNL     1       1.861   8.182  15.863  1.00  0.00     0.074 A 
ATOM     75  C   UNL     1       0.860   9.217  15.722  1.00  0.00     0.031 C 
ATOM     76  C   UNL     1       2.750   8.119  16.884  1.00  0.00     0.037 A 
BRANCH  63  77
ATOM     77  C   UNL     1       6.504   3.222  16.614  1.00  0.00     0.057 A 
ATOM     78  C   UNL     1       7.754   3.138  15.986  1.00  0.00     0.134 A 
ATOM     79  C   UNL     1       6.362   2.587  17.855  1.00  0.00     0.134 A 
ATOM     80  F   UNL     1       7.951   3.707  14.787  1.00  0.00    -0.206 F 
ATOM     81  C   UNL     1       8.814   2.434  16.559  1.00  0.00     0.040 A 
ATOM     82  C   UNL     1       7.423   1.906  18.452  1.00  0.00     0.040 A 
ATOM     83  F   UNL     1       5.192   2.628  18.511  1.00  0.00    -0.206 F 
ATOM     84  C   UNL     1       8.652   1.823  17.801  1.00  0.00     0.006 A 
ENDBRANCH  63  77
BRANCH  64  85
ATOM     85  C   UNL     1      -0.994   8.051  12.132  1.00  0.00     0.057 A 
ATOM     86  C   UNL     1      -0.828   9.358  11.656  1.00  0.00     0.134 A 
ATOM     87  C   UNL     1      -2.279   7.500  12.052  1.00  0.00     0.134 A 
ATOM     88  F   UNL     1       0.371   9.957  11.732  1.00  0.00    -0.206 F 
ATOM     89  C   UNL     1      -1.900  10.100  11.155  1.00  0.00     0.040 A 
ATOM     90  C   UNL     1      -3.354   8.219  11.523  1.00  0.00     0.040 A 
ATOM     91  F   UNL     1      -2.512   6.257  12.496  1.00  0.00    -0.206 F 
ATOM     92  C   UNL     1      -3.168   9.528  11.085  1.00  0.00     0.006 A 
ENDBRANCH  64  85
BRANCH  76  93
ATOM     93  C   UNL     1       2.736   9.232  17.895  1.00  0.00     0.057 A 
ATOM     94  C   UNL     1       1.698   9.385  18.823  1.00  0.00     0.134 A 
ATOM     95  C   UNL     1       3.808  10.132  17.971  1.00  0.00     0.134 A 
ATOM     96  F   UNL     1       0.638   8.564  18.800  1.00  0.00    -0.206 F 
ATOM     97  C   UNL     1       1.715  10.409  19.773  1.00  0.00     0.040 A 
ATOM     98  C   UNL     1       3.851  11.139  18.936  1.00  0.00     0.040 A 
ATOM     99  F   UNL     1       4.841  10.035  17.121  1.00  0.00    -0.206 F 
ATOM    100  C   UNL     1       2.799  11.284  19.837  1.00  0.00     0.006 A 
ENDBRANCH  76  93
ENDBRANCH  50  51
ENDBRANCH  43  45
ENDBRANCH  42  43
ENDBRANCH  41  42
ENDBRANCH  40  41
ENDBRANCH  39  40
ENDBRANCH  38  39
ENDBRANCH  37  38
ENDBRANCH   1  37
TORSDOF 22
