REMARK SMILES O=C(OCCOCCOCCOC(=O)[C@@H]1CCCN1S(=O)(=O)c1ccc2c3c(cccc13)C(=O)N2)c1ccc(-c2c3nc(c(-c4c(F)cccc4F)c4ccc([nH]4)c(-c4c(F)cccc4F)c4nc(c(-c5c(F)cccc5F)c5ccc2[nH]5)C=C4)C=C3)cc1
REMARK SMILES IDX 7 1 6 2 5 3 4 4 3 5 2 6 1 7 36 8 37 9 89 10 38 11 88 12
REMARK SMILES IDX 39 13 40 14 41 15 82 16 42 17 87 18 81 19 83 20 43 21 86 22
REMARK SMILES IDX 80 23 79 24 44 26 70 27 53 28 69 29 54 30 57 31 68 32 84 33
REMARK SMILES IDX 55 34 56 35 67 37 85 38 58 39 45 40 46 41 51 42 47 43 48 44
REMARK SMILES IDX 50 45 52 46 49 47 71 48 72 49 77 50 73 51 74 52 76 53 78 54
REMARK SMILES IDX 75 55 59 56 60 57 65 58 61 59 62 60 64 61 66 62 63 63 8 64
REMARK SMILES IDX 9 65 10 66 11 67 12 68 13 69 14 70 15 71 16 72 19 73 17 74
REMARK SMILES IDX 18 75 20 76 21 77 22 78 23 79 24 80 32 81 25 82 27 83 31 84
REMARK SMILES IDX 26 85 28 86 30 87 35 88 29 89 33 90 34 92
REMARK H PARENT 83 25 57 36 35 91
REMARK Flexibility Score: inf
ROOT
ATOM      1  C   UNL     1       1.663   1.716  -1.260  1.00  0.00     0.188 C 
ENDROOT
BRANCH   1   2
ATOM      2  O   UNL     1       2.813   0.933  -0.960  1.00  0.00    -0.376 OA
BRANCH   2   3
ATOM      3  C   UNL     1       2.788  -0.412  -1.422  1.00  0.00     0.202 C 
BRANCH   3   4
ATOM      4  C   UNL     1       3.219  -1.363  -0.293  1.00  0.00     0.261 C 
BRANCH   4   5
ATOM      5  O   UNL     1       2.158  -1.640   0.652  1.00  0.00    -0.460 OA
BRANCH   5   6
ATOM      6  C   UNL     1       1.516  -0.709   1.397  1.00  0.00     0.338 C 
ATOM      7  O   UNL     1       0.290  -0.693   1.458  1.00  0.00    -0.246 OA
BRANCH   6   8
ATOM      8  C   UNL     1       2.290   0.111   2.373  1.00  0.00     0.060 A 
ATOM      9  C   UNL     1       3.414   0.852   2.032  1.00  0.00     0.016 A 
ATOM     10  C   UNL     1       1.781   0.235   3.682  1.00  0.00     0.016 A 
ATOM     11  C   UNL     1       4.012   1.699   2.961  1.00  0.00     0.010 A 
ATOM     12  C   UNL     1       2.389   1.082   4.625  1.00  0.00     0.010 A 
ATOM     13  C   UNL     1       3.511   1.826   4.261  1.00  0.00    -0.014 A 
BRANCH  13  14
ATOM     14  C   UNL     1       4.316   2.631   5.210  1.00  0.00     0.031 A 
ATOM     15  C   UNL     1       5.548   1.995   5.780  1.00  0.00     0.074 A 
ATOM     16  C   UNL     1       4.071   3.942   5.399  1.00  0.00     0.049 A 
ATOM     17  N   UNL     1       6.473   2.513   6.541  1.00  0.00    -0.248 NA
ATOM     18  C   UNL     1       5.754   0.574   5.453  1.00  0.00     0.031 C 
ATOM     19  C   UNL     1       2.934   4.672   4.850  1.00  0.00     0.029 A 
ATOM     20  N   UNL     1       4.817   4.914   6.021  1.00  0.00    -0.354 N 
ATOM     21  C   UNL     1       7.339   1.469   6.834  1.00  0.00     0.074 A 
ATOM     22  C   UNL     1       6.863   0.304   6.120  1.00  0.00     0.031 C 
ATOM     23  C   UNL     1       3.138   5.991   5.019  1.00  0.00     0.029 A 
ATOM     24  C   UNL     1       4.371   6.195   5.773  1.00  0.00     0.049 A 
ATOM     25  H   UNL     1       5.596   4.716   6.589  1.00  0.00     0.167 HD
ATOM     26  C   UNL     1       8.395   1.471   7.680  1.00  0.00     0.037 A 
ATOM     27  C   UNL     1       4.912   7.383   6.117  1.00  0.00     0.037 A 
ATOM     28  C   UNL     1       8.816   2.631   8.420  1.00  0.00     0.049 A 
ATOM     29  C   UNL     1       6.095   7.361   7.057  1.00  0.00     0.074 A 
ATOM     30  C   UNL     1       9.764   2.729   9.421  1.00  0.00     0.029 A 
ATOM     31  N   UNL     1       8.299   3.905   8.230  1.00  0.00    -0.354 N 
ATOM     32  N   UNL     1       6.830   6.347   7.448  1.00  0.00    -0.248 NA
ATOM     33  C   UNL     1       6.468   8.643   7.672  1.00  0.00     0.031 C 
ATOM     34  C   UNL     1       9.787   4.056   9.869  1.00  0.00     0.029 A 
ATOM     35  C   UNL     1       8.901   4.796   9.101  1.00  0.00     0.049 A 
ATOM     36  H   UNL     1       7.605   4.141   7.573  1.00  0.00     0.167 HD
ATOM     37  C   UNL     1       7.729   6.862   8.373  1.00  0.00     0.074 A 
ATOM     38  C   UNL     1       7.496   8.291   8.429  1.00  0.00     0.031 C 
ATOM     39  C   UNL     1       8.638   6.212   9.143  1.00  0.00     0.037 A 
BRANCH  26  40
ATOM     40  C   UNL     1       9.031   0.140   7.948  1.00  0.00     0.057 A 
ATOM     41  C   UNL     1       8.776  -0.520   9.157  1.00  0.00     0.134 A 
ATOM     42  C   UNL     1       9.802  -0.535   6.993  1.00  0.00     0.134 A 
ATOM     43  F   UNL     1       8.032   0.064  10.109  1.00  0.00    -0.206 F 
ATOM     44  C   UNL     1       9.254  -1.807   9.403  1.00  0.00     0.040 A 
ATOM     45  C   UNL     1      10.261  -1.836   7.217  1.00  0.00     0.040 A 
ATOM     46  F   UNL     1      10.043   0.021   5.796  1.00  0.00    -0.206 F 
ATOM     47  C   UNL     1       9.987  -2.474   8.425  1.00  0.00     0.006 A 
ENDBRANCH  26  40
BRANCH  27  48
ATOM     48  C   UNL     1       4.352   8.692   5.662  1.00  0.00     0.057 A 
ATOM     49  C   UNL     1       3.046   9.097   5.960  1.00  0.00     0.134 A 
ATOM     50  C   UNL     1       5.160   9.625   4.988  1.00  0.00     0.134 A 
ATOM     51  F   UNL     1       2.215   8.280   6.623  1.00  0.00    -0.206 F 
ATOM     52  C   UNL     1       2.560  10.358   5.599  1.00  0.00     0.040 A 
ATOM     53  C   UNL     1       4.702  10.906   4.662  1.00  0.00     0.040 A 
ATOM     54  F   UNL     1       6.434   9.327   4.695  1.00  0.00    -0.206 F 
ATOM     55  C   UNL     1       3.395  11.274   4.964  1.00  0.00     0.006 A 
ENDBRANCH  27  48
BRANCH  39  56
ATOM     56  C   UNL     1       9.434   7.050  10.101  1.00  0.00     0.057 A 
ATOM     57  C   UNL     1      10.805   7.253   9.901  1.00  0.00     0.134 A 
ATOM     58  C   UNL     1       8.849   7.648  11.226  1.00  0.00     0.134 A 
ATOM     59  F   UNL     1      11.430   6.699   8.852  1.00  0.00    -0.206 F 
ATOM     60  C   UNL     1      11.562   8.029  10.779  1.00  0.00     0.040 A 
ATOM     61  C   UNL     1       9.589   8.451  12.094  1.00  0.00     0.040 A 
ATOM     62  F   UNL     1       7.537   7.500  11.471  1.00  0.00    -0.206 F 
ATOM     63  C   UNL     1      10.952   8.640  11.873  1.00  0.00     0.006 A 
ENDBRANCH  39  56
ENDBRANCH  13  14
ENDBRANCH   6   8
ENDBRANCH   5   6
ENDBRANCH   4   5
ENDBRANCH   3   4
ENDBRANCH   2   3
ENDBRANCH   1   2
BRANCH   1  64
ATOM     64  C   UNL     1       1.681   2.420  -2.630  1.00  0.00     0.188 C 
BRANCH  64  65
ATOM     65  O   UNL     1       3.002   2.776  -3.041  1.00  0.00    -0.376 OA
BRANCH  65  66
ATOM     66  C   UNL     1       3.050   3.627  -4.195  1.00  0.00     0.202 C 
BRANCH  66  67
ATOM     67  C   UNL     1       4.154   4.705  -4.041  1.00  0.00     0.261 C 
BRANCH  67  68
ATOM     68  O   UNL     1       4.377   5.132  -2.678  1.00  0.00    -0.462 OA
BRANCH  68  69
ATOM     69  C   UNL     1       3.277   5.406  -1.965  1.00  0.00     0.324 C 
ATOM     70  O   UNL     1       2.228   5.783  -2.488  1.00  0.00    -0.250 OA
BRANCH  69  71
ATOM     71  C   UNL     1       3.394   5.209  -0.486  1.00  0.00     0.183 C 
ATOM     72  C   UNL     1       3.314   6.614   0.121  1.00  0.00     0.034 C 
ATOM     73  N   UNL     1       4.278   4.456   0.466  1.00  0.00    -0.184 NA
ATOM     74  C   UNL     1       3.214   6.352   1.598  1.00  0.00     0.019 C 
ATOM     75  C   UNL     1       3.980   5.053   1.813  1.00  0.00     0.103 C 
BRANCH  73  76
ATOM     76  S   UNL     1       5.928   4.063   0.235  1.00  0.00     0.244 S 
ATOM     77  O   UNL     1       6.488   5.058  -0.653  1.00  0.00    -0.207 OA
ATOM     78  O   UNL     1       6.502   3.865   1.551  1.00  0.00    -0.207 OA
BRANCH  76  79
ATOM     79  C   UNL     1       6.052   2.455  -0.575  1.00  0.00     0.090 A 
ATOM     80  C   UNL     1       5.664   2.448  -1.920  1.00  0.00     0.024 A 
ATOM     81  C   UNL     1       6.643   1.264  -0.025  1.00  0.00     0.005 A 
ATOM     82  C   UNL     1       5.752   1.350  -2.781  1.00  0.00     0.028 A 
ATOM     83  C   UNL     1       6.702   0.205  -0.902  1.00  0.00     0.019 A 
ATOM     84  C   UNL     1       7.189   0.942   1.251  1.00  0.00     0.010 A 
ATOM     85  C   UNL     1       6.285   0.227  -2.214  1.00  0.00     0.050 A 
ATOM     86  C   UNL     1       7.165  -1.080  -0.648  1.00  0.00     0.050 A 
ATOM     87  C   UNL     1       7.675  -0.356   1.551  1.00  0.00     0.002 A 
ATOM     88  N   UNL     1       6.478  -1.023  -2.759  1.00  0.00    -0.321 N 
ATOM     89  C   UNL     1       7.661  -1.397   0.609  1.00  0.00     0.014 A 
ATOM     90  C   UNL     1       7.021  -1.913  -1.831  1.00  0.00     0.256 C 
ATOM     91  H   UNL     1       6.260  -1.260  -3.689  1.00  0.00     0.170 HD
ATOM     92  O   UNL     1       7.252  -3.090  -2.057  1.00  0.00    -0.269 OA
ENDBRANCH  76  79
ENDBRANCH  73  76
ENDBRANCH  69  71
ENDBRANCH  68  69
ENDBRANCH  67  68
ENDBRANCH  66  67
ENDBRANCH  65  66
ENDBRANCH  64  65
ENDBRANCH   1  64
TORSDOF 19
