REMARK SMILES O=C(OCCOCCOCCOC(=O)c1nnn(-c2ccc(C(F)(F)F)cc2)c1-c1cccc(Cl)c1)c1ccc(-c2c3nc(c(-c4c(F)cccc4F)c4ccc([nH]4)c(-c4c(F)cccc4F)c4nc(c(-c5c(F)cccc5F)c5ccc2[nH]5)C=C4)C=C3)cc1
REMARK SMILES IDX 7 1 6 2 5 3 4 4 3 5 2 6 1 7 37 8 38 9 90 10 39 11 89 12
REMARK SMILES IDX 40 13 41 14 42 15 83 16 43 17 88 18 82 19 84 20 44 21 87 22
REMARK SMILES IDX 81 23 80 24 45 26 71 27 54 28 70 29 55 30 58 31 69 32 85 33
REMARK SMILES IDX 56 34 57 35 68 37 86 38 59 39 46 40 47 41 52 42 48 43 49 44
REMARK SMILES IDX 51 45 53 46 50 47 72 48 73 49 78 50 74 51 75 52 77 53 79 54
REMARK SMILES IDX 76 55 60 56 61 57 66 58 62 59 63 60 65 61 67 62 64 63 8 64
REMARK SMILES IDX 9 65 10 66 11 67 12 68 13 69 14 70 15 71 16 72 29 73 17 74
REMARK SMILES IDX 18 75 30 76 31 77 36 78 32 79 34 80 33 81 35 82 19 83 20 84
REMARK SMILES IDX 28 85 21 86 27 87 22 88 23 89 24 90 25 91 26 92
REMARK H PARENT 84 25 58 36
REMARK Flexibility Score: inf
ROOT
ATOM      1  C   UNL     1       3.200  -0.275  -1.639  1.00  0.00     0.188 C 
ENDROOT
BRANCH   1   2
ATOM      2  O   UNL     1       4.555  -0.601  -1.373  1.00  0.00    -0.376 OA
BRANCH   2   3
ATOM      3  C   UNL     1       5.094  -0.043  -0.186  1.00  0.00     0.202 C 
BRANCH   3   4
ATOM      4  C   UNL     1       4.659  -0.747   1.100  1.00  0.00     0.261 C 
BRANCH   4   5
ATOM      5  O   UNL     1       3.254  -1.041   1.219  1.00  0.00    -0.460 OA
BRANCH   5   6
ATOM      6  C   UNL     1       2.198  -0.313   1.622  1.00  0.00     0.338 C 
ATOM      7  O   UNL     1       1.159  -0.888   1.940  1.00  0.00    -0.246 OA
BRANCH   6   8
ATOM      8  C   UNL     1       2.162   1.169   1.561  1.00  0.00     0.060 A 
ATOM      9  C   UNL     1       3.254   2.005   1.787  1.00  0.00     0.016 A 
ATOM     10  C   UNL     1       0.890   1.743   1.357  1.00  0.00     0.016 A 
ATOM     11  C   UNL     1       3.071   3.380   1.883  1.00  0.00     0.010 A 
ATOM     12  C   UNL     1       0.699   3.114   1.471  1.00  0.00     0.010 A 
ATOM     13  C   UNL     1       1.786   3.920   1.795  1.00  0.00    -0.014 A 
BRANCH  13  14
ATOM     14  C   UNL     1       1.623   5.321   2.167  1.00  0.00     0.031 A 
ATOM     15  C   UNL     1       2.150   6.350   1.235  1.00  0.00     0.074 A 
ATOM     16  C   UNL     1       0.971   5.678   3.291  1.00  0.00     0.049 A 
ATOM     17  N   UNL     1       3.036   7.264   1.470  1.00  0.00    -0.248 NA
ATOM     18  C   UNL     1       1.641   6.345  -0.143  1.00  0.00     0.031 C 
ATOM     19  C   UNL     1       0.159   4.825   4.164  1.00  0.00     0.029 A 
ATOM     20  N   UNL     1       0.817   6.920   3.835  1.00  0.00    -0.354 N 
ATOM     21  C   UNL     1       3.071   8.068   0.332  1.00  0.00     0.074 A 
ATOM     22  C   UNL     1       2.272   7.398  -0.664  1.00  0.00     0.031 C 
ATOM     23  C   UNL     1      -0.566   5.606   4.993  1.00  0.00     0.029 A 
ATOM     24  C   UNL     1      -0.178   6.992   4.796  1.00  0.00     0.049 A 
ATOM     25  H   UNL     1       1.364   7.694   3.569  1.00  0.00     0.167 HD
ATOM     26  C   UNL     1       3.591   9.326   0.348  1.00  0.00     0.037 A 
ATOM     27  C   UNL     1      -0.702   8.114   5.343  1.00  0.00     0.037 A 
ATOM     28  C   UNL     1       4.485   9.532   1.454  1.00  0.00     0.049 A 
ATOM     29  C   UNL     1       0.254   9.225   5.130  1.00  0.00     0.074 A 
ATOM     30  C   UNL     1       5.648   8.931   1.898  1.00  0.00     0.029 A 
ATOM     31  N   UNL     1       4.079  10.340   2.486  1.00  0.00    -0.354 N 
ATOM     32  N   UNL     1       1.396   9.347   5.744  1.00  0.00    -0.248 NA
ATOM     33  C   UNL     1       0.101  10.038   3.933  1.00  0.00     0.031 C 
ATOM     34  C   UNL     1       5.601   9.028   3.319  1.00  0.00     0.029 A 
ATOM     35  C   UNL     1       4.421   9.696   3.646  1.00  0.00     0.049 A 
ATOM     36  H   UNL     1       3.630  11.212   2.408  1.00  0.00     0.167 HD
ATOM     37  C   UNL     1       2.244   9.913   4.805  1.00  0.00     0.074 A 
ATOM     38  C   UNL     1       1.366  10.427   3.760  1.00  0.00     0.031 C 
ATOM     39  C   UNL     1       3.586   9.664   4.822  1.00  0.00     0.037 A 
BRANCH  26  40
ATOM     40  C   UNL     1       3.037  10.476  -0.457  1.00  0.00     0.057 A 
ATOM     41  C   UNL     1       3.754  11.684  -0.536  1.00  0.00     0.134 A 
ATOM     42  C   UNL     1       1.701  10.541  -0.903  1.00  0.00     0.134 A 
ATOM     43  F   UNL     1       5.026  11.758  -0.117  1.00  0.00    -0.206 F 
ATOM     44  C   UNL     1       3.165  12.880  -0.964  1.00  0.00     0.040 A 
ATOM     45  C   UNL     1       1.119  11.718  -1.382  1.00  0.00     0.040 A 
ATOM     46  F   UNL     1       0.866   9.499  -0.806  1.00  0.00    -0.206 F 
ATOM     47  C   UNL     1       1.841  12.901  -1.384  1.00  0.00     0.006 A 
ENDBRANCH  26  40
BRANCH  27  48
ATOM     48  C   UNL     1      -2.083   8.334   5.826  1.00  0.00     0.057 A 
ATOM     49  C   UNL     1      -2.397   9.403   6.674  1.00  0.00     0.134 A 
ATOM     50  C   UNL     1      -3.176   7.644   5.271  1.00  0.00     0.134 A 
ATOM     51  F   UNL     1      -1.426  10.154   7.213  1.00  0.00    -0.206 F 
ATOM     52  C   UNL     1      -3.721   9.771   6.947  1.00  0.00     0.040 A 
ATOM     53  C   UNL     1      -4.501   7.990   5.546  1.00  0.00     0.040 A 
ATOM     54  F   UNL     1      -2.996   6.663   4.374  1.00  0.00    -0.206 F 
ATOM     55  C   UNL     1      -4.778   9.066   6.378  1.00  0.00     0.006 A 
ENDBRANCH  27  48
BRANCH  39  56
ATOM     56  C   UNL     1       4.168   9.026   6.050  1.00  0.00     0.057 A 
ATOM     57  C   UNL     1       3.825   7.741   6.495  1.00  0.00     0.134 A 
ATOM     58  C   UNL     1       5.214   9.672   6.719  1.00  0.00     0.134 A 
ATOM     59  F   UNL     1       2.914   7.003   5.846  1.00  0.00    -0.206 F 
ATOM     60  C   UNL     1       4.457   7.151   7.592  1.00  0.00     0.040 A 
ATOM     61  C   UNL     1       5.877   9.079   7.796  1.00  0.00     0.040 A 
ATOM     62  F   UNL     1       5.640  10.877   6.307  1.00  0.00    -0.206 F 
ATOM     63  C   UNL     1       5.490   7.818   8.244  1.00  0.00     0.006 A 
ENDBRANCH  39  56
ENDBRANCH  13  14
ENDBRANCH   6   8
ENDBRANCH   5   6
ENDBRANCH   4   5
ENDBRANCH   3   4
ENDBRANCH   2   3
ENDBRANCH   1   2
BRANCH   1  64
ATOM     64  C   UNL     1       2.215  -1.465  -1.625  1.00  0.00     0.188 C 
BRANCH  64  65
ATOM     65  O   UNL     1       2.654  -2.818  -1.623  1.00  0.00    -0.376 OA
BRANCH  65  66
ATOM     66  C   UNL     1       3.900  -3.195  -2.178  1.00  0.00     0.202 C 
BRANCH  66  67
ATOM     67  C   UNL     1       4.052  -3.071  -3.693  1.00  0.00     0.261 C 
BRANCH  67  68
ATOM     68  O   UNL     1       3.808  -1.757  -4.204  1.00  0.00    -0.458 OA
BRANCH  68  69
ATOM     69  C   UNL     1       2.572  -1.538  -4.742  1.00  0.00     0.361 C 
ATOM     70  O   UNL     1       1.669  -2.359  -4.795  1.00  0.00    -0.244 OA
BRANCH  69  71
ATOM     71  C   UNL     1       2.458  -0.203  -5.293  1.00  0.00     0.198 A 
ATOM     72  N   UNL     1       1.482   0.703  -4.945  1.00  0.00    -0.122 NA
ATOM     73  C   UNL     1       3.301   0.370  -6.226  1.00  0.00     0.109 A 
ATOM     74  N   UNL     1       1.674   1.810  -5.657  1.00  0.00    -0.061 NA
ATOM     75  N   UNL     1       2.629   1.532  -6.568  1.00  0.00    -0.212 N 
BRANCH  73  76
ATOM     76  C   UNL     1       4.545  -0.093  -6.835  1.00  0.00     0.004 A 
ATOM     77  C   UNL     1       5.653   0.766  -6.921  1.00  0.00     0.010 A 
ATOM     78  C   UNL     1       4.652  -1.395  -7.333  1.00  0.00     0.031 A 
ATOM     79  C   UNL     1       6.843   0.332  -7.506  1.00  0.00     0.002 A 
ATOM     80  C   UNL     1       5.847  -1.827  -7.904  1.00  0.00     0.041 A 
ATOM     81  C   UNL     1       6.940  -0.969  -7.997  1.00  0.00     0.020 A 
ATOM     82  Cl  UNL     1       5.967  -3.436  -8.499  1.00  0.00    -0.084 Cl
ENDBRANCH  73  76
BRANCH  75  83
ATOM     83  C   UNL     1       2.750   2.231  -7.785  1.00  0.00     0.067 A 
ATOM     84  C   UNL     1       2.943   3.610  -7.802  1.00  0.00     0.029 A 
ATOM     85  C   UNL     1       2.801   1.477  -8.966  1.00  0.00     0.029 A 
ATOM     86  C   UNL     1       3.321   4.212  -9.008  1.00  0.00     0.015 A 
ATOM     87  C   UNL     1       3.143   2.087 -10.163  1.00  0.00     0.015 A 
ATOM     88  C   UNL     1       3.455   3.452 -10.188  1.00  0.00     0.056 A 
BRANCH  88  89
ATOM     89  C   UNL     1       3.982   4.079 -11.456  1.00  0.00     0.416 C 
ATOM     90  F   UNL     1       3.226   5.124 -11.883  1.00  0.00    -0.166 F 
ATOM     91  F   UNL     1       5.246   4.562 -11.299  1.00  0.00    -0.166 F 
ATOM     92  F   UNL     1       4.048   3.208 -12.503  1.00  0.00    -0.166 F 
ENDBRANCH  88  89
ENDBRANCH  75  83
ENDBRANCH  69  71
ENDBRANCH  68  69
ENDBRANCH  67  68
ENDBRANCH  66  67
ENDBRANCH  65  66
ENDBRANCH  64  65
ENDBRANCH   1  64
TORSDOF 20
