REMARK SMILES O=C(Nc1ccc2c(c1)[C@@H]1C=CC[C@@H]1[C@H](C(=O)OCCOCCOCCOC(=O)c1ccc(-c3c4nc(c(-c5c(F)cccc5F)c5ccc([nH]5)c(-c5c(F)cccc5F)c5nc(c(-c6c(F)cccc6F)c6ccc3[nH]6)C=C5)C=C4)cc1)N2)c1ccccc1
REMARK SMILES IDX 22 1 21 2 20 3 19 4 18 5 16 6 17 7 15 8 4 9 5 10 9 11 6 12
REMARK SMILES IDX 8 13 7 14 10 15 84 16 11 17 14 18 12 20 13 21 3 22 1 23 2 24
REMARK SMILES IDX 85 26 86 27 90 28 87 29 89 30 88 31 23 32 24 33 25 34 26 35
REMARK SMILES IDX 27 36 28 37 29 38 30 39 31 40 83 41 32 42 82 43 33 44 34 45
REMARK SMILES IDX 35 46 76 47 36 48 81 49 75 50 77 51 37 52 80 53 74 54 73 55
REMARK SMILES IDX 38 57 64 58 47 59 63 60 48 61 51 62 62 63 78 64 49 65 50 66
REMARK SMILES IDX 61 68 79 69 52 70 39 71 40 72 45 73 41 74 42 75 44 76 46 77
REMARK SMILES IDX 43 78 65 79 66 80 71 81 67 82 68 83 70 84 72 85 69 86 53 87
REMARK SMILES IDX 54 88 59 89 55 90 56 91 58 92 60 93 57 94
REMARK H PARENT 84 19 3 25 77 56 51 67
REMARK Flexibility Score: inf
ROOT
ATOM      1  C   UNL     1      12.687   2.144  -0.536  1.00  0.00     0.188 C 
ENDROOT
BRANCH   1   2
ATOM      2  O   UNL     1      13.771   1.629   0.228  1.00  0.00    -0.376 OA
BRANCH   2   3
ATOM      3  C   UNL     1      13.936   0.211   0.243  1.00  0.00     0.202 C 
BRANCH   3   4
ATOM      4  C   UNL     1      12.803  -0.607   0.880  1.00  0.00     0.261 C 
BRANCH   4   5
ATOM      5  O   UNL     1      11.487  -0.270   0.393  1.00  0.00    -0.462 OA
BRANCH   5   6
ATOM      6  C   UNL     1      10.653   0.263   1.320  1.00  0.00     0.328 C 
ATOM      7  O   UNL     1      10.932   0.386   2.514  1.00  0.00    -0.250 OA
BRANCH   6   8
ATOM      8  C   UNL     1       9.319   0.807   0.770  1.00  0.00     0.194 C 
ATOM      9  C   UNL     1       4.200   0.692   1.151  1.00  0.00     0.041 A 
ATOM     10  C   UNL     1       4.712   0.608   2.439  1.00  0.00     0.028 A 
ATOM     11  C   UNL     1       5.071   0.884   0.070  1.00  0.00     0.032 A 
ATOM     12  C   UNL     1       6.089   0.562   2.623  1.00  0.00     0.028 A 
ATOM     13  C   UNL     1       6.465   0.827   0.245  1.00  0.00    -0.015 A 
ATOM     14  C   UNL     1       6.969   0.648   1.537  1.00  0.00     0.039 A 
ATOM     15  C   UNL     1       7.415   0.954  -0.932  1.00  0.00     0.050 C 
ATOM     16  N   UNL     1       8.309   0.476   1.766  1.00  0.00    -0.372 N 
ATOM     17  C   UNL     1       7.053   0.060  -2.090  1.00  0.00    -0.023 C 
ATOM     18  C   UNL     1       8.867   0.474  -0.648  1.00  0.00     0.038 C 
ATOM     19  H   UNL     1       8.600   0.116   2.635  1.00  0.00     0.161 HD
ATOM     20  C   UNL     1       7.857  -1.006  -2.172  1.00  0.00    -0.030 C 
ATOM     21  C   UNL     1       8.893  -0.995  -1.091  1.00  0.00     0.034 C 
BRANCH   9  22
ATOM     22  N   UNL     1       2.817   0.514   0.998  1.00  0.00    -0.322 N 
ATOM     23  O   UNL     1       0.903   0.033  -0.114  1.00  0.00    -0.269 OA
ATOM     24  C   UNL     1       2.126  -0.074  -0.041  1.00  0.00     0.255 C 
ATOM     25  H   UNL     1       2.261   0.857   1.735  1.00  0.00     0.170 HD
BRANCH  24  26
ATOM     26  C   UNL     1       2.834  -0.926  -1.029  1.00  0.00     0.040 A 
ATOM     27  C   UNL     1       3.779  -1.881  -0.626  1.00  0.00     0.014 A 
ATOM     28  C   UNL     1       2.540  -0.765  -2.385  1.00  0.00     0.014 A 
ATOM     29  C   UNL     1       4.486  -2.609  -1.583  1.00  0.00     0.001 A 
ATOM     30  C   UNL     1       3.240  -1.505  -3.339  1.00  0.00     0.001 A 
ATOM     31  C   UNL     1       4.221  -2.414  -2.938  1.00  0.00     0.000 A 
ENDBRANCH  24  26
ENDBRANCH   9  22
ENDBRANCH   6   8
ENDBRANCH   5   6
ENDBRANCH   4   5
ENDBRANCH   3   4
ENDBRANCH   2   3
ENDBRANCH   1   2
BRANCH   1  32
ATOM     32  C   UNL     1      12.593   1.689  -1.993  1.00  0.00     0.188 C 
BRANCH  32  33
ATOM     33  O   UNL     1      12.653   0.285  -2.207  1.00  0.00    -0.376 OA
BRANCH  33  34
ATOM     34  C   UNL     1      12.601  -0.151  -3.570  1.00  0.00     0.202 C 
BRANCH  34  35
ATOM     35  C   UNL     1      13.569   0.533  -4.560  1.00  0.00     0.261 C 
BRANCH  35  36
ATOM     36  O   UNL     1      13.405   1.960  -4.716  1.00  0.00    -0.460 OA
BRANCH  36  37
ATOM     37  C   UNL     1      12.165   2.436  -4.978  1.00  0.00     0.338 C 
ATOM     38  O   UNL     1      11.202   1.784  -5.344  1.00  0.00    -0.246 OA
BRANCH  37  39
ATOM     39  C   UNL     1      12.081   3.838  -4.477  1.00  0.00     0.060 A 
ATOM     40  C   UNL     1      10.893   4.248  -3.852  1.00  0.00     0.016 A 
ATOM     41  C   UNL     1      13.167   4.718  -4.537  1.00  0.00     0.016 A 
ATOM     42  C   UNL     1      10.775   5.539  -3.326  1.00  0.00     0.010 A 
ATOM     43  C   UNL     1      13.043   6.015  -4.022  1.00  0.00     0.010 A 
ATOM     44  C   UNL     1      11.836   6.446  -3.443  1.00  0.00    -0.014 A 
BRANCH  44  45
ATOM     45  C   UNL     1      11.618   7.889  -3.153  1.00  0.00     0.031 A 
ATOM     46  C   UNL     1      11.329   8.811  -4.309  1.00  0.00     0.074 A 
ATOM     47  C   UNL     1      11.646   8.385  -1.901  1.00  0.00     0.049 A 
ATOM     48  N   UNL     1      11.148  10.107  -4.317  1.00  0.00    -0.248 NA
ATOM     49  C   UNL     1      11.234   8.181  -5.635  1.00  0.00     0.031 C 
ATOM     50  C   UNL     1      11.871   7.610  -0.684  1.00  0.00     0.029 A 
ATOM     51  N   UNL     1      11.491   9.677  -1.454  1.00  0.00    -0.354 N 
ATOM     52  C   UNL     1      10.922  10.447  -5.646  1.00  0.00     0.074 A 
ATOM     53  C   UNL     1      11.022   9.228  -6.418  1.00  0.00     0.031 C 
ATOM     54  C   UNL     1      11.850   8.444   0.373  1.00  0.00     0.029 A 
ATOM     55  C   UNL     1      11.643   9.815  -0.095  1.00  0.00     0.049 A 
ATOM     56  H   UNL     1      11.289  10.432  -2.052  1.00  0.00     0.167 HD
ATOM     57  C   UNL     1      10.645  11.661  -6.178  1.00  0.00     0.037 A 
ATOM     58  C   UNL     1      11.638  10.921   0.677  1.00  0.00     0.037 A 
ATOM     59  C   UNL     1      10.545  12.880  -5.421  1.00  0.00     0.049 A 
ATOM     60  C   UNL     1      11.413  12.275   0.049  1.00  0.00     0.074 A 
ATOM     61  C   UNL     1      10.254  14.154  -5.878  1.00  0.00     0.029 A 
ATOM     62  N   UNL     1      10.741  12.980  -4.053  1.00  0.00    -0.354 N 
ATOM     63  N   UNL     1      11.174  12.580  -1.203  1.00  0.00    -0.248 NA
ATOM     64  C   UNL     1      11.456  13.441   0.947  1.00  0.00     0.031 C 
ATOM     65  C   UNL     1      10.328  15.035  -4.794  1.00  0.00     0.029 A 
ATOM     66  C   UNL     1      10.605  14.300  -3.654  1.00  0.00     0.049 A 
ATOM     67  H   UNL     1      10.947  12.226  -3.455  1.00  0.00     0.167 HD
ATOM     68  C   UNL     1      11.004  13.961  -1.236  1.00  0.00     0.074 A 
ATOM     69  C   UNL     1      11.156  14.434   0.122  1.00  0.00     0.031 C 
ATOM     70  C   UNL     1      10.743  14.764  -2.297  1.00  0.00     0.037 A 
BRANCH  57  71
ATOM     71  C   UNL     1      10.452  11.734  -7.664  1.00  0.00     0.057 A 
ATOM     72  C   UNL     1       9.315  11.209  -8.291  1.00  0.00     0.134 A 
ATOM     73  C   UNL     1      11.401  12.371  -8.474  1.00  0.00     0.134 A 
ATOM     74  F   UNL     1       8.376  10.572  -7.574  1.00  0.00    -0.206 F 
ATOM     75  C   UNL     1       9.137  11.298  -9.672  1.00  0.00     0.040 A 
ATOM     76  C   UNL     1      11.221  12.490  -9.852  1.00  0.00     0.040 A 
ATOM     77  F   UNL     1      12.512  12.897  -7.936  1.00  0.00    -0.206 F 
ATOM     78  C   UNL     1      10.089  11.948 -10.456  1.00  0.00     0.006 A 
ENDBRANCH  57  71
BRANCH  58  79
ATOM     79  C   UNL     1      11.878  10.816   2.142  1.00  0.00     0.057 A 
ATOM     80  C   UNL     1      10.874  11.126   3.069  1.00  0.00     0.134 A 
ATOM     81  C   UNL     1      13.133  10.460   2.650  1.00  0.00     0.134 A 
ATOM     82  F   UNL     1       9.660  11.506   2.646  1.00  0.00    -0.206 F 
ATOM     83  C   UNL     1      11.117  11.108   4.444  1.00  0.00     0.040 A 
ATOM     84  C   UNL     1      13.381  10.410   4.022  1.00  0.00     0.040 A 
ATOM     85  F   UNL     1      14.140  10.159   1.816  1.00  0.00    -0.206 F 
ATOM     86  C   UNL     1      12.373  10.744   4.924  1.00  0.00     0.006 A 
ENDBRANCH  58  79
BRANCH  70  87
ATOM     87  C   UNL     1      10.555  16.232  -2.035  1.00  0.00     0.057 A 
ATOM     88  C   UNL     1      11.622  17.070  -1.688  1.00  0.00     0.134 A 
ATOM     89  C   UNL     1       9.293  16.825  -2.182  1.00  0.00     0.134 A 
ATOM     90  F   UNL     1      12.855  16.567  -1.522  1.00  0.00    -0.206 F 
ATOM     91  C   UNL     1      11.438  18.438  -1.474  1.00  0.00     0.040 A 
ATOM     92  C   UNL     1       9.101  18.195  -1.999  1.00  0.00     0.040 A 
ATOM     93  F   UNL     1       8.228  16.084  -2.525  1.00  0.00    -0.206 F 
ATOM     94  C   UNL     1      10.175  19.005  -1.637  1.00  0.00     0.006 A 
ENDBRANCH  70  87
ENDBRANCH  44  45
ENDBRANCH  37  39
ENDBRANCH  36  37
ENDBRANCH  35  36
ENDBRANCH  34  35
ENDBRANCH  33  34
ENDBRANCH  32  33
ENDBRANCH   1  32
TORSDOF 19
