REMARK SMILES O=C(NC[C@@H]1CCOC1)NC[C@@H]1CC[C@H](C(=O)OCCOCCOCCOC(=O)c2ccc(-c3c4nc(c(-c5c(F)cccc5F)c5ccc([nH]5)c(-c5c(F)cccc5F)c5nc(c(-c6c(F)cccc6F)c6ccc3[nH]6)C=C5)C=C4)cc2)O1
REMARK SMILES IDX 22 1 21 2 20 3 19 4 18 5 16 6 17 7 15 8 12 9 13 10 84 11
REMARK SMILES IDX 14 12 11 13 10 14 1 15 2 16 3 17 4 20 5 21 6 22 9 23 7 24
REMARK SMILES IDX 8 25 23 26 24 27 25 28 26 29 27 30 28 31 29 32 30 33 31 34
REMARK SMILES IDX 83 35 32 36 82 37 33 38 34 39 35 40 76 41 36 42 81 43 75 44
REMARK SMILES IDX 77 45 37 46 80 47 74 48 73 49 38 51 64 52 47 53 63 54 48 55
REMARK SMILES IDX 51 56 62 57 78 58 49 59 50 60 61 62 79 63 52 64 39 65 40 66
REMARK SMILES IDX 45 67 41 68 42 69 44 70 46 71 43 72 65 73 66 74 71 75 67 76
REMARK SMILES IDX 68 77 70 78 72 79 69 80 53 81 54 82 59 83 55 84 56 85 58 86
REMARK SMILES IDX 60 87 57 88
REMARK H PARENT 3 18 10 19 77 50 51 61
REMARK Flexibility Score: inf
ROOT
ATOM      1  C   UNL     1      -1.184   5.017  -3.412  1.00  0.00     0.188 C 
ENDROOT
BRANCH   1   2
ATOM      2  O   UNL     1      -2.285   4.820  -2.537  1.00  0.00    -0.376 OA
BRANCH   2   3
ATOM      3  C   UNL     1      -2.103   3.881  -1.473  1.00  0.00     0.202 C 
BRANCH   3   4
ATOM      4  C   UNL     1      -1.471   2.516  -1.810  1.00  0.00     0.261 C 
BRANCH   4   5
ATOM      5  O   UNL     1      -0.133   2.593  -2.365  1.00  0.00    -0.461 OA
BRANCH   5   6
ATOM      6  C   UNL     1       0.082   1.888  -3.506  1.00  0.00     0.335 C 
ATOM      7  O   UNL     1      -0.772   1.191  -4.051  1.00  0.00    -0.249 OA
BRANCH   6   8
ATOM      8  C   UNL     1       1.479   2.083  -4.129  1.00  0.00     0.228 C 
ATOM      9  C   UNL     1       2.977   0.546  -3.227  1.00  0.00     0.138 C 
ATOM     10  C   UNL     1       3.188   1.877  -2.514  1.00  0.00     0.037 C 
ATOM     11  O   UNL     1       2.083   0.790  -4.331  1.00  0.00    -0.361 OA
ATOM     12  C   UNL     1       2.559   2.881  -3.431  1.00  0.00     0.047 C 
BRANCH   9  13
ATOM     13  C   UNL     1       2.411  -0.550  -2.309  1.00  0.00     0.149 C 
BRANCH  13  14
ATOM     14  N   UNL     1       3.033  -0.530  -0.996  1.00  0.00    -0.336 N 
ATOM     15  O   UNL     1       1.145   0.090   0.126  1.00  0.00    -0.249 OA
ATOM     16  C   UNL     1       2.356  -0.108   0.102  1.00  0.00     0.314 C 
ATOM     17  N   UNL     1       3.075   0.152   1.215  1.00  0.00    -0.338 N 
ATOM     18  H   UNL     1       2.530   0.443   1.982  1.00  0.00     0.165 HD
ATOM     19  H   UNL     1       3.966  -0.829  -0.901  1.00  0.00     0.165 HD
BRANCH  17  20
ATOM     20  C   UNL     1       4.495   0.086   1.499  1.00  0.00     0.123 C 
BRANCH  20  21
ATOM     21  C   UNL     1       5.157   1.416   1.912  1.00  0.00     0.036 C 
ATOM     22  C   UNL     1       4.258   2.433   2.589  1.00  0.00     0.036 C 
ATOM     23  C   UNL     1       5.700   2.215   0.735  1.00  0.00     0.165 C 
ATOM     24  C   UNL     1       3.770   3.304   1.448  1.00  0.00     0.160 C 
ATOM     25  O   UNL     1       4.753   3.235   0.410  1.00  0.00    -0.381 OA
ENDBRANCH  20  21
ENDBRANCH  17  20
ENDBRANCH  13  14
ENDBRANCH   9  13
ENDBRANCH   6   8
ENDBRANCH   5   6
ENDBRANCH   4   5
ENDBRANCH   3   4
ENDBRANCH   2   3
ENDBRANCH   1   2
BRANCH   1  26
ATOM     26  C   UNL     1       0.115   5.521  -2.778  1.00  0.00     0.188 C 
BRANCH  26  27
ATOM     27  O   UNL     1       0.305   5.135  -1.438  1.00  0.00    -0.376 OA
BRANCH  27  28
ATOM     28  C   UNL     1       0.698   6.069  -0.441  1.00  0.00     0.202 C 
BRANCH  28  29
ATOM     29  C   UNL     1       0.189   7.531  -0.416  1.00  0.00     0.261 C 
BRANCH  29  30
ATOM     30  O   UNL     1       0.169   8.270  -1.649  1.00  0.00    -0.460 OA
BRANCH  30  31
ATOM     31  C   UNL     1       1.349   8.476  -2.281  1.00  0.00     0.338 C 
ATOM     32  O   UNL     1       2.463   8.269  -1.828  1.00  0.00    -0.246 OA
BRANCH  31  33
ATOM     33  C   UNL     1       1.050   8.710  -3.723  1.00  0.00     0.060 A 
ATOM     34  C   UNL     1       1.694   7.902  -4.674  1.00  0.00     0.016 A 
ATOM     35  C   UNL     1       0.070   9.617  -4.134  1.00  0.00     0.016 A 
ATOM     36  C   UNL     1       1.384   8.021  -6.034  1.00  0.00     0.010 A 
ATOM     37  C   UNL     1      -0.220   9.755  -5.498  1.00  0.00     0.010 A 
ATOM     38  C   UNL     1       0.454   8.977  -6.459  1.00  0.00    -0.014 A 
BRANCH  38  39
ATOM     39  C   UNL     1       0.327   9.322  -7.900  1.00  0.00     0.031 A 
ATOM     40  C   UNL     1       1.079  10.524  -8.405  1.00  0.00     0.074 A 
ATOM     41  C   UNL     1      -0.438   8.611  -8.748  1.00  0.00     0.049 A 
ATOM     42  N   UNL     1       1.037  11.105  -9.576  1.00  0.00    -0.248 NA
ATOM     43  C   UNL     1       2.001  11.159  -7.449  1.00  0.00     0.031 C 
ATOM     44  C   UNL     1      -1.175   7.396  -8.413  1.00  0.00     0.029 A 
ATOM     45  N   UNL     1      -0.736   8.831 -10.073  1.00  0.00    -0.354 N 
ATOM     46  C   UNL     1       1.911  12.182  -9.492  1.00  0.00     0.074 A 
ATOM     47  C   UNL     1       2.450  12.188  -8.150  1.00  0.00     0.031 C 
ATOM     48  C   UNL     1      -1.862   6.991  -9.497  1.00  0.00     0.029 A 
ATOM     49  C   UNL     1      -1.647   7.941 -10.589  1.00  0.00     0.049 A 
ATOM     50  H   UNL     1      -0.334   9.558 -10.602  1.00  0.00     0.167 HD
ATOM     51  C   UNL     1       2.236  13.085 -10.446  1.00  0.00     0.037 A 
ATOM     52  C   UNL     1      -2.264   7.919 -11.788  1.00  0.00     0.037 A 
ATOM     53  C   UNL     1       1.699  13.083 -11.781  1.00  0.00     0.049 A 
ATOM     54  C   UNL     1      -1.961   8.993 -12.805  1.00  0.00     0.074 A 
ATOM     55  C   UNL     1       1.988  13.944 -12.825  1.00  0.00     0.029 A 
ATOM     56  N   UNL     1       0.753  12.186 -12.250  1.00  0.00    -0.354 N 
ATOM     57  N   UNL     1      -1.117   9.994 -12.727  1.00  0.00    -0.248 NA
ATOM     58  C   UNL     1      -2.702   8.938 -14.075  1.00  0.00     0.031 C 
ATOM     59  C   UNL     1       1.169  13.607 -13.907  1.00  0.00     0.029 A 
ATOM     60  C   UNL     1       0.418  12.497 -13.558  1.00  0.00     0.049 A 
ATOM     61  H   UNL     1       0.376  11.439 -11.732  1.00  0.00     0.167 HD
ATOM     62  C   UNL     1      -1.207  10.667 -13.942  1.00  0.00     0.074 A 
ATOM     63  C   UNL     1      -2.176   9.954 -14.745  1.00  0.00     0.031 C 
ATOM     64  C   UNL     1      -0.545  11.777 -14.353  1.00  0.00     0.037 A 
BRANCH  51  65
ATOM     65  C   UNL     1       3.191  14.179 -10.066  1.00  0.00     0.057 A 
ATOM     66  C   UNL     1       4.550  13.933  -9.829  1.00  0.00     0.134 A 
ATOM     67  C   UNL     1       2.748  15.504  -9.963  1.00  0.00     0.134 A 
ATOM     68  F   UNL     1       5.036  12.684  -9.895  1.00  0.00    -0.206 F 
ATOM     69  C   UNL     1       5.427  14.961  -9.480  1.00  0.00     0.040 A 
ATOM     70  C   UNL     1       3.621  16.544  -9.645  1.00  0.00     0.040 A 
ATOM     71  F   UNL     1       1.460  15.810 -10.181  1.00  0.00    -0.206 F 
ATOM     72  C   UNL     1       4.964  16.272  -9.395  1.00  0.00     0.006 A 
ENDBRANCH  51  65
BRANCH  52  73
ATOM     73  C   UNL     1      -3.270   6.866 -12.093  1.00  0.00     0.057 A 
ATOM     74  C   UNL     1      -3.038   5.902 -13.082  1.00  0.00     0.134 A 
ATOM     75  C   UNL     1      -4.503   6.822 -11.431  1.00  0.00     0.134 A 
ATOM     76  F   UNL     1      -1.891   5.910 -13.776  1.00  0.00    -0.206 F 
ATOM     77  C   UNL     1      -3.999   4.943 -13.410  1.00  0.00     0.040 A 
ATOM     78  C   UNL     1      -5.462   5.851 -11.728  1.00  0.00     0.040 A 
ATOM     79  F   UNL     1      -4.794   7.722 -10.480  1.00  0.00    -0.206 F 
ATOM     80  C   UNL     1      -5.213   4.912 -12.727  1.00  0.00     0.006 A 
ENDBRANCH  52  73
BRANCH  64  81
ATOM     81  C   UNL     1      -0.814  12.279 -15.744  1.00  0.00     0.057 A 
ATOM     82  C   UNL     1      -2.019  12.903 -16.087  1.00  0.00     0.134 A 
ATOM     83  C   UNL     1       0.174  12.197 -16.735  1.00  0.00     0.134 A 
ATOM     84  F   UNL     1      -3.011  13.006 -15.190  1.00  0.00    -0.206 F 
ATOM     85  C   UNL     1      -2.239  13.414 -17.368  1.00  0.00     0.040 A 
ATOM     86  C   UNL     1      -0.022  12.730 -18.010  1.00  0.00     0.040 A 
ATOM     87  F   UNL     1       1.358  11.622 -16.472  1.00  0.00    -0.206 F 
ATOM     88  C   UNL     1      -1.234  13.337 -18.331  1.00  0.00     0.006 A 
ENDBRANCH  64  81
ENDBRANCH  38  39
ENDBRANCH  31  33
ENDBRANCH  30  31
ENDBRANCH  29  30
ENDBRANCH  28  29
ENDBRANCH  27  28
ENDBRANCH  26  27
ENDBRANCH   1  26
TORSDOF 21
