REMARK SMILES Cc1cc(C(=O)OCCOCCOCCOC(=O)c2ccc(-c3c4nc(c(-c5c(F)cccc5F)c5ccc([nH]5)c(-c5c(F)cccc5F)c5nc(c(-c6c(F)cccc6F)c6ccc3[nH]6)C=C5)C=C4)cc2)nc(N2CCN(c3ccccc3Cl)CC2)n1
REMARK SMILES IDX 11 1 10 2 9 3 8 4 7 5 5 6 6 7 4 8 1 9 2 10 3 11 88 12 74 13
REMARK SMILES IDX 73 14 75 15 76 16 87 17 77 18 86 19 78 20 79 21 80 22 84 23
REMARK SMILES IDX 81 24 83 25 85 26 82 27 12 28 13 29 14 30 15 31 16 32 17 33
REMARK SMILES IDX 18 34 19 35 20 36 72 37 21 38 71 39 22 40 23 41 24 42 65 43
REMARK SMILES IDX 25 44 70 45 64 46 66 47 26 48 69 49 63 50 62 51 27 53 53 54
REMARK SMILES IDX 36 55 52 56 37 57 40 58 51 59 67 60 38 61 39 62 50 64 68 65
REMARK SMILES IDX 41 66 28 67 29 68 34 69 30 70 31 71 33 72 35 73 32 74 54 75
REMARK SMILES IDX 55 76 60 77 56 78 57 79 59 80 61 81 58 82 42 83 43 84 48 85
REMARK SMILES IDX 44 86 45 87 47 88 49 89 46 90
REMARK H PARENT 66 52 40 63
REMARK Flexibility Score: inf
ROOT
ATOM      1  C   UNL     1       3.374  -2.634  -1.350  1.00  0.00     0.188 C 
ENDROOT
BRANCH   1   2
ATOM      2  O   UNL     1       4.004  -3.834  -0.911  1.00  0.00    -0.376 OA
BRANCH   2   3
ATOM      3  C   UNL     1       3.241  -4.830  -0.240  1.00  0.00     0.202 C 
BRANCH   3   4
ATOM      4  C   UNL     1       2.405  -4.443   0.988  1.00  0.00     0.261 C 
BRANCH   4   5
ATOM      5  O   UNL     1       1.502  -3.351   0.757  1.00  0.00    -0.459 OA
BRANCH   5   6
ATOM      6  C   UNL     1       1.680  -2.280   1.582  1.00  0.00     0.357 C 
ATOM      7  O   UNL     1       2.414  -2.218   2.542  1.00  0.00    -0.244 OA
BRANCH   6   8
ATOM      8  C   UNL     1       0.928  -1.116   1.040  1.00  0.00     0.154 A 
ATOM      9  C   UNL     1      -2.437   0.058  -0.025  1.00  0.00     0.067 C 
ATOM     10  C   UNL     1      -0.977  -0.016   0.309  1.00  0.00     0.044 A 
ATOM     11  C   UNL     1      -0.412  -1.193   0.747  1.00  0.00     0.059 A 
ATOM     12  N   UNL     1      -0.268   1.132   0.203  1.00  0.00    -0.218 NA
ATOM     13  C   UNL     1       1.044   1.095   0.479  1.00  0.00     0.226 A 
ATOM     14  N   UNL     1       1.674  -0.007   0.876  1.00  0.00    -0.206 NA
BRANCH  13  15
ATOM     15  N   UNL     1       1.821   2.218   0.349  1.00  0.00    -0.337 N 
ATOM     16  C   UNL     1       1.297   3.489   0.853  1.00  0.00     0.141 C 
ATOM     17  C   UNL     1       2.565   2.299  -0.912  1.00  0.00     0.141 C 
ATOM     18  C   UNL     1       2.458   4.511   0.991  1.00  0.00     0.138 C 
ATOM     19  C   UNL     1       3.706   3.334  -0.799  1.00  0.00     0.138 C 
ATOM     20  N   UNL     1       3.178   4.609  -0.287  1.00  0.00    -0.367 N 
BRANCH  20  21
ATOM     21  C   UNL     1       3.831   5.771  -0.666  1.00  0.00     0.056 A 
ATOM     22  C   UNL     1       4.673   6.452   0.227  1.00  0.00     0.027 A 
ATOM     23  C   UNL     1       3.683   6.313  -1.962  1.00  0.00     0.064 A 
ATOM     24  C   UNL     1       5.335   7.626  -0.152  1.00  0.00     0.002 A 
ATOM     25  C   UNL     1       4.335   7.491  -2.338  1.00  0.00     0.023 A 
ATOM     26  Cl  UNL     1       2.634   5.577  -3.135  1.00  0.00    -0.082 Cl
ATOM     27  C   UNL     1       5.161   8.148  -1.431  1.00  0.00     0.002 A 
ENDBRANCH  20  21
ENDBRANCH  13  15
ENDBRANCH   6   8
ENDBRANCH   5   6
ENDBRANCH   4   5
ENDBRANCH   3   4
ENDBRANCH   2   3
ENDBRANCH   1   2
BRANCH   1  28
ATOM     28  C   UNL     1       2.051  -2.707  -2.141  1.00  0.00     0.188 C 
BRANCH  28  29
ATOM     29  O   UNL     1       1.538  -4.008  -2.300  1.00  0.00    -0.376 OA
BRANCH  29  30
ATOM     30  C   UNL     1       1.763  -4.724  -3.503  1.00  0.00     0.202 C 
BRANCH  30  31
ATOM     31  C   UNL     1       2.995  -4.558  -4.415  1.00  0.00     0.261 C 
BRANCH  31  32
ATOM     32  O   UNL     1       3.800  -3.388  -4.255  1.00  0.00    -0.460 OA
BRANCH  32  33
ATOM     33  C   UNL     1       3.556  -2.367  -5.106  1.00  0.00     0.338 C 
ATOM     34  O   UNL     1       2.683  -2.300  -5.954  1.00  0.00    -0.246 OA
BRANCH  33  35
ATOM     35  C   UNL     1       4.431  -1.240  -4.734  1.00  0.00     0.060 A 
ATOM     36  C   UNL     1       3.839  -0.072  -4.243  1.00  0.00     0.016 A 
ATOM     37  C   UNL     1       5.817  -1.323  -4.894  1.00  0.00     0.016 A 
ATOM     38  C   UNL     1       4.635   1.026  -3.924  1.00  0.00     0.010 A 
ATOM     39  C   UNL     1       6.613  -0.214  -4.582  1.00  0.00     0.010 A 
ATOM     40  C   UNL     1       6.024   0.971  -4.109  1.00  0.00    -0.014 A 
BRANCH  40  41
ATOM     41  C   UNL     1       6.827   2.207  -3.961  1.00  0.00     0.031 A 
ATOM     42  C   UNL     1       7.064   3.062  -5.173  1.00  0.00     0.074 A 
ATOM     43  C   UNL     1       7.308   2.588  -2.764  1.00  0.00     0.049 A 
ATOM     44  N   UNL     1       7.764   4.160  -5.293  1.00  0.00    -0.248 NA
ATOM     45  C   UNL     1       6.419   2.618  -6.419  1.00  0.00     0.031 C 
ATOM     46  C   UNL     1       7.107   1.878  -1.504  1.00  0.00     0.029 A 
ATOM     47  N   UNL     1       8.070   3.678  -2.420  1.00  0.00    -0.354 N 
ATOM     48  C   UNL     1       7.643   4.540  -6.623  1.00  0.00     0.074 A 
ATOM     49  C   UNL     1       6.821   3.544  -7.276  1.00  0.00     0.031 C 
ATOM     50  C   UNL     1       7.736   2.549  -0.522  1.00  0.00     0.029 A 
ATOM     51  C   UNL     1       8.415   3.712  -1.091  1.00  0.00     0.049 A 
ATOM     52  H   UNL     1       8.344   4.369  -3.065  1.00  0.00     0.167 HD
ATOM     53  C   UNL     1       8.167   5.621  -7.245  1.00  0.00     0.037 A 
ATOM     54  C   UNL     1       9.213   4.568  -0.422  1.00  0.00     0.037 A 
ATOM     55  C   UNL     1       8.997   6.605  -6.604  1.00  0.00     0.049 A 
ATOM     56  C   UNL     1       9.865   5.709  -1.161  1.00  0.00     0.074 A 
ATOM     57  C   UNL     1       9.586   7.729  -7.158  1.00  0.00     0.029 A 
ATOM     58  N   UNL     1       9.363   6.578  -5.268  1.00  0.00    -0.354 N 
ATOM     59  N   UNL     1       9.743   6.063  -2.417  1.00  0.00    -0.248 NA
ATOM     60  C   UNL     1      10.778   6.565  -0.386  1.00  0.00     0.031 C 
ATOM     61  C   UNL     1      10.345   8.358  -6.166  1.00  0.00     0.029 A 
ATOM     62  C   UNL     1      10.189   7.653  -4.984  1.00  0.00     0.049 A 
ATOM     63  H   UNL     1       9.078   5.897  -4.617  1.00  0.00     0.167 HD
ATOM     64  C   UNL     1      10.537   7.193  -2.575  1.00  0.00     0.074 A 
ATOM     65  C   UNL     1      11.129   7.474  -1.285  1.00  0.00     0.031 C 
ATOM     66  C   UNL     1      10.759   7.931  -3.691  1.00  0.00     0.037 A 
BRANCH  53  67
ATOM     67  C   UNL     1       7.881   5.776  -8.708  1.00  0.00     0.057 A 
ATOM     68  C   UNL     1       6.622   6.172  -9.175  1.00  0.00     0.134 A 
ATOM     69  C   UNL     1       8.885   5.551  -9.657  1.00  0.00     0.134 A 
ATOM     70  F   UNL     1       5.614   6.386  -8.316  1.00  0.00    -0.206 F 
ATOM     71  C   UNL     1       6.367   6.322 -10.539  1.00  0.00     0.040 A 
ATOM     72  C   UNL     1       8.648   5.720 -11.022  1.00  0.00     0.040 A 
ATOM     73  F   UNL     1      10.113   5.170  -9.274  1.00  0.00    -0.206 F 
ATOM     74  C   UNL     1       7.384   6.103 -11.466  1.00  0.00     0.006 A 
ENDBRANCH  53  67
BRANCH  54  75
ATOM     75  C   UNL     1       9.489   4.364   1.023  1.00  0.00     0.057 A 
ATOM     76  C   UNL     1       9.037   5.274   1.986  1.00  0.00     0.134 A 
ATOM     77  C   UNL     1      10.267   3.288   1.468  1.00  0.00     0.134 A 
ATOM     78  F   UNL     1       8.316   6.344   1.621  1.00  0.00    -0.206 F 
ATOM     79  C   UNL     1       9.367   5.133   3.336  1.00  0.00     0.040 A 
ATOM     80  C   UNL     1      10.581   3.120   2.817  1.00  0.00     0.040 A 
ATOM     81  F   UNL     1      10.739   2.386   0.594  1.00  0.00    -0.206 F 
ATOM     82  C   UNL     1      10.139   4.051   3.755  1.00  0.00     0.006 A 
ENDBRANCH  54  75
BRANCH  66  83
ATOM     83  C   UNL     1      11.642   9.138  -3.561  1.00  0.00     0.057 A 
ATOM     84  C   UNL     1      13.030   9.028  -3.410  1.00  0.00     0.134 A 
ATOM     85  C   UNL     1      11.100  10.427  -3.638  1.00  0.00     0.134 A 
ATOM     86  F   UNL     1      13.611   7.822  -3.317  1.00  0.00    -0.206 F 
ATOM     87  C   UNL     1      13.845  10.158  -3.322  1.00  0.00     0.040 A 
ATOM     88  C   UNL     1      11.907  11.564  -3.577  1.00  0.00     0.040 A 
ATOM     89  F   UNL     1       9.778  10.603  -3.791  1.00  0.00    -0.206 F 
ATOM     90  C   UNL     1      13.284  11.431  -3.413  1.00  0.00     0.006 A 
ENDBRANCH  66  83
ENDBRANCH  40  41
ENDBRANCH  33  35
ENDBRANCH  32  33
ENDBRANCH  31  32
ENDBRANCH  30  31
ENDBRANCH  29  30
ENDBRANCH  28  29
ENDBRANCH   1  28
TORSDOF 19
