REMARK SMILES O=C(OCCOCCOCCOC(=O)c1sccc1S(=O)(=O)Nc1ccccc1N1CCCCC1)c1ccc(-c2c3nc(c(-c4c(F)cccc4F)c4ccc([nH]4)c(-c4c(F)cccc4F)c4nc(c(-c5c(F)cccc5F)c5ccc2[nH]5)C=C4)C=C3)cc1
REMARK SMILES IDX 8 1 7 2 6 3 5 4 4 5 3 6 2 7 1 8 36 9 37 10 89 11 38 12 88 13
REMARK SMILES IDX 39 14 40 15 41 16 82 17 42 18 87 19 81 20 83 21 43 22 86 23
REMARK SMILES IDX 80 24 79 25 44 27 70 28 53 29 69 30 54 31 57 32 68 33 84 34
REMARK SMILES IDX 55 35 56 36 67 38 85 39 58 40 45 41 46 42 51 43 47 44 48 45
REMARK SMILES IDX 50 46 52 47 49 48 71 49 72 50 77 51 73 52 74 53 76 54 78 55
REMARK SMILES IDX 75 56 59 57 60 58 65 59 61 60 62 61 64 62 66 63 63 64 9 65
REMARK SMILES IDX 10 66 11 67 12 68 13 69 14 70 15 71 16 72 19 73 17 74 18 75
REMARK SMILES IDX 20 76 21 77 22 78 23 79 24 81 25 82 29 83 26 84 28 85 27 86
REMARK SMILES IDX 30 87 31 88 35 89 32 90 34 91 33 92
REMARK H PARENT 83 26 57 37 23 80
REMARK Flexibility Score: inf
ROOT
ATOM      1  C   UNL     1       2.688  -2.854   0.716  1.00  0.00     0.188 C 
ENDROOT
BRANCH   1   2
ATOM      2  C   UNL     1       3.133  -1.624   1.512  1.00  0.00     0.188 C 
BRANCH   2   3
ATOM      3  O   UNL     1       4.276  -0.997   0.936  1.00  0.00    -0.376 OA
BRANCH   3   4
ATOM      4  C   UNL     1       4.914  -0.049   1.794  1.00  0.00     0.202 C 
BRANCH   4   5
ATOM      5  C   UNL     1       4.098   1.228   2.016  1.00  0.00     0.261 C 
BRANCH   5   6
ATOM      6  O   UNL     1       4.027   1.926   0.768  1.00  0.00    -0.460 OA
BRANCH   6   7
ATOM      7  C   UNL     1       2.900   1.735   0.029  1.00  0.00     0.338 C 
ATOM      8  O   UNL     1       1.776   1.548   0.426  1.00  0.00    -0.246 OA
BRANCH   7   9
ATOM      9  C   UNL     1       3.341   1.806  -1.381  1.00  0.00     0.060 A 
ATOM     10  C   UNL     1       4.537   1.160  -1.728  1.00  0.00     0.016 A 
ATOM     11  C   UNL     1       2.618   2.521  -2.333  1.00  0.00     0.016 A 
ATOM     12  C   UNL     1       5.065   1.284  -2.995  1.00  0.00     0.010 A 
ATOM     13  C   UNL     1       3.151   2.652  -3.618  1.00  0.00     0.010 A 
ATOM     14  C   UNL     1       4.396   2.067  -3.932  1.00  0.00    -0.014 A 
BRANCH  14  15
ATOM     15  C   UNL     1       5.123   2.447  -5.155  1.00  0.00     0.031 A 
ATOM     16  C   UNL     1       5.718   3.815  -5.212  1.00  0.00     0.074 A 
ATOM     17  C   UNL     1       5.356   1.561  -6.135  1.00  0.00     0.049 A 
ATOM     18  N   UNL     1       6.307   4.418  -6.206  1.00  0.00    -0.248 NA
ATOM     19  C   UNL     1       5.690   4.588  -3.958  1.00  0.00     0.031 C 
ATOM     20  C   UNL     1       5.040   0.141  -6.074  1.00  0.00     0.029 A 
ATOM     21  N   UNL     1       5.886   1.729  -7.385  1.00  0.00    -0.354 N 
ATOM     22  C   UNL     1       6.746   5.628  -5.693  1.00  0.00     0.074 A 
ATOM     23  C   UNL     1       6.310   5.700  -4.316  1.00  0.00     0.031 C 
ATOM     24  C   UNL     1       5.247  -0.412  -7.277  1.00  0.00     0.029 A 
ATOM     25  C   UNL     1       5.698   0.629  -8.186  1.00  0.00     0.049 A 
ATOM     26  H   UNL     1       6.350   2.546  -7.678  1.00  0.00     0.167 HD
ATOM     27  C   UNL     1       7.474   6.578  -6.319  1.00  0.00     0.037 A 
ATOM     28  C   UNL     1       5.812   0.503  -9.518  1.00  0.00     0.037 A 
ATOM     29  C   UNL     1       7.872   6.480  -7.696  1.00  0.00     0.049 A 
ATOM     30  C   UNL     1       6.390   1.657 -10.274  1.00  0.00     0.074 A 
ATOM     31  C   UNL     1       8.575   7.386  -8.464  1.00  0.00     0.029 A 
ATOM     32  N   UNL     1       7.578   5.396  -8.515  1.00  0.00    -0.354 N 
ATOM     33  N   UNL     1       6.769   2.825  -9.811  1.00  0.00    -0.248 NA
ATOM     34  C   UNL     1       6.601   1.475 -11.713  1.00  0.00     0.031 C 
ATOM     35  C   UNL     1       8.666   6.869  -9.763  1.00  0.00     0.029 A 
ATOM     36  C   UNL     1       8.054   5.623  -9.793  1.00  0.00     0.049 A 
ATOM     37  H   UNL     1       7.101   4.585  -8.227  1.00  0.00     0.167 HD
ATOM     38  C   UNL     1       7.321   3.499 -10.885  1.00  0.00     0.074 A 
ATOM     39  C   UNL     1       7.195   2.618 -12.033  1.00  0.00     0.031 C 
ATOM     40  C   UNL     1       7.910   4.720 -10.910  1.00  0.00     0.037 A 
BRANCH  27  41
ATOM     41  C   UNL     1       7.808   7.793  -5.513  1.00  0.00     0.057 A 
ATOM     42  C   UNL     1       8.754   7.759  -4.478  1.00  0.00     0.134 A 
ATOM     43  C   UNL     1       7.104   8.986  -5.707  1.00  0.00     0.134 A 
ATOM     44  F   UNL     1       9.436   6.633  -4.216  1.00  0.00    -0.206 F 
ATOM     45  C   UNL     1       8.959   8.858  -3.642  1.00  0.00     0.040 A 
ATOM     46  C   UNL     1       7.315  10.098  -4.890  1.00  0.00     0.040 A 
ATOM     47  F   UNL     1       6.174   9.079  -6.670  1.00  0.00    -0.206 F 
ATOM     48  C   UNL     1       8.236  10.032  -3.846  1.00  0.00     0.006 A 
ENDBRANCH  27  41
BRANCH  28  49
ATOM     49  C   UNL     1       5.318  -0.730 -10.173  1.00  0.00     0.057 A 
ATOM     50  C   UNL     1       6.184  -1.704 -10.673  1.00  0.00     0.134 A 
ATOM     51  C   UNL     1       3.940  -0.992 -10.243  1.00  0.00     0.134 A 
ATOM     52  F   UNL     1       7.510  -1.510 -10.638  1.00  0.00    -0.206 F 
ATOM     53  C   UNL     1       5.701  -2.894 -11.223  1.00  0.00     0.040 A 
ATOM     54  C   UNL     1       3.445  -2.182 -10.778  1.00  0.00     0.040 A 
ATOM     55  F   UNL     1       3.056  -0.104  -9.765  1.00  0.00    -0.206 F 
ATOM     56  C   UNL     1       4.329  -3.139 -11.271  1.00  0.00     0.006 A 
ENDBRANCH  28  49
BRANCH  40  57
ATOM     57  C   UNL     1       8.505   5.145 -12.213  1.00  0.00     0.057 A 
ATOM     58  C   UNL     1       7.715   5.616 -13.265  1.00  0.00     0.134 A 
ATOM     59  C   UNL     1       9.894   5.124 -12.392  1.00  0.00     0.134 A 
ATOM     60  F   UNL     1       6.378   5.639 -13.154  1.00  0.00    -0.206 F 
ATOM     61  C   UNL     1       8.287   6.045 -14.462  1.00  0.00     0.040 A 
ATOM     62  C   UNL     1      10.479   5.570 -13.575  1.00  0.00     0.040 A 
ATOM     63  F   UNL     1      10.700   4.684 -11.414  1.00  0.00    -0.206 F 
ATOM     64  C   UNL     1       9.673   6.031 -14.615  1.00  0.00     0.006 A 
ENDBRANCH  40  57
ENDBRANCH  14  15
ENDBRANCH   7   9
ENDBRANCH   6   7
ENDBRANCH   5   6
ENDBRANCH   4   5
ENDBRANCH   3   4
ENDBRANCH   2   3
ENDBRANCH   1   2
BRANCH   1  65
ATOM     65  O   UNL     1       3.612  -3.927   0.599  1.00  0.00    -0.376 OA
BRANCH  65  66
ATOM     66  C   UNL     1       4.943  -3.696   0.165  1.00  0.00     0.202 C 
BRANCH  66  67
ATOM     67  C   UNL     1       5.259  -3.010  -1.179  1.00  0.00     0.261 C 
BRANCH  67  68
ATOM     68  O   UNL     1       4.413  -3.293  -2.305  1.00  0.00    -0.459 OA
BRANCH  68  69
ATOM     69  C   UNL     1       3.549  -2.285  -2.608  1.00  0.00     0.349 C 
ATOM     70  O   UNL     1       3.267  -1.393  -1.819  1.00  0.00    -0.245 OA
BRANCH  69  71
ATOM     71  C   UNL     1       3.066  -2.311  -3.975  1.00  0.00     0.133 A 
ATOM     72  S   UNL     1       1.991  -0.998  -4.391  1.00  0.00    -0.136 S 
ATOM     73  C   UNL     1       3.290  -3.116  -5.080  1.00  0.00     0.113 A 
ATOM     74  C   UNL     1       1.943  -1.436  -6.031  1.00  0.00     0.067 A 
ATOM     75  C   UNL     1       2.649  -2.590  -6.264  1.00  0.00     0.035 A 
BRANCH  73  76
ATOM     76  S   UNL     1       4.352  -4.475  -5.187  1.00  0.00     0.263 S 
ATOM     77  O   UNL     1       4.181  -4.928  -6.558  1.00  0.00    -0.201 OA
ATOM     78  O   UNL     1       5.636  -3.922  -4.802  1.00  0.00    -0.201 OA
BRANCH  76  79
ATOM     79  N   UNL     1       4.118  -5.845  -4.258  1.00  0.00    -0.277 N 
ATOM     80  H   UNL     1       4.562  -6.673  -4.553  1.00  0.00     0.180 HD
BRANCH  79  81
ATOM     81  C   UNL     1       3.324  -5.912  -3.067  1.00  0.00     0.072 A 
ATOM     82  C   UNL     1       3.946  -6.516  -1.959  1.00  0.00     0.029 A 
ATOM     83  C   UNL     1       1.957  -5.548  -3.006  1.00  0.00     0.061 A 
ATOM     84  C   UNL     1       3.255  -6.709  -0.766  1.00  0.00     0.002 A 
ATOM     85  C   UNL     1       1.304  -5.715  -1.771  1.00  0.00     0.028 A 
ATOM     86  C   UNL     1       1.937  -6.292  -0.668  1.00  0.00     0.002 A 
BRANCH  83  87
ATOM     87  N   UNL     1       1.245  -5.094  -4.113  1.00  0.00    -0.370 N 
ATOM     88  C   UNL     1       0.226  -4.045  -3.980  1.00  0.00     0.116 C 
ATOM     89  C   UNL     1       1.109  -6.000  -5.259  1.00  0.00     0.116 C 
ATOM     90  C   UNL     1      -1.189  -4.596  -4.048  1.00  0.00     0.021 C 
ATOM     91  C   UNL     1      -0.305  -6.581  -5.294  1.00  0.00     0.021 C 
ATOM     92  C   UNL     1      -1.357  -5.474  -5.282  1.00  0.00     0.004 C 
ENDBRANCH  83  87
ENDBRANCH  79  81
ENDBRANCH  76  79
ENDBRANCH  73  76
ENDBRANCH  69  71
ENDBRANCH  68  69
ENDBRANCH  67  68
ENDBRANCH  66  67
ENDBRANCH  65  66
ENDBRANCH   1  65
TORSDOF 21
