REMARK SMILES CC1(C)CC[N@H+](CCOc2ccc(C(=O)OCCOCCOCCOC(=O)c3ccc(-c4c5nc(c(-c6c(F)cccc6F)c6ccc([nH]6)c(-c6c(F)cccc6F)c6nc(c(-c7c(F)cccc7F)c7ccc4[nH]7)C=C6)C=C5)cc3)cc2)C1
REMARK SMILES IDX 20 1 19 2 18 3 17 4 16 5 14 6 15 7 13 8 10 9 11 10 83 11
REMARK SMILES IDX 12 12 82 13 9 14 8 15 7 16 6 17 1 18 2 19 3 20 4 21 84 22
REMARK SMILES IDX 5 23 21 25 22 26 23 27 24 28 25 29 26 30 27 31 28 32 29 33
REMARK SMILES IDX 81 34 30 35 80 36 31 37 32 38 33 39 74 40 34 41 79 42 73 43
REMARK SMILES IDX 75 44 35 45 78 46 72 47 71 48 36 50 62 51 45 52 61 53 46 54
REMARK SMILES IDX 49 55 60 56 76 57 47 58 48 59 59 61 77 62 50 63 37 64 38 65
REMARK SMILES IDX 43 66 39 67 40 68 42 69 44 70 41 71 63 72 64 73 69 74 65 75
REMARK SMILES IDX 66 76 68 77 70 78 67 79 51 80 52 81 57 82 53 83 54 84 56 85
REMARK SMILES IDX 58 86 55 87
REMARK H PARENT 6 24 75 49 49 60
REMARK Flexibility Score: inf
ROOT
ATOM      1  C   UNL     1      -1.054  -6.118  -1.677  1.00  0.00     0.188 C 
ENDROOT
BRANCH   1   2
ATOM      2  O   UNL     1      -2.270  -6.038  -2.395  1.00  0.00    -0.376 OA
BRANCH   2   3
ATOM      3  C   UNL     1      -2.638  -4.828  -3.031  1.00  0.00     0.202 C 
BRANCH   3   4
ATOM      4  C   UNL     1      -2.595  -3.492  -2.272  1.00  0.00     0.261 C 
BRANCH   4   5
ATOM      5  O   UNL     1      -1.428  -3.268  -1.463  1.00  0.00    -0.460 OA
BRANCH   5   6
ATOM      6  C   UNL     1      -1.598  -3.332  -0.117  1.00  0.00     0.338 C 
ATOM      7  O   UNL     1      -2.665  -3.505   0.451  1.00  0.00    -0.246 OA
BRANCH   6   8
ATOM      8  C   UNL     1      -0.311  -3.124   0.632  1.00  0.00     0.060 A 
ATOM      9  C   UNL     1       1.752  -1.883   2.004  1.00  0.00     0.119 A 
ATOM     10  C   UNL     1       0.617  -2.291   2.705  1.00  0.00     0.047 A 
ATOM     11  C   UNL     1       2.002  -2.355   0.727  1.00  0.00     0.047 A 
ATOM     12  C   UNL     1      -0.414  -2.934   2.016  1.00  0.00     0.019 A 
ATOM     13  C   UNL     1       0.936  -2.903   0.014  1.00  0.00     0.019 A 
BRANCH   9  14
ATOM     14  O   UNL     1       2.544  -0.856   2.446  1.00  0.00    -0.488 OA
BRANCH  14  15
ATOM     15  C   UNL     1       1.833   0.413   2.401  1.00  0.00     0.290 C 
BRANCH  15  16
ATOM     16  C   UNL     1       2.265   1.349   1.231  1.00  0.00     0.304 C 
BRANCH  16  17
ATOM     17  N   UNL     1       1.425   1.609   0.034  1.00  0.00    -0.332 N 
ATOM     18  C   UNL     1      -1.537   1.463  -1.688  1.00  0.00     0.017 C 
ATOM     19  C   UNL     1      -0.951   1.115  -0.311  1.00  0.00     0.019 C 
ATOM     20  C   UNL     1      -2.099   0.817   0.662  1.00  0.00     0.017 C 
ATOM     21  C   UNL     1      -0.066  -0.097  -0.491  1.00  0.00     0.073 C 
ATOM     22  C   UNL     1       0.061   2.139   0.263  1.00  0.00     0.268 C 
ATOM     23  C   UNL     1       1.289   0.465  -0.855  1.00  0.00     0.263 C 
ATOM     24  H   UNL     1       1.976   2.351  -0.396  1.00  0.00     0.348 HD
ENDBRANCH  16  17
ENDBRANCH  15  16
ENDBRANCH  14  15
ENDBRANCH   9  14
ENDBRANCH   6   8
ENDBRANCH   5   6
ENDBRANCH   4   5
ENDBRANCH   3   4
ENDBRANCH   2   3
ENDBRANCH   1   2
BRANCH   1  25
ATOM     25  C   UNL     1       0.220  -5.450  -2.220  1.00  0.00     0.188 C 
BRANCH  25  26
ATOM     26  O   UNL     1       0.312  -4.997  -3.543  1.00  0.00    -0.376 OA
BRANCH  26  27
ATOM     27  C   UNL     1       0.367  -5.946  -4.587  1.00  0.00     0.202 C 
BRANCH  27  28
ATOM     28  C   UNL     1       0.902  -7.383  -4.406  1.00  0.00     0.261 C 
BRANCH  28  29
ATOM     29  O   UNL     1       0.774  -7.992  -3.109  1.00  0.00    -0.460 OA
BRANCH  29  30
ATOM     30  C   UNL     1       1.914  -8.091  -2.375  1.00  0.00     0.338 C 
ATOM     31  O   UNL     1       3.039  -7.754  -2.720  1.00  0.00    -0.246 OA
BRANCH  30  32
ATOM     32  C   UNL     1       1.576  -8.444  -0.975  1.00  0.00     0.060 A 
ATOM     33  C   UNL     1       1.877  -7.536   0.057  1.00  0.00     0.016 A 
ATOM     34  C   UNL     1       0.984  -9.669  -0.673  1.00  0.00     0.016 A 
ATOM     35  C   UNL     1       1.612  -7.862   1.391  1.00  0.00     0.010 A 
ATOM     36  C   UNL     1       0.749 -10.007   0.665  1.00  0.00     0.010 A 
ATOM     37  C   UNL     1       1.091  -9.122   1.707  1.00  0.00    -0.014 A 
BRANCH  37  38
ATOM     38  C   UNL     1       1.104  -9.610   3.112  1.00  0.00     0.031 A 
ATOM     39  C   UNL     1       2.230 -10.514   3.541  1.00  0.00     0.074 A 
ATOM     40  C   UNL     1       0.144  -9.278   3.994  1.00  0.00     0.049 A 
ATOM     41  N   UNL     1       2.404 -11.155   4.668  1.00  0.00    -0.248 NA
ATOM     42  C   UNL     1       3.303 -10.726   2.555  1.00  0.00     0.031 C 
ATOM     43  C   UNL     1      -0.974  -8.375   3.734  1.00  0.00     0.029 A 
ATOM     44  N   UNL     1      -0.048  -9.688   5.293  1.00  0.00    -0.354 N 
ATOM     45  C   UNL     1       3.595 -11.857   4.521  1.00  0.00     0.074 A 
ATOM     46  C   UNL     1       4.085 -11.587   3.187  1.00  0.00     0.031 C 
ATOM     47  C   UNL     1      -1.748  -8.315   4.832  1.00  0.00     0.029 A 
ATOM     48  C   UNL     1      -1.202  -9.204   5.858  1.00  0.00     0.049 A 
ATOM     49  H   UNL     1       0.583 -10.273   5.771  1.00  0.00     0.167 HD
ATOM     50  C   UNL     1       4.229 -12.650   5.418  1.00  0.00     0.037 A 
ATOM     51  C   UNL     1      -1.767  -9.471   7.054  1.00  0.00     0.037 A 
ATOM     52  C   UNL     1       3.743 -12.926   6.744  1.00  0.00     0.049 A 
ATOM     53  C   UNL     1      -1.088 -10.428   8.004  1.00  0.00     0.074 A 
ATOM     54  C   UNL     1       4.320 -13.709   7.728  1.00  0.00     0.029 A 
ATOM     55  N   UNL     1       2.557 -12.435   7.269  1.00  0.00    -0.354 N 
ATOM     56  N   UNL     1       0.045 -11.073   7.864  1.00  0.00    -0.248 NA
ATOM     57  C   UNL     1      -1.769 -10.691   9.281  1.00  0.00     0.031 C 
ATOM     58  C   UNL     1       3.456 -13.740   8.826  1.00  0.00     0.029 A 
ATOM     59  C   UNL     1       2.373 -12.920   8.553  1.00  0.00     0.049 A 
ATOM     60  H   UNL     1       1.938 -11.832   6.798  1.00  0.00     0.167 HD
ATOM     61  C   UNL     1       0.231 -11.782   9.047  1.00  0.00     0.074 A 
ATOM     62  C   UNL     1      -0.902 -11.482   9.896  1.00  0.00     0.031 C 
ATOM     63  C   UNL     1       1.251 -12.603   9.400  1.00  0.00     0.037 A 
BRANCH  50  64
ATOM     64  C   UNL     1       5.507 -13.305   4.978  1.00  0.00     0.057 A 
ATOM     65  C   UNL     1       6.684 -12.574   4.769  1.00  0.00     0.134 A 
ATOM     66  C   UNL     1       5.569 -14.692   4.790  1.00  0.00     0.134 A 
ATOM     67  F   UNL     1       6.691 -11.240   4.918  1.00  0.00    -0.206 F 
ATOM     68  C   UNL     1       7.867 -13.194   4.364  1.00  0.00     0.040 A 
ATOM     69  C   UNL     1       6.753 -15.328   4.415  1.00  0.00     0.040 A 
ATOM     70  F   UNL     1       4.481 -15.455   4.978  1.00  0.00    -0.206 F 
ATOM     71  C   UNL     1       7.905 -14.577   4.194  1.00  0.00     0.006 A 
ENDBRANCH  50  64
BRANCH  51  72
ATOM     72  C   UNL     1      -3.060  -8.840   7.430  1.00  0.00     0.057 A 
ATOM     73  C   UNL     1      -3.140  -7.918   8.480  1.00  0.00     0.134 A 
ATOM     74  C   UNL     1      -4.254  -9.177   6.779  1.00  0.00     0.134 A 
ATOM     75  F   UNL     1      -2.038  -7.576   9.164  1.00  0.00    -0.206 F 
ATOM     76  C   UNL     1      -4.359  -7.370   8.884  1.00  0.00     0.040 A 
ATOM     77  C   UNL     1      -5.476  -8.614   7.152  1.00  0.00     0.040 A 
ATOM     78  F   UNL     1      -4.250 -10.059   5.769  1.00  0.00    -0.206 F 
ATOM     79  C   UNL     1      -5.532  -7.714   8.214  1.00  0.00     0.006 A 
ENDBRANCH  51  72
BRANCH  63  80
ATOM     80  C   UNL     1       1.229 -13.190  10.784  1.00  0.00     0.057 A 
ATOM     81  C   UNL     1       0.311 -14.177  11.165  1.00  0.00     0.134 A 
ATOM     82  C   UNL     1       2.176 -12.791  11.738  1.00  0.00     0.134 A 
ATOM     83  F   UNL     1      -0.629 -14.600  10.306  1.00  0.00    -0.206 F 
ATOM     84  C   UNL     1       0.318 -14.725  12.450  1.00  0.00     0.040 A 
ATOM     85  C   UNL     1       2.214 -13.354  13.015  1.00  0.00     0.040 A 
ATOM     86  F   UNL     1       3.094 -11.859  11.438  1.00  0.00    -0.206 F 
ATOM     87  C   UNL     1       1.277 -14.318  13.377  1.00  0.00     0.006 A 
ENDBRANCH  63  80
ENDBRANCH  37  38
ENDBRANCH  30  32
ENDBRANCH  29  30
ENDBRANCH  28  29
ENDBRANCH  27  28
ENDBRANCH  26  27
ENDBRANCH  25  26
ENDBRANCH   1  25
TORSDOF 21
