REMARK SMILES CCCCOc1ccc(-c2nc(C)c(C(=O)OCCOCCOCCOC(=O)c3ccc(-c4c5nc(c(-c6c(F)cccc6F)c6ccc([nH]6)c(-c6c(F)cccc6F)c6nc(c(-c7c(F)cccc7F)c7ccc4[nH]7)C=C6)C=C5)cc3)s2)cc1OC
REMARK SMILES IDX 20 1 19 2 18 3 17 4 15 5 16 6 14 7 10 8 11 9 83 10 12 11
REMARK SMILES IDX 13 12 9 13 6 14 7 15 85 16 8 17 84 18 5 19 4 20 3 21 2 22
REMARK SMILES IDX 1 23 86 24 87 25 21 26 22 27 23 28 24 29 25 30 26 31 27 32
REMARK SMILES IDX 28 33 29 34 30 35 82 36 31 37 81 38 32 39 33 40 34 41 75 42
REMARK SMILES IDX 35 43 80 44 74 45 76 46 36 47 79 48 73 49 72 50 37 52 63 53
REMARK SMILES IDX 46 54 62 55 47 56 50 57 61 58 77 59 48 60 49 61 60 63 78 64
REMARK SMILES IDX 51 65 38 66 39 67 44 68 40 69 41 70 43 71 45 72 42 73 64 74
REMARK SMILES IDX 65 75 70 76 66 77 67 78 69 79 71 80 68 81 52 82 53 83 58 84
REMARK SMILES IDX 54 85 55 86 57 87 59 88 56 89
REMARK H PARENT 76 51 50 62
REMARK Flexibility Score: inf
ROOT
ATOM      1  O   UNL     1      -6.653  -0.538   7.537  1.00  0.00    -0.376 OA
ENDROOT
BRANCH   1   2
ATOM      2  C   UNL     1      -7.661  -1.529   7.385  1.00  0.00     0.202 C 
BRANCH   2   3
ATOM      3  C   UNL     1      -8.337  -1.645   6.016  1.00  0.00     0.261 C 
BRANCH   3   4
ATOM      4  O   UNL     1      -7.409  -1.877   4.942  1.00  0.00    -0.459 OA
BRANCH   4   5
ATOM      5  C   UNL     1      -7.439  -0.962   3.927  1.00  0.00     0.350 C 
ATOM      6  O   UNL     1      -8.258  -0.062   3.840  1.00  0.00    -0.245 OA
BRANCH   5   7
ATOM      7  C   UNL     1      -6.301  -1.140   3.047  1.00  0.00     0.135 A 
ATOM      8  C   UNL     1      -4.426  -0.664   1.564  1.00  0.00     0.124 A 
ATOM      9  N   UNL     1      -4.507  -1.959   1.786  1.00  0.00    -0.240 NA
ATOM     10  S   UNL     1      -5.650   0.273   2.311  1.00  0.00    -0.106 S 
ATOM     11  C   UNL     1      -5.561  -2.246   2.653  1.00  0.00     0.064 A 
ATOM     12  C   UNL     1      -5.765  -3.679   3.004  1.00  0.00     0.068 C 
BRANCH   8  13
ATOM     13  C   UNL     1      -3.429  -0.006   0.715  1.00  0.00     0.014 A 
ATOM     14  C   UNL     1      -1.535   1.278  -0.929  1.00  0.00     0.161 A 
ATOM     15  C   UNL     1      -2.297   0.212  -1.423  1.00  0.00     0.051 A 
ATOM     16  C   UNL     1      -1.756   1.742   0.373  1.00  0.00     0.161 A 
ATOM     17  C   UNL     1      -3.227  -0.435  -0.601  1.00  0.00     0.015 A 
ATOM     18  C   UNL     1      -2.673   1.075   1.194  1.00  0.00     0.061 A 
BRANCH  14  19
ATOM     19  O   UNL     1      -0.618   1.900  -1.731  1.00  0.00    -0.490 OA
BRANCH  19  20
ATOM     20  C   UNL     1       0.423   1.049  -2.227  1.00  0.00     0.230 C 
BRANCH  20  21
ATOM     21  C   UNL     1       1.738   1.309  -1.485  1.00  0.00     0.041 C 
BRANCH  21  22
ATOM     22  C   UNL     1       1.789   0.780  -0.048  1.00  0.00     0.000 C 
ATOM     23  C   UNL     1       1.723  -0.736   0.046  1.00  0.00     0.004 C 
ENDBRANCH  21  22
ENDBRANCH  20  21
ENDBRANCH  19  20
ENDBRANCH  14  19
BRANCH  16  24
ATOM     24  O   UNL     1      -1.106   2.771   1.003  1.00  0.00    -0.493 OA
ATOM     25  C   UNL     1      -0.761   3.889   0.193  1.00  0.00     0.278 C 
ENDBRANCH  16  24
ENDBRANCH   8  13
ENDBRANCH   5   7
ENDBRANCH   4   5
ENDBRANCH   3   4
ENDBRANCH   2   3
ENDBRANCH   1   2
BRANCH   1  26
ATOM     26  C   UNL     1      -5.475  -0.600   6.741  1.00  0.00     0.188 C 
BRANCH  26  27
ATOM     27  C   UNL     1      -4.783  -1.952   6.476  1.00  0.00     0.188 C 
BRANCH  27  28
ATOM     28  O   UNL     1      -5.259  -3.026   7.269  1.00  0.00    -0.376 OA
BRANCH  28  29
ATOM     29  C   UNL     1      -4.326  -3.578   8.189  1.00  0.00     0.202 C 
BRANCH  29  30
ATOM     30  C   UNL     1      -4.074  -2.708   9.426  1.00  0.00     0.261 C 
BRANCH  30  31
ATOM     31  O   UNL     1      -3.570  -1.391   9.148  1.00  0.00    -0.460 OA
BRANCH  31  32
ATOM     32  C   UNL     1      -2.312  -1.308   8.661  1.00  0.00     0.338 C 
ATOM     33  O   UNL     1      -1.553  -2.228   8.417  1.00  0.00    -0.246 OA
BRANCH  32  34
ATOM     34  C   UNL     1      -2.058   0.105   8.316  1.00  0.00     0.060 A 
ATOM     35  C   UNL     1      -1.732   0.438   6.996  1.00  0.00     0.016 A 
ATOM     36  C   UNL     1      -2.142   1.096   9.298  1.00  0.00     0.016 A 
ATOM     37  C   UNL     1      -1.468   1.768   6.659  1.00  0.00     0.010 A 
ATOM     38  C   UNL     1      -1.861   2.423   8.962  1.00  0.00     0.010 A 
ATOM     39  C   UNL     1      -1.498   2.762   7.647  1.00  0.00    -0.014 A 
BRANCH  39  40
ATOM     40  C   UNL     1      -0.990   4.125   7.355  1.00  0.00     0.031 A 
ATOM     41  C   UNL     1       0.440   4.446   7.692  1.00  0.00     0.074 A 
ATOM     42  C   UNL     1      -1.779   5.066   6.809  1.00  0.00     0.049 A 
ATOM     43  N   UNL     1       1.088   5.577   7.580  1.00  0.00    -0.248 NA
ATOM     44  C   UNL     1       1.246   3.339   8.233  1.00  0.00     0.031 C 
ATOM     45  C   UNL     1      -3.172   4.879   6.411  1.00  0.00     0.029 A 
ATOM     46  N   UNL     1      -1.515   6.380   6.509  1.00  0.00    -0.354 N 
ATOM     47  C   UNL     1       2.375   5.318   8.034  1.00  0.00     0.074 A 
ATOM     48  C   UNL     1       2.409   3.933   8.451  1.00  0.00     0.031 C 
ATOM     49  C   UNL     1      -3.646   6.041   5.928  1.00  0.00     0.029 A 
ATOM     50  C   UNL     1      -2.599   7.059   6.009  1.00  0.00     0.049 A 
ATOM     51  H   UNL     1      -0.632   6.796   6.639  1.00  0.00     0.167 HD
ATOM     52  C   UNL     1       3.438   6.155   8.090  1.00  0.00     0.037 A 
ATOM     53  C   UNL     1      -2.733   8.358   5.676  1.00  0.00     0.037 A 
ATOM     54  C   UNL     1       3.407   7.536   7.687  1.00  0.00     0.049 A 
ATOM     55  C   UNL     1      -1.558   9.290   5.820  1.00  0.00     0.074 A 
ATOM     56  C   UNL     1       4.438   8.460   7.695  1.00  0.00     0.029 A 
ATOM     57  N   UNL     1       2.283   8.193   7.212  1.00  0.00    -0.354 N 
ATOM     58  N   UNL     1      -0.337   9.030   6.220  1.00  0.00    -0.248 NA
ATOM     59  C   UNL     1      -1.782  10.700   5.465  1.00  0.00     0.031 C 
ATOM     60  C   UNL     1       3.925   9.689   7.265  1.00  0.00     0.029 A 
ATOM     61  C   UNL     1       2.588   9.517   6.946  1.00  0.00     0.049 A 
ATOM     62  H   UNL     1       1.399   7.779   7.082  1.00  0.00     0.167 HD
ATOM     63  C   UNL     1       0.357  10.231   6.138  1.00  0.00     0.074 A 
ATOM     64  C   UNL     1      -0.576  11.221   5.641  1.00  0.00     0.031 C 
ATOM     65  C   UNL     1       1.653  10.490   6.442  1.00  0.00     0.037 A 
BRANCH  52  66
ATOM     66  C   UNL     1       4.720   5.598   8.631  1.00  0.00     0.057 A 
ATOM     67  C   UNL     1       5.501   4.698   7.894  1.00  0.00     0.134 A 
ATOM     68  C   UNL     1       5.187   5.978   9.895  1.00  0.00     0.134 A 
ATOM     69  F   UNL     1       5.099   4.282   6.683  1.00  0.00    -0.206 F 
ATOM     70  C   UNL     1       6.690   4.177   8.406  1.00  0.00     0.040 A 
ATOM     71  C   UNL     1       6.386   5.482  10.407  1.00  0.00     0.040 A 
ATOM     72  F   UNL     1       4.487   6.838  10.650  1.00  0.00    -0.206 F 
ATOM     73  C   UNL     1       7.139   4.574   9.664  1.00  0.00     0.006 A 
ENDBRANCH  52  66
BRANCH  53  74
ATOM     74  C   UNL     1      -4.036   8.869   5.181  1.00  0.00     0.057 A 
ATOM     75  C   UNL     1      -4.200   9.267   3.849  1.00  0.00     0.134 A 
ATOM     76  C   UNL     1      -5.138   9.004   6.035  1.00  0.00     0.134 A 
ATOM     77  F   UNL     1      -3.173   9.190   2.991  1.00  0.00    -0.206 F 
ATOM     78  C   UNL     1      -5.408   9.793   3.387  1.00  0.00     0.040 A 
ATOM     79  C   UNL     1      -6.357   9.507   5.581  1.00  0.00     0.040 A 
ATOM     80  F   UNL     1      -5.042   8.647   7.325  1.00  0.00    -0.206 F 
ATOM     81  C   UNL     1      -6.493   9.910   4.254  1.00  0.00     0.006 A 
ENDBRANCH  53  74
BRANCH  65  82
ATOM     82  C   UNL     1       2.151  11.886   6.213  1.00  0.00     0.057 A 
ATOM     83  C   UNL     1       1.796  12.947   7.056  1.00  0.00     0.134 A 
ATOM     84  C   UNL     1       3.037  12.162   5.163  1.00  0.00     0.134 A 
ATOM     85  F   UNL     1       0.943  12.751   8.072  1.00  0.00    -0.206 F 
ATOM     86  C   UNL     1       2.290  14.237   6.851  1.00  0.00     0.040 A 
ATOM     87  C   UNL     1       3.556  13.442   4.963  1.00  0.00     0.040 A 
ATOM     88  F   UNL     1       3.425  11.189   4.325  1.00  0.00    -0.206 F 
ATOM     89  C   UNL     1       3.178  14.485   5.806  1.00  0.00     0.006 A 
ENDBRANCH  65  82
ENDBRANCH  39  40
ENDBRANCH  32  34
ENDBRANCH  31  32
ENDBRANCH  30  31
ENDBRANCH  29  30
ENDBRANCH  28  29
ENDBRANCH  27  28
ENDBRANCH  26  27
ENDBRANCH   1  26
TORSDOF 23
