REMARK SMILES Cn1cc(NC(=O)N2Cc3nc[nH]c3C[C@@H]2C(=O)OCCOCCOCCOC(=O)c2ccc(-c3c4nc(c(-c5c(F)cccc5F)c5ccc([nH]5)c(-c5c(F)cccc5F)c5nc(c(-c6c(F)cccc6F)c6ccc3[nH]6)C=C5)C=C4)cc2)cn1
REMARK SMILES IDX 23 1 22 2 21 3 20 4 19 5 17 6 18 7 16 8 8 9 9 10 10 11 15 12
REMARK SMILES IDX 11 13 14 14 12 15 13 16 6 18 5 19 7 21 4 22 1 23 2 24 3 25
REMARK SMILES IDX 86 26 85 27 24 28 25 29 26 30 27 31 28 32 29 33 30 34 31 35
REMARK SMILES IDX 32 36 84 37 33 38 83 39 34 40 35 41 36 42 77 43 37 44 82 45
REMARK SMILES IDX 76 46 78 47 38 48 81 49 75 50 74 51 39 53 65 54 48 55 64 56
REMARK SMILES IDX 49 57 52 58 63 59 79 60 50 61 51 62 62 64 80 65 53 66 40 67
REMARK SMILES IDX 41 68 46 69 42 70 43 71 45 72 47 73 44 74 66 75 67 76 72 77
REMARK SMILES IDX 68 78 69 79 71 80 73 81 70 82 54 83 55 84 60 85 56 86 57 87
REMARK SMILES IDX 59 88 61 89 58 90
REMARK H PARENT 13 17 5 20 78 52 52 63
REMARK Flexibility Score: inf
ROOT
ATOM      1  C   UNL     1       1.218  -0.171   3.126  1.00  0.00     0.188 C 
ENDROOT
BRANCH   1   2
ATOM      2  O   UNL     1       1.628  -0.663   4.398  1.00  0.00    -0.376 OA
BRANCH   2   3
ATOM      3  C   UNL     1       2.928  -1.265   4.409  1.00  0.00     0.202 C 
BRANCH   3   4
ATOM      4  C   UNL     1       4.099  -0.274   4.300  1.00  0.00     0.261 C 
BRANCH   4   5
ATOM      5  O   UNL     1       3.955   0.605   3.172  1.00  0.00    -0.462 OA
BRANCH   5   6
ATOM      6  C   UNL     1       4.568   0.285   1.998  1.00  0.00     0.329 C 
ATOM      7  O   UNL     1       5.385  -0.611   1.862  1.00  0.00    -0.250 OA
BRANCH   6   8
ATOM      8  C   UNL     1       4.013   1.210   0.898  1.00  0.00     0.203 C 
ATOM      9  N   UNL     1       4.238   0.677  -0.488  1.00  0.00    -0.304 N 
ATOM     10  C   UNL     1       5.165   1.353  -1.409  1.00  0.00     0.180 C 
ATOM     11  C   UNL     1       4.936   2.817  -1.273  1.00  0.00     0.081 A 
ATOM     12  C   UNL     1       4.514   2.656   1.194  1.00  0.00     0.093 C 
ATOM     13  N   UNL     1       4.886   3.742  -2.279  1.00  0.00    -0.240 NA
ATOM     14  C   UNL     1       4.629   3.402  -0.070  1.00  0.00     0.042 A 
ATOM     15  C   UNL     1       4.566   4.875  -1.684  1.00  0.00     0.197 A 
ATOM     16  N   UNL     1       4.406   4.719  -0.330  1.00  0.00    -0.348 N 
ATOM     17  H   UNL     1       4.177   5.419   0.322  1.00  0.00     0.167 HD
BRANCH   9  18
ATOM     18  C   UNL     1       3.732  -0.529  -0.900  1.00  0.00     0.323 C 
ATOM     19  N   UNL     1       2.439  -0.851  -0.603  1.00  0.00    -0.305 N 
ATOM     20  H   UNL     1       2.272  -1.760  -0.267  1.00  0.00     0.171 HD
ATOM     21  O   UNL     1       4.410  -1.339  -1.532  1.00  0.00    -0.248 OA
BRANCH  19  22
ATOM     22  C   UNL     1       1.339  -0.017  -0.731  1.00  0.00     0.081 A 
ATOM     23  C   UNL     1      -2.186   0.653  -1.083  1.00  0.00     0.173 C 
ATOM     24  N   UNL     1      -0.751   0.627  -0.929  1.00  0.00    -0.274 N 
ATOM     25  C   UNL     1       0.035  -0.455  -0.647  1.00  0.00     0.134 A 
ATOM     26  N   UNL     1      -0.051   1.758  -1.115  1.00  0.00    -0.180 NA
ATOM     27  C   UNL     1       1.222   1.354  -1.055  1.00  0.00     0.161 A 
ENDBRANCH  19  22
ENDBRANCH   9  18
ENDBRANCH   6   8
ENDBRANCH   5   6
ENDBRANCH   4   5
ENDBRANCH   3   4
ENDBRANCH   2   3
ENDBRANCH   1   2
BRANCH   1  28
ATOM     28  C   UNL     1       0.941   1.346   3.078  1.00  0.00     0.188 C 
BRANCH  28  29
ATOM     29  O   UNL     1       1.609   2.208   3.991  1.00  0.00    -0.376 OA
BRANCH  29  30
ATOM     30  C   UNL     1       1.422   2.008   5.394  1.00  0.00     0.202 C 
BRANCH  30  31
ATOM     31  C   UNL     1      -0.002   1.978   5.953  1.00  0.00     0.261 C 
BRANCH  31  32
ATOM     32  O   UNL     1      -0.758   0.856   5.475  1.00  0.00    -0.460 OA
BRANCH  32  33
ATOM     33  C   UNL     1      -1.792   1.204   4.681  1.00  0.00     0.338 C 
ATOM     34  O   UNL     1      -2.156   2.334   4.399  1.00  0.00    -0.246 OA
BRANCH  33  35
ATOM     35  C   UNL     1      -2.418   0.029   4.057  1.00  0.00     0.060 A 
ATOM     36  C   UNL     1      -2.929   0.225   2.768  1.00  0.00     0.016 A 
ATOM     37  C   UNL     1      -2.749  -1.097   4.810  1.00  0.00     0.016 A 
ATOM     38  C   UNL     1      -3.981  -0.557   2.337  1.00  0.00     0.010 A 
ATOM     39  C   UNL     1      -3.794  -1.898   4.364  1.00  0.00     0.010 A 
ATOM     40  C   UNL     1      -4.496  -1.517   3.208  1.00  0.00    -0.014 A 
BRANCH  40  41
ATOM     41  C   UNL     1      -5.913  -1.855   3.026  1.00  0.00     0.031 A 
ATOM     42  C   UNL     1      -6.331  -2.612   1.817  1.00  0.00     0.074 A 
ATOM     43  C   UNL     1      -6.822  -1.487   3.957  1.00  0.00     0.049 A 
ATOM     44  N   UNL     1      -7.323  -2.367   1.016  1.00  0.00    -0.248 NA
ATOM     45  C   UNL     1      -5.539  -3.795   1.453  1.00  0.00     0.031 C 
ATOM     46  C   UNL     1      -6.555  -0.903   5.278  1.00  0.00     0.029 A 
ATOM     47  N   UNL     1      -8.176  -1.679   3.973  1.00  0.00    -0.354 N 
ATOM     48  C   UNL     1      -7.396  -3.460   0.159  1.00  0.00     0.074 A 
ATOM     49  C   UNL     1      -6.233  -4.272   0.420  1.00  0.00     0.031 C 
ATOM     50  C   UNL     1      -7.650  -1.039   6.051  1.00  0.00     0.029 A 
ATOM     51  C   UNL     1      -8.720  -1.597   5.245  1.00  0.00     0.049 A 
ATOM     52  H   UNL     1      -8.709  -1.856   3.165  1.00  0.00     0.167 HD
ATOM     53  C   UNL     1      -8.491  -3.746  -0.595  1.00  0.00     0.037 A 
ATOM     54  C   UNL     1      -9.927  -2.044   5.655  1.00  0.00     0.037 A 
ATOM     55  C   UNL     1      -9.338  -2.618  -0.839  1.00  0.00     0.049 A 
ATOM     56  C   UNL     1     -10.805  -2.202   4.478  1.00  0.00     0.074 A 
ATOM     57  C   UNL     1      -9.187  -1.397  -1.467  1.00  0.00     0.029 A 
ATOM     58  N   UNL     1     -10.560  -2.560  -0.221  1.00  0.00    -0.354 N 
ATOM     59  N   UNL     1     -11.323  -1.219   3.797  1.00  0.00    -0.248 NA
ATOM     60  C   UNL     1     -10.871  -3.507   3.838  1.00  0.00     0.031 C 
ATOM     61  C   UNL     1     -10.115  -0.520  -0.837  1.00  0.00     0.029 A 
ATOM     62  C   UNL     1     -10.754  -1.257   0.159  1.00  0.00     0.049 A 
ATOM     63  H   UNL     1     -11.181  -3.311  -0.078  1.00  0.00     0.167 HD
ATOM     64  C   UNL     1     -11.416  -1.700   2.501  1.00  0.00     0.074 A 
ATOM     65  C   UNL     1     -11.264  -3.143   2.617  1.00  0.00     0.031 C 
ATOM     66  C   UNL     1     -11.317  -0.862   1.429  1.00  0.00     0.037 A 
BRANCH  53  67
ATOM     67  C   UNL     1      -8.911  -5.157  -0.890  1.00  0.00     0.057 A 
ATOM     68  C   UNL     1      -9.746  -5.450  -1.978  1.00  0.00     0.134 A 
ATOM     69  C   UNL     1      -8.704  -6.210   0.024  1.00  0.00     0.134 A 
ATOM     70  F   UNL     1     -10.064  -4.503  -2.874  1.00  0.00    -0.206 F 
ATOM     71  C   UNL     1     -10.330  -6.711  -2.148  1.00  0.00     0.040 A 
ATOM     72  C   UNL     1      -9.244  -7.485  -0.159  1.00  0.00     0.040 A 
ATOM     73  F   UNL     1      -8.037  -6.021   1.171  1.00  0.00    -0.206 F 
ATOM     74  C   UNL     1     -10.072  -7.736  -1.242  1.00  0.00     0.006 A 
ENDBRANCH  53  67
BRANCH  54  75
ATOM     75  C   UNL     1     -10.265  -2.580   6.990  1.00  0.00     0.057 A 
ATOM     76  C   UNL     1     -11.585  -2.622   7.450  1.00  0.00     0.134 A 
ATOM     77  C   UNL     1      -9.314  -3.269   7.768  1.00  0.00     0.134 A 
ATOM     78  F   UNL     1     -12.570  -2.048   6.745  1.00  0.00    -0.206 F 
ATOM     79  C   UNL     1     -11.938  -3.297   8.625  1.00  0.00     0.040 A 
ATOM     80  C   UNL     1      -9.649  -3.930   8.951  1.00  0.00     0.040 A 
ATOM     81  F   UNL     1      -8.040  -3.388   7.365  1.00  0.00    -0.206 F 
ATOM     82  C   UNL     1     -10.969  -3.952   9.381  1.00  0.00     0.006 A 
ENDBRANCH  54  75
BRANCH  66  83
ATOM     83  C   UNL     1     -11.458   0.610   1.684  1.00  0.00     0.057 A 
ATOM     84  C   UNL     1     -10.520   1.353   2.415  1.00  0.00     0.134 A 
ATOM     85  C   UNL     1     -12.490   1.319   1.061  1.00  0.00     0.134 A 
ATOM     86  F   UNL     1      -9.446   0.763   2.958  1.00  0.00    -0.206 F 
ATOM     87  C   UNL     1     -10.634   2.738   2.560  1.00  0.00     0.040 A 
ATOM     88  C   UNL     1     -12.598   2.708   1.175  1.00  0.00     0.040 A 
ATOM     89  F   UNL     1     -13.385   0.679   0.292  1.00  0.00    -0.206 F 
ATOM     90  C   UNL     1     -11.674   3.420   1.936  1.00  0.00     0.006 A 
ENDBRANCH  66  83
ENDBRANCH  40  41
ENDBRANCH  33  35
ENDBRANCH  32  33
ENDBRANCH  31  32
ENDBRANCH  30  31
ENDBRANCH  29  30
ENDBRANCH  28  29
ENDBRANCH   1  28
TORSDOF 19
