REMARK SMILES COc1ccc(-n2ncc([C@H]3CC(=O)Nc4n[nH]c(C(=O)OCCOCCOCCOC(=O)c5ccc(-c6c7nc(c(-c8c(F)cccc8F)c8ccc([nH]8)c(-c8c(F)cccc8F)c8nc(c(-c9c(F)cccc9F)c9ccc6[nH]9)C=C8)C=C7)cc5)c43)c2C)cc1
REMARK SMILES IDX 26 1 25 2 24 3 23 4 22 5 20 6 21 7 19 8 11 9 12 10 88 11
REMARK SMILES IDX 13 12 16 13 14 14 15 15 17 16 18 17 10 20 7 21 8 22 89 23
REMARK SMILES IDX 9 24 90 25 6 26 3 27 4 28 92 29 5 30 91 31 2 32 1 33 27 34
REMARK SMILES IDX 28 35 29 36 30 37 31 38 32 39 33 40 34 41 35 42 87 43 36 44
REMARK SMILES IDX 86 45 37 46 38 47 39 48 80 49 40 50 85 51 79 52 81 53 41 54
REMARK SMILES IDX 84 55 78 56 77 57 42 59 68 60 51 61 67 62 52 63 55 64 66 65
REMARK SMILES IDX 82 66 53 67 54 68 65 70 83 71 56 72 43 73 44 74 49 75 45 76
REMARK SMILES IDX 46 77 48 78 50 79 47 80 69 81 70 82 75 83 71 84 72 85 74 86
REMARK SMILES IDX 76 87 73 88 57 89 58 90 63 91 59 92 60 93 62 94 64 95 61 96
REMARK H PARENT 15 18 18 19 81 58 55 69
REMARK Flexibility Score: inf
ROOT
ATOM      1  C   UNL     1       5.703  -7.846  -6.398  1.00  0.00     0.188 C 
ENDROOT
BRANCH   1   2
ATOM      2  O   UNL     1       6.534  -7.962  -5.257  1.00  0.00    -0.376 OA
BRANCH   2   3
ATOM      3  C   UNL     1       6.407  -6.921  -4.291  1.00  0.00     0.202 C 
BRANCH   3   4
ATOM      4  C   UNL     1       5.040  -6.777  -3.596  1.00  0.00     0.261 C 
BRANCH   4   5
ATOM      5  O   UNL     1       3.910  -6.753  -4.487  1.00  0.00    -0.459 OA
BRANCH   5   6
ATOM      6  C   UNL     1       3.638  -5.583  -5.108  1.00  0.00     0.356 C 
ATOM      7  O   UNL     1       4.291  -4.560  -4.975  1.00  0.00    -0.244 OA
BRANCH   6   8
ATOM      8  C   UNL     1       2.580  -5.744  -6.077  1.00  0.00     0.149 A 
ATOM      9  C   UNL     1       0.873  -7.672  -5.390  1.00  0.00     0.068 C 
ATOM     10  C   UNL     1      -0.520  -8.128  -5.875  1.00  0.00     0.114 C 
ATOM     11  C   UNL     1       1.465  -6.571  -6.221  1.00  0.00     0.037 A 
ATOM     12  C   UNL     1      -1.179  -7.356  -7.010  1.00  0.00     0.226 C 
ATOM     13  C   UNL     1       0.798  -6.063  -7.345  1.00  0.00     0.159 A 
ATOM     14  O   UNL     1      -2.354  -7.569  -7.317  1.00  0.00    -0.275 OA
ATOM     15  N   UNL     1      -0.448  -6.455  -7.719  1.00  0.00    -0.309 N 
ATOM     16  N   UNL     1       1.466  -5.096  -7.958  1.00  0.00    -0.157 NA
ATOM     17  N   UNL     1       2.532  -4.910  -7.166  1.00  0.00    -0.269 N 
ATOM     18  H   UNL     1      -0.837  -6.071  -8.538  1.00  0.00     0.171 HD
ATOM     19  H   UNL     1       3.222  -4.232  -7.349  1.00  0.00     0.190 HD
BRANCH   9  20
ATOM     20  C   UNL     1       0.878  -7.278  -3.943  1.00  0.00     0.002 A 
ATOM     21  N   UNL     1       0.862  -6.084  -2.087  1.00  0.00    -0.238 N 
ATOM     22  N   UNL     1       1.717  -7.102  -1.834  1.00  0.00    -0.176 NA
ATOM     23  C   UNL     1       0.282  -6.178  -3.342  1.00  0.00     0.045 A 
ATOM     24  C   UNL     1       1.658  -7.863  -2.924  1.00  0.00     0.140 A 
ATOM     25  C   UNL     1      -0.616  -5.153  -3.946  1.00  0.00     0.067 C 
BRANCH  21  26
ATOM     26  C   UNL     1       0.845  -4.949  -1.255  1.00  0.00     0.065 A 
ATOM     27  C   UNL     1       0.769  -2.525   0.077  1.00  0.00     0.119 A 
ATOM     28  C   UNL     1      -0.394  -3.288  -0.041  1.00  0.00     0.048 A 
ATOM     29  C   UNL     1       1.987  -3.003  -0.413  1.00  0.00     0.048 A 
ATOM     30  C   UNL     1      -0.366  -4.498  -0.729  1.00  0.00     0.032 A 
ATOM     31  C   UNL     1       2.033  -4.231  -1.073  1.00  0.00     0.032 A 
BRANCH  27  32
ATOM     32  O   UNL     1       0.652  -1.328   0.728  1.00  0.00    -0.497 OA
ATOM     33  C   UNL     1       1.136  -0.238  -0.056  1.00  0.00     0.278 C 
ENDBRANCH  27  32
ENDBRANCH  21  26
ENDBRANCH   9  20
ENDBRANCH   6   8
ENDBRANCH   5   6
ENDBRANCH   4   5
ENDBRANCH   3   4
ENDBRANCH   2   3
ENDBRANCH   1   2
BRANCH   1  34
ATOM     34  C   UNL     1       4.511  -8.826  -6.437  1.00  0.00     0.188 C 
BRANCH  34  35
ATOM     35  O   UNL     1       4.162  -9.651  -5.329  1.00  0.00    -0.376 OA
BRANCH  35  36
ATOM     36  C   UNL     1       5.151 -10.258  -4.504  1.00  0.00     0.202 C 
BRANCH  36  37
ATOM     37  C   UNL     1       6.199 -11.188  -5.106  1.00  0.00     0.261 C 
BRANCH  37  38
ATOM     38  O   UNL     1       6.791 -10.685  -6.288  1.00  0.00    -0.460 OA
BRANCH  38  39
ATOM     39  C   UNL     1       6.196 -11.121  -7.416  1.00  0.00     0.338 C 
ATOM     40  O   UNL     1       5.186 -11.795  -7.512  1.00  0.00    -0.246 OA
BRANCH  39  41
ATOM     41  C   UNL     1       7.004 -10.704  -8.564  1.00  0.00     0.060 A 
ATOM     42  C   UNL     1       6.457 -10.952  -9.825  1.00  0.00     0.016 A 
ATOM     43  C   UNL     1       8.357 -10.393  -8.377  1.00  0.00     0.016 A 
ATOM     44  C   UNL     1       7.323 -11.166 -10.869  1.00  0.00     0.010 A 
ATOM     45  C   UNL     1       9.223 -10.625  -9.414  1.00  0.00     0.010 A 
ATOM     46  C   UNL     1       8.694 -11.114 -10.607  1.00  0.00    -0.014 A 
BRANCH  46  47
ATOM     47  C   UNL     1       9.579 -11.668 -11.603  1.00  0.00     0.031 A 
ATOM     48  C   UNL     1       9.894 -10.756 -12.715  1.00  0.00     0.074 A 
ATOM     49  C   UNL     1      10.130 -12.884 -11.440  1.00  0.00     0.049 A 
ATOM     50  N   UNL     1       9.605 -10.894 -13.964  1.00  0.00    -0.248 NA
ATOM     51  C   UNL     1      10.506  -9.465 -12.366  1.00  0.00     0.031 C 
ATOM     52  C   UNL     1      10.132 -13.720 -10.235  1.00  0.00     0.029 A 
ATOM     53  N   UNL     1      10.914 -13.581 -12.302  1.00  0.00    -0.354 N 
ATOM     54  C   UNL     1      10.177  -9.794 -14.593  1.00  0.00     0.074 A 
ATOM     55  C   UNL     1      10.555  -8.871 -13.556  1.00  0.00     0.031 C 
ATOM     56  C   UNL     1      11.061 -14.692 -10.376  1.00  0.00     0.029 A 
ATOM     57  C   UNL     1      11.623 -14.616 -11.714  1.00  0.00     0.049 A 
ATOM     58  H   UNL     1      10.974 -13.369 -13.262  1.00  0.00     0.167 HD
ATOM     59  C   UNL     1      10.539  -9.839 -15.900  1.00  0.00     0.037 A 
ATOM     60  C   UNL     1      12.660 -15.285 -12.272  1.00  0.00     0.037 A 
ATOM     61  C   UNL     1       9.866 -10.897 -16.607  1.00  0.00     0.049 A 
ATOM     62  C   UNL     1      12.625 -15.037 -13.736  1.00  0.00     0.074 A 
ATOM     63  C   UNL     1       8.543 -11.216 -16.846  1.00  0.00     0.029 A 
ATOM     64  N   UNL     1      10.583 -12.028 -16.910  1.00  0.00    -0.354 N 
ATOM     65  N   UNL     1      11.720 -15.512 -14.544  1.00  0.00    -0.248 NA
ATOM     66  C   UNL     1      13.379 -13.901 -14.250  1.00  0.00     0.031 C 
ATOM     67  C   UNL     1       8.493 -12.640 -16.832  1.00  0.00     0.029 A 
ATOM     68  C   UNL     1       9.790 -13.106 -16.614  1.00  0.00     0.049 A 
ATOM     69  H   UNL     1      11.498 -12.059 -17.273  1.00  0.00     0.167 HD
ATOM     70  C   UNL     1      11.501 -14.501 -15.470  1.00  0.00     0.074 A 
ATOM     71  C   UNL     1      12.624 -13.585 -15.305  1.00  0.00     0.031 C 
ATOM     72  C   UNL     1      10.288 -14.353 -16.080  1.00  0.00     0.037 A 
BRANCH  59  73
ATOM     73  C   UNL     1      11.774  -9.162 -16.427  1.00  0.00     0.057 A 
ATOM     74  C   UNL     1      11.970  -9.070 -17.814  1.00  0.00     0.134 A 
ATOM     75  C   UNL     1      12.902  -8.848 -15.637  1.00  0.00     0.134 A 
ATOM     76  F   UNL     1      10.982  -9.375 -18.668  1.00  0.00    -0.206 F 
ATOM     77  C   UNL     1      13.210  -8.741 -18.373  1.00  0.00     0.040 A 
ATOM     78  C   UNL     1      14.126  -8.462 -16.183  1.00  0.00     0.040 A 
ATOM     79  F   UNL     1      12.912  -8.997 -14.306  1.00  0.00    -0.206 F 
ATOM     80  C   UNL     1      14.293  -8.437 -17.557  1.00  0.00     0.006 A 
ENDBRANCH  59  73
BRANCH  60  81
ATOM     81  C   UNL     1      13.843 -15.863 -11.597  1.00  0.00     0.057 A 
ATOM     82  C   UNL     1      14.664 -16.793 -12.250  1.00  0.00     0.134 A 
ATOM     83  C   UNL     1      14.348 -15.329 -10.398  1.00  0.00     0.134 A 
ATOM     84  F   UNL     1      14.290 -17.325 -13.422  1.00  0.00    -0.206 F 
ATOM     85  C   UNL     1      15.921 -17.155 -11.750  1.00  0.00     0.040 A 
ATOM     86  C   UNL     1      15.595 -15.691  -9.881  1.00  0.00     0.040 A 
ATOM     87  F   UNL     1      13.688 -14.371  -9.731  1.00  0.00    -0.206 F 
ATOM     88  C   UNL     1      16.394 -16.597 -10.566  1.00  0.00     0.006 A 
ENDBRANCH  60  81
BRANCH  72  89
ATOM     89  C   UNL     1       9.298 -15.476 -15.947  1.00  0.00     0.057 A 
ATOM     90  C   UNL     1       8.734 -15.878 -14.727  1.00  0.00     0.134 A 
ATOM     91  C   UNL     1       8.790 -16.070 -17.107  1.00  0.00     0.134 A 
ATOM     92  F   UNL     1       9.081 -15.289 -13.575  1.00  0.00    -0.206 F 
ATOM     93  C   UNL     1       7.745 -16.863 -14.662  1.00  0.00     0.040 A 
ATOM     94  C   UNL     1       7.777 -17.031 -17.059  1.00  0.00     0.040 A 
ATOM     95  F   UNL     1       9.239 -15.691 -18.314  1.00  0.00    -0.206 F 
ATOM     96  C   UNL     1       7.259 -17.440 -15.832  1.00  0.00     0.006 A 
ENDBRANCH  72  89
ENDBRANCH  46  47
ENDBRANCH  39  41
ENDBRANCH  38  39
ENDBRANCH  37  38
ENDBRANCH  36  37
ENDBRANCH  35  36
ENDBRANCH  34  35
ENDBRANCH   1  34
TORSDOF 20
