REMARK SMILES O=C(CC[N@H+]1CCC[C@@H](C(=O)OCCOCCOCCOC(=O)c2ccc(-c3c4nc(c(-c5c(F)cccc5F)c5ccc([nH]5)c(-c5c(F)cccc5F)c5nc(c(-c6c(F)cccc6F)c6ccc3[nH]6)C=C5)C=C4)cc2)C1)Nc1cccc(F)c1
REMARK SMILES IDX 16 1 15 2 14 3 13 4 12 5 10 6 11 7 9 8 5 9 6 10 78 11 7 13
REMARK SMILES IDX 8 14 4 15 3 16 2 17 1 18 79 19 80 21 81 22 86 23 82 24 84 25
REMARK SMILES IDX 83 26 85 27 17 28 18 29 19 30 20 31 21 32 22 33 23 34 24 35
REMARK SMILES IDX 25 36 77 37 26 38 76 39 27 40 28 41 29 42 70 43 30 44 75 45
REMARK SMILES IDX 69 46 71 47 31 48 74 49 68 50 67 51 32 53 58 54 41 55 57 56
REMARK SMILES IDX 42 57 45 58 56 59 72 60 43 61 44 62 55 64 73 65 46 66 33 67
REMARK SMILES IDX 34 68 39 69 35 70 36 71 38 72 40 73 37 74 59 75 60 76 65 77
REMARK SMILES IDX 61 78 62 79 64 80 66 81 63 82 47 83 48 84 53 85 49 86 50 87
REMARK SMILES IDX 52 88 54 89 51 90
REMARK H PARENT 5 12 79 20 71 52 45 63
REMARK Flexibility Score: inf
ROOT
ATOM      1  C   UNL     1       6.323   2.787  -2.371  1.00  0.00     0.188 C 
ENDROOT
BRANCH   1   2
ATOM      2  O   UNL     1       6.465   2.885  -3.785  1.00  0.00    -0.376 OA
BRANCH   2   3
ATOM      3  C   UNL     1       5.447   2.365  -4.624  1.00  0.00     0.202 C 
BRANCH   3   4
ATOM      4  C   UNL     1       5.270   0.842  -4.642  1.00  0.00     0.261 C 
BRANCH   4   5
ATOM      5  O   UNL     1       5.290   0.197  -3.354  1.00  0.00    -0.463 OA
BRANCH   5   6
ATOM      6  C   UNL     1       6.389  -0.543  -3.051  1.00  0.00     0.314 C 
ATOM      7  O   UNL     1       7.356  -0.680  -3.791  1.00  0.00    -0.252 OA
BRANCH   6   8
ATOM      8  C   UNL     1       6.277  -1.291  -1.720  1.00  0.00     0.154 C 
ATOM      9  N   UNL     1       4.893  -1.516   0.423  1.00  0.00    -0.334 N 
ATOM     10  C   UNL     1       4.769  -2.955   0.215  1.00  0.00     0.262 C 
ATOM     11  C   UNL     1       5.311  -0.672  -0.697  1.00  0.00     0.277 C 
ATOM     12  H   UNL     1       5.782  -1.453   0.919  1.00  0.00     0.348 HD
ATOM     13  C   UNL     1       5.818  -3.532  -0.729  1.00  0.00     0.062 C 
ATOM     14  C   UNL     1       5.908  -2.739  -2.023  1.00  0.00     0.027 C 
BRANCH   9  15
ATOM     15  C   UNL     1       3.928  -0.957   1.391  1.00  0.00     0.272 C 
BRANCH  15  16
ATOM     16  C   UNL     1       2.994   0.206   1.006  1.00  0.00     0.161 C 
BRANCH  16  17
ATOM     17  C   UNL     1       1.855  -0.031   0.014  1.00  0.00     0.230 C 
ATOM     18  O   UNL     1       0.850   0.675   0.050  1.00  0.00    -0.275 OA
ATOM     19  N   UNL     1       2.120  -0.978  -0.944  1.00  0.00    -0.326 N 
ATOM     20  H   UNL     1       2.809  -1.639  -0.708  1.00  0.00     0.169 HD
BRANCH  19  21
ATOM     21  C   UNL     1       1.542  -1.131  -2.216  1.00  0.00     0.044 A 
ATOM     22  C   UNL     1       1.995  -2.214  -2.988  1.00  0.00     0.026 A 
ATOM     23  C   UNL     1       0.630  -0.238  -2.771  1.00  0.00     0.065 A 
ATOM     24  C   UNL     1       1.558  -2.395  -4.301  1.00  0.00     0.005 A 
ATOM     25  C   UNL     1       0.196  -0.430  -4.082  1.00  0.00     0.125 A 
ATOM     26  C   UNL     1       0.654  -1.495  -4.851  1.00  0.00     0.039 A 
ATOM     27  F   UNL     1      -0.668   0.439  -4.623  1.00  0.00    -0.207 F 
ENDBRANCH  19  21
ENDBRANCH  16  17
ENDBRANCH  15  16
ENDBRANCH   9  15
ENDBRANCH   6   8
ENDBRANCH   5   6
ENDBRANCH   4   5
ENDBRANCH   3   4
ENDBRANCH   2   3
ENDBRANCH   1   2
BRANCH   1  28
ATOM     28  C   UNL     1       4.926   2.669  -1.743  1.00  0.00     0.188 C 
BRANCH  28  29
ATOM     29  O   UNL     1       3.929   3.357  -2.472  1.00  0.00    -0.376 OA
BRANCH  29  30
ATOM     30  C   UNL     1       3.005   4.093  -1.688  1.00  0.00     0.202 C 
BRANCH  30  31
ATOM     31  C   UNL     1       3.561   5.491  -1.407  1.00  0.00     0.261 C 
BRANCH  31  32
ATOM     32  O   UNL     1       4.861   5.499  -0.780  1.00  0.00    -0.460 OA
BRANCH  32  33
ATOM     33  C   UNL     1       4.923   5.095   0.509  1.00  0.00     0.338 C 
ATOM     34  O   UNL     1       3.987   4.766   1.218  1.00  0.00    -0.246 OA
BRANCH  33  35
ATOM     35  C   UNL     1       6.348   4.884   0.860  1.00  0.00     0.060 A 
ATOM     36  C   UNL     1       6.744   3.635   1.360  1.00  0.00     0.016 A 
ATOM     37  C   UNL     1       7.292   5.897   0.683  1.00  0.00     0.016 A 
ATOM     38  C   UNL     1       8.082   3.400   1.695  1.00  0.00     0.010 A 
ATOM     39  C   UNL     1       8.625   5.669   1.043  1.00  0.00     0.010 A 
ATOM     40  C   UNL     1       9.026   4.427   1.570  1.00  0.00    -0.014 A 
BRANCH  40  41
ATOM     41  C   UNL     1      10.388   4.283   2.149  1.00  0.00     0.031 A 
ATOM     42  C   UNL     1      10.651   4.865   3.511  1.00  0.00     0.074 A 
ATOM     43  C   UNL     1      11.385   3.672   1.484  1.00  0.00     0.049 A 
ATOM     44  N   UNL     1      11.779   4.988   4.162  1.00  0.00    -0.248 NA
ATOM     45  C   UNL     1       9.478   5.383   4.232  1.00  0.00     0.031 C 
ATOM     46  C   UNL     1      11.263   3.015   0.185  1.00  0.00     0.029 A 
ATOM     47  N   UNL     1      12.713   3.528   1.812  1.00  0.00    -0.354 N 
ATOM     48  C   UNL     1      11.456   5.610   5.362  1.00  0.00     0.074 A 
ATOM     49  C   UNL     1      10.029   5.855   5.340  1.00  0.00     0.031 C 
ATOM     50  C   UNL     1      12.473   2.560  -0.187  1.00  0.00     0.029 A 
ATOM     51  C   UNL     1      13.462   2.931   0.826  1.00  0.00     0.049 A 
ATOM     52  H   UNL     1      13.091   3.824   2.671  1.00  0.00     0.167 HD
ATOM     53  C   UNL     1      12.270   5.947   6.390  1.00  0.00     0.037 A 
ATOM     54  C   UNL     1      14.794   2.742   0.735  1.00  0.00     0.037 A 
ATOM     55  C   UNL     1      13.690   5.712   6.414  1.00  0.00     0.049 A 
ATOM     56  C   UNL     1      15.696   3.213   1.850  1.00  0.00     0.074 A 
ATOM     57  C   UNL     1      14.595   6.010   7.419  1.00  0.00     0.029 A 
ATOM     58  N   UNL     1      14.414   5.134   5.383  1.00  0.00    -0.354 N 
ATOM     59  N   UNL     1      15.382   3.789   2.985  1.00  0.00    -0.248 NA
ATOM     60  C   UNL     1      17.142   3.009   1.666  1.00  0.00     0.031 C 
ATOM     61  C   UNL     1      15.874   5.663   6.973  1.00  0.00     0.029 A 
ATOM     62  C   UNL     1      15.758   5.094   5.715  1.00  0.00     0.049 A 
ATOM     63  H   UNL     1      14.029   4.802   4.540  1.00  0.00     0.167 HD
ATOM     64  C   UNL     1      16.582   3.989   3.659  1.00  0.00     0.074 A 
ATOM     65  C   UNL     1      17.630   3.460   2.813  1.00  0.00     0.031 C 
ATOM     66  C   UNL     1      16.796   4.558   4.871  1.00  0.00     0.037 A 
BRANCH  53  67
ATOM     67  C   UNL     1      11.646   6.644   7.562  1.00  0.00     0.057 A 
ATOM     68  C   UNL     1      10.801   5.978   8.459  1.00  0.00     0.134 A 
ATOM     69  C   UNL     1      11.917   7.996   7.812  1.00  0.00     0.134 A 
ATOM     70  F   UNL     1      10.488   4.687   8.268  1.00  0.00    -0.206 F 
ATOM     71  C   UNL     1      10.229   6.637   9.549  1.00  0.00     0.040 A 
ATOM     72  C   UNL     1      11.374   8.658   8.914  1.00  0.00     0.040 A 
ATOM     73  F   UNL     1      12.721   8.692   6.994  1.00  0.00    -0.206 F 
ATOM     74  C   UNL     1      10.522   7.980   9.782  1.00  0.00     0.006 A 
ENDBRANCH  53  67
BRANCH  54  75
ATOM     75  C   UNL     1      15.379   2.108  -0.475  1.00  0.00     0.057 A 
ATOM     76  C   UNL     1      15.994   0.852  -0.413  1.00  0.00     0.134 A 
ATOM     77  C   UNL     1      15.378   2.761  -1.714  1.00  0.00     0.134 A 
ATOM     78  F   UNL     1      16.058   0.189   0.752  1.00  0.00    -0.206 F 
ATOM     79  C   UNL     1      16.602   0.277  -1.531  1.00  0.00     0.040 A 
ATOM     80  C   UNL     1      15.956   2.186  -2.847  1.00  0.00     0.040 A 
ATOM     81  F   UNL     1      14.814   3.972  -1.841  1.00  0.00    -0.206 F 
ATOM     82  C   UNL     1      16.578   0.943  -2.755  1.00  0.00     0.006 A 
ENDBRANCH  54  75
BRANCH  66  83
ATOM     83  C   UNL     1      18.210   4.604   5.381  1.00  0.00     0.057 A 
ATOM     84  C   UNL     1      19.173   5.458   4.829  1.00  0.00     0.134 A 
ATOM     85  C   UNL     1      18.600   3.813   6.471  1.00  0.00     0.134 A 
ATOM     86  F   UNL     1      18.871   6.234   3.777  1.00  0.00    -0.206 F 
ATOM     87  C   UNL     1      20.477   5.507   5.327  1.00  0.00     0.040 A 
ATOM     88  C   UNL     1      19.892   3.875   6.996  1.00  0.00     0.040 A 
ATOM     89  F   UNL     1      17.725   2.981   7.056  1.00  0.00    -0.206 F 
ATOM     90  C   UNL     1      20.837   4.720   6.418  1.00  0.00     0.006 A 
ENDBRANCH  66  83
ENDBRANCH  40  41
ENDBRANCH  33  35
ENDBRANCH  32  33
ENDBRANCH  31  32
ENDBRANCH  30  31
ENDBRANCH  29  30
ENDBRANCH  28  29
ENDBRANCH   1  28
TORSDOF 21
