REMARK SMILES CC(C)(C)OC(=O)N1CCC(n2c(=S)[nH]c3cc(C(=O)OCCOCCOCCOC(=O)c4ccc(-c5c6nc(c(-c7c(F)cccc7F)c7ccc([nH]7)c(-c7c(F)cccc7F)c7nc(c(-c8c(F)cccc8F)c8ccc5[nH]8)C=C7)C=C6)cc4)ccc3c2=O)CC1
REMARK SMILES IDX 25 1 24 2 23 3 22 4 21 5 19 6 20 7 18 8 12 9 13 10 90 11
REMARK SMILES IDX 14 12 15 13 89 14 91 15 16 16 88 18 17 19 87 20 11 21 6 22
REMARK SMILES IDX 7 23 8 24 9 25 93 26 10 27 92 28 5 29 2 30 1 31 3 32 4 33
REMARK SMILES IDX 26 34 27 35 28 36 29 37 30 38 31 39 32 40 33 41 34 42 86 43
REMARK SMILES IDX 35 44 85 45 36 46 37 47 38 48 79 49 39 50 84 51 78 52 80 53
REMARK SMILES IDX 40 54 83 55 77 56 76 57 41 59 67 60 50 61 66 62 51 63 54 64
REMARK SMILES IDX 65 65 81 66 52 67 53 68 64 70 82 71 55 72 42 73 43 74 48 75
REMARK SMILES IDX 44 76 45 77 47 78 49 79 46 80 68 81 69 82 74 83 70 84 71 85
REMARK SMILES IDX 73 86 75 87 72 88 56 89 57 90 62 91 58 92 59 93 61 94 63 95
REMARK SMILES IDX 60 96
REMARK H PARENT 15 17 80 58 54 69
REMARK Flexibility Score: inf
ROOT
ATOM      1  C   UNL     1       4.570 -12.461  -7.867  1.00  0.00     0.188 C 
ENDROOT
BRANCH   1   2
ATOM      2  O   UNL     1       5.349 -13.610  -8.100  1.00  0.00    -0.376 OA
BRANCH   2   3
ATOM      3  C   UNL     1       6.724 -13.659  -7.763  1.00  0.00     0.202 C 
BRANCH   3   4
ATOM      4  C   UNL     1       7.632 -12.437  -7.550  1.00  0.00     0.261 C 
BRANCH   4   5
ATOM      5  O   UNL     1       7.019 -11.246  -7.058  1.00  0.00    -0.460 OA
BRANCH   5   6
ATOM      6  C   UNL     1       6.900 -10.243  -7.966  1.00  0.00     0.338 C 
ATOM      7  O   UNL     1       7.217 -10.267  -9.137  1.00  0.00    -0.246 OA
BRANCH   6   8
ATOM      8  C   UNL     1       6.133  -9.130  -7.365  1.00  0.00     0.062 A 
ATOM      9  N   UNL     1       3.079  -5.145  -6.705  1.00  0.00    -0.282 N 
ATOM     10  C   UNL     1       2.762  -5.685  -7.965  1.00  0.00     0.180 A 
ATOM     11  C   UNL     1       4.036  -5.752  -5.871  1.00  0.00     0.262 A 
ATOM     12  S   UNL     1       1.663  -5.100  -9.094  1.00  0.00    -0.040 S 
ATOM     13  N   UNL     1       3.430  -6.817  -8.355  1.00  0.00    -0.332 N 
ATOM     14  C   UNL     1       4.721  -6.962  -6.351  1.00  0.00     0.064 A 
ATOM     15  O   UNL     1       4.397  -5.348  -4.770  1.00  0.00    -0.269 OA
ATOM     16  C   UNL     1       4.420  -7.443  -7.611  1.00  0.00     0.054 A 
ATOM     17  H   UNL     1       3.190  -7.213  -9.224  1.00  0.00     0.169 HD
ATOM     18  C   UNL     1       5.694  -7.596  -5.564  1.00  0.00     0.017 A 
ATOM     19  C   UNL     1       5.123  -8.528  -8.133  1.00  0.00     0.042 A 
ATOM     20  C   UNL     1       6.400  -8.687  -6.068  1.00  0.00     0.016 A 
BRANCH   9  21
ATOM     21  C   UNL     1       2.364  -3.910  -6.213  1.00  0.00     0.097 C 
ATOM     22  C   UNL     1       0.446  -2.374  -3.014  1.00  0.00     0.410 C 
ATOM     23  O   UNL     1      -0.462  -3.138  -2.691  1.00  0.00    -0.224 OA
ATOM     24  N   UNL     1       0.914  -2.286  -4.313  1.00  0.00    -0.308 N 
ATOM     25  C   UNL     1       0.189  -2.968  -5.366  1.00  0.00     0.125 C 
ATOM     26  C   UNL     1       2.255  -1.845  -4.672  1.00  0.00     0.125 C 
ATOM     27  C   UNL     1       0.925  -4.244  -5.754  1.00  0.00     0.047 C 
ATOM     28  C   UNL     1       3.071  -3.067  -5.111  1.00  0.00     0.047 C 
BRANCH  22  29
ATOM     29  O   UNL     1       1.054  -1.507  -2.165  1.00  0.00    -0.444 OA
BRANCH  29  30
ATOM     30  C   UNL     1       0.599  -1.394  -0.786  1.00  0.00     0.106 C 
ATOM     31  C   UNL     1       1.261  -0.117  -0.244  1.00  0.00     0.056 C 
ATOM     32  C   UNL     1       1.091  -2.594   0.029  1.00  0.00     0.056 C 
ATOM     33  C   UNL     1      -0.923  -1.213  -0.664  1.00  0.00     0.056 C 
ENDBRANCH  29  30
ENDBRANCH  22  29
ENDBRANCH   9  21
ENDBRANCH   6   8
ENDBRANCH   5   6
ENDBRANCH   4   5
ENDBRANCH   3   4
ENDBRANCH   2   3
ENDBRANCH   1   2
BRANCH   1  34
ATOM     34  C   UNL     1       4.208 -12.053  -6.424  1.00  0.00     0.188 C 
BRANCH  34  35
ATOM     35  O   UNL     1       4.749 -12.747  -5.321  1.00  0.00    -0.376 OA
BRANCH  35  36
ATOM     36  C   UNL     1       4.516 -14.138  -5.174  1.00  0.00     0.202 C 
BRANCH  36  37
ATOM     37  C   UNL     1       3.175 -14.807  -5.520  1.00  0.00     0.261 C 
BRANCH  37  38
ATOM     38  O   UNL     1       2.553 -14.384  -6.739  1.00  0.00    -0.460 OA
BRANCH  38  39
ATOM     39  C   UNL     1       1.391 -13.700  -6.600  1.00  0.00     0.338 C 
ATOM     40  O   UNL     1       0.826 -13.396  -5.559  1.00  0.00    -0.246 OA
BRANCH  39  41
ATOM     41  C   UNL     1       0.986 -13.187  -7.920  1.00  0.00     0.060 A 
ATOM     42  C   UNL     1       0.682 -14.068  -8.958  1.00  0.00     0.016 A 
ATOM     43  C   UNL     1       0.924 -11.800  -8.121  1.00  0.00     0.016 A 
ATOM     44  C   UNL     1       0.305 -13.556 -10.201  1.00  0.00     0.010 A 
ATOM     45  C   UNL     1       0.567 -11.291  -9.370  1.00  0.00     0.010 A 
ATOM     46  C   UNL     1       0.238 -12.166 -10.415  1.00  0.00    -0.014 A 
BRANCH  46  47
ATOM     47  C   UNL     1      -0.326 -11.642 -11.681  1.00  0.00     0.031 A 
ATOM     48  C   UNL     1       0.545 -11.117 -12.782  1.00  0.00     0.074 A 
ATOM     49  C   UNL     1      -1.665 -11.643 -11.823  1.00  0.00     0.049 A 
ATOM     50  N   UNL     1       0.199 -10.696 -13.973  1.00  0.00    -0.248 NA
ATOM     51  C   UNL     1       1.987 -11.050 -12.512  1.00  0.00     0.031 C 
ATOM     52  C   UNL     1      -2.614 -12.101 -10.807  1.00  0.00     0.029 A 
ATOM     53  N   UNL     1      -2.456 -11.254 -12.872  1.00  0.00    -0.354 N 
ATOM     54  C   UNL     1       1.379 -10.336 -14.609  1.00  0.00     0.074 A 
ATOM     55  C   UNL     1       2.447 -10.540 -13.649  1.00  0.00     0.031 C 
ATOM     56  C   UNL     1      -3.860 -11.988 -11.292  1.00  0.00     0.029 A 
ATOM     57  C   UNL     1      -3.798 -11.425 -12.638  1.00  0.00     0.049 A 
ATOM     58  H   UNL     1      -2.097 -10.888 -13.713  1.00  0.00     0.167 HD
ATOM     59  C   UNL     1       1.553  -9.896 -15.880  1.00  0.00     0.037 A 
ATOM     60  C   UNL     1      -4.860 -11.157 -13.418  1.00  0.00     0.037 A 
ATOM     61  C   UNL     1       0.482  -9.670 -16.821  1.00  0.00     0.049 A 
ATOM     62  C   UNL     1      -4.639 -10.600 -14.796  1.00  0.00     0.074 A 
ATOM     63  C   UNL     1       0.564  -9.265 -18.143  1.00  0.00     0.029 A 
ATOM     64  N   UNL     1      -0.869  -9.804 -16.534  1.00  0.00    -0.354 N 
ATOM     65  N   UNL     1      -3.513 -10.353 -15.419  1.00  0.00    -0.248 NA
ATOM     66  C   UNL     1      -5.841 -10.286 -15.581  1.00  0.00     0.031 C 
ATOM     67  C   UNL     1      -0.735  -9.097 -18.636  1.00  0.00     0.029 A 
ATOM     68  C   UNL     1      -1.629  -9.451 -17.640  1.00  0.00     0.049 A 
ATOM     69  H   UNL     1      -1.235 -10.105 -15.671  1.00  0.00     0.167 HD
ATOM     70  C   UNL     1      -3.870  -9.877 -16.674  1.00  0.00     0.074 A 
ATOM     71  C   UNL     1      -5.317  -9.894 -16.732  1.00  0.00     0.031 C 
ATOM     72  C   UNL     1      -3.070  -9.460 -17.687  1.00  0.00     0.037 A 
BRANCH  59  73
ATOM     73  C   UNL     1       2.960  -9.623 -16.333  1.00  0.00     0.057 A 
ATOM     74  C   UNL     1       3.385  -8.318 -16.614  1.00  0.00     0.134 A 
ATOM     75  C   UNL     1       3.880 -10.658 -16.542  1.00  0.00     0.134 A 
ATOM     76  F   UNL     1       2.552  -7.279 -16.451  1.00  0.00    -0.206 F 
ATOM     77  C   UNL     1       4.673  -8.053 -17.083  1.00  0.00     0.040 A 
ATOM     78  C   UNL     1       5.180 -10.404 -16.985  1.00  0.00     0.040 A 
ATOM     79  F   UNL     1       3.539 -11.932 -16.293  1.00  0.00    -0.206 F 
ATOM     80  C   UNL     1       5.578  -9.098 -17.262  1.00  0.00     0.006 A 
ENDBRANCH  59  73
BRANCH  60  81
ATOM     81  C   UNL     1      -6.233 -11.417 -12.921  1.00  0.00     0.057 A 
ATOM     82  C   UNL     1      -6.788 -10.656 -11.885  1.00  0.00     0.134 A 
ATOM     83  C   UNL     1      -7.033 -12.413 -13.492  1.00  0.00     0.134 A 
ATOM     84  F   UNL     1      -6.070  -9.692 -11.292  1.00  0.00    -0.206 F 
ATOM     85  C   UNL     1      -8.090 -10.877 -11.434  1.00  0.00     0.040 A 
ATOM     86  C   UNL     1      -8.347 -12.624 -13.071  1.00  0.00     0.040 A 
ATOM     87  F   UNL     1      -6.562 -13.162 -14.499  1.00  0.00    -0.206 F 
ATOM     88  C   UNL     1      -8.877 -11.856 -12.036  1.00  0.00     0.006 A 
ENDBRANCH  60  81
BRANCH  72  89
ATOM     89  C   UNL     1      -3.748  -9.003 -18.948  1.00  0.00     0.057 A 
ATOM     90  C   UNL     1      -3.664  -9.761 -20.123  1.00  0.00     0.134 A 
ATOM     91  C   UNL     1      -4.474  -7.806 -19.005  1.00  0.00     0.134 A 
ATOM     92  F   UNL     1      -2.980 -10.915 -20.142  1.00  0.00    -0.206 F 
ATOM     93  C   UNL     1      -4.275  -9.345 -21.307  1.00  0.00     0.040 A 
ATOM     94  C   UNL     1      -5.116  -7.395 -20.175  1.00  0.00     0.040 A 
ATOM     95  F   UNL     1      -4.610  -7.041 -17.911  1.00  0.00    -0.206 F 
ATOM     96  C   UNL     1      -5.011  -8.163 -21.333  1.00  0.00     0.006 A 
ENDBRANCH  72  89
ENDBRANCH  46  47
ENDBRANCH  39  41
ENDBRANCH  38  39
ENDBRANCH  37  38
ENDBRANCH  36  37
ENDBRANCH  35  36
ENDBRANCH  34  35
ENDBRANCH   1  34
TORSDOF 20
