REMARK SMILES C[C@@H]1[C@H](C(=O)OCCOCCOCCOC(=O)c2ccc(-c3c4nc(c(-c5c(F)cccc5F)c5ccc([nH]5)c(-c5c(F)cccc5F)c5nc(c(-c6c(F)cccc6F)c6ccc3[nH]6)C=C5)C=C4)cc2)CCN1S(=O)(=O)c1cc(F)cc(F)c1
REMARK SMILES IDX 10 1 9 2 8 3 7 4 6 5 4 6 5 7 3 8 1 9 2 10 74 11 72 12 73 13
REMARK SMILES IDX 75 14 76 15 77 16 78 17 79 18 85 19 80 20 83 21 81 22 82 23
REMARK SMILES IDX 84 24 11 25 12 26 13 27 14 28 15 29 16 30 17 31 18 32 19 33
REMARK SMILES IDX 71 34 20 35 70 36 21 37 22 38 23 39 64 40 24 41 69 42 63 43
REMARK SMILES IDX 65 44 25 45 68 46 62 47 61 48 26 50 52 51 35 52 51 53 36 54
REMARK SMILES IDX 39 55 50 56 66 57 37 58 38 59 49 61 67 62 40 63 27 64 28 65
REMARK SMILES IDX 33 66 29 67 30 68 32 69 34 70 31 71 53 72 54 73 59 74 55 75
REMARK SMILES IDX 56 76 58 77 60 78 57 79 41 80 42 81 47 82 43 83 44 84 46 85
REMARK SMILES IDX 48 86 45 87
REMARK H PARENT 65 49 39 60
REMARK Flexibility Score: inf
ROOT
ATOM      1  C   UNL     1       2.060   3.919  -1.511  1.00  0.00     0.188 C 
ENDROOT
BRANCH   1   2
ATOM      2  O   UNL     1       2.688   4.929  -0.745  1.00  0.00    -0.376 OA
BRANCH   2   3
ATOM      3  C   UNL     1       2.564   4.841   0.677  1.00  0.00     0.202 C 
BRANCH   3   4
ATOM      4  C   UNL     1       1.212   4.395   1.244  1.00  0.00     0.261 C 
BRANCH   4   5
ATOM      5  O   UNL     1       1.004   2.996   0.963  1.00  0.00    -0.463 OA
BRANCH   5   6
ATOM      6  C   UNL     1      -0.283   2.586   0.888  1.00  0.00     0.310 C 
ATOM      7  O   UNL     1      -1.248   3.306   1.116  1.00  0.00    -0.252 OA
BRANCH   6   8
ATOM      8  C   UNL     1      -0.409   1.183   0.332  1.00  0.00     0.118 C 
ATOM      9  C   UNL     1       1.255   0.207   2.055  1.00  0.00     0.027 C 
ATOM     10  C   UNL     1       0.667   0.127   0.653  1.00  0.00     0.084 C 
ATOM     11  N   UNL     1      -0.034  -1.175   0.354  1.00  0.00    -0.194 NA
ATOM     12  C   UNL     1      -1.679   0.522   0.834  1.00  0.00     0.034 C 
ATOM     13  C   UNL     1      -1.511  -0.924   0.416  1.00  0.00     0.104 C 
BRANCH  11  14
ATOM     14  S   UNL     1       0.396  -2.694   0.979  1.00  0.00     0.243 S 
ATOM     15  O   UNL     1       0.515  -2.590   2.416  1.00  0.00    -0.207 OA
ATOM     16  O   UNL     1      -0.548  -3.631   0.396  1.00  0.00    -0.207 OA
BRANCH  14  17
ATOM     17  C   UNL     1       1.982  -3.186   0.352  1.00  0.00     0.088 A 
ATOM     18  C   UNL     1       2.210  -4.566   0.234  1.00  0.00     0.061 A 
ATOM     19  C   UNL     1       2.998  -2.292   0.022  1.00  0.00     0.061 A 
ATOM     20  C   UNL     1       3.450  -5.031  -0.189  1.00  0.00     0.127 A 
ATOM     21  C   UNL     1       4.231  -2.788  -0.399  1.00  0.00     0.127 A 
ATOM     22  F   UNL     1       3.665  -6.350  -0.274  1.00  0.00    -0.207 F 
ATOM     23  C   UNL     1       4.471  -4.151  -0.506  1.00  0.00     0.078 A 
ATOM     24  F   UNL     1       5.216  -1.927  -0.682  1.00  0.00    -0.207 F 
ENDBRANCH  14  17
ENDBRANCH  11  14
ENDBRANCH   6   8
ENDBRANCH   5   6
ENDBRANCH   4   5
ENDBRANCH   3   4
ENDBRANCH   2   3
ENDBRANCH   1   2
BRANCH   1  25
ATOM     25  C   UNL     1       2.676   2.519  -1.496  1.00  0.00     0.188 C 
BRANCH  25  26
ATOM     26  O   UNL     1       3.419   2.062  -0.390  1.00  0.00    -0.376 OA
BRANCH  26  27
ATOM     27  C   UNL     1       4.824   2.268  -0.273  1.00  0.00     0.202 C 
BRANCH  27  28
ATOM     28  C   UNL     1       5.816   2.618  -1.407  1.00  0.00     0.261 C 
BRANCH  28  29
ATOM     29  O   UNL     1       5.321   2.708  -2.738  1.00  0.00    -0.460 OA
BRANCH  29  30
ATOM     30  C   UNL     1       5.194   1.535  -3.406  1.00  0.00     0.338 C 
ATOM     31  O   UNL     1       5.523   0.429  -3.029  1.00  0.00    -0.246 OA
BRANCH  30  32
ATOM     32  C   UNL     1       4.319   1.808  -4.571  1.00  0.00     0.060 A 
ATOM     33  C   UNL     1       3.167   1.024  -4.724  1.00  0.00     0.016 A 
ATOM     34  C   UNL     1       4.562   2.888  -5.425  1.00  0.00     0.016 A 
ATOM     35  C   UNL     1       2.265   1.304  -5.750  1.00  0.00     0.010 A 
ATOM     36  C   UNL     1       3.671   3.153  -6.466  1.00  0.00     0.010 A 
ATOM     37  C   UNL     1       2.534   2.345  -6.648  1.00  0.00    -0.014 A 
BRANCH  37  38
ATOM     38  C   UNL     1       1.765   2.447  -7.909  1.00  0.00     0.031 A 
ATOM     39  C   UNL     1       2.326   1.760  -9.123  1.00  0.00     0.074 A 
ATOM     40  C   UNL     1       0.606   3.123  -7.985  1.00  0.00     0.049 A 
ATOM     41  N   UNL     1       1.894   1.764 -10.356  1.00  0.00    -0.248 NA
ATOM     42  C   UNL     1       3.544   0.959  -8.911  1.00  0.00     0.031 C 
ATOM     43  C   UNL     1      -0.066   3.789  -6.872  1.00  0.00     0.029 A 
ATOM     44  N   UNL     1      -0.207   3.365  -9.065  1.00  0.00    -0.354 N 
ATOM     45  C   UNL     1       2.786   0.971 -11.065  1.00  0.00     0.074 A 
ATOM     46  C   UNL     1       3.799   0.526 -10.135  1.00  0.00     0.031 C 
ATOM     47  C   UNL     1      -1.185   4.380  -7.332  1.00  0.00     0.029 A 
ATOM     48  C   UNL     1      -1.288   4.160  -8.774  1.00  0.00     0.049 A 
ATOM     49  H   UNL     1      -0.030   3.003  -9.963  1.00  0.00     0.167 HD
ATOM     50  C   UNL     1       2.760   0.634 -12.375  1.00  0.00     0.037 A 
ATOM     51  C   UNL     1      -2.234   4.668  -9.588  1.00  0.00     0.037 A 
ATOM     52  C   UNL     1       1.763   1.087 -13.305  1.00  0.00     0.049 A 
ATOM     53  C   UNL     1      -2.185   4.360 -11.064  1.00  0.00     0.074 A 
ATOM     54  C   UNL     1       1.655   0.810 -14.656  1.00  0.00     0.029 A 
ATOM     55  N   UNL     1       0.704   1.919 -12.979  1.00  0.00    -0.354 N 
ATOM     56  N   UNL     1      -1.345   3.601 -11.726  1.00  0.00    -0.248 NA
ATOM     57  C   UNL     1      -3.217   4.984 -11.907  1.00  0.00     0.031 C 
ATOM     58  C   UNL     1       0.552   1.509 -15.157  1.00  0.00     0.029 A 
ATOM     59  C   UNL     1      -0.053   2.182 -14.108  1.00  0.00     0.049 A 
ATOM     60  H   UNL     1       0.518   2.271 -12.079  1.00  0.00     0.167 HD
ATOM     61  C   UNL     1      -1.766   3.629 -13.051  1.00  0.00     0.074 A 
ATOM     62  C   UNL     1      -2.941   4.474 -13.099  1.00  0.00     0.031 C 
ATOM     63  C   UNL     1      -1.230   3.011 -14.132  1.00  0.00     0.037 A 
BRANCH  50  64
ATOM     64  C   UNL     1       3.862  -0.248 -12.876  1.00  0.00     0.057 A 
ATOM     65  C   UNL     1       3.924  -1.608 -12.546  1.00  0.00     0.134 A 
ATOM     66  C   UNL     1       4.865   0.264 -13.707  1.00  0.00     0.134 A 
ATOM     67  F   UNL     1       3.005  -2.153 -11.734  1.00  0.00    -0.206 F 
ATOM     68  C   UNL     1       4.956  -2.424 -13.011  1.00  0.00     0.040 A 
ATOM     69  C   UNL     1       5.888  -0.547 -14.199  1.00  0.00     0.040 A 
ATOM     70  F   UNL     1       4.864   1.559 -14.057  1.00  0.00    -0.206 F 
ATOM     71  C   UNL     1       5.938  -1.895 -13.846  1.00  0.00     0.006 A 
ENDBRANCH  50  64
BRANCH  51  72
ATOM     72  C   UNL     1      -3.304   5.544  -9.046  1.00  0.00     0.057 A 
ATOM     73  C   UNL     1      -4.641   5.128  -9.028  1.00  0.00     0.134 A 
ATOM     74  C   UNL     1      -3.026   6.837  -8.585  1.00  0.00     0.134 A 
ATOM     75  F   UNL     1      -4.974   3.912  -9.484  1.00  0.00    -0.206 F 
ATOM     76  C   UNL     1      -5.664   5.971  -8.592  1.00  0.00     0.040 A 
ATOM     77  C   UNL     1      -4.037   7.681  -8.123  1.00  0.00     0.040 A 
ATOM     78  F   UNL     1      -1.767   7.298  -8.580  1.00  0.00    -0.206 F 
ATOM     79  C   UNL     1      -5.362   7.252  -8.135  1.00  0.00     0.006 A 
ENDBRANCH  51  72
BRANCH  63  80
ATOM     80  C   UNL     1      -1.933   3.180 -15.447  1.00  0.00     0.057 A 
ATOM     81  C   UNL     1      -1.883   4.381 -16.166  1.00  0.00     0.134 A 
ATOM     82  C   UNL     1      -2.626   2.108 -16.025  1.00  0.00     0.134 A 
ATOM     83  F   UNL     1      -1.245   5.448 -15.662  1.00  0.00    -0.206 F 
ATOM     84  C   UNL     1      -2.513   4.515 -17.404  1.00  0.00     0.040 A 
ATOM     85  C   UNL     1      -3.238   2.222 -17.274  1.00  0.00     0.040 A 
ATOM     86  F   UNL     1      -2.703   0.927 -15.394  1.00  0.00    -0.206 F 
ATOM     87  C   UNL     1      -3.187   3.431 -17.965  1.00  0.00     0.006 A 
ENDBRANCH  63  80
ENDBRANCH  37  38
ENDBRANCH  30  32
ENDBRANCH  29  30
ENDBRANCH  28  29
ENDBRANCH  27  28
ENDBRANCH  26  27
ENDBRANCH  25  26
ENDBRANCH   1  25
TORSDOF 19
