REMARK SMILES C[C@@H]1C[N@@H+](Cc2cccc(C(=O)OCCOCCOCCOC(=O)c3ccc(-c4c5nc(c(-c6c(F)cccc6F)c6ccc([nH]6)c(-c6c(F)cccc6F)c6nc(c(-c7c(F)cccc7F)c7ccc4[nH]7)C=C6)C=C5)cc3)c2)CCN1C(=O)OC(C)(C)C
REMARK SMILES IDX 16 1 15 2 14 3 13 4 11 5 12 6 10 7 6 8 7 9 79 10 8 11 9 12
REMARK SMILES IDX 5 13 4 14 1 15 2 16 3 17 82 18 81 19 80 20 83 22 84 23 85 24
REMARK SMILES IDX 86 25 87 26 88 27 89 28 17 29 18 30 19 31 20 32 21 33 22 34
REMARK SMILES IDX 23 35 24 36 25 37 26 38 78 39 27 40 77 41 28 42 29 43 30 44
REMARK SMILES IDX 71 45 31 46 76 47 70 48 72 49 32 50 75 51 69 52 68 53 33 55
REMARK SMILES IDX 59 56 42 57 58 58 43 59 46 60 57 61 73 62 44 63 45 64 56 66
REMARK SMILES IDX 74 67 47 68 34 69 35 70 40 71 36 72 37 73 39 74 41 75 38 76
REMARK SMILES IDX 60 77 61 78 66 79 62 80 63 81 65 82 67 83 64 84 48 85 49 86
REMARK SMILES IDX 54 87 50 88 51 89 53 90 55 91 52 92
REMARK H PARENT 4 21 72 54 46 65
REMARK Flexibility Score: inf
ROOT
ATOM      1  O   UNL     1       2.376  -8.450  -5.667  1.00  0.00    -0.376 OA
ENDROOT
BRANCH   1   2
ATOM      2  C   UNL     1       3.270  -7.357  -5.806  1.00  0.00     0.202 C 
BRANCH   2   3
ATOM      3  C   UNL     1       2.880  -5.907  -5.483  1.00  0.00     0.261 C 
BRANCH   3   4
ATOM      4  O   UNL     1       2.078  -5.742  -4.313  1.00  0.00    -0.460 OA
BRANCH   4   5
ATOM      5  C   UNL     1       0.776  -5.427  -4.520  1.00  0.00     0.338 C 
ATOM      6  O   UNL     1       0.234  -5.216  -5.596  1.00  0.00    -0.246 OA
BRANCH   5   7
ATOM      7  C   UNL     1       0.033  -5.501  -3.238  1.00  0.00     0.060 A 
ATOM      8  C   UNL     1      -0.036  -4.991  -0.873  1.00  0.00     0.007 A 
ATOM      9  C   UNL     1      -1.403  -5.292  -0.860  1.00  0.00     0.009 A 
ATOM     10  C   UNL     1       0.688  -5.271  -2.031  1.00  0.00     0.025 A 
ATOM     11  C   UNL     1      -2.039  -5.727  -2.028  1.00  0.00     0.001 A 
ATOM     12  C   UNL     1      -1.335  -5.766  -3.233  1.00  0.00     0.016 A 
BRANCH   8  13
ATOM     13  C   UNL     1       0.634  -4.201   0.241  1.00  0.00     0.299 C 
BRANCH  13  14
ATOM     14  N   UNL     1       1.089  -2.832  -0.141  1.00  0.00    -0.328 N 
ATOM     15  C   UNL     1       0.682   0.343  -0.066  1.00  0.00     0.037 C 
ATOM     16  C   UNL     1       0.437  -0.613  -1.236  1.00  0.00     0.140 C 
ATOM     17  C   UNL     1       0.001  -2.028  -0.752  1.00  0.00     0.287 C 
ATOM     18  N   UNL     1       1.629  -0.742  -2.095  1.00  0.00    -0.294 N 
ATOM     19  C   UNL     1       2.752  -1.442  -1.470  1.00  0.00     0.185 C 
ATOM     20  C   UNL     1       2.293  -2.830  -1.007  1.00  0.00     0.284 C 
ATOM     21  H   UNL     1       1.357  -2.388   0.737  1.00  0.00     0.348 HD
BRANCH  18  22
ATOM     22  C   UNL     1       1.624  -0.584  -3.470  1.00  0.00     0.410 C 
ATOM     23  O   UNL     1       2.552  -0.957  -4.187  1.00  0.00    -0.224 OA
BRANCH  22  24
ATOM     24  O   UNL     1       0.512   0.041  -3.938  1.00  0.00    -0.444 OA
BRANCH  24  25
ATOM     25  C   UNL     1       0.417   0.410  -5.344  1.00  0.00     0.106 C 
ATOM     26  C   UNL     1       1.555   1.358  -5.750  1.00  0.00     0.056 C 
ATOM     27  C   UNL     1       0.349  -0.821  -6.257  1.00  0.00     0.056 C 
ATOM     28  C   UNL     1      -0.908   1.178  -5.472  1.00  0.00     0.056 C 
ENDBRANCH  24  25
ENDBRANCH  22  24
ENDBRANCH  18  22
ENDBRANCH  13  14
ENDBRANCH   8  13
ENDBRANCH   5   7
ENDBRANCH   4   5
ENDBRANCH   3   4
ENDBRANCH   2   3
ENDBRANCH   1   2
BRANCH   1  29
ATOM     29  C   UNL     1       1.452  -8.510  -4.598  1.00  0.00     0.188 C 
BRANCH  29  30
ATOM     30  C   UNL     1       1.936  -8.432  -3.135  1.00  0.00     0.188 C 
BRANCH  30  31
ATOM     31  O   UNL     1       3.295  -8.178  -2.889  1.00  0.00    -0.376 OA
BRANCH  31  32
ATOM     32  C   UNL     1       4.242  -9.218  -3.057  1.00  0.00     0.202 C 
BRANCH  32  33
ATOM     33  C   UNL     1       3.916 -10.711  -3.288  1.00  0.00     0.261 C 
BRANCH  33  34
ATOM     34  O   UNL     1       2.595 -11.072  -3.707  1.00  0.00    -0.460 OA
BRANCH  34  35
ATOM     35  C   UNL     1       1.798 -11.618  -2.752  1.00  0.00     0.338 C 
ATOM     36  O   UNL     1       2.076 -11.825  -1.586  1.00  0.00    -0.246 OA
BRANCH  35  37
ATOM     37  C   UNL     1       0.428 -11.753  -3.294  1.00  0.00     0.060 A 
ATOM     38  C   UNL     1      -0.597 -10.956  -2.763  1.00  0.00     0.016 A 
ATOM     39  C   UNL     1       0.154 -12.679  -4.299  1.00  0.00     0.016 A 
ATOM     40  C   UNL     1      -1.907 -11.097  -3.224  1.00  0.00     0.010 A 
ATOM     41  C   UNL     1      -1.162 -12.839  -4.741  1.00  0.00     0.010 A 
ATOM     42  C   UNL     1      -2.204 -12.070  -4.186  1.00  0.00    -0.014 A 
BRANCH  42  43
ATOM     43  C   UNL     1      -3.615 -12.421  -4.484  1.00  0.00     0.031 A 
ATOM     44  C   UNL     1      -4.208 -13.631  -3.816  1.00  0.00     0.074 A 
ATOM     45  C   UNL     1      -4.358 -11.690  -5.333  1.00  0.00     0.049 A 
ATOM     46  N   UNL     1      -5.384 -14.181  -3.978  1.00  0.00    -0.248 NA
ATOM     47  C   UNL     1      -3.351 -14.317  -2.836  1.00  0.00     0.031 C 
ATOM     48  C   UNL     1      -3.921 -10.470  -6.006  1.00  0.00     0.029 A 
ATOM     49  N   UNL     1      -5.641 -11.885  -5.781  1.00  0.00    -0.354 N 
ATOM     50  C   UNL     1      -5.400 -15.289  -3.139  1.00  0.00     0.074 A 
ATOM     51  C   UNL     1      -4.109 -15.345  -2.488  1.00  0.00     0.031 C 
ATOM     52  C   UNL     1      -4.919 -10.027  -6.792  1.00  0.00     0.029 A 
ATOM     53  C   UNL     1      -6.047 -10.954  -6.706  1.00  0.00     0.049 A 
ATOM     54  H   UNL     1      -6.215 -12.621  -5.470  1.00  0.00     0.167 HD
ATOM     55  C   UNL     1      -6.399 -16.179  -2.930  1.00  0.00     0.037 A 
ATOM     56  C   UNL     1      -7.189 -10.877  -7.418  1.00  0.00     0.037 A 
ATOM     57  C   UNL     1      -7.682 -16.121  -3.581  1.00  0.00     0.049 A 
ATOM     58  C   UNL     1      -8.254 -11.928  -7.232  1.00  0.00     0.074 A 
ATOM     59  C   UNL     1      -8.774 -16.954  -3.408  1.00  0.00     0.029 A 
ATOM     60  N   UNL     1      -8.040 -15.188  -4.542  1.00  0.00    -0.354 N 
ATOM     61  N   UNL     1      -8.277 -12.952  -6.413  1.00  0.00    -0.248 NA
ATOM     62  C   UNL     1      -9.453 -11.812  -8.076  1.00  0.00     0.031 C 
ATOM     63  C   UNL     1      -9.766 -16.568  -4.314  1.00  0.00     0.029 A 
ATOM     64  C   UNL     1      -9.321 -15.449  -5.001  1.00  0.00     0.049 A 
ATOM     65  H   UNL     1      -7.468 -14.450  -4.853  1.00  0.00     0.167 HD
ATOM     66  C   UNL     1      -9.504 -13.576  -6.613  1.00  0.00     0.074 A 
ATOM     67  C   UNL     1     -10.199 -12.812  -7.628  1.00  0.00     0.031 C 
ATOM     68  C   UNL     1     -10.010 -14.678  -6.006  1.00  0.00     0.037 A 
BRANCH  55  69
ATOM     69  C   UNL     1      -6.122 -17.320  -1.994  1.00  0.00     0.057 A 
ATOM     70  C   UNL     1      -5.962 -17.135  -0.614  1.00  0.00     0.134 A 
ATOM     71  C   UNL     1      -6.025 -18.630  -2.483  1.00  0.00     0.134 A 
ATOM     72  F   UNL     1      -6.029 -15.906  -0.080  1.00  0.00    -0.206 F 
ATOM     73  C   UNL     1      -5.681 -18.205   0.239  1.00  0.00     0.040 A 
ATOM     74  C   UNL     1      -5.777 -19.711  -1.637  1.00  0.00     0.040 A 
ATOM     75  F   UNL     1      -6.173 -18.881  -3.793  1.00  0.00    -0.206 F 
ATOM     76  C   UNL     1      -5.594 -19.498  -0.272  1.00  0.00     0.006 A 
ENDBRANCH  55  69
BRANCH  56  77
ATOM     77  C   UNL     1      -7.396  -9.761  -8.377  1.00  0.00     0.057 A 
ATOM     78  C   UNL     1      -8.366  -8.780  -8.141  1.00  0.00     0.134 A 
ATOM     79  C   UNL     1      -6.652  -9.659  -9.558  1.00  0.00     0.134 A 
ATOM     80  F   UNL     1      -9.131  -8.838  -7.041  1.00  0.00    -0.206 F 
ATOM     81  C   UNL     1      -8.599  -7.746  -9.050  1.00  0.00     0.040 A 
ATOM     82  C   UNL     1      -6.854  -8.616 -10.463  1.00  0.00     0.040 A 
ATOM     83  F   UNL     1      -5.710 -10.570  -9.847  1.00  0.00    -0.206 F 
ATOM     84  C   UNL     1      -7.836  -7.659 -10.212  1.00  0.00     0.006 A 
ENDBRANCH  56  77
BRANCH  68  85
ATOM     85  C   UNL     1     -11.404 -15.100  -6.379  1.00  0.00     0.057 A 
ATOM     86  C   UNL     1     -11.708 -15.653  -7.630  1.00  0.00     0.134 A 
ATOM     87  C   UNL     1     -12.450 -14.992  -5.453  1.00  0.00     0.134 A 
ATOM     88  F   UNL     1     -10.758 -15.776  -8.569  1.00  0.00    -0.206 F 
ATOM     89  C   UNL     1     -13.005 -16.060  -7.953  1.00  0.00     0.040 A 
ATOM     90  C   UNL     1     -13.743 -15.424  -5.753  1.00  0.00     0.040 A 
ATOM     91  F   UNL     1     -12.229 -14.482  -4.231  1.00  0.00    -0.206 F 
ATOM     92  C   UNL     1     -14.025 -15.953  -7.010  1.00  0.00     0.006 A 
ENDBRANCH  68  85
ENDBRANCH  42  43
ENDBRANCH  35  37
ENDBRANCH  34  35
ENDBRANCH  33  34
ENDBRANCH  32  33
ENDBRANCH  31  32
ENDBRANCH  30  31
ENDBRANCH  29  30
ENDBRANCH   1  29
TORSDOF 22
