REMARK SMILES CC(=O)Nc1cccc(-c2ccc(F)c(C(=O)OCCOCCOCCOC(=O)c3ccc(-c4c5nc(c(-c6c(F)cccc6F)c6ccc([nH]6)c(-c6c(F)cccc6F)c6nc(c(-c7c(F)cccc7F)c7ccc4[nH]7)C=C6)C=C5)cc3)c2)c1
REMARK SMILES IDX 22 1 21 2 20 3 19 4 18 5 16 6 17 7 15 8 10 9 11 10 84 11
REMARK SMILES IDX 12 12 13 13 14 14 9 15 5 16 6 17 85 18 7 19 8 20 4 21 1 22
REMARK SMILES IDX 2 23 3 24 23 26 24 27 25 28 26 29 27 30 28 31 29 32 30 33
REMARK SMILES IDX 31 34 83 35 32 36 82 37 33 38 34 39 35 40 76 41 36 42 81 43
REMARK SMILES IDX 75 44 77 45 37 46 80 47 74 48 73 49 38 51 64 52 47 53 63 54
REMARK SMILES IDX 48 55 51 56 62 57 78 58 49 59 50 60 61 62 79 63 52 64 39 65
REMARK SMILES IDX 40 66 45 67 41 68 42 69 44 70 46 71 43 72 65 73 66 74 71 75
REMARK SMILES IDX 67 76 68 77 70 78 72 79 69 80 53 81 54 82 59 83 55 84 56 85
REMARK SMILES IDX 58 86 60 87 57 88
REMARK H PARENT 4 25 77 50 51 61
REMARK Flexibility Score: inf
ROOT
ATOM      1  C   UNL     1       9.848  -0.973  -1.593  1.00  0.00     0.188 C 
ENDROOT
BRANCH   1   2
ATOM      2  O   UNL     1      10.396  -2.063  -0.871  1.00  0.00    -0.376 OA
BRANCH   2   3
ATOM      3  C   UNL     1       9.520  -3.023  -0.294  1.00  0.00     0.202 C 
BRANCH   3   4
ATOM      4  C   UNL     1       8.420  -2.534   0.649  1.00  0.00     0.261 C 
BRANCH   4   5
ATOM      5  O   UNL     1       7.493  -1.678  -0.036  1.00  0.00    -0.460 OA
BRANCH   5   6
ATOM      6  C   UNL     1       7.190  -0.516   0.593  1.00  0.00     0.341 C 
ATOM      7  O   UNL     1       7.501  -0.190   1.725  1.00  0.00    -0.246 OA
BRANCH   6   8
ATOM      8  C   UNL     1       6.508   0.368  -0.365  1.00  0.00     0.096 A 
ATOM      9  C   UNL     1       4.780   0.762  -2.046  1.00  0.00    -0.017 A 
ATOM     10  C   UNL     1       5.260   2.076  -2.185  1.00  0.00     0.012 A 
ATOM     11  C   UNL     1       5.438  -0.093  -1.139  1.00  0.00     0.027 A 
ATOM     12  C   UNL     1       6.346   2.528  -1.429  1.00  0.00     0.041 A 
ATOM     13  C   UNL     1       6.958   1.675  -0.516  1.00  0.00     0.137 A 
ATOM     14  F   UNL     1       8.017   2.125   0.171  1.00  0.00    -0.206 F 
BRANCH   9  15
ATOM     15  C   UNL     1       3.577   0.303  -2.763  1.00  0.00    -0.016 A 
ATOM     16  C   UNL     1       1.399  -0.819  -2.664  1.00  0.00     0.041 A 
ATOM     17  C   UNL     1       1.262  -0.661  -4.043  1.00  0.00     0.026 A 
ATOM     18  C   UNL     1       2.563  -0.361  -2.048  1.00  0.00     0.034 A 
ATOM     19  C   UNL     1       2.243   0.015  -4.774  1.00  0.00     0.003 A 
ATOM     20  C   UNL     1       3.389   0.500  -4.136  1.00  0.00     0.009 A 
BRANCH  16  21
ATOM     21  N   UNL     1       0.385  -1.492  -1.966  1.00  0.00    -0.326 N 
ATOM     22  C   UNL     1       0.520  -0.342   0.244  1.00  0.00     0.114 C 
ATOM     23  C   UNL     1       0.037  -1.460  -0.644  1.00  0.00     0.221 C 
ATOM     24  O   UNL     1      -0.732  -2.319  -0.206  1.00  0.00    -0.275 OA
ATOM     25  H   UNL     1      -0.169  -2.088  -2.521  1.00  0.00     0.169 HD
ENDBRANCH  16  21
ENDBRANCH   9  15
ENDBRANCH   6   8
ENDBRANCH   5   6
ENDBRANCH   4   5
ENDBRANCH   3   4
ENDBRANCH   2   3
ENDBRANCH   1   2
BRANCH   1  26
ATOM     26  C   UNL     1       8.863  -1.220  -2.755  1.00  0.00     0.188 C 
BRANCH  26  27
ATOM     27  O   UNL     1       8.613  -2.511  -3.268  1.00  0.00    -0.376 OA
BRANCH  27  28
ATOM     28  C   UNL     1       9.665  -3.341  -3.724  1.00  0.00     0.202 C 
BRANCH  28  29
ATOM     29  C   UNL     1      10.819  -2.813  -4.584  1.00  0.00     0.261 C 
BRANCH  29  30
ATOM     30  O   UNL     1      11.345  -1.541  -4.199  1.00  0.00    -0.460 OA
BRANCH  30  31
ATOM     31  C   UNL     1      11.112  -0.540  -5.082  1.00  0.00     0.338 C 
ATOM     32  O   UNL     1      10.502  -0.601  -6.136  1.00  0.00    -0.246 OA
BRANCH  31  33
ATOM     33  C   UNL     1      11.581   0.730  -4.505  1.00  0.00     0.060 A 
ATOM     34  C   UNL     1      10.650   1.763  -4.335  1.00  0.00     0.016 A 
ATOM     35  C   UNL     1      12.927   0.918  -4.189  1.00  0.00     0.016 A 
ATOM     36  C   UNL     1      11.074   3.008  -3.875  1.00  0.00     0.010 A 
ATOM     37  C   UNL     1      13.353   2.172  -3.747  1.00  0.00     0.010 A 
ATOM     38  C   UNL     1      12.433   3.229  -3.619  1.00  0.00    -0.014 A 
BRANCH  38  39
ATOM     39  C   UNL     1      12.921   4.607  -3.386  1.00  0.00     0.031 A 
ATOM     40  C   UNL     1      13.445   5.391  -4.556  1.00  0.00     0.074 A 
ATOM     41  C   UNL     1      12.892   5.155  -2.160  1.00  0.00     0.049 A 
ATOM     42  N   UNL     1      13.965   6.591  -4.586  1.00  0.00    -0.248 NA
ATOM     43  C   UNL     1      13.374   4.730  -5.870  1.00  0.00     0.031 C 
ATOM     44  C   UNL     1      12.374   4.511  -0.955  1.00  0.00     0.029 A 
ATOM     45  N   UNL     1      13.322   6.385  -1.730  1.00  0.00    -0.354 N 
ATOM     46  C   UNL     1      14.283   6.829  -5.916  1.00  0.00     0.074 A 
ATOM     47  C   UNL     1      13.923   5.641  -6.660  1.00  0.00     0.031 C 
ATOM     48  C   UNL     1      12.535   5.346   0.086  1.00  0.00     0.029 A 
ATOM     49  C   UNL     1      13.188   6.570  -0.376  1.00  0.00     0.049 A 
ATOM     50  H   UNL     1      13.692   7.069  -2.333  1.00  0.00     0.167 HD
ATOM     51  C   UNL     1      14.821   7.940  -6.471  1.00  0.00     0.037 A 
ATOM     52  C   UNL     1      13.573   7.602   0.400  1.00  0.00     0.037 A 
ATOM     53  C   UNL     1      15.189   9.118  -5.732  1.00  0.00     0.049 A 
ATOM     54  C   UNL     1      14.241   8.796  -0.230  1.00  0.00     0.074 A 
ATOM     55  C   UNL     1      15.729  10.300  -6.207  1.00  0.00     0.029 A 
ATOM     56  N   UNL     1      15.064   9.256  -4.359  1.00  0.00    -0.354 N 
ATOM     57  N   UNL     1      14.510   9.025  -1.492  1.00  0.00    -0.248 NA
ATOM     58  C   UNL     1      14.658   9.876   0.677  1.00  0.00     0.031 C 
ATOM     59  C   UNL     1      15.970  11.139  -5.114  1.00  0.00     0.029 A 
ATOM     60  C   UNL     1      15.539  10.496  -3.965  1.00  0.00     0.049 A 
ATOM     61  H   UNL     1      14.693   8.575  -3.753  1.00  0.00     0.167 HD
ATOM     62  C   UNL     1      15.100  10.283  -1.535  1.00  0.00     0.074 A 
ATOM     63  C   UNL     1      15.143  10.771  -0.173  1.00  0.00     0.031 C 
ATOM     64  C   UNL     1      15.564  10.972  -2.606  1.00  0.00     0.037 A 
BRANCH  51  65
ATOM     65  C   UNL     1      15.064   7.920  -7.949  1.00  0.00     0.057 A 
ATOM     66  C   UNL     1      14.012   8.014  -8.870  1.00  0.00     0.134 A 
ATOM     67  C   UNL     1      16.365   7.825  -8.457  1.00  0.00     0.134 A 
ATOM     68  F   UNL     1      12.742   8.089  -8.446  1.00  0.00    -0.206 F 
ATOM     69  C   UNL     1      14.246   7.996 -10.246  1.00  0.00     0.040 A 
ATOM     70  C   UNL     1      16.613   7.829  -9.830  1.00  0.00     0.040 A 
ATOM     71  F   UNL     1      17.415   7.732  -7.627  1.00  0.00    -0.206 F 
ATOM     72  C   UNL     1      15.551   7.910 -10.729  1.00  0.00     0.006 A 
ENDBRANCH  51  65
BRANCH  52  73
ATOM     73  C   UNL     1      13.353   7.552   1.866  1.00  0.00     0.057 A 
ATOM     74  C   UNL     1      12.416   8.386   2.487  1.00  0.00     0.134 A 
ATOM     75  C   UNL     1      14.097   6.694   2.684  1.00  0.00     0.134 A 
ATOM     76  F   UNL     1      11.693   9.248   1.758  1.00  0.00    -0.206 F 
ATOM     77  C   UNL     1      12.238   8.380   3.871  1.00  0.00     0.040 A 
ATOM     78  C   UNL     1      13.914   6.661   4.067  1.00  0.00     0.040 A 
ATOM     79  F   UNL     1      15.013   5.874   2.149  1.00  0.00    -0.206 F 
ATOM     80  C   UNL     1      12.986   7.513   4.665  1.00  0.00     0.006 A 
ENDBRANCH  52  73
BRANCH  64  81
ATOM     81  C   UNL     1      16.123  12.342  -2.356  1.00  0.00     0.057 A 
ATOM     82  C   UNL     1      17.375  12.532  -1.760  1.00  0.00     0.134 A 
ATOM     83  C   UNL     1      15.418  13.482  -2.762  1.00  0.00     0.134 A 
ATOM     84  F   UNL     1      18.094  11.480  -1.338  1.00  0.00    -0.206 F 
ATOM     85  C   UNL     1      17.899  13.810  -1.559  1.00  0.00     0.040 A 
ATOM     86  C   UNL     1      15.942  14.764  -2.588  1.00  0.00     0.040 A 
ATOM     87  F   UNL     1      14.217  13.368  -3.348  1.00  0.00    -0.206 F 
ATOM     88  C   UNL     1      17.185  14.930  -1.980  1.00  0.00     0.006 A 
ENDBRANCH  64  81
ENDBRANCH  38  39
ENDBRANCH  31  33
ENDBRANCH  30  31
ENDBRANCH  29  30
ENDBRANCH  28  29
ENDBRANCH  27  28
ENDBRANCH  26  27
ENDBRANCH   1  26
TORSDOF 19
