REMARK SMILES O=C(C[C@H](c1ccccc1)N1C(=O)CCCCC1=O)OCCOCCOCCOC(=O)c1ccc(-c2c3nc(c(-c4c(F)cccc4F)c4ccc([nH]4)c(-c4c(F)cccc4F)c4nc(c(-c5c(F)cccc5F)c5ccc2[nH]5)C=C4)C=C3)cc1
REMARK SMILES IDX 23 1 22 2 21 3 20 4 2 5 1 6 3 7 4 8 11 9 12 10 13 11 14 12
REMARK SMILES IDX 15 13 18 15 19 16 17 17 16 18 5 20 6 21 10 22 7 23 9 24 8 25
REMARK SMILES IDX 24 26 25 27 26 28 27 29 28 30 29 31 30 32 31 33 32 34 33 35
REMARK SMILES IDX 85 36 34 37 84 38 35 39 36 40 37 41 78 42 38 43 83 44 77 45
REMARK SMILES IDX 79 46 39 47 82 48 76 49 75 50 40 52 66 53 49 54 65 55 50 56
REMARK SMILES IDX 53 57 64 58 80 59 51 60 52 61 63 63 81 64 54 65 41 66 42 67
REMARK SMILES IDX 47 68 43 69 44 70 46 71 48 72 45 73 67 74 68 75 73 76 69 77
REMARK SMILES IDX 70 78 72 79 74 80 71 81 55 82 56 83 61 84 57 85 58 86 60 87
REMARK SMILES IDX 62 88 59 89
REMARK H PARENT 79 51 53 62
REMARK Flexibility Score: 90.00
ROOT
ATOM      1  O   UNL     1       5.090  -3.105  -2.436  1.00  0.00    -0.376 OA
ENDROOT
BRANCH   1   2
ATOM      2  C   UNL     1       4.227  -3.344  -1.337  1.00  0.00     0.202 C 
BRANCH   2   3
ATOM      3  C   UNL     1       2.889  -2.610  -1.312  1.00  0.00     0.261 C 
BRANCH   3   4
ATOM      4  O   UNL     1       2.912  -1.163  -1.176  1.00  0.00    -0.463 OA
BRANCH   4   5
ATOM      5  C   UNL     1       3.863  -0.385  -0.617  1.00  0.00     0.308 C 
ATOM      6  O   UNL     1       4.146   0.692  -1.139  1.00  0.00    -0.252 OA
BRANCH   5   7
ATOM      7  C   UNL     1       4.528  -0.822   0.663  1.00  0.00     0.153 C 
BRANCH   7   8
ATOM      8  C   UNL     1       3.479  -1.187   1.714  1.00  0.00     0.134 C 
BRANCH   8   9
ATOM      9  N   UNL     1       3.988  -1.813   2.941  1.00  0.00    -0.274 N 
BRANCH   9  10
ATOM     10  C   UNL     1       4.152  -3.191   2.909  1.00  0.00     0.229 C 
ATOM     11  O   UNL     1       4.165  -3.826   1.851  1.00  0.00    -0.274 OA
BRANCH  10  12
ATOM     12  C   UNL     1       4.228  -3.942   4.228  1.00  0.00     0.101 C 
BRANCH  12  13
ATOM     13  C   UNL     1       5.300  -3.488   5.202  1.00  0.00     0.010 CG0
ATOM     14  G   UNL     1       4.885  -2.276   6.028  1.00  0.00     0.000 G0
ENDBRANCH  12  13
ENDBRANCH  10  12
ENDBRANCH   9  10
BRANCH   9  15
ATOM     15  C   UNL     1       4.757  -1.061   3.807  1.00  0.00     0.229 C 
ATOM     16  O   UNL     1       5.716  -0.376   3.463  1.00  0.00    -0.274 OA
BRANCH  15  17
ATOM     17  C   UNL     1       4.286  -1.127   5.238  1.00  0.00     0.101 C 
BRANCH  17  18
ATOM     18  C   UNL     1       4.885  -2.276   6.028  1.00  0.00     0.010 CG0
ATOM     19  G   UNL     1       5.300  -3.488   5.202  1.00  0.00     0.000 G0
ENDBRANCH  17  18
ENDBRANCH  15  17
ENDBRANCH   9  15
ENDBRANCH   8   9
BRANCH   8  20
ATOM     20  C   UNL     1       2.552   0.001   1.975  1.00  0.00    -0.024 A 
ATOM     21  C   UNL     1       3.047   1.246   2.397  1.00  0.00     0.006 A 
ATOM     22  C   UNL     1       1.196  -0.097   1.618  1.00  0.00     0.006 A 
ATOM     23  C   UNL     1       2.219   2.367   2.427  1.00  0.00     0.000 A 
ATOM     24  C   UNL     1       0.374   1.029   1.639  1.00  0.00     0.000 A 
ATOM     25  C   UNL     1       0.888   2.261   2.036  1.00  0.00     0.000 A 
ENDBRANCH   8  20
ENDBRANCH   7   8
ENDBRANCH   5   7
ENDBRANCH   4   5
ENDBRANCH   3   4
ENDBRANCH   2   3
ENDBRANCH   1   2
BRANCH   1  26
ATOM     26  C   UNL     1       5.152  -1.814  -3.014  1.00  0.00     0.188 C 
BRANCH  26  27
ATOM     27  C   UNL     1       5.864  -1.822  -4.370  1.00  0.00     0.188 C 
BRANCH  27  28
ATOM     28  O   UNL     1       5.574  -2.919  -5.230  1.00  0.00    -0.376 OA
BRANCH  28  29
ATOM     29  C   UNL     1       5.945  -4.225  -4.776  1.00  0.00     0.202 C 
BRANCH  29  30
ATOM     30  C   UNL     1       7.420  -4.459  -4.407  1.00  0.00     0.261 C 
BRANCH  30  31
ATOM     31  O   UNL     1       7.898  -3.699  -3.274  1.00  0.00    -0.460 OA
BRANCH  31  32
ATOM     32  C   UNL     1       8.960  -2.897  -3.533  1.00  0.00     0.338 C 
ATOM     33  O   UNL     1       9.529  -2.748  -4.603  1.00  0.00    -0.246 OA
BRANCH  32  34
ATOM     34  C   UNL     1       9.358  -2.104  -2.355  1.00  0.00     0.060 A 
ATOM     35  C   UNL     1       9.169  -0.716  -2.387  1.00  0.00     0.016 A 
ATOM     36  C   UNL     1      10.161  -2.684  -1.371  1.00  0.00     0.016 A 
ATOM     37  C   UNL     1       9.844   0.103  -1.476  1.00  0.00     0.010 A 
ATOM     38  C   UNL     1      10.840  -1.861  -0.462  1.00  0.00     0.010 A 
ATOM     39  C   UNL     1      10.731  -0.461  -0.548  1.00  0.00    -0.014 A 
BRANCH  39  40
ATOM     40  C   UNL     1      11.693   0.410   0.178  1.00  0.00     0.031 A 
ATOM     41  C   UNL     1      13.087   0.578  -0.375  1.00  0.00     0.074 A 
ATOM     42  C   UNL     1      11.343   1.066   1.298  1.00  0.00     0.049 A 
ATOM     43  N   UNL     1      14.094   1.271   0.098  1.00  0.00    -0.248 NA
ATOM     44  C   UNL     1      13.384  -0.133  -1.629  1.00  0.00     0.031 C 
ATOM     45  C   UNL     1      10.025   1.028   1.925  1.00  0.00     0.029 A 
ATOM     46  N   UNL     1      12.081   1.894   2.108  1.00  0.00    -0.354 N 
ATOM     47  C   UNL     1      15.141   1.076  -0.795  1.00  0.00     0.074 A 
ATOM     48  C   UNL     1      14.657   0.178  -1.822  1.00  0.00     0.031 C 
ATOM     49  C   UNL     1      10.047   1.797   3.028  1.00  0.00     0.029 A 
ATOM     50  C   UNL     1      11.386   2.362   3.196  1.00  0.00     0.049 A 
ATOM     51  H   UNL     1      13.019   2.130   1.927  1.00  0.00     0.167 HD
ATOM     52  C   UNL     1      16.390   1.601  -0.772  1.00  0.00     0.037 A 
ATOM     53  C   UNL     1      11.789   3.146   4.215  1.00  0.00     0.037 A 
ATOM     54  C   UNL     1      16.883   2.499   0.239  1.00  0.00     0.049 A 
ATOM     55  C   UNL     1      13.203   3.662   4.256  1.00  0.00     0.074 A 
ATOM     56  C   UNL     1      18.126   3.101   0.327  1.00  0.00     0.029 A 
ATOM     57  N   UNL     1      16.157   2.918   1.342  1.00  0.00    -0.354 N 
ATOM     58  N   UNL     1      14.173   3.496   3.390  1.00  0.00    -0.248 NA
ATOM     59  C   UNL     1      13.576   4.479   5.422  1.00  0.00     0.031 C 
ATOM     60  C   UNL     1      18.168   3.852   1.506  1.00  0.00     0.029 A 
ATOM     61  C   UNL     1      16.935   3.750   2.131  1.00  0.00     0.049 A 
ATOM     62  H   UNL     1      15.227   2.662   1.537  1.00  0.00     0.167 HD
ATOM     63  C   UNL     1      15.256   4.213   3.888  1.00  0.00     0.074 A 
ATOM     64  C   UNL     1      14.824   4.819   5.129  1.00  0.00     0.031 C 
ATOM     65  C   UNL     1      16.495   4.359   3.359  1.00  0.00     0.037 A 
BRANCH  52  66
ATOM     66  C   UNL     1      17.325   1.195  -1.873  1.00  0.00     0.057 A 
ATOM     67  C   UNL     1      17.189   1.687  -3.177  1.00  0.00     0.134 A 
ATOM     68  C   UNL     1      18.387   0.319  -1.618  1.00  0.00     0.134 A 
ATOM     69  F   UNL     1      16.184   2.521  -3.487  1.00  0.00    -0.206 F 
ATOM     70  C   UNL     1      18.062   1.302  -4.195  1.00  0.00     0.040 A 
ATOM     71  C   UNL     1      19.280  -0.056  -2.623  1.00  0.00     0.040 A 
ATOM     72  F   UNL     1      18.576  -0.183  -0.388  1.00  0.00    -0.206 F 
ATOM     73  C   UNL     1      19.115   0.432  -3.918  1.00  0.00     0.006 A 
ENDBRANCH  52  66
BRANCH  53  74
ATOM     74  C   UNL     1      10.837   3.503   5.296  1.00  0.00     0.057 A 
ATOM     75  C   UNL     1      10.350   4.808   5.425  1.00  0.00     0.134 A 
ATOM     76  C   UNL     1      10.425   2.561   6.245  1.00  0.00     0.134 A 
ATOM     77  F   UNL     1      10.735   5.761   4.564  1.00  0.00    -0.206 F 
ATOM     78  C   UNL     1       9.497   5.169   6.469  1.00  0.00     0.040 A 
ATOM     79  C   UNL     1       9.556   2.902   7.282  1.00  0.00     0.040 A 
ATOM     80  F   UNL     1      10.866   1.296   6.180  1.00  0.00    -0.206 F 
ATOM     81  C   UNL     1       9.094   4.212   7.400  1.00  0.00     0.006 A 
ENDBRANCH  53  74
BRANCH  65  82
ATOM     82  C   UNL     1      17.462   5.239   4.096  1.00  0.00     0.057 A 
ATOM     83  C   UNL     1      18.074   4.833   5.288  1.00  0.00     0.134 A 
ATOM     84  C   UNL     1      17.811   6.497   3.586  1.00  0.00     0.134 A 
ATOM     85  F   UNL     1      17.774   3.646   5.835  1.00  0.00    -0.206 F 
ATOM     86  C   UNL     1      18.983   5.654   5.958  1.00  0.00     0.040 A 
ATOM     87  C   UNL     1      18.736   7.317   4.234  1.00  0.00     0.040 A 
ATOM     88  F   UNL     1      17.268   6.944   2.443  1.00  0.00    -0.206 F 
ATOM     89  C   UNL     1      19.320   6.899   5.428  1.00  0.00     0.006 A 
ENDBRANCH  65  82
ENDBRANCH  39  40
ENDBRANCH  32  34
ENDBRANCH  31  32
ENDBRANCH  30  31
ENDBRANCH  29  30
ENDBRANCH  28  29
ENDBRANCH  27  28
ENDBRANCH  26  27
ENDBRANCH   1  26
TORSDOF 20
