REMARK SMILES CCc1nc(Oc2ccc(C(=O)OCCOCCOCCOC(=O)c3ccc(-c4c5nc(c(-c6c(F)cccc6F)c6ccc([nH]6)c(-c6c(F)cccc6F)c6nc(c(-c7c(F)cccc7F)c7ccc4[nH]7)C=C6)C=C5)cc3)cc2)cc(C(C)C)n1
REMARK SMILES IDX 17 1 16 2 15 3 14 4 13 5 11 6 12 7 10 8 7 9 8 10 80 11 9 12
REMARK SMILES IDX 79 13 6 14 5 15 3 16 4 17 86 18 82 19 81 20 2 21 1 22 83 23
REMARK SMILES IDX 84 24 85 25 18 26 19 27 20 28 21 29 22 30 23 31 24 32 25 33
REMARK SMILES IDX 26 34 78 35 27 36 77 37 28 38 29 39 30 40 71 41 31 42 76 43
REMARK SMILES IDX 70 44 72 45 32 46 75 47 69 48 68 49 33 51 59 52 42 53 58 54
REMARK SMILES IDX 43 55 46 56 57 57 73 58 44 59 45 60 56 62 74 63 47 64 34 65
REMARK SMILES IDX 35 66 40 67 36 68 37 69 39 70 41 71 38 72 60 73 61 74 66 75
REMARK SMILES IDX 62 76 63 77 65 78 67 79 64 80 48 81 49 82 54 83 50 84 51 85
REMARK SMILES IDX 53 86 55 87 52 88
REMARK H PARENT 72 50 46 61
REMARK Flexibility Score: inf
ROOT
ATOM      1  C   UNL     1       2.230   9.541  -8.276  1.00  0.00     0.188 C 
ENDROOT
BRANCH   1   2
ATOM      2  O   UNL     1       2.852   9.600  -9.557  1.00  0.00    -0.376 OA
BRANCH   2   3
ATOM      3  C   UNL     1       2.642   8.553 -10.499  1.00  0.00     0.202 C 
BRANCH   3   4
ATOM      4  C   UNL     1       2.953   7.109 -10.087  1.00  0.00     0.261 C 
BRANCH   4   5
ATOM      5  O   UNL     1       2.289   6.697  -8.883  1.00  0.00    -0.460 OA
BRANCH   5   6
ATOM      6  C   UNL     1       3.109   6.379  -7.854  1.00  0.00     0.338 C 
ATOM      7  O   UNL     1       4.325   6.302  -7.880  1.00  0.00    -0.246 OA
BRANCH   6   8
ATOM      8  C   UNL     1       2.341   6.268  -6.592  1.00  0.00     0.060 A 
ATOM      9  C   UNL     1       1.152   5.826  -4.134  1.00  0.00     0.129 A 
ATOM     10  C   UNL     1       2.375   6.492  -4.180  1.00  0.00     0.048 A 
ATOM     11  C   UNL     1       0.440   5.524  -5.302  1.00  0.00     0.048 A 
ATOM     12  C   UNL     1       2.975   6.703  -5.417  1.00  0.00     0.019 A 
ATOM     13  C   UNL     1       1.050   5.725  -6.541  1.00  0.00     0.019 A 
BRANCH   9  14
ATOM     14  O   UNL     1       0.751   5.297  -2.927  1.00  0.00    -0.439 OA
BRANCH  14  15
ATOM     15  C   UNL     1       1.048   3.948  -2.735  1.00  0.00     0.222 A 
ATOM     16  C   UNL     1       0.816   2.122  -1.377  1.00  0.00     0.132 A 
ATOM     17  N   UNL     1       0.607   3.438  -1.573  1.00  0.00    -0.198 NA
ATOM     18  N   UNL     1       1.375   1.290  -2.280  1.00  0.00    -0.237 NA
ATOM     19  C   UNL     1       1.809   1.828  -3.431  1.00  0.00     0.050 A 
ATOM     20  C   UNL     1       1.707   3.176  -3.676  1.00  0.00     0.093 A 
BRANCH  16  21
ATOM     21  C   UNL     1       0.348   1.545  -0.066  1.00  0.00     0.074 C 
ATOM     22  C   UNL     1       0.835   0.127   0.200  1.00  0.00     0.012 C 
ENDBRANCH  16  21
BRANCH  19  23
ATOM     23  C   UNL     1       2.363   0.918  -4.509  1.00  0.00     0.032 C 
ATOM     24  C   UNL     1       3.660   0.254  -4.061  1.00  0.00     0.014 C 
ATOM     25  C   UNL     1       1.314  -0.113  -4.927  1.00  0.00     0.014 C 
ENDBRANCH  19  23
ENDBRANCH  14  15
ENDBRANCH   9  14
ENDBRANCH   6   8
ENDBRANCH   5   6
ENDBRANCH   4   5
ENDBRANCH   3   4
ENDBRANCH   2   3
ENDBRANCH   1   2
BRANCH   1  26
ATOM     26  C   UNL     1       0.741   9.150  -8.158  1.00  0.00     0.188 C 
BRANCH  26  27
ATOM     27  O   UNL     1       0.131   8.870  -9.396  1.00  0.00    -0.376 OA
BRANCH  27  28
ATOM     28  C   UNL     1      -0.757   9.823  -9.951  1.00  0.00     0.202 C 
BRANCH  28  29
ATOM     29  C   UNL     1      -0.431  11.329  -9.983  1.00  0.00     0.261 C 
BRANCH  29  30
ATOM     30  O   UNL     1       0.387  11.855  -8.931  1.00  0.00    -0.460 OA
BRANCH  30  31
ATOM     31  C   UNL     1      -0.249  12.265  -7.811  1.00  0.00     0.338 C 
ATOM     32  O   UNL     1      -1.439  12.192  -7.572  1.00  0.00    -0.246 OA
BRANCH  31  33
ATOM     33  C   UNL     1       0.771  12.675  -6.821  1.00  0.00     0.060 A 
ATOM     34  C   UNL     1       0.833  11.990  -5.602  1.00  0.00     0.016 A 
ATOM     35  C   UNL     1       1.627  13.751  -7.074  1.00  0.00     0.016 A 
ATOM     36  C   UNL     1       1.713  12.417  -4.607  1.00  0.00     0.010 A 
ATOM     37  C   UNL     1       2.498  14.188  -6.069  1.00  0.00     0.010 A 
ATOM     38  C   UNL     1       2.511  13.550  -4.816  1.00  0.00    -0.014 A 
BRANCH  38  39
ATOM     39  C   UNL     1       3.178  14.189  -3.654  1.00  0.00     0.031 A 
ATOM     40  C   UNL     1       2.470  15.322  -2.960  1.00  0.00     0.074 A 
ATOM     41  C   UNL     1       4.361  13.749  -3.190  1.00  0.00     0.049 A 
ATOM     42  N   UNL     1       2.839  16.022  -1.918  1.00  0.00    -0.248 NA
ATOM     43  C   UNL     1       1.168  15.718  -3.521  1.00  0.00     0.031 C 
ATOM     44  C   UNL     1       5.135  12.645  -3.752  1.00  0.00     0.029 A 
ATOM     45  N   UNL     1       5.116  14.189  -2.131  1.00  0.00    -0.354 N 
ATOM     46  C   UNL     1       1.816  16.937  -1.698  1.00  0.00     0.074 A 
ATOM     47  C   UNL     1       0.830  16.729  -2.736  1.00  0.00     0.031 C 
ATOM     48  C   UNL     1       6.263  12.496  -3.033  1.00  0.00     0.029 A 
ATOM     49  C   UNL     1       6.296  13.505  -1.975  1.00  0.00     0.049 A 
ATOM     50  H   UNL     1       4.838  14.925  -1.539  1.00  0.00     0.167 HD
ATOM     51  C   UNL     1       1.699  17.859  -0.714  1.00  0.00     0.037 A 
ATOM     52  C   UNL     1       7.291  13.682  -1.083  1.00  0.00     0.037 A 
ATOM     53  C   UNL     1       2.679  18.074   0.316  1.00  0.00     0.049 A 
ATOM     54  C   UNL     1       7.163  14.751  -0.029  1.00  0.00     0.074 A 
ATOM     55  C   UNL     1       2.651  18.983   1.359  1.00  0.00     0.029 A 
ATOM     56  N   UNL     1       3.869  17.373   0.429  1.00  0.00    -0.354 N 
ATOM     57  N   UNL     1       6.179  15.590   0.187  1.00  0.00    -0.248 NA
ATOM     58  C   UNL     1       8.283  14.887   0.915  1.00  0.00     0.031 C 
ATOM     59  C   UNL     1       3.844  18.859   2.080  1.00  0.00     0.029 A 
ATOM     60  C   UNL     1       4.591  17.838   1.516  1.00  0.00     0.049 A 
ATOM     61  H   UNL     1       4.159  16.651  -0.174  1.00  0.00     0.167 HD
ATOM     62  C   UNL     1       6.543  16.326   1.310  1.00  0.00     0.074 A 
ATOM     63  C   UNL     1       7.835  15.827   1.734  1.00  0.00     0.031 C 
ATOM     64  C   UNL     1       5.868  17.322   1.935  1.00  0.00     0.037 A 
BRANCH  51  65
ATOM     65  C   UNL     1       0.471  18.721  -0.725  1.00  0.00     0.057 A 
ATOM     66  C   UNL     1      -0.791  18.213  -0.388  1.00  0.00     0.134 A 
ATOM     67  C   UNL     1       0.552  20.076  -1.065  1.00  0.00     0.134 A 
ATOM     68  F   UNL     1      -0.940  16.917  -0.071  1.00  0.00    -0.206 F 
ATOM     69  C   UNL     1      -1.932  19.017  -0.413  1.00  0.00     0.040 A 
ATOM     70  C   UNL     1      -0.577  20.897  -1.069  1.00  0.00     0.040 A 
ATOM     71  F   UNL     1       1.730  20.626  -1.398  1.00  0.00    -0.206 F 
ATOM     72  C   UNL     1      -1.825  20.366  -0.748  1.00  0.00     0.006 A 
ENDBRANCH  51  65
BRANCH  52  73
ATOM     73  C   UNL     1       8.503  12.825  -1.138  1.00  0.00     0.057 A 
ATOM     74  C   UNL     1       8.775  11.886  -0.136  1.00  0.00     0.134 A 
ATOM     75  C   UNL     1       9.437  12.953  -2.173  1.00  0.00     0.134 A 
ATOM     76  F   UNL     1       7.931  11.736   0.895  1.00  0.00    -0.206 F 
ATOM     77  C   UNL     1       9.942  11.120  -0.149  1.00  0.00     0.040 A 
ATOM     78  C   UNL     1      10.596  12.176  -2.212  1.00  0.00     0.040 A 
ATOM     79  F   UNL     1       9.236  13.836  -3.161  1.00  0.00    -0.206 F 
ATOM     80  C   UNL     1      10.855  11.262  -1.192  1.00  0.00     0.006 A 
ENDBRANCH  52  73
BRANCH  64  81
ATOM     81  C   UNL     1       6.487  17.900   3.176  1.00  0.00     0.057 A 
ATOM     82  C   UNL     1       7.622  18.718   3.131  1.00  0.00     0.134 A 
ATOM     83  C   UNL     1       5.919  17.652   4.433  1.00  0.00     0.134 A 
ATOM     84  F   UNL     1       8.221  18.986   1.960  1.00  0.00    -0.206 F 
ATOM     85  C   UNL     1       8.189  19.244   4.293  1.00  0.00     0.040 A 
ATOM     86  C   UNL     1       6.460  18.195   5.599  1.00  0.00     0.040 A 
ATOM     87  F   UNL     1       4.823  16.887   4.547  1.00  0.00    -0.206 F 
ATOM     88  C   UNL     1       7.604  18.986   5.532  1.00  0.00     0.006 A 
ENDBRANCH  64  81
ENDBRANCH  38  39
ENDBRANCH  31  33
ENDBRANCH  30  31
ENDBRANCH  29  30
ENDBRANCH  28  29
ENDBRANCH  27  28
ENDBRANCH  26  27
ENDBRANCH   1  26
TORSDOF 21
