REMARK SMILES O=C(OCCOCCOCCOC(=O)[C@@H](F)[C@H](O)c1cccc(Cl)c1)c1ccc(-c2c3nc(c(-c4c(F)cccc4F)c4ccc([nH]4)c(-c4c(F)cccc4F)c4nc(c(-c5c(F)cccc5F)c5ccc2[nH]5)C=C4)C=C3)cc1
REMARK SMILES IDX 7 1 6 2 5 3 4 4 3 5 2 6 1 7 26 8 27 9 79 10 28 11 78 12
REMARK SMILES IDX 29 13 30 14 31 15 72 16 32 17 77 18 71 19 73 20 33 21 76 22
REMARK SMILES IDX 70 23 69 24 34 26 60 27 43 28 59 29 44 30 47 31 58 32 74 33
REMARK SMILES IDX 45 34 46 35 57 37 75 38 48 39 35 40 36 41 41 42 37 43 38 44
REMARK SMILES IDX 40 45 42 46 39 47 61 48 62 49 67 50 63 51 64 52 66 53 68 54
REMARK SMILES IDX 65 55 49 56 50 57 55 58 51 59 52 60 54 61 56 62 53 63 8 64
REMARK SMILES IDX 9 65 10 66 11 67 12 68 13 69 14 70 15 71 16 72 17 73 19 74
REMARK SMILES IDX 20 75 25 76 21 77 23 78 22 79 24 80 18 81
REMARK H PARENT 73 25 47 36 18 82
REMARK Flexibility Score: inf
ROOT
ATOM      1  C   UNL     1       3.506  -6.048   6.671  1.00  0.00     0.188 C 
ENDROOT
BRANCH   1   2
ATOM      2  O   UNL     1       3.092  -4.768   6.186  1.00  0.00    -0.376 OA
BRANCH   2   3
ATOM      3  C   UNL     1       2.698  -3.839   7.199  1.00  0.00     0.202 C 
BRANCH   3   4
ATOM      4  C   UNL     1       1.415  -4.168   7.985  1.00  0.00     0.261 C 
BRANCH   4   5
ATOM      5  O   UNL     1       1.075  -5.564   8.006  1.00  0.00    -0.460 OA
BRANCH   5   6
ATOM      6  C   UNL     1       0.166  -6.213   7.236  1.00  0.00     0.338 C 
ATOM      7  O   UNL     1      -0.154  -7.360   7.539  1.00  0.00    -0.246 OA
BRANCH   6   8
ATOM      8  C   UNL     1      -0.456  -5.612   6.018  1.00  0.00     0.060 A 
ATOM      9  C   UNL     1       0.136  -4.621   5.238  1.00  0.00     0.016 A 
ATOM     10  C   UNL     1      -1.670  -6.159   5.570  1.00  0.00     0.016 A 
ATOM     11  C   UNL     1      -0.478  -4.120   4.100  1.00  0.00     0.010 A 
ATOM     12  C   UNL     1      -2.276  -5.698   4.395  1.00  0.00     0.010 A 
ATOM     13  C   UNL     1      -1.685  -4.659   3.667  1.00  0.00    -0.014 A 
BRANCH  13  14
ATOM     14  C   UNL     1      -2.328  -4.056   2.487  1.00  0.00     0.031 A 
ATOM     15  C   UNL     1      -3.526  -3.184   2.687  1.00  0.00     0.074 A 
ATOM     16  C   UNL     1      -1.772  -4.214   1.272  1.00  0.00     0.049 A 
ATOM     17  N   UNL     1      -4.285  -2.607   1.795  1.00  0.00    -0.248 NA
ATOM     18  C   UNL     1      -3.926  -2.922   4.081  1.00  0.00     0.031 C 
ATOM     19  C   UNL     1      -0.559  -4.984   0.988  1.00  0.00     0.029 A 
ATOM     20  N   UNL     1      -2.147  -3.723   0.050  1.00  0.00    -0.354 N 
ATOM     21  C   UNL     1      -5.278  -1.959   2.513  1.00  0.00     0.074 A 
ATOM     22  C   UNL     1      -5.018  -2.191   3.916  1.00  0.00     0.031 C 
ATOM     23  C   UNL     1      -0.293  -4.914  -0.327  1.00  0.00     0.029 A 
ATOM     24  C   UNL     1      -1.331  -4.132  -0.977  1.00  0.00     0.049 A 
ATOM     25  H   UNL     1      -2.925  -3.134  -0.080  1.00  0.00     0.167 HD
ATOM     26  C   UNL     1      -6.325  -1.254   2.030  1.00  0.00     0.037 A 
ATOM     27  C   UNL     1      -1.445  -3.931  -2.300  1.00  0.00     0.037 A 
ATOM     28  C   UNL     1      -6.553  -1.029   0.628  1.00  0.00     0.049 A 
ATOM     29  C   UNL     1      -2.641  -3.181  -2.805  1.00  0.00     0.074 A 
ATOM     30  C   UNL     1      -7.583  -0.336   0.020  1.00  0.00     0.029 A 
ATOM     31  N   UNL     1      -5.733  -1.505  -0.385  1.00  0.00    -0.354 N 
ATOM     32  N   UNL     1      -3.604  -2.609  -2.126  1.00  0.00    -0.248 NA
ATOM     33  C   UNL     1      -2.784  -3.084  -4.264  1.00  0.00     0.031 C 
ATOM     34  C   UNL     1      -7.417  -0.441  -1.364  1.00  0.00     0.029 A 
ATOM     35  C   UNL     1      -6.255  -1.154  -1.616  1.00  0.00     0.049 A 
ATOM     36  H   UNL     1      -4.902  -2.016  -0.248  1.00  0.00     0.167 HD
ATOM     37  C   UNL     1      -4.486  -2.114  -3.072  1.00  0.00     0.074 A 
ATOM     38  C   UNL     1      -3.916  -2.406  -4.372  1.00  0.00     0.031 C 
ATOM     39  C   UNL     1      -5.673  -1.492  -2.888  1.00  0.00     0.037 A 
BRANCH  26  40
ATOM     40  C   UNL     1      -7.338  -0.759   3.014  1.00  0.00     0.057 A 
ATOM     41  C   UNL     1      -7.097   0.328   3.862  1.00  0.00     0.134 A 
ATOM     42  C   UNL     1      -8.589  -1.384   3.100  1.00  0.00     0.134 A 
ATOM     43  F   UNL     1      -5.909   0.951   3.848  1.00  0.00    -0.206 F 
ATOM     44  C   UNL     1      -8.063   0.770   4.768  1.00  0.00     0.040 A 
ATOM     45  C   UNL     1      -9.569  -0.938   3.986  1.00  0.00     0.040 A 
ATOM     46  F   UNL     1      -8.878  -2.438   2.321  1.00  0.00    -0.206 F 
ATOM     47  C   UNL     1      -9.306   0.141   4.826  1.00  0.00     0.006 A 
ENDBRANCH  26  40
BRANCH  27  48
ATOM     48  C   UNL     1      -0.512  -4.554  -3.265  1.00  0.00     0.057 A 
ATOM     49  C   UNL     1       0.416  -3.795  -3.985  1.00  0.00     0.134 A 
ATOM     50  C   UNL     1      -0.645  -5.907  -3.596  1.00  0.00     0.134 A 
ATOM     51  F   UNL     1       0.561  -2.486  -3.734  1.00  0.00    -0.206 F 
ATOM     52  C   UNL     1       1.158  -4.354  -5.029  1.00  0.00     0.040 A 
ATOM     53  C   UNL     1       0.086  -6.475  -4.639  1.00  0.00     0.040 A 
ATOM     54  F   UNL     1      -1.519  -6.683  -2.940  1.00  0.00    -0.206 F 
ATOM     55  C   UNL     1       0.985  -5.696  -5.364  1.00  0.00     0.006 A 
ENDBRANCH  27  48
BRANCH  39  56
ATOM     56  C   UNL     1      -6.425  -1.117  -4.124  1.00  0.00     0.057 A 
ATOM     57  C   UNL     1      -7.082  -2.082  -4.898  1.00  0.00     0.134 A 
ATOM     58  C   UNL     1      -6.509   0.218  -4.530  1.00  0.00     0.134 A 
ATOM     59  F   UNL     1      -7.013  -3.381  -4.569  1.00  0.00    -0.206 F 
ATOM     60  C   UNL     1      -7.786  -1.730  -6.048  1.00  0.00     0.040 A 
ATOM     61  C   UNL     1      -7.232   0.585  -5.663  1.00  0.00     0.040 A 
ATOM     62  F   UNL     1      -5.897   1.184  -3.828  1.00  0.00    -0.206 F 
ATOM     63  C   UNL     1      -7.869  -0.391  -6.428  1.00  0.00     0.006 A 
ENDBRANCH  39  56
ENDBRANCH  13  14
ENDBRANCH   6   8
ENDBRANCH   5   6
ENDBRANCH   4   5
ENDBRANCH   3   4
ENDBRANCH   2   3
ENDBRANCH   1   2
BRANCH   1  64
ATOM     64  C   UNL     1       4.574  -6.677   5.776  1.00  0.00     0.188 C 
BRANCH  64  65
ATOM     65  O   UNL     1       5.868  -6.071   5.774  1.00  0.00    -0.376 OA
BRANCH  65  66
ATOM     66  C   UNL     1       5.933  -4.654   5.659  1.00  0.00     0.202 C 
BRANCH  66  67
ATOM     67  C   UNL     1       5.635  -4.042   4.283  1.00  0.00     0.261 C 
BRANCH  67  68
ATOM     68  O   UNL     1       4.510  -4.620   3.609  1.00  0.00    -0.461 OA
BRANCH  68  69
ATOM     69  C   UNL     1       4.815  -5.522   2.641  1.00  0.00     0.343 C 
ATOM     70  O   UNL     1       5.958  -5.811   2.289  1.00  0.00    -0.249 OA
BRANCH  69  71
ATOM     71  C   UNL     1       3.594  -6.200   2.063  1.00  0.00     0.308 C 
ATOM     72  F   UNL     1       2.411  -5.735   2.566  1.00  0.00    -0.232 F 
BRANCH  71  73
ATOM     73  C   UNL     1       3.646  -6.034   0.532  1.00  0.00     0.190 C 
BRANCH  73  74
ATOM     74  C   UNL     1       3.112  -7.170  -0.331  1.00  0.00    -0.015 A 
ATOM     75  C   UNL     1       2.849  -6.913  -1.691  1.00  0.00     0.006 A 
ATOM     76  C   UNL     1       3.020  -8.501   0.106  1.00  0.00     0.027 A 
ATOM     77  C   UNL     1       2.510  -7.939  -2.574  1.00  0.00     0.002 A 
ATOM     78  C   UNL     1       2.667  -9.523  -0.782  1.00  0.00     0.041 A 
ATOM     79  C   UNL     1       2.411  -9.247  -2.119  1.00  0.00     0.020 A 
ATOM     80  Cl  UNL     1       2.598 -11.151  -0.225  1.00  0.00    -0.084 Cl
ENDBRANCH  73  74
BRANCH  73  81
ATOM     81  O   UNL     1       2.967  -4.825   0.158  1.00  0.00    -0.385 OA
ATOM     82  H   UNL     1       2.023  -4.905   0.368  1.00  0.00     0.211 HD
ENDBRANCH  73  81
ENDBRANCH  71  73
ENDBRANCH  69  71
ENDBRANCH  68  69
ENDBRANCH  67  68
ENDBRANCH  66  67
ENDBRANCH  65  66
ENDBRANCH  64  65
ENDBRANCH   1  64
TORSDOF 20
