REMARK SMILES Cc1nc(-c2ccccc2F)sc1C(=O)NCc1ccc(C(=O)OCCOCCOCCOC(=O)c2ccc(-c3c4nc(c(-c5c(F)cccc5F)c5ccc([nH]5)c(-c5c(F)cccc5F)c5nc(c(-c6c(F)cccc6F)c6ccc3[nH]6)C=C5)C=C4)cc2)cc1
REMARK SMILES IDX 28 1 27 2 26 3 25 4 24 5 22 6 23 7 21 8 18 9 19 10 91 11
REMARK SMILES IDX 20 12 90 13 17 14 16 15 14 16 15 17 13 19 1 20 2 21 3 22
REMARK SMILES IDX 4 23 12 24 5 25 6 26 10 27 7 28 9 29 11 30 8 31 29 32 30 33
REMARK SMILES IDX 31 34 32 35 33 36 34 37 35 38 36 39 37 40 89 41 38 42 88 43
REMARK SMILES IDX 39 44 40 45 41 46 82 47 42 48 87 49 81 50 83 51 43 52 86 53
REMARK SMILES IDX 80 54 79 55 44 57 70 58 53 59 69 60 54 61 57 62 68 63 84 64
REMARK SMILES IDX 55 65 56 66 67 68 85 69 58 70 45 71 46 72 51 73 47 74 48 75
REMARK SMILES IDX 50 76 52 77 49 78 71 79 72 80 77 81 73 82 74 83 76 84 78 85
REMARK SMILES IDX 75 86 59 87 60 88 65 89 61 90 62 91 64 92 66 93 63 94
REMARK H PARENT 16 18 83 56 57 67
REMARK Flexibility Score: inf
ROOT
ATOM      1  C   UNL     1      -8.048  -2.722  -4.713  1.00  0.00     0.188 C 
ENDROOT
BRANCH   1   2
ATOM      2  O   UNL     1      -8.504  -3.028  -6.022  1.00  0.00    -0.376 OA
BRANCH   2   3
ATOM      3  C   UNL     1      -7.958  -4.140  -6.722  1.00  0.00     0.202 C 
BRANCH   3   4
ATOM      4  C   UNL     1      -6.439  -4.338  -6.814  1.00  0.00     0.261 C 
BRANCH   4   5
ATOM      5  O   UNL     1      -5.766  -4.351  -5.547  1.00  0.00    -0.460 OA
BRANCH   5   6
ATOM      6  C   UNL     1      -4.854  -3.364  -5.368  1.00  0.00     0.338 C 
ATOM      7  O   UNL     1      -4.521  -2.515  -6.177  1.00  0.00    -0.246 OA
BRANCH   6   8
ATOM      8  C   UNL     1      -4.438  -3.316  -3.950  1.00  0.00     0.060 A 
ATOM      9  C   UNL     1      -3.625  -3.082  -1.273  1.00  0.00    -0.029 A 
ATOM     10  C   UNL     1      -3.965  -1.945  -2.013  1.00  0.00     0.006 A 
ATOM     11  C   UNL     1      -3.736  -4.345  -1.884  1.00  0.00     0.006 A 
ATOM     12  C   UNL     1      -4.358  -2.058  -3.345  1.00  0.00     0.016 A 
ATOM     13  C   UNL     1      -4.150  -4.466  -3.214  1.00  0.00     0.016 A 
BRANCH   9  14
ATOM     14  C   UNL     1      -3.065  -2.969   0.121  1.00  0.00     0.152 C 
BRANCH  14  15
ATOM     15  N   UNL     1      -1.629  -3.078   0.099  1.00  0.00    -0.347 N 
ATOM     16  C   UNL     1      -0.533  -2.270   0.021  1.00  0.00     0.263 C 
ATOM     17  O   UNL     1       0.494  -2.963  -0.060  1.00  0.00    -0.268 OA
ATOM     18  H   UNL     1      -1.356  -4.022   0.158  1.00  0.00     0.164 HD
BRANCH  16  19
ATOM     19  C   UNL     1      -0.467  -0.807   0.042  1.00  0.00     0.115 A 
ATOM     20  C   UNL     1      -2.742   0.544   0.312  1.00  0.00     0.068 C 
ATOM     21  C   UNL     1      -1.286   0.315   0.171  1.00  0.00     0.062 A 
ATOM     22  N   UNL     1      -0.617   1.538   0.179  1.00  0.00    -0.240 NA
ATOM     23  C   UNL     1       0.671   1.404   0.003  1.00  0.00     0.127 A 
ATOM     24  S   UNL     1       1.191  -0.201  -0.144  1.00  0.00    -0.108 S 
BRANCH  23  25
ATOM     25  C   UNL     1       1.586   2.541   0.011  1.00  0.00     0.046 A 
ATOM     26  C   UNL     1       1.464   3.496   1.035  1.00  0.00     0.014 A 
ATOM     27  C   UNL     1       2.504   2.781  -1.014  1.00  0.00     0.133 A 
ATOM     28  C   UNL     1       2.236   4.660   1.027  1.00  0.00     0.001 A 
ATOM     29  C   UNL     1       3.273   3.946  -1.032  1.00  0.00     0.040 A 
ATOM     30  F   UNL     1       2.636   1.921  -2.035  1.00  0.00    -0.206 F 
ATOM     31  C   UNL     1       3.135   4.889  -0.013  1.00  0.00     0.003 A 
ENDBRANCH  23  25
ENDBRANCH  16  19
ENDBRANCH  14  15
ENDBRANCH   9  14
ENDBRANCH   6   8
ENDBRANCH   5   6
ENDBRANCH   4   5
ENDBRANCH   3   4
ENDBRANCH   2   3
ENDBRANCH   1   2
BRANCH   1  32
ATOM     32  C   UNL     1      -8.047  -3.809  -3.617  1.00  0.00     0.188 C 
BRANCH  32  33
ATOM     33  O   UNL     1      -8.339  -5.116  -4.043  1.00  0.00    -0.376 OA
BRANCH  33  34
ATOM     34  C   UNL     1      -9.673  -5.594  -4.060  1.00  0.00     0.202 C 
BRANCH  34  35
ATOM     35  C   UNL     1     -10.952  -4.745  -3.908  1.00  0.00     0.261 C 
BRANCH  35  36
ATOM     36  O   UNL     1     -10.822  -3.340  -3.696  1.00  0.00    -0.460 OA
BRANCH  36  37
ATOM     37  C   UNL     1     -10.984  -2.919  -2.419  1.00  0.00     0.338 C 
ATOM     38  O   UNL     1     -11.157  -3.603  -1.428  1.00  0.00    -0.246 OA
BRANCH  37  39
ATOM     39  C   UNL     1     -10.753  -1.464  -2.376  1.00  0.00     0.060 A 
ATOM     40  C   UNL     1      -9.642  -0.984  -1.673  1.00  0.00     0.016 A 
ATOM     41  C   UNL     1     -11.648  -0.584  -2.988  1.00  0.00     0.016 A 
ATOM     42  C   UNL     1      -9.436   0.390  -1.558  1.00  0.00     0.010 A 
ATOM     43  C   UNL     1     -11.448   0.793  -2.857  1.00  0.00     0.010 A 
ATOM     44  C   UNL     1     -10.358   1.286  -2.118  1.00  0.00    -0.014 A 
BRANCH  44  45
ATOM     45  C   UNL     1     -10.266   2.730  -1.801  1.00  0.00     0.031 A 
ATOM     46  C   UNL     1     -11.131   3.287  -0.705  1.00  0.00     0.074 A 
ATOM     47  C   UNL     1      -9.409   3.531  -2.458  1.00  0.00     0.049 A 
ATOM     48  N   UNL     1     -11.239   4.519  -0.280  1.00  0.00    -0.248 NA
ATOM     49  C   UNL     1     -11.987   2.325   0.007  1.00  0.00     0.031 C 
ATOM     50  C   UNL     1      -8.490   3.103  -3.510  1.00  0.00     0.029 A 
ATOM     51  N   UNL     1      -9.180   4.879  -2.335  1.00  0.00    -0.354 N 
ATOM     52  C   UNL     1     -12.174   4.482   0.747  1.00  0.00     0.074 A 
ATOM     53  C   UNL     1     -12.626   3.112   0.861  1.00  0.00     0.031 C 
ATOM     54  C   UNL     1      -7.797   4.171  -3.942  1.00  0.00     0.029 A 
ATOM     55  C   UNL     1      -8.247   5.361  -3.220  1.00  0.00     0.049 A 
ATOM     56  H   UNL     1      -9.640   5.446  -1.676  1.00  0.00     0.167 HD
ATOM     57  C   UNL     1     -12.607   5.496   1.530  1.00  0.00     0.037 A 
ATOM     58  C   UNL     1      -7.820   6.621  -3.436  1.00  0.00     0.037 A 
ATOM     59  C   UNL     1     -12.159   6.858   1.415  1.00  0.00     0.049 A 
ATOM     60  C   UNL     1      -8.378   7.747  -2.607  1.00  0.00     0.074 A 
ATOM     61  C   UNL     1     -12.530   7.952   2.176  1.00  0.00     0.029 A 
ATOM     62  N   UNL     1     -11.249   7.314   0.474  1.00  0.00    -0.354 N 
ATOM     63  N   UNL     1      -9.247   7.700  -1.626  1.00  0.00    -0.248 NA
ATOM     64  C   UNL     1      -7.897   9.103  -2.914  1.00  0.00     0.031 C 
ATOM     65  C   UNL     1     -11.885   9.080   1.663  1.00  0.00     0.029 A 
ATOM     66  C   UNL     1     -11.067   8.680   0.619  1.00  0.00     0.049 A 
ATOM     67  H   UNL     1     -10.798   6.752  -0.197  1.00  0.00     0.167 HD
ATOM     68  C   UNL     1      -9.399   9.009  -1.185  1.00  0.00     0.074 A 
ATOM     69  C   UNL     1      -8.525   9.828  -1.997  1.00  0.00     0.031 C 
ATOM     70  C   UNL     1     -10.191   9.486  -0.193  1.00  0.00     0.037 A 
BRANCH  57  71
ATOM     71  C   UNL     1     -13.631   5.177   2.578  1.00  0.00     0.057 A 
ATOM     72  C   UNL     1     -14.946   5.646   2.457  1.00  0.00     0.134 A 
ATOM     73  C   UNL     1     -13.304   4.460   3.736  1.00  0.00     0.134 A 
ATOM     74  F   UNL     1     -15.323   6.342   1.374  1.00  0.00    -0.206 F 
ATOM     75  C   UNL     1     -15.894   5.424   3.456  1.00  0.00     0.040 A 
ATOM     76  C   UNL     1     -14.250   4.210   4.731  1.00  0.00     0.040 A 
ATOM     77  F   UNL     1     -12.066   3.972   3.906  1.00  0.00    -0.206 F 
ATOM     78  C   UNL     1     -15.547   4.702   4.596  1.00  0.00     0.006 A 
ENDBRANCH  57  71
BRANCH  58  79
ATOM     79  C   UNL     1      -6.806   6.883  -4.488  1.00  0.00     0.057 A 
ATOM     80  C   UNL     1      -7.112   6.750  -5.848  1.00  0.00     0.134 A 
ATOM     81  C   UNL     1      -5.500   7.260  -4.155  1.00  0.00     0.134 A 
ATOM     82  F   UNL     1      -8.347   6.393  -6.231  1.00  0.00    -0.206 F 
ATOM     83  C   UNL     1      -6.152   6.961  -6.838  1.00  0.00     0.040 A 
ATOM     84  C   UNL     1      -4.536   7.498  -5.136  1.00  0.00     0.040 A 
ATOM     85  F   UNL     1      -5.153   7.429  -2.871  1.00  0.00    -0.206 F 
ATOM     86  C   UNL     1      -4.859   7.340  -6.483  1.00  0.00     0.006 A 
ENDBRANCH  58  79
BRANCH  70  87
ATOM     87  C   UNL     1     -10.143  10.959   0.097  1.00  0.00     0.057 A 
ATOM     88  C   UNL     1      -9.579  11.432   1.289  1.00  0.00     0.134 A 
ATOM     89  C   UNL     1     -10.734  11.898  -0.756  1.00  0.00     0.134 A 
ATOM     90  F   UNL     1      -9.008  10.584   2.157  1.00  0.00    -0.206 F 
ATOM     91  C   UNL     1      -9.621  12.785   1.631  1.00  0.00     0.040 A 
ATOM     92  C   UNL     1     -10.759  13.257  -0.438  1.00  0.00     0.040 A 
ATOM     93  F   UNL     1     -11.284  11.511  -1.917  1.00  0.00    -0.206 F 
ATOM     94  C   UNL     1     -10.212  13.702   0.764  1.00  0.00     0.006 A 
ENDBRANCH  70  87
ENDBRANCH  44  45
ENDBRANCH  37  39
ENDBRANCH  36  37
ENDBRANCH  35  36
ENDBRANCH  34  35
ENDBRANCH  33  34
ENDBRANCH  32  33
ENDBRANCH   1  32
TORSDOF 21
