REMARK SMILES CC(=O)NCC(=O)N[C@H]1CCCCC[C@@H]1C(=O)OCCOCCOCCOC(=O)c1ccc(-c2c3nc(c(-c4c(F)cccc4F)c4ccc([nH]4)c(-c4c(F)cccc4F)c4nc(c(-c5c(F)cccc5F)c5ccc2[nH]5)C=C4)C=C3)cc1
REMARK SMILES IDX 22 1 21 2 20 3 19 4 18 5 16 6 17 7 15 8 9 9 8 10 6 11 7 12
REMARK SMILES IDX 5 14 4 15 1 16 2 17 3 18 10 20 11 21 14 23 13 24 12 25 23 27
REMARK SMILES IDX 24 28 25 29 26 30 27 31 28 32 29 33 30 34 31 35 83 36 32 37
REMARK SMILES IDX 82 38 33 39 34 40 35 41 76 42 36 43 81 44 75 45 77 46 37 47
REMARK SMILES IDX 80 48 74 49 73 50 38 52 64 53 47 54 63 55 48 56 51 57 62 58
REMARK SMILES IDX 78 59 49 60 50 61 61 63 79 64 52 65 39 66 40 67 45 68 41 69
REMARK SMILES IDX 42 70 44 71 46 72 43 73 65 74 66 75 71 76 67 77 68 78 70 79
REMARK SMILES IDX 72 80 69 81 53 82 54 83 59 84 55 85 56 86 58 87 60 88 57 89
REMARK H PARENT 8 13 4 19 77 51 51 62
REMARK Flexibility Score: 90.00
ROOT
ATOM      1  C   UNL     1      -1.556  -0.738   0.842  1.00  0.00     0.188 C 
ENDROOT
BRANCH   1   2
ATOM      2  O   UNL     1      -1.952  -2.084   1.060  1.00  0.00    -0.376 OA
BRANCH   2   3
ATOM      3  C   UNL     1      -1.414  -2.804   2.164  1.00  0.00     0.202 C 
BRANCH   3   4
ATOM      4  C   UNL     1       0.107  -2.985   2.200  1.00  0.00     0.261 C 
BRANCH   4   5
ATOM      5  O   UNL     1       0.863  -1.831   2.656  1.00  0.00    -0.463 OA
BRANCH   5   6
ATOM      6  C   UNL     1       1.631  -1.201   1.727  1.00  0.00     0.311 C 
ATOM      7  O   UNL     1       1.665  -1.545   0.550  1.00  0.00    -0.252 OA
BRANCH   6   8
ATOM      8  C   UNL     1       2.365   0.058   2.212  1.00  0.00     0.121 C 
BRANCH   8   9
ATOM      9  C   UNL     1       3.900  -0.046   2.042  1.00  0.00     0.096 C 
BRANCH   9  10
ATOM     10  N   UNL     1       4.295  -0.207   0.637  1.00  0.00    -0.351 N 
ATOM     11  C   UNL     1       4.522  -1.306  -0.135  1.00  0.00     0.239 C 
ATOM     12  O   UNL     1       4.712  -1.104  -1.339  1.00  0.00    -0.273 OA
ATOM     13  H   UNL     1       4.419   0.645   0.160  1.00  0.00     0.163 HD
BRANCH  11  14
ATOM     14  C   UNL     1       4.421  -2.745   0.400  1.00  0.00     0.216 C 
BRANCH  14  15
ATOM     15  N   UNL     1       5.173  -3.040   1.610  1.00  0.00    -0.347 N 
ATOM     16  C   UNL     1       3.314  -3.779   3.079  1.00  0.00     0.114 C 
ATOM     17  C   UNL     1       4.774  -3.593   2.785  1.00  0.00     0.217 C 
ATOM     18  O   UNL     1       5.623  -3.868   3.632  1.00  0.00    -0.275 OA
ATOM     19  H   UNL     1       6.127  -2.800   1.571  1.00  0.00     0.164 HD
ENDBRANCH  14  15
ENDBRANCH  11  14
ENDBRANCH   9  10
BRANCH   9  20
ATOM     20  C   UNL     1       4.642   1.204   2.585  1.00  0.00     0.026 C 
BRANCH  20  21
ATOM     21  C   UNL     1       3.962   2.542   2.257  1.00  0.00     0.002 CG0
ATOM     22  G   UNL     1       2.973   2.999   3.332  1.00  0.00     0.000 G0
ENDBRANCH  20  21
ENDBRANCH   9  20
ENDBRANCH   8   9
BRANCH   8  23
ATOM     23  C   UNL     1       1.992   0.591   3.616  1.00  0.00     0.017 C 
BRANCH  23  24
ATOM     24  C   UNL     1       1.755   2.109   3.592  1.00  0.00     0.001 C 
BRANCH  24  25
ATOM     25  C   UNL     1       2.973   2.999   3.332  1.00  0.00     0.000 CG0
ATOM     26  G   UNL     1       3.962   2.542   2.257  1.00  0.00     0.000 G0
ENDBRANCH  24  25
ENDBRANCH  23  24
ENDBRANCH   8  23
ENDBRANCH   6   8
ENDBRANCH   5   6
ENDBRANCH   4   5
ENDBRANCH   3   4
ENDBRANCH   2   3
ENDBRANCH   1   2
BRANCH   1  27
ATOM     27  C   UNL     1      -1.267   0.133   2.058  1.00  0.00     0.188 C 
BRANCH  27  28
ATOM     28  O   UNL     1      -1.990  -0.259   3.204  1.00  0.00    -0.376 OA
BRANCH  28  29
ATOM     29  C   UNL     1      -2.557   0.785   3.975  1.00  0.00     0.202 C 
BRANCH  29  30
ATOM     30  C   UNL     1      -3.776   1.409   3.280  1.00  0.00     0.261 C 
BRANCH  30  31
ATOM     31  O   UNL     1      -3.508   2.040   2.007  1.00  0.00    -0.460 OA
BRANCH  31  32
ATOM     32  C   UNL     1      -2.645   3.085   1.995  1.00  0.00     0.338 C 
ATOM     33  O   UNL     1      -2.149   3.630   2.968  1.00  0.00    -0.246 OA
BRANCH  32  34
ATOM     34  C   UNL     1      -2.158   3.266   0.600  1.00  0.00     0.060 A 
ATOM     35  C   UNL     1      -0.773   3.324   0.371  1.00  0.00     0.016 A 
ATOM     36  C   UNL     1      -3.042   3.325  -0.476  1.00  0.00     0.016 A 
ATOM     37  C   UNL     1      -0.268   3.480  -0.922  1.00  0.00     0.010 A 
ATOM     38  C   UNL     1      -2.539   3.515  -1.768  1.00  0.00     0.010 A 
ATOM     39  C   UNL     1      -1.153   3.633  -1.993  1.00  0.00    -0.014 A 
BRANCH  39  40
ATOM     40  C   UNL     1      -0.673   4.193  -3.282  1.00  0.00     0.031 A 
ATOM     41  C   UNL     1      -0.876   5.667  -3.511  1.00  0.00     0.074 A 
ATOM     42  C   UNL     1      -0.069   3.447  -4.224  1.00  0.00     0.049 A 
ATOM     43  N   UNL     1      -0.725   6.375  -4.599  1.00  0.00    -0.248 NA
ATOM     44  C   UNL     1      -1.319   6.446  -2.342  1.00  0.00     0.031 C 
ATOM     45  C   UNL     1       0.282   2.035  -4.099  1.00  0.00     0.029 A 
ATOM     46  N   UNL     1       0.341   3.787  -5.491  1.00  0.00    -0.354 N 
ATOM     47  C   UNL     1      -1.087   7.671  -4.255  1.00  0.00     0.074 A 
ATOM     48  C   UNL     1      -1.478   7.651  -2.864  1.00  0.00     0.031 C 
ATOM     49  C   UNL     1       0.833   1.621  -5.255  1.00  0.00     0.029 A 
ATOM     50  C   UNL     1       0.824   2.724  -6.216  1.00  0.00     0.049 A 
ATOM     51  H   UNL     1       0.294   4.704  -5.845  1.00  0.00     0.167 HD
ATOM     52  C   UNL     1      -1.096   8.781  -5.029  1.00  0.00     0.037 A 
ATOM     53  C   UNL     1       1.173   2.646  -7.516  1.00  0.00     0.037 A 
ATOM     54  C   UNL     1      -0.695   8.802  -6.410  1.00  0.00     0.049 A 
ATOM     55  C   UNL     1       1.062   3.872  -8.390  1.00  0.00     0.074 A 
ATOM     56  C   UNL     1      -0.671   9.873  -7.284  1.00  0.00     0.029 A 
ATOM     57  N   UNL     1      -0.249   7.696  -7.117  1.00  0.00    -0.354 N 
ATOM     58  N   UNL     1       0.690   5.088  -8.071  1.00  0.00    -0.248 NA
ATOM     59  C   UNL     1       1.413   3.709  -9.810  1.00  0.00     0.031 C 
ATOM     60  C   UNL     1      -0.259   9.404  -8.536  1.00  0.00     0.029 A 
ATOM     61  C   UNL     1       0.031   8.054  -8.424  1.00  0.00     0.049 A 
ATOM     62  H   UNL     1      -0.147   6.790  -6.744  1.00  0.00     0.167 HD
ATOM     63  C   UNL     1       0.796   5.840  -9.237  1.00  0.00     0.074 A 
ATOM     64  C   UNL     1       1.275   4.945 -10.268  1.00  0.00     0.031 C 
ATOM     65  C   UNL     1       0.524   7.154  -9.436  1.00  0.00     0.037 A 
BRANCH  52  66
ATOM     66  C   UNL     1      -1.600  10.050  -4.408  1.00  0.00     0.057 A 
ATOM     67  C   UNL     1      -0.877  10.740  -3.426  1.00  0.00     0.134 A 
ATOM     68  C   UNL     1      -2.828  10.593  -4.806  1.00  0.00     0.134 A 
ATOM     69  F   UNL     1       0.295  10.261  -2.982  1.00  0.00    -0.206 F 
ATOM     70  C   UNL     1      -1.370  11.910  -2.845  1.00  0.00     0.040 A 
ATOM     71  C   UNL     1      -3.317  11.778  -4.255  1.00  0.00     0.040 A 
ATOM     72  F   UNL     1      -3.572   9.982  -5.741  1.00  0.00    -0.206 F 
ATOM     73  C   UNL     1      -2.591  12.435  -3.265  1.00  0.00     0.006 A 
ENDBRANCH  52  66
BRANCH  53  74
ATOM     74  C   UNL     1       1.621   1.352  -8.097  1.00  0.00     0.057 A 
ATOM     75  C   UNL     1       2.931   1.176  -8.558  1.00  0.00     0.134 A 
ATOM     76  C   UNL     1       0.738   0.275  -8.248  1.00  0.00     0.134 A 
ATOM     77  F   UNL     1       3.816   2.181  -8.475  1.00  0.00    -0.206 F 
ATOM     78  C   UNL     1       3.343  -0.014  -9.163  1.00  0.00     0.040 A 
ATOM     79  C   UNL     1       1.143  -0.931  -8.825  1.00  0.00     0.040 A 
ATOM     80  F   UNL     1      -0.535   0.379  -7.838  1.00  0.00    -0.206 F 
ATOM     81  C   UNL     1       2.448  -1.074  -9.292  1.00  0.00     0.006 A 
ENDBRANCH  53  74
BRANCH  65  82
ATOM     82  C   UNL     1       0.788   7.721 -10.802  1.00  0.00     0.057 A 
ATOM     83  C   UNL     1      -0.016   7.413 -11.905  1.00  0.00     0.134 A 
ATOM     84  C   UNL     1       1.835   8.633 -11.000  1.00  0.00     0.134 A 
ATOM     85  F   UNL     1      -1.029   6.541 -11.787  1.00  0.00    -0.206 F 
ATOM     86  C   UNL     1       0.224   7.973 -13.162  1.00  0.00     0.040 A 
ATOM     87  C   UNL     1       2.066   9.221 -12.244  1.00  0.00     0.040 A 
ATOM     88  F   UNL     1       2.636   8.983  -9.982  1.00  0.00    -0.206 F 
ATOM     89  C   UNL     1       1.263   8.886 -13.331  1.00  0.00     0.006 A 
ENDBRANCH  65  82
ENDBRANCH  39  40
ENDBRANCH  32  34
ENDBRANCH  31  32
ENDBRANCH  30  31
ENDBRANCH  29  30
ENDBRANCH  28  29
ENDBRANCH  27  28
ENDBRANCH   1  27
TORSDOF 20
