REMARK SMILES O=C(CCC(=O)N1CCC(c2nnc3ccccn23)CC1)OCCOCCOCCOC(=O)c1ccc(-c2c3nc(c(-c4c(F)cccc4F)c4ccc([nH]4)c(-c4c(F)cccc4F)c4nc(c(-c5c(F)cccc5F)c5ccc2[nH]5)C=C4)C=C3)cc1
REMARK SMILES IDX 26 1 25 2 24 3 23 4 22 5 2 6 1 7 3 8 4 9 5 10 6 11 7 12 8 13
REMARK SMILES IDX 21 14 9 15 20 16 10 17 11 18 12 19 19 20 13 21 14 22 18 23
REMARK SMILES IDX 15 24 17 25 16 26 27 27 28 28 29 29 30 30 31 31 32 32 33 33
REMARK SMILES IDX 34 34 35 35 87 36 36 37 86 38 37 39 38 40 39 41 80 42 40 43
REMARK SMILES IDX 85 44 79 45 81 46 41 47 84 48 78 49 77 50 42 52 68 53 51 54
REMARK SMILES IDX 67 55 52 56 55 57 66 58 82 59 53 60 54 61 65 63 83 64 56 65
REMARK SMILES IDX 43 66 44 67 49 68 45 69 46 70 48 71 50 72 47 73 69 74 70 75
REMARK SMILES IDX 75 76 71 77 72 78 74 79 76 80 73 81 57 82 58 83 63 84 59 85
REMARK SMILES IDX 60 86 62 87 64 88 61 89
REMARK H PARENT 81 51 55 62
REMARK Flexibility Score: inf
ROOT
ATOM      1  C   UNL     1       3.293   2.664   0.043  1.00  0.00     0.188 C 
ENDROOT
BRANCH   1   2
ATOM      2  O   UNL     1       4.689   2.628   0.321  1.00  0.00    -0.376 OA
BRANCH   2   3
ATOM      3  C   UNL     1       5.505   1.666  -0.329  1.00  0.00     0.202 C 
BRANCH   3   4
ATOM      4  C   UNL     1       5.136   0.200  -0.125  1.00  0.00     0.261 C 
BRANCH   4   5
ATOM      5  O   UNL     1       3.732  -0.054  -0.325  1.00  0.00    -0.463 OA
BRANCH   5   6
ATOM      6  C   UNL     1       2.831  -0.356   0.630  1.00  0.00     0.306 C 
ATOM      7  O   UNL     1       1.625  -0.306   0.391  1.00  0.00    -0.252 OA
BRANCH   6   8
ATOM      8  C   UNL     1       3.322  -0.865   1.942  1.00  0.00     0.132 C 
BRANCH   8   9
ATOM      9  C   UNL     1       3.453  -2.373   1.854  1.00  0.00     0.112 C 
BRANCH   9  10
ATOM     10  C   UNL     1       4.609  -2.807   0.976  1.00  0.00     0.223 C 
ATOM     11  O   UNL     1       5.747  -2.773   1.453  1.00  0.00    -0.275 OA
ATOM     12  N   UNL     1       4.375  -3.227  -0.326  1.00  0.00    -0.343 N 
ATOM     13  C   UNL     1       5.452  -3.919  -1.019  1.00  0.00     0.120 C 
ATOM     14  C   UNL     1       3.143  -3.078  -1.117  1.00  0.00     0.120 C 
ATOM     15  C   UNL     1       5.794  -3.236  -2.329  1.00  0.00     0.033 C 
ATOM     16  C   UNL     1       3.418  -2.402  -2.474  1.00  0.00     0.033 C 
ATOM     17  C   UNL     1       4.553  -3.111  -3.227  1.00  0.00     0.062 C 
BRANCH  17  18
ATOM     18  C   UNL     1       4.952  -2.427  -4.501  1.00  0.00     0.140 A 
ATOM     19  N   UNL     1       4.915  -1.135  -4.768  1.00  0.00    -0.134 NA
ATOM     20  N   UNL     1       5.589  -3.081  -5.537  1.00  0.00    -0.286 N 
ATOM     21  N   UNL     1       5.564  -0.919  -5.965  1.00  0.00    -0.130 NA
ATOM     22  C   UNL     1       5.990  -2.081  -6.408  1.00  0.00     0.160 A 
ATOM     23  C   UNL     1       5.874  -4.432  -5.738  1.00  0.00     0.095 A 
ATOM     24  C   UNL     1       6.760  -2.467  -7.540  1.00  0.00     0.050 A 
ATOM     25  C   UNL     1       6.588  -4.798  -6.815  1.00  0.00     0.019 A 
ATOM     26  C   UNL     1       7.052  -3.769  -7.735  1.00  0.00     0.005 A 
ENDBRANCH  17  18
ENDBRANCH   9  10
ENDBRANCH   8   9
ENDBRANCH   6   8
ENDBRANCH   5   6
ENDBRANCH   4   5
ENDBRANCH   3   4
ENDBRANCH   2   3
ENDBRANCH   1   2
BRANCH   1  27
ATOM     27  C   UNL     1       2.722   2.425  -1.377  1.00  0.00     0.188 C 
BRANCH  27  28
ATOM     28  O   UNL     1       3.684   2.165  -2.386  1.00  0.00    -0.376 OA
BRANCH  28  29
ATOM     29  C   UNL     1       3.811   3.176  -3.381  1.00  0.00     0.202 C 
BRANCH  29  30
ATOM     30  C   UNL     1       4.630   4.390  -2.920  1.00  0.00     0.261 C 
BRANCH  30  31
ATOM     31  O   UNL     1       4.115   5.046  -1.746  1.00  0.00    -0.460 OA
BRANCH  31  32
ATOM     32  C   UNL     1       2.921   5.669  -1.861  1.00  0.00     0.338 C 
ATOM     33  O   UNL     1       2.269   5.817  -2.880  1.00  0.00    -0.246 OA
BRANCH  32  34
ATOM     34  C   UNL     1       2.413   5.945  -0.495  1.00  0.00     0.060 A 
ATOM     35  C   UNL     1       1.092   5.581  -0.193  1.00  0.00     0.016 A 
ATOM     36  C   UNL     1       3.245   6.451   0.511  1.00  0.00     0.016 A 
ATOM     37  C   UNL     1       0.594   5.756   1.100  1.00  0.00     0.010 A 
ATOM     38  C   UNL     1       2.740   6.644   1.803  1.00  0.00     0.010 A 
ATOM     39  C   UNL     1       1.400   6.333   2.094  1.00  0.00    -0.014 A 
BRANCH  39  40
ATOM     40  C   UNL     1       0.753   6.862   3.321  1.00  0.00     0.031 A 
ATOM     41  C   UNL     1       0.272   8.289   3.285  1.00  0.00     0.074 A 
ATOM     42  C   UNL     1       0.536   6.111   4.416  1.00  0.00     0.049 A 
ATOM     43  N   UNL     1      -0.394   8.970   4.182  1.00  0.00    -0.248 NA
ATOM     44  C   UNL     1       0.584   9.049   2.062  1.00  0.00     0.031 C 
ATOM     45  C   UNL     1       0.937   4.717   4.589  1.00  0.00     0.029 A 
ATOM     46  N   UNL     1      -0.088   6.431   5.599  1.00  0.00    -0.354 N 
ATOM     47  C   UNL     1      -0.605  10.221   3.619  1.00  0.00     0.074 A 
ATOM     48  C   UNL     1       0.052  10.229   2.332  1.00  0.00     0.031 C 
ATOM     49  C   UNL     1       0.556   4.303   5.813  1.00  0.00     0.029 A 
ATOM     50  C   UNL     1      -0.112   5.403   6.510  1.00  0.00     0.049 A 
ATOM     51  H   UNL     1      -0.482   7.315   5.776  1.00  0.00     0.167 HD
ATOM     52  C   UNL     1      -1.305  11.269   4.113  1.00  0.00     0.037 A 
ATOM     53  C   UNL     1      -0.614   5.360   7.761  1.00  0.00     0.037 A 
ATOM     54  C   UNL     1      -1.933  11.289   5.404  1.00  0.00     0.049 A 
ATOM     55  C   UNL     1      -1.327   6.567   8.323  1.00  0.00     0.074 A 
ATOM     56  C   UNL     1      -2.647  12.313   6.000  1.00  0.00     0.029 A 
ATOM     57  N   UNL     1      -1.909  10.237   6.306  1.00  0.00    -0.354 N 
ATOM     58  N   UNL     1      -1.563   7.729   7.761  1.00  0.00    -0.248 NA
ATOM     59  C   UNL     1      -1.859   6.448   9.690  1.00  0.00     0.031 C 
ATOM     60  C   UNL     1      -3.023  11.894   7.281  1.00  0.00     0.029 A 
ATOM     61  C   UNL     1      -2.584  10.592   7.461  1.00  0.00     0.049 A 
ATOM     62  H   UNL     1      -1.477   9.367   6.148  1.00  0.00     0.167 HD
ATOM     63  C   UNL     1      -2.292   8.463   8.692  1.00  0.00     0.074 A 
ATOM     64  C   UNL     1      -2.476   7.610   9.846  1.00  0.00     0.031 C 
ATOM     65  C   UNL     1      -2.765   9.731   8.601  1.00  0.00     0.037 A 
BRANCH  52  66
ATOM     66  C   UNL     1      -1.413  12.483   3.240  1.00  0.00     0.057 A 
ATOM     67  C   UNL     1      -2.212  12.486   2.088  1.00  0.00     0.134 A 
ATOM     68  C   UNL     1      -0.720  13.657   3.553  1.00  0.00     0.134 A 
ATOM     69  F   UNL     1      -2.883  11.383   1.722  1.00  0.00    -0.206 F 
ATOM     70  C   UNL     1      -2.300  13.610   1.266  1.00  0.00     0.040 A 
ATOM     71  C   UNL     1      -0.820  14.795   2.752  1.00  0.00     0.040 A 
ATOM     72  F   UNL     1       0.065  13.717   4.639  1.00  0.00    -0.206 F 
ATOM     73  C   UNL     1      -1.608  14.772   1.602  1.00  0.00     0.006 A 
ENDBRANCH  52  66
BRANCH  53  74
ATOM     74  C   UNL     1      -0.467   4.135   8.591  1.00  0.00     0.057 A 
ATOM     75  C   UNL     1      -1.573   3.355   8.950  1.00  0.00     0.134 A 
ATOM     76  C   UNL     1       0.781   3.752   9.100  1.00  0.00     0.134 A 
ATOM     77  F   UNL     1      -2.800   3.687   8.522  1.00  0.00    -0.206 F 
ATOM     78  C   UNL     1      -1.450   2.256   9.804  1.00  0.00     0.040 A 
ATOM     79  C   UNL     1       0.922   2.641   9.934  1.00  0.00     0.040 A 
ATOM     80  F   UNL     1       1.880   4.459   8.801  1.00  0.00    -0.206 F 
ATOM     81  C   UNL     1      -0.197   1.895  10.296  1.00  0.00     0.006 A 
ENDBRANCH  53  74
BRANCH  65  82
ATOM     82  C   UNL     1      -3.555  10.261   9.764  1.00  0.00     0.057 A 
ATOM     83  C   UNL     1      -2.951  10.580  10.987  1.00  0.00     0.134 A 
ATOM     84  C   UNL     1      -4.933  10.485   9.647  1.00  0.00     0.134 A 
ATOM     85  F   UNL     1      -1.636  10.383  11.168  1.00  0.00    -0.206 F 
ATOM     86  C   UNL     1      -3.694  11.073  12.061  1.00  0.00     0.040 A 
ATOM     87  C   UNL     1      -5.682  11.003  10.705  1.00  0.00     0.040 A 
ATOM     88  F   UNL     1      -5.573  10.214   8.500  1.00  0.00    -0.206 F 
ATOM     89  C   UNL     1      -5.063  11.291  11.920  1.00  0.00     0.006 A 
ENDBRANCH  65  82
ENDBRANCH  39  40
ENDBRANCH  32  34
ENDBRANCH  31  32
ENDBRANCH  30  31
ENDBRANCH  29  30
ENDBRANCH  28  29
ENDBRANCH  27  28
ENDBRANCH   1  27
TORSDOF 20
