REMARK SMILES Cc1c(C(=O)OCCOCCOCCOC(=O)c2ccc(-c3c4nc(c(-c5c(F)cccc5F)c5ccc([nH]5)c(-c5c(F)cccc5F)c5nc(c(-c6c(F)cccc6F)c6ccc3[nH]6)C=C5)C=C4)cc2)cccc1-n1c(C)cc(/C=C2/C(=O)NC(=S)N=C2O)c1C
REMARK SMILES IDX 10 1 9 2 8 3 7 4 6 5 4 6 5 7 3 8 1 9 2 10 75 11 72 12 74 13
REMARK SMILES IDX 73 14 76 15 77 16 91 17 78 18 79 19 80 20 92 21 81 22 82 23
REMARK SMILES IDX 83 24 89 25 84 26 85 27 88 28 86 29 87 31 90 32 11 34 12 35
REMARK SMILES IDX 13 36 14 37 15 38 16 39 17 40 18 41 19 42 71 43 20 44 70 45
REMARK SMILES IDX 21 46 22 47 23 48 64 49 24 50 69 51 63 52 65 53 25 54 68 55
REMARK SMILES IDX 62 56 61 57 26 59 52 60 35 61 51 62 36 63 39 64 50 65 66 66
REMARK SMILES IDX 37 67 38 68 49 70 67 71 40 72 27 73 28 74 33 75 29 76 30 77
REMARK SMILES IDX 32 78 34 79 31 80 53 81 54 82 59 83 55 84 56 85 58 86 60 87
REMARK SMILES IDX 57 88 41 89 42 90 47 91 43 92 44 93 46 94 48 95 45 96
REMARK H PARENT 85 30 90 33 65 58 39 69
REMARK Flexibility Score: inf
ROOT
ATOM      1  C   UNL     1       2.792  -5.769   2.274  1.00  0.00     0.188 C 
ENDROOT
BRANCH   1   2
ATOM      2  O   UNL     1       3.634  -4.974   1.407  1.00  0.00    -0.376 OA
BRANCH   2   3
ATOM      3  C   UNL     1       4.520  -3.953   1.866  1.00  0.00     0.202 C 
BRANCH   3   4
ATOM      4  C   UNL     1       4.543  -2.404   1.273  1.00  0.00     0.261 C 
BRANCH   4   5
ATOM      5  O   UNL     1       3.322  -1.262   1.112  1.00  0.00    -0.460 OA
BRANCH   5   6
ATOM      6  C   UNL     1       2.312  -0.873   0.203  1.00  0.00     0.338 C 
ATOM      7  O   UNL     1       2.167  -1.105  -0.993  1.00  0.00    -0.246 OA
BRANCH   6   8
ATOM      8  C   UNL     1       1.187   0.017   0.513  1.00  0.00     0.065 A 
ATOM      9  C   UNL     1       2.964   1.743   0.666  1.00  0.00     0.047 C 
ATOM     10  C   UNL     1       1.525   1.353   0.452  1.00  0.00    -0.012 A 
ATOM     11  C   UNL     1       0.513   2.235   0.031  1.00  0.00     0.049 A 
ATOM     12  C   UNL     1      -0.136  -0.387   0.132  1.00  0.00     0.016 A 
ATOM     13  C   UNL     1      -0.801   1.864  -0.286  1.00  0.00     0.027 A 
ATOM     14  C   UNL     1      -1.130   0.526  -0.236  1.00  0.00     0.003 A 
BRANCH  11  15
ATOM     15  N   UNL     1       0.805   3.594   0.051  1.00  0.00    -0.318 N 
ATOM     16  C   UNL     1       1.446   4.285  -0.956  1.00  0.00     0.020 A 
ATOM     17  C   UNL     1       0.874   4.287   1.243  1.00  0.00     0.027 A 
ATOM     18  C   UNL     1       1.731   3.690  -2.297  1.00  0.00     0.065 C 
ATOM     19  C   UNL     1       1.787   5.514  -0.429  1.00  0.00     0.031 A 
ATOM     20  C   UNL     1       1.403   5.526   0.940  1.00  0.00    -0.003 A 
ATOM     21  C   UNL     1       0.465   3.624   2.529  1.00  0.00     0.065 C 
BRANCH  20  22
ATOM     22  C   UNL     1       1.712   6.553   1.872  1.00  0.00     0.029 C 
ATOM     23  C   UNL     1       1.008   6.973   2.938  1.00  0.00     0.102 C 
ATOM     24  C   UNL     1       1.732   7.845   3.887  1.00  0.00     0.262 C 
ATOM     25  C   UNL     1      -0.323   6.567   3.394  1.00  0.00     0.226 C 
ATOM     26  O   UNL     1       2.763   8.453   3.621  1.00  0.00    -0.269 OA
ATOM     27  N   UNL     1       1.183   7.860   5.141  1.00  0.00    -0.297 N 
ATOM     28  N   UNL     1      -0.785   6.668   4.586  1.00  0.00    -0.184 NA
ATOM     29  C   UNL     1       0.019   7.243   5.534  1.00  0.00     0.203 C 
ATOM     30  H   UNL     1       1.671   8.364   5.831  1.00  0.00     0.172 HD
ATOM     31  S   UNL     1      -0.369   7.284   7.163  1.00  0.00    -0.038 S 
BRANCH  25  32
ATOM     32  O   UNL     1      -1.157   6.092   2.464  1.00  0.00    -0.493 OA
ATOM     33  H   UNL     1      -0.866   6.000   1.578  1.00  0.00     0.295 HD
ENDBRANCH  25  32
ENDBRANCH  20  22
ENDBRANCH  11  15
ENDBRANCH   6   8
ENDBRANCH   5   6
ENDBRANCH   4   5
ENDBRANCH   3   4
ENDBRANCH   2   3
ENDBRANCH   1   2
BRANCH   1  34
ATOM     34  C   UNL     1       2.834  -5.659   3.804  1.00  0.00     0.188 C 
BRANCH  34  35
ATOM     35  O   UNL     1       2.894  -4.299   4.194  1.00  0.00    -0.376 OA
BRANCH  35  36
ATOM     36  C   UNL     1       2.939  -4.049   5.588  1.00  0.00     0.202 C 
BRANCH  36  37
ATOM     37  C   UNL     1       1.532  -3.970   6.204  1.00  0.00     0.261 C 
BRANCH  37  38
ATOM     38  O   UNL     1       0.694  -3.061   5.443  1.00  0.00    -0.460 OA
BRANCH  38  39
ATOM     39  C   UNL     1      -0.293  -3.608   4.665  1.00  0.00     0.338 C 
ATOM     40  O   UNL     1      -1.081  -4.468   5.038  1.00  0.00    -0.246 OA
BRANCH  39  41
ATOM     41  C   UNL     1      -0.108  -3.205   3.224  1.00  0.00     0.060 A 
ATOM     42  C   UNL     1      -0.685  -3.831   2.114  1.00  0.00     0.016 A 
ATOM     43  C   UNL     1       0.997  -2.479   2.957  1.00  0.00     0.016 A 
ATOM     44  C   UNL     1      -0.022  -3.863   0.806  1.00  0.00     0.010 A 
ATOM     45  C   UNL     1       1.698  -2.877   1.815  1.00  0.00     0.010 A 
ATOM     46  C   UNL     1       1.302  -3.448   0.595  1.00  0.00    -0.014 A 
BRANCH  46  47
ATOM     47  C   UNL     1       2.279  -3.815  -0.705  1.00  0.00     0.031 A 
ATOM     48  C   UNL     1       3.311  -2.959  -1.745  1.00  0.00     0.074 A 
ATOM     49  C   UNL     1       2.129  -5.078  -1.172  1.00  0.00     0.049 A 
ATOM     50  N   UNL     1       3.289  -3.074  -3.068  1.00  0.00    -0.248 NA
ATOM     51  C   UNL     1       4.342  -1.903  -1.450  1.00  0.00     0.031 C 
ATOM     52  C   UNL     1       2.815  -5.712  -2.293  1.00  0.00     0.029 A 
ATOM     53  N   UNL     1       1.114  -5.986  -0.848  1.00  0.00    -0.354 N 
ATOM     54  C   UNL     1       4.208  -2.180  -3.638  1.00  0.00     0.074 A 
ATOM     55  C   UNL     1       4.802  -1.446  -2.597  1.00  0.00     0.031 C 
ATOM     56  C   UNL     1       1.997  -6.642  -2.809  1.00  0.00     0.029 A 
ATOM     57  C   UNL     1       0.758  -6.612  -2.052  1.00  0.00     0.049 A 
ATOM     58  H   UNL     1       0.728  -6.152   0.042  1.00  0.00     0.167 HD
ATOM     59  C   UNL     1       4.527  -2.028  -4.947  1.00  0.00     0.037 A 
ATOM     60  C   UNL     1      -0.511  -6.544  -2.536  1.00  0.00     0.037 A 
ATOM     61  C   UNL     1       3.944  -3.042  -5.752  1.00  0.00     0.049 A 
ATOM     62  C   UNL     1      -0.607  -5.981  -3.936  1.00  0.00     0.074 A 
ATOM     63  C   UNL     1       4.333  -4.332  -6.049  1.00  0.00     0.029 A 
ATOM     64  N   UNL     1       2.602  -2.943  -6.014  1.00  0.00    -0.354 N 
ATOM     65  N   UNL     1       0.396  -5.501  -4.620  1.00  0.00    -0.248 NA
ATOM     66  C   UNL     1      -1.885  -5.825  -4.638  1.00  0.00     0.031 C 
ATOM     67  C   UNL     1       3.162  -5.047  -6.415  1.00  0.00     0.029 A 
ATOM     68  C   UNL     1       2.099  -4.162  -6.401  1.00  0.00     0.049 A 
ATOM     69  H   UNL     1       2.074  -2.116  -5.936  1.00  0.00     0.167 HD
ATOM     70  C   UNL     1      -0.087  -4.926  -5.766  1.00  0.00     0.074 A 
ATOM     71  C   UNL     1      -1.516  -5.154  -5.739  1.00  0.00     0.031 C 
ATOM     72  C   UNL     1       0.685  -4.255  -6.658  1.00  0.00     0.037 A 
BRANCH  59  73
ATOM     73  C   UNL     1       5.593  -1.042  -5.345  1.00  0.00     0.057 A 
ATOM     74  C   UNL     1       6.829  -1.482  -5.831  1.00  0.00     0.134 A 
ATOM     75  C   UNL     1       5.494   0.338  -5.065  1.00  0.00     0.134 A 
ATOM     76  F   UNL     1       7.025  -2.772  -6.133  1.00  0.00    -0.206 F 
ATOM     77  C   UNL     1       7.930  -0.620  -5.952  1.00  0.00     0.040 A 
ATOM     78  C   UNL     1       6.596   1.203  -5.153  1.00  0.00     0.040 A 
ATOM     79  F   UNL     1       4.349   0.859  -4.593  1.00  0.00    -0.206 F 
ATOM     80  C   UNL     1       7.826   0.719  -5.583  1.00  0.00     0.006 A 
ENDBRANCH  59  73
BRANCH  60  81
ATOM     81  C   UNL     1      -1.582  -6.463  -1.496  1.00  0.00     0.057 A 
ATOM     82  C   UNL     1      -1.596  -7.412  -0.452  1.00  0.00     0.134 A 
ATOM     83  C   UNL     1      -2.441  -5.367  -1.349  1.00  0.00     0.134 A 
ATOM     84  F   UNL     1      -0.799  -8.492  -0.507  1.00  0.00    -0.206 F 
ATOM     85  C   UNL     1      -2.348  -7.236   0.713  1.00  0.00     0.040 A 
ATOM     86  C   UNL     1      -3.219  -5.191  -0.195  1.00  0.00     0.040 A 
ATOM     87  F   UNL     1      -2.453  -4.377  -2.251  1.00  0.00    -0.206 F 
ATOM     88  C   UNL     1      -3.158  -6.115   0.847  1.00  0.00     0.006 A 
ENDBRANCH  60  81
BRANCH  72  89
ATOM     89  C   UNL     1       0.147  -3.638  -7.901  1.00  0.00     0.057 A 
ATOM     90  C   UNL     1      -0.498  -4.416  -8.865  1.00  0.00     0.134 A 
ATOM     91  C   UNL     1       0.430  -2.304  -8.244  1.00  0.00     0.134 A 
ATOM     92  F   UNL     1      -0.789  -5.703  -8.623  1.00  0.00    -0.206 F 
ATOM     93  C   UNL     1      -0.835  -3.898 -10.117  1.00  0.00     0.040 A 
ATOM     94  C   UNL     1       0.134  -1.787  -9.505  1.00  0.00     0.040 A 
ATOM     95  F   UNL     1       1.006  -1.467  -7.367  1.00  0.00    -0.206 F 
ATOM     96  C   UNL     1      -0.499  -2.587 -10.447  1.00  0.00     0.006 A 
ENDBRANCH  72  89
ENDBRANCH  46  47
ENDBRANCH  39  41
ENDBRANCH  38  39
ENDBRANCH  37  38
ENDBRANCH  36  37
ENDBRANCH  35  36
ENDBRANCH  34  35
ENDBRANCH   1  34
TORSDOF 20
