REMARK SMILES COc1ccc(/C=C/C(=O)OCCOCCOCCOC(=O)c2ccc(-c3c4nc(c(-c5c(F)cccc5F)c5ccc([nH]5)c(-c5c(F)cccc5F)c5nc(c(-c6c(F)cccc6F)c6ccc3[nH]6)C=C5)C=C4)cc2)cc1S(=O)(=O)Nc1ccc(F)cc1F
REMARK SMILES IDX 15 1 14 2 13 3 12 4 11 5 9 6 10 7 8 8 7 9 6 10 3 11 4 12
REMARK SMILES IDX 78 13 5 14 77 15 2 16 1 17 79 18 80 19 81 20 82 21 83 23
REMARK SMILES IDX 84 24 89 25 85 26 88 27 90 28 86 29 87 30 16 31 17 32 18 33
REMARK SMILES IDX 19 34 20 35 21 36 22 37 23 38 24 39 76 40 25 41 75 42 26 43
REMARK SMILES IDX 27 44 28 45 69 46 29 47 74 48 68 49 70 50 30 51 73 52 67 53
REMARK SMILES IDX 66 54 31 56 57 57 40 58 56 59 41 60 44 61 55 62 71 63 42 64
REMARK SMILES IDX 43 65 54 67 72 68 45 69 32 70 33 71 38 72 34 73 35 74 37 75
REMARK SMILES IDX 39 76 36 77 58 78 59 79 64 80 60 81 61 82 63 83 65 84 62 85
REMARK SMILES IDX 46 86 47 87 52 88 48 89 49 90 51 91 53 92 50 93
REMARK H PARENT 82 22 70 55 44 66
REMARK Flexibility Score: inf
ROOT
ATOM      1  C   UNL     1       0.462 -10.270  -0.373  1.00  0.00     0.188 C 
ENDROOT
BRANCH   1   2
ATOM      2  O   UNL     1       0.722 -11.457  -1.104  1.00  0.00    -0.376 OA
BRANCH   2   3
ATOM      3  C   UNL     1       1.733 -11.480  -2.104  1.00  0.00     0.202 C 
BRANCH   3   4
ATOM      4  C   UNL     1       2.051 -10.280  -3.022  1.00  0.00     0.261 C 
BRANCH   4   5
ATOM      5  O   UNL     1       1.986  -8.971  -2.438  1.00  0.00    -0.460 OA
BRANCH   5   6
ATOM      6  C   UNL     1       0.967  -8.201  -2.876  1.00  0.00     0.330 C 
ATOM      7  O   UNL     1       0.133  -8.511  -3.716  1.00  0.00    -0.247 OA
BRANCH   6   8
ATOM      8  C   UNL     1       0.838  -6.930  -2.138  1.00  0.00     0.094 C 
ATOM      9  C   UNL     1       1.709  -6.322  -1.312  1.00  0.00     0.015 C 
BRANCH   9  10
ATOM     10  C   UNL     1       1.350  -5.022  -0.716  1.00  0.00    -0.024 A 
ATOM     11  C   UNL     1       0.541  -2.392  -0.260  1.00  0.00     0.139 A 
ATOM     12  C   UNL     1      -0.382  -3.432  -0.159  1.00  0.00     0.048 A 
ATOM     13  C   UNL     1       1.899  -2.683  -0.276  1.00  0.00     0.130 A 
ATOM     14  C   UNL     1       0.027  -4.745  -0.353  1.00  0.00     0.012 A 
ATOM     15  C   UNL     1       2.301  -4.006  -0.561  1.00  0.00     0.034 A 
BRANCH  11  16
ATOM     16  O   UNL     1      -0.013  -1.152  -0.352  1.00  0.00    -0.495 OA
ATOM     17  C   UNL     1       0.157  -0.605  -1.661  1.00  0.00     0.278 C 
ENDBRANCH  11  16
BRANCH  13  18
ATOM     18  S   UNL     1       3.211  -1.557   0.138  1.00  0.00     0.265 S 
ATOM     19  O   UNL     1       3.919  -2.127   1.265  1.00  0.00    -0.201 OA
ATOM     20  O   UNL     1       3.913  -1.327  -1.112  1.00  0.00    -0.201 OA
BRANCH  18  21
ATOM     21  N   UNL     1       2.693  -0.027   0.574  1.00  0.00    -0.277 N 
ATOM     22  H   UNL     1       3.235   0.730   0.255  1.00  0.00     0.180 HD
BRANCH  21  23
ATOM     23  C   UNL     1       1.548   0.294   1.358  1.00  0.00     0.085 A 
ATOM     24  C   UNL     1       0.893   1.487   1.005  1.00  0.00     0.033 A 
ATOM     25  C   UNL     1       0.969  -0.534   2.327  1.00  0.00     0.150 A 
ATOM     26  C   UNL     1      -0.392   1.750   1.478  1.00  0.00     0.041 A 
ATOM     27  C   UNL     1      -0.315  -0.272   2.805  1.00  0.00     0.080 A 
ATOM     28  F   UNL     1       1.574  -1.662   2.721  1.00  0.00    -0.205 F 
ATOM     29  C   UNL     1      -0.996   0.849   2.347  1.00  0.00     0.126 A 
ATOM     30  F   UNL     1      -2.264   1.055   2.723  1.00  0.00    -0.207 F 
ENDBRANCH  21  23
ENDBRANCH  18  21
ENDBRANCH  13  18
ENDBRANCH   9  10
ENDBRANCH   6   8
ENDBRANCH   5   6
ENDBRANCH   4   5
ENDBRANCH   3   4
ENDBRANCH   2   3
ENDBRANCH   1   2
BRANCH   1  31
ATOM     31  C   UNL     1       1.620  -9.582   0.371  1.00  0.00     0.188 C 
BRANCH  31  32
ATOM     32  O   UNL     1       2.887 -10.076   0.001  1.00  0.00    -0.376 OA
BRANCH  32  33
ATOM     33  C   UNL     1       3.545 -10.965   0.888  1.00  0.00     0.202 C 
BRANCH  33  34
ATOM     34  C   UNL     1       2.805 -12.064   1.683  1.00  0.00     0.261 C 
BRANCH  34  35
ATOM     35  O   UNL     1       1.421 -11.864   2.004  1.00  0.00    -0.460 OA
BRANCH  35  36
ATOM     36  C   UNL     1       1.130 -11.210   3.148  1.00  0.00     0.338 C 
ATOM     37  O   UNL     1       1.920 -10.709   3.937  1.00  0.00    -0.246 OA
BRANCH  36  38
ATOM     38  C   UNL     1      -0.336 -11.041   3.215  1.00  0.00     0.060 A 
ATOM     39  C   UNL     1      -0.887  -9.759   3.077  1.00  0.00     0.016 A 
ATOM     40  C   UNL     1      -1.163 -12.147   3.419  1.00  0.00     0.016 A 
ATOM     41  C   UNL     1      -2.270  -9.580   3.158  1.00  0.00     0.010 A 
ATOM     42  C   UNL     1      -2.546 -11.962   3.521  1.00  0.00     0.010 A 
ATOM     43  C   UNL     1      -3.105 -10.675   3.417  1.00  0.00    -0.014 A 
BRANCH  43  44
ATOM     44  C   UNL     1      -4.538 -10.461   3.741  1.00  0.00     0.031 A 
ATOM     45  C   UNL     1      -4.961 -10.477   5.184  1.00  0.00     0.074 A 
ATOM     46  C   UNL     1      -5.452 -10.250   2.777  1.00  0.00     0.049 A 
ATOM     47  N   UNL     1      -6.158 -10.379   5.703  1.00  0.00    -0.248 NA
ATOM     48  C   UNL     1      -3.885 -10.629   6.176  1.00  0.00     0.031 C 
ATOM     49  C   UNL     1      -5.170 -10.174   1.345  1.00  0.00     0.029 A 
ATOM     50  N   UNL     1      -6.812 -10.076   2.863  1.00  0.00    -0.354 N 
ATOM     51  C   UNL     1      -5.981 -10.466   7.079  1.00  0.00     0.074 A 
ATOM     52  C   UNL     1      -4.566 -10.658   7.312  1.00  0.00     0.031 C 
ATOM     53  C   UNL     1      -6.325  -9.981   0.684  1.00  0.00     0.029 A 
ATOM     54  C   UNL     1      -7.430  -9.957   1.642  1.00  0.00     0.049 A 
ATOM     55  H   UNL     1      -7.297 -10.039   3.719  1.00  0.00     0.167 HD
ATOM     56  C   UNL     1      -6.911 -10.387   8.060  1.00  0.00     0.037 A 
ATOM     57  C   UNL     1      -8.739  -9.867   1.334  1.00  0.00     0.037 A 
ATOM     58  C   UNL     1      -8.320 -10.203   7.827  1.00  0.00     0.049 A 
ATOM     59  C   UNL     1      -9.765  -9.864   2.439  1.00  0.00     0.074 A 
ATOM     60  C   UNL     1      -9.339 -10.091   8.757  1.00  0.00     0.029 A 
ATOM     61  N   UNL     1      -8.910 -10.118   6.575  1.00  0.00    -0.354 N 
ATOM     62  N   UNL     1      -9.586  -9.917   3.737  1.00  0.00    -0.248 NA
ATOM     63  C   UNL     1     -11.177  -9.786   2.034  1.00  0.00     0.031 C 
ATOM     64  C   UNL     1     -10.552  -9.999   8.068  1.00  0.00     0.029 A 
ATOM     65  C   UNL     1     -10.283  -9.986   6.709  1.00  0.00     0.049 A 
ATOM     66  H   UNL     1      -8.426 -10.147   5.719  1.00  0.00     0.167 HD
ATOM     67  C   UNL     1     -10.855  -9.844   4.302  1.00  0.00     0.074 A 
ATOM     68  C   UNL     1     -11.794  -9.731   3.206  1.00  0.00     0.031 C 
ATOM     69  C   UNL     1     -11.210  -9.865   5.611  1.00  0.00     0.037 A 
BRANCH  56  70
ATOM     70  C   UNL     1      -6.435 -10.531   9.477  1.00  0.00     0.057 A 
ATOM     71  C   UNL     1      -5.663  -9.545  10.106  1.00  0.00     0.134 A 
ATOM     72  C   UNL     1      -6.778 -11.660  10.231  1.00  0.00     0.134 A 
ATOM     73  F   UNL     1      -5.287  -8.445   9.436  1.00  0.00    -0.206 F 
ATOM     74  C   UNL     1      -5.226  -9.691  11.424  1.00  0.00     0.040 A 
ATOM     75  C   UNL     1      -6.373 -11.802  11.559  1.00  0.00     0.040 A 
ATOM     76  F   UNL     1      -7.520 -12.640   9.693  1.00  0.00    -0.206 F 
ATOM     77  C   UNL     1      -5.588 -10.819  12.157  1.00  0.00     0.006 A 
ENDBRANCH  56  70
BRANCH  57  78
ATOM     78  C   UNL     1      -9.167  -9.788  -0.087  1.00  0.00     0.057 A 
ATOM     79  C   UNL     1      -9.760  -8.630  -0.604  1.00  0.00     0.134 A 
ATOM     80  C   UNL     1      -9.023 -10.878  -0.955  1.00  0.00     0.134 A 
ATOM     81  F   UNL     1      -9.952  -7.561   0.183  1.00  0.00    -0.206 F 
ATOM     82  C   UNL     1     -10.211  -8.564  -1.924  1.00  0.00     0.040 A 
ATOM     83  C   UNL     1      -9.442 -10.817  -2.285  1.00  0.00     0.040 A 
ATOM     84  F   UNL     1      -8.466 -12.019  -0.522  1.00  0.00    -0.206 F 
ATOM     85  C   UNL     1     -10.046  -9.659  -2.770  1.00  0.00     0.006 A 
ENDBRANCH  57  78
BRANCH  69  86
ATOM     86  C   UNL     1     -12.669  -9.715   5.939  1.00  0.00     0.057 A 
ATOM     87  C   UNL     1     -13.601 -10.726   5.672  1.00  0.00     0.134 A 
ATOM     88  C   UNL     1     -13.140  -8.556   6.572  1.00  0.00     0.134 A 
ATOM     89  F   UNL     1     -13.221 -11.857   5.059  1.00  0.00    -0.206 F 
ATOM     90  C   UNL     1     -14.951 -10.580   5.999  1.00  0.00     0.040 A 
ATOM     91  C   UNL     1     -14.481  -8.412   6.932  1.00  0.00     0.040 A 
ATOM     92  F   UNL     1     -12.301  -7.552   6.867  1.00  0.00    -0.206 F 
ATOM     93  C   UNL     1     -15.393  -9.423   6.638  1.00  0.00     0.006 A 
ENDBRANCH  69  86
ENDBRANCH  43  44
ENDBRANCH  36  38
ENDBRANCH  35  36
ENDBRANCH  34  35
ENDBRANCH  33  34
ENDBRANCH  32  33
ENDBRANCH  31  32
ENDBRANCH   1  31
TORSDOF 22
