REMARK SMILES [NH3+][C@@H](Cc1ccc(OC(F)F)cc1)C(=O)OCCOCCOCCOC(=O)c1ccc(-c2c3nc(c(-c4c(F)cccc4F)c4ccc([nH]4)c(-c4c(F)cccc4F)c4nc(c(-c5c(F)cccc5F)c5ccc2[nH]5)C=C4)C=C3)cc1
REMARK SMILES IDX 20 1 19 2 18 3 17 4 16 5 14 6 15 7 2 8 1 9 3 13 4 14 5 15
REMARK SMILES IDX 13 16 6 17 12 18 7 19 8 20 9 21 10 22 11 23 21 24 22 25
REMARK SMILES IDX 23 26 24 27 25 28 26 29 27 30 28 31 29 32 81 33 30 34 80 35
REMARK SMILES IDX 31 36 32 37 33 38 74 39 34 40 79 41 73 42 75 43 35 44 78 45
REMARK SMILES IDX 72 46 71 47 36 49 62 50 45 51 61 52 46 53 49 54 60 55 76 56
REMARK SMILES IDX 47 57 48 58 59 60 77 61 50 62 37 63 38 64 43 65 39 66 40 67
REMARK SMILES IDX 42 68 44 69 41 70 63 71 64 72 69 73 65 74 66 75 68 76 70 77
REMARK SMILES IDX 67 78 51 79 52 80 57 81 53 82 54 83 56 84 58 85 55 86
REMARK H PARENT 1 10 1 11 1 12 75 48 49 59
REMARK Flexibility Score: inf
ROOT
ATOM      1  C   UNL     1      -2.163  -0.610  -1.781  1.00  0.00     0.188 C 
ENDROOT
BRANCH   1   2
ATOM      2  O   UNL     1      -3.468  -1.008  -1.378  1.00  0.00    -0.376 OA
BRANCH   2   3
ATOM      3  C   UNL     1      -3.782  -1.019   0.009  1.00  0.00     0.202 C 
BRANCH   3   4
ATOM      4  C   UNL     1      -2.851  -1.746   0.994  1.00  0.00     0.261 C 
BRANCH   4   5
ATOM      5  O   UNL     1      -1.440  -1.508   0.820  1.00  0.00    -0.459 OA
BRANCH   5   6
ATOM      6  C   UNL     1      -0.664  -2.608   0.593  1.00  0.00     0.365 C 
ATOM      7  O   UNL     1      -1.088  -3.760   0.549  1.00  0.00    -0.245 OA
BRANCH   6   8
ATOM      8  C   UNL     1       0.839  -2.294   0.445  1.00  0.00     0.296 C 
BRANCH   8   9
ATOM      9  N   UNL     1       1.145  -0.943  -0.074  1.00  0.00    -0.346 N 
ATOM     10  H   UNL     1       2.156  -0.824  -0.139  1.00  0.00     0.345 HD
ATOM     11  H   UNL     1       0.760  -0.241   0.557  1.00  0.00     0.345 HD
ATOM     12  H   UNL     1       0.730  -0.832  -0.999  1.00  0.00     0.345 HD
ENDBRANCH   8   9
BRANCH   8  13
ATOM     13  C   UNL     1       1.591  -2.584   1.750  1.00  0.00     0.113 C 
BRANCH  13  14
ATOM     14  C   UNL     1       1.077  -1.863   2.976  1.00  0.00    -0.041 A 
ATOM     15  C   UNL     1       1.205  -0.478   3.142  1.00  0.00     0.008 A 
ATOM     16  C   UNL     1       0.451  -2.601   3.986  1.00  0.00     0.008 A 
ATOM     17  C   UNL     1       0.693   0.151   4.279  1.00  0.00     0.047 A 
ATOM     18  C   UNL     1      -0.031  -1.974   5.138  1.00  0.00     0.047 A 
ATOM     19  C   UNL     1       0.089  -0.595   5.293  1.00  0.00     0.126 A 
BRANCH  19  20
ATOM     20  O   UNL     1      -0.333   0.135   6.367  1.00  0.00    -0.435 OA
BRANCH  20  21
ATOM     21  C   UNL     1      -0.724  -0.576   7.534  1.00  0.00     0.542 C 
ATOM     22  F   UNL     1      -1.837  -1.304   7.281  1.00  0.00    -0.167 F 
ATOM     23  F   UNL     1       0.262  -1.423   7.920  1.00  0.00    -0.167 F 
ENDBRANCH  20  21
ENDBRANCH  19  20
ENDBRANCH  13  14
ENDBRANCH   8  13
ENDBRANCH   6   8
ENDBRANCH   5   6
ENDBRANCH   4   5
ENDBRANCH   3   4
ENDBRANCH   2   3
ENDBRANCH   1   2
BRANCH   1  24
ATOM     24  C   UNL     1      -1.527   0.643  -1.150  1.00  0.00     0.188 C 
BRANCH  24  25
ATOM     25  O   UNL     1      -2.293   1.277  -0.162  1.00  0.00    -0.376 OA
BRANCH  25  26
ATOM     26  C   UNL     1      -2.939   2.493  -0.472  1.00  0.00     0.202 C 
BRANCH  26  27
ATOM     27  C   UNL     1      -3.427   2.872  -1.888  1.00  0.00     0.261 C 
BRANCH  27  28
ATOM     28  O   UNL     1      -2.926   2.134  -3.014  1.00  0.00    -0.460 OA
BRANCH  28  29
ATOM     29  C   UNL     1      -1.840   2.632  -3.655  1.00  0.00     0.338 C 
ATOM     30  O   UNL     1      -1.222   3.649  -3.377  1.00  0.00    -0.246 OA
BRANCH  29  31
ATOM     31  C   UNL     1      -1.380   1.624  -4.638  1.00  0.00     0.060 A 
ATOM     32  C   UNL     1      -0.184   0.922  -4.409  1.00  0.00     0.016 A 
ATOM     33  C   UNL     1      -2.139   1.356  -5.776  1.00  0.00     0.016 A 
ATOM     34  C   UNL     1       0.242  -0.063  -5.307  1.00  0.00     0.010 A 
ATOM     35  C   UNL     1      -1.693   0.395  -6.690  1.00  0.00     0.010 A 
ATOM     36  C   UNL     1      -0.498  -0.316  -6.467  1.00  0.00    -0.014 A 
BRANCH  36  37
ATOM     37  C   UNL     1       0.012  -1.220  -7.530  1.00  0.00     0.031 A 
ATOM     38  C   UNL     1       0.671  -0.613  -8.736  1.00  0.00     0.074 A 
ATOM     39  C   UNL     1      -0.172  -2.552  -7.465  1.00  0.00     0.049 A 
ATOM     40  N   UNL     1       1.001  -1.170  -9.873  1.00  0.00    -0.248 NA
ATOM     41  C   UNL     1       0.992   0.821  -8.651  1.00  0.00     0.031 C 
ATOM     42  C   UNL     1      -0.750  -3.275  -6.335  1.00  0.00     0.029 A 
ATOM     43  N   UNL     1       0.077  -3.531  -8.399  1.00  0.00    -0.354 N 
ATOM     44  C   UNL     1       1.536  -0.150 -10.650  1.00  0.00     0.074 A 
ATOM     45  C   UNL     1       1.488   1.059  -9.856  1.00  0.00     0.031 C 
ATOM     46  C   UNL     1      -0.855  -4.576  -6.658  1.00  0.00     0.029 A 
ATOM     47  C   UNL     1      -0.398  -4.769  -8.034  1.00  0.00     0.049 A 
ATOM     48  H   UNL     1       0.548  -3.362  -9.247  1.00  0.00     0.167 HD
ATOM     49  C   UNL     1       2.013  -0.217 -11.915  1.00  0.00     0.037 A 
ATOM     50  C   UNL     1      -0.502  -5.910  -8.746  1.00  0.00     0.037 A 
ATOM     51  C   UNL     1       2.070  -1.424 -12.697  1.00  0.00     0.049 A 
ATOM     52  C   UNL     1      -0.036  -5.938 -10.182  1.00  0.00     0.074 A 
ATOM     53  C   UNL     1       2.591  -1.599 -13.968  1.00  0.00     0.029 A 
ATOM     54  N   UNL     1       1.575  -2.653 -12.294  1.00  0.00    -0.354 N 
ATOM     55  N   UNL     1       0.512  -4.984 -10.895  1.00  0.00    -0.248 NA
ATOM     56  C   UNL     1      -0.212  -7.201 -10.917  1.00  0.00     0.031 C 
ATOM     57  C   UNL     1       2.347  -2.917 -14.361  1.00  0.00     0.029 A 
ATOM     58  C   UNL     1       1.735  -3.580 -13.310  1.00  0.00     0.049 A 
ATOM     59  H   UNL     1       1.171  -2.840 -11.416  1.00  0.00     0.167 HD
ATOM     60  C   UNL     1       0.767  -5.537 -12.145  1.00  0.00     0.074 A 
ATOM     61  C   UNL     1       0.332  -6.915 -12.091  1.00  0.00     0.031 C 
ATOM     62  C   UNL     1       1.309  -4.954 -13.242  1.00  0.00     0.037 A 
BRANCH  49  63
ATOM     63  C   UNL     1       2.477   1.054 -12.561  1.00  0.00     0.057 A 
ATOM     64  C   UNL     1       3.673   1.683 -12.196  1.00  0.00     0.134 A 
ATOM     65  C   UNL     1       1.749   1.610 -13.621  1.00  0.00     0.134 A 
ATOM     66  F   UNL     1       4.410   1.207 -11.182  1.00  0.00    -0.206 F 
ATOM     67  C   UNL     1       4.125   2.826 -12.858  1.00  0.00     0.040 A 
ATOM     68  C   UNL     1       2.203   2.736 -14.308  1.00  0.00     0.040 A 
ATOM     69  F   UNL     1       0.597   1.052 -14.024  1.00  0.00    -0.206 F 
ATOM     70  C   UNL     1       3.394   3.349 -13.925  1.00  0.00     0.006 A 
ENDBRANCH  49  63
BRANCH  50  71
ATOM     71  C   UNL     1      -1.135  -7.118  -8.148  1.00  0.00     0.057 A 
ATOM     72  C   UNL     1      -0.404  -8.293  -7.935  1.00  0.00     0.134 A 
ATOM     73  C   UNL     1      -2.501  -7.148  -7.839  1.00  0.00     0.134 A 
ATOM     74  F   UNL     1       0.901  -8.342  -8.241  1.00  0.00    -0.206 F 
ATOM     75  C   UNL     1      -1.012  -9.460  -7.464  1.00  0.00     0.040 A 
ATOM     76  C   UNL     1      -3.115  -8.296  -7.337  1.00  0.00     0.040 A 
ATOM     77  F   UNL     1      -3.262  -6.060  -8.027  1.00  0.00    -0.206 F 
ATOM     78  C   UNL     1      -2.372  -9.461  -7.160  1.00  0.00     0.006 A 
ENDBRANCH  50  71
BRANCH  62  79
ATOM     79  C   UNL     1       1.499  -5.804 -14.466  1.00  0.00     0.057 A 
ATOM     80  C   UNL     1       0.418  -6.218 -15.255  1.00  0.00     0.134 A 
ATOM     81  C   UNL     1       2.785  -6.154 -14.900  1.00  0.00     0.134 A 
ATOM     82  F   UNL     1      -0.840  -5.927 -14.892  1.00  0.00    -0.206 F 
ATOM     83  C   UNL     1       0.609  -6.961 -16.422  1.00  0.00     0.040 A 
ATOM     84  C   UNL     1       2.990  -6.871 -16.080  1.00  0.00     0.040 A 
ATOM     85  F   UNL     1       3.866  -5.780 -14.198  1.00  0.00    -0.206 F 
ATOM     86  C   UNL     1       1.899  -7.280 -16.843  1.00  0.00     0.006 A 
ENDBRANCH  62  79
ENDBRANCH  36  37
ENDBRANCH  29  31
ENDBRANCH  28  29
ENDBRANCH  27  28
ENDBRANCH  26  27
ENDBRANCH  25  26
ENDBRANCH  24  25
ENDBRANCH   1  24
TORSDOF 22
