REMARK SMILES O=C(/C=C/c1ccc(NC(=O)c2cc(C(F)(F)F)cc(C(F)(F)F)c2)cc1)OCCOCCOCCOC(=O)c1ccc(-c2c3nc(c(-c4c(F)cccc4F)c4ccc([nH]4)c(-c4c(F)cccc4F)c4nc(c(-c5c(F)cccc5F)c5ccc2[nH]5)C=C4)C=C3)cc1
REMARK SMILES IDX 32 1 31 2 30 3 29 4 28 5 2 6 1 7 3 8 4 9 5 10 6 11 27 12
REMARK SMILES IDX 7 13 26 14 8 15 9 16 10 17 11 19 12 20 13 21 25 22 14 23
REMARK SMILES IDX 20 24 19 25 15 26 16 27 17 28 18 29 21 30 22 31 23 32 24 33
REMARK SMILES IDX 33 34 34 35 35 36 36 37 37 38 38 39 39 40 40 41 41 42 93 43
REMARK SMILES IDX 42 44 92 45 43 46 44 47 45 48 86 49 46 50 91 51 85 52 87 53
REMARK SMILES IDX 47 54 90 55 84 56 83 57 48 59 74 60 57 61 73 62 58 63 61 64
REMARK SMILES IDX 72 65 88 66 59 67 60 68 71 70 89 71 62 72 49 73 50 74 55 75
REMARK SMILES IDX 51 76 52 77 54 78 56 79 53 80 75 81 76 82 81 83 77 84 78 85
REMARK SMILES IDX 80 86 82 87 79 88 63 89 64 90 69 91 65 92 66 93 68 94 70 95
REMARK SMILES IDX 67 96
REMARK H PARENT 9 18 87 58 61 69
REMARK Flexibility Score: inf
ROOT
ATOM      1  C   UNL     1       3.081   1.660  -0.354  1.00  0.00     0.188 C 
ENDROOT
BRANCH   1   2
ATOM      2  O   UNL     1       4.354   1.054  -0.209  1.00  0.00    -0.376 OA
BRANCH   2   3
ATOM      3  C   UNL     1       4.713  -0.064  -0.998  1.00  0.00     0.202 C 
BRANCH   3   4
ATOM      4  C   UNL     1       3.809  -1.299  -1.023  1.00  0.00     0.261 C 
BRANCH   4   5
ATOM      5  O   UNL     1       2.569  -1.175  -0.322  1.00  0.00    -0.460 OA
BRANCH   5   6
ATOM      6  C   UNL     1       2.477  -1.764   0.895  1.00  0.00     0.330 C 
ATOM      7  O   UNL     1       1.664  -2.635   1.163  1.00  0.00    -0.247 OA
BRANCH   6   8
ATOM      8  C   UNL     1       3.173  -1.002   1.945  1.00  0.00     0.094 C 
ATOM      9  C   UNL     1       4.477  -1.180   2.193  1.00  0.00     0.015 C 
BRANCH   9  10
ATOM     10  C   UNL     1       5.221  -0.359   3.151  1.00  0.00    -0.025 A 
ATOM     11  C   UNL     1       6.478   0.125   2.778  1.00  0.00     0.010 A 
ATOM     12  C   UNL     1       4.750  -0.082   4.436  1.00  0.00     0.010 A 
ATOM     13  C   UNL     1       7.248   0.878   3.669  1.00  0.00     0.027 A 
ATOM     14  C   UNL     1       5.518   0.686   5.322  1.00  0.00     0.027 A 
ATOM     15  C   UNL     1       6.766   1.192   4.939  1.00  0.00     0.041 A 
BRANCH  15  16
ATOM     16  N   UNL     1       7.479   1.938   5.898  1.00  0.00    -0.322 N 
ATOM     17  C   UNL     1       8.610   2.717   5.813  1.00  0.00     0.255 C 
ATOM     18  H   UNL     1       7.093   1.895   6.803  1.00  0.00     0.170 HD
ATOM     19  O   UNL     1       9.226   3.028   6.831  1.00  0.00    -0.269 OA
BRANCH  17  20
ATOM     20  C   UNL     1       9.083   3.259   4.522  1.00  0.00     0.041 A 
ATOM     21  C   UNL     1      10.436   3.128   4.192  1.00  0.00     0.027 A 
ATOM     22  C   UNL     1       8.200   3.906   3.648  1.00  0.00     0.027 A 
ATOM     23  C   UNL     1      10.909   3.585   2.952  1.00  0.00     0.057 A 
ATOM     24  C   UNL     1       8.646   4.354   2.398  1.00  0.00     0.057 A 
ATOM     25  C   UNL     1      10.003   4.187   2.061  1.00  0.00     0.026 A 
BRANCH  23  26
ATOM     26  C   UNL     1      12.365   3.404   2.590  1.00  0.00     0.416 C 
ATOM     27  F   UNL     1      13.202   4.058   3.438  1.00  0.00    -0.166 F 
ATOM     28  F   UNL     1      12.743   2.096   2.618  1.00  0.00    -0.166 F 
ATOM     29  F   UNL     1      12.669   3.852   1.340  1.00  0.00    -0.166 F 
ENDBRANCH  23  26
BRANCH  24  30
ATOM     30  C   UNL     1       7.688   4.970   1.405  1.00  0.00     0.416 C 
ATOM     31  F   UNL     1       8.088   6.203   0.990  1.00  0.00    -0.166 F 
ATOM     32  F   UNL     1       7.563   4.218   0.277  1.00  0.00    -0.166 F 
ATOM     33  F   UNL     1       6.427   5.131   1.892  1.00  0.00    -0.166 F 
ENDBRANCH  24  30
ENDBRANCH  17  20
ENDBRANCH  15  16
ENDBRANCH   9  10
ENDBRANCH   6   8
ENDBRANCH   5   6
ENDBRANCH   4   5
ENDBRANCH   3   4
ENDBRANCH   2   3
ENDBRANCH   1   2
BRANCH   1  34
ATOM     34  C   UNL     1       2.473   1.905  -1.742  1.00  0.00     0.188 C 
BRANCH  34  35
ATOM     35  O   UNL     1       3.306   2.140  -2.865  1.00  0.00    -0.376 OA
BRANCH  35  36
ATOM     36  C   UNL     1       4.473   2.941  -2.734  1.00  0.00     0.202 C 
BRANCH  36  37
ATOM     37  C   UNL     1       4.295   4.415  -2.378  1.00  0.00     0.261 C 
BRANCH  37  38
ATOM     38  O   UNL     1       3.900   4.600  -1.008  1.00  0.00    -0.460 OA
BRANCH  38  39
ATOM     39  C   UNL     1       2.737   5.269  -0.832  1.00  0.00     0.338 C 
ATOM     40  O   UNL     1       2.008   5.724  -1.695  1.00  0.00    -0.246 OA
BRANCH  39  41
ATOM     41  C   UNL     1       2.367   5.290   0.595  1.00  0.00     0.060 A 
ATOM     42  C   UNL     1       1.080   4.856   0.932  1.00  0.00     0.016 A 
ATOM     43  C   UNL     1       3.209   5.838   1.567  1.00  0.00     0.016 A 
ATOM     44  C   UNL     1       0.604   5.037   2.228  1.00  0.00     0.010 A 
ATOM     45  C   UNL     1       2.726   6.024   2.868  1.00  0.00     0.010 A 
ATOM     46  C   UNL     1       1.405   5.668   3.190  1.00  0.00    -0.014 A 
BRANCH  46  47
ATOM     47  C   UNL     1       0.782   6.103   4.465  1.00  0.00     0.031 A 
ATOM     48  C   UNL     1       0.279   7.518   4.586  1.00  0.00     0.074 A 
ATOM     49  C   UNL     1       0.597   5.237   5.475  1.00  0.00     0.049 A 
ATOM     50  N   UNL     1      -0.352   8.092   5.578  1.00  0.00    -0.248 NA
ATOM     51  C   UNL     1       0.515   8.400   3.432  1.00  0.00     0.031 C 
ATOM     52  C   UNL     1       1.012   3.836   5.476  1.00  0.00     0.029 A 
ATOM     53  N   UNL     1      -0.001   5.414   6.698  1.00  0.00    -0.354 N 
ATOM     54  C   UNL     1      -0.604   9.394   5.162  1.00  0.00     0.074 A 
ATOM     55  C   UNL     1      -0.019   9.539   3.847  1.00  0.00     0.031 C 
ATOM     56  C   UNL     1       0.659   3.279   6.648  1.00  0.00     0.029 A 
ATOM     57  C   UNL     1       0.006   4.287   7.482  1.00  0.00     0.049 A 
ATOM     58  H   UNL     1      -0.397   6.268   6.986  1.00  0.00     0.167 HD
ATOM     59  C   UNL     1      -1.276  10.377   5.808  1.00  0.00     0.037 A 
ATOM     60  C   UNL     1      -0.459   4.094   8.731  1.00  0.00     0.037 A 
ATOM     61  C   UNL     1      -1.849  10.247   7.121  1.00  0.00     0.049 A 
ATOM     62  C   UNL     1      -1.154   5.220   9.451  1.00  0.00     0.074 A 
ATOM     63  C   UNL     1      -2.537  11.194   7.861  1.00  0.00     0.029 A 
ATOM     64  N   UNL     1      -1.798   9.097   7.892  1.00  0.00    -0.354 N 
ATOM     65  N   UNL     1      -1.405   6.438   9.037  1.00  0.00    -0.248 NA
ATOM     66  C   UNL     1      -1.640   4.937  10.810  1.00  0.00     0.031 C 
ATOM     67  C   UNL     1      -2.874  10.625   9.094  1.00  0.00     0.029 A 
ATOM     68  C   UNL     1      -2.430   9.313   9.105  1.00  0.00     0.049 A 
ATOM     69  H   UNL     1      -1.374   8.251   7.618  1.00  0.00     0.167 HD
ATOM     70  C   UNL     1      -2.096   7.057  10.071  1.00  0.00     0.074 A 
ATOM     71  C   UNL     1      -2.240   6.076  11.126  1.00  0.00     0.031 C 
ATOM     72  C   UNL     1      -2.569   8.325  10.143  1.00  0.00     0.037 A 
BRANCH  59  73
ATOM     73  C   UNL     1      -1.423  11.688   5.096  1.00  0.00     0.057 A 
ATOM     74  C   UNL     1      -2.314  11.843   4.026  1.00  0.00     0.134 A 
ATOM     75  C   UNL     1      -0.693  12.811   5.500  1.00  0.00     0.134 A 
ATOM     76  F   UNL     1      -3.031  10.800   3.582  1.00  0.00    -0.206 F 
ATOM     77  C   UNL     1      -2.461  13.068   3.372  1.00  0.00     0.040 A 
ATOM     78  C   UNL     1      -0.847  14.046   4.868  1.00  0.00     0.040 A 
ATOM     79  F   UNL     1       0.175  12.729   6.520  1.00  0.00    -0.206 F 
ATOM     80  C   UNL     1      -1.730  14.175   3.797  1.00  0.00     0.006 A 
ENDBRANCH  59  73
BRANCH  60  81
ATOM     81  C   UNL     1      -0.281   2.779   9.394  1.00  0.00     0.057 A 
ATOM     82  C   UNL     1      -1.369   1.935   9.643  1.00  0.00     0.134 A 
ATOM     83  C   UNL     1       0.980   2.353   9.828  1.00  0.00     0.134 A 
ATOM     84  F   UNL     1      -2.605   2.300   9.271  1.00  0.00    -0.206 F 
ATOM     85  C   UNL     1      -1.214   0.724  10.319  1.00  0.00     0.040 A 
ATOM     86  C   UNL     1       1.153   1.135  10.486  1.00  0.00     0.040 A 
ATOM     87  F   UNL     1       2.062   3.116   9.616  1.00  0.00    -0.206 F 
ATOM     88  C   UNL     1       0.052   0.320  10.740  1.00  0.00     0.006 A 
ENDBRANCH  60  81
BRANCH  72  89
ATOM     89  C   UNL     1      -3.306   8.714  11.391  1.00  0.00     0.057 A 
ATOM     90  C   UNL     1      -2.639   8.938  12.602  1.00  0.00     0.134 A 
ATOM     91  C   UNL     1      -4.695   8.893  11.374  1.00  0.00     0.134 A 
ATOM     92  F   UNL     1      -1.310   8.772  12.687  1.00  0.00    -0.206 F 
ATOM     93  C   UNL     1      -3.331   9.302  13.758  1.00  0.00     0.040 A 
ATOM     94  C   UNL     1      -5.395   9.279  12.518  1.00  0.00     0.040 A 
ATOM     95  F   UNL     1      -5.393   8.703  10.244  1.00  0.00    -0.206 F 
ATOM     96  C   UNL     1      -4.713   9.478  13.717  1.00  0.00     0.006 A 
ENDBRANCH  72  89
ENDBRANCH  46  47
ENDBRANCH  39  41
ENDBRANCH  38  39
ENDBRANCH  37  38
ENDBRANCH  36  37
ENDBRANCH  35  36
ENDBRANCH  34  35
ENDBRANCH   1  34
TORSDOF 22
