REMARK SMILES CCCOc1ccc(Nc2snc(C)c2C(=O)OCCOCCOCCOC(=O)c2ccc(-c3c4nc(c(-c5c(F)cccc5F)c5ccc([nH]5)c(-c5c(F)cccc5F)c5nc(c(-c6c(F)cccc6F)c6ccc3[nH]6)C=C5)C=C4)cc2)cc1
REMARK SMILES IDX 21 1 20 2 19 3 18 4 16 5 17 6 15 7 10 8 11 9 12 10 13 11
REMARK SMILES IDX 14 12 9 13 8 15 5 16 6 17 85 18 7 19 84 20 4 21 3 22 2 23
REMARK SMILES IDX 1 24 22 25 23 26 24 27 25 28 26 29 27 30 28 31 29 32 30 33
REMARK SMILES IDX 31 34 83 35 32 36 82 37 33 38 34 39 35 40 76 41 36 42 81 43
REMARK SMILES IDX 75 44 77 45 37 46 80 47 74 48 73 49 38 51 64 52 47 53 63 54
REMARK SMILES IDX 48 55 51 56 62 57 78 58 49 59 50 60 61 62 79 63 52 64 39 65
REMARK SMILES IDX 40 66 45 67 41 68 42 69 44 70 46 71 43 72 65 73 66 74 71 75
REMARK SMILES IDX 67 76 68 77 70 78 72 79 69 80 53 81 54 82 59 83 55 84 56 85
REMARK SMILES IDX 58 86 60 87 57 88
REMARK H PARENT 9 14 77 50 51 61
REMARK Flexibility Score: inf
ROOT
ATOM      1  O   UNL     1       6.263  -5.138  -0.640  1.00  0.00    -0.376 OA
ENDROOT
BRANCH   1   2
ATOM      2  C   UNL     1       5.662  -4.399  -1.694  1.00  0.00     0.202 C 
BRANCH   2   3
ATOM      3  C   UNL     1       4.135  -4.244  -1.847  1.00  0.00     0.261 C 
BRANCH   3   4
ATOM      4  O   UNL     1       3.326  -5.123  -1.065  1.00  0.00    -0.460 OA
BRANCH   4   5
ATOM      5  C   UNL     1       2.684  -6.154  -1.689  1.00  0.00     0.343 C 
ATOM      6  O   UNL     1       2.793  -6.415  -2.871  1.00  0.00    -0.246 OA
BRANCH   5   7
ATOM      7  C   UNL     1       2.002  -7.026  -0.733  1.00  0.00     0.117 A 
ATOM      8  C   UNL     1       1.163  -6.615   0.301  1.00  0.00     0.128 A 
ATOM      9  S   UNL     1       0.775  -8.000   1.248  1.00  0.00    -0.017 S 
ATOM     10  N   UNL     1       1.620  -9.090   0.350  1.00  0.00    -0.195 NA
ATOM     11  C   UNL     1       2.235  -8.451  -0.644  1.00  0.00     0.068 A 
ATOM     12  C   UNL     1       3.163  -9.257  -1.489  1.00  0.00     0.069 C 
BRANCH   8  13
ATOM     13  N   UNL     1       0.707  -5.392   0.679  1.00  0.00    -0.345 N 
ATOM     14  H   UNL     1       0.368  -5.309   1.599  1.00  0.00     0.167 HD
BRANCH  13  15
ATOM     15  C   UNL     1       0.672  -4.236  -0.113  1.00  0.00     0.039 A 
ATOM     16  C   UNL     1       0.829  -1.940  -1.733  1.00  0.00     0.119 A 
ATOM     17  C   UNL     1       0.241  -3.109  -2.216  1.00  0.00     0.048 A 
ATOM     18  C   UNL     1       1.379  -1.940  -0.455  1.00  0.00     0.048 A 
ATOM     19  C   UNL     1       0.172  -4.251  -1.418  1.00  0.00     0.030 A 
ATOM     20  C   UNL     1       1.269  -3.067   0.363  1.00  0.00     0.030 A 
BRANCH  16  21
ATOM     21  O   UNL     1       0.791  -0.889  -2.599  1.00  0.00    -0.494 OA
BRANCH  21  22
ATOM     22  C   UNL     1       1.352   0.366  -2.220  1.00  0.00     0.229 C 
BRANCH  22  23
ATOM     23  C   UNL     1       0.367   1.250  -1.447  1.00  0.00     0.038 C 
ATOM     24  C   UNL     1       0.498   1.158   0.068  1.00  0.00     0.007 C 
ENDBRANCH  22  23
ENDBRANCH  21  22
ENDBRANCH  16  21
ENDBRANCH  13  15
ENDBRANCH   8  13
ENDBRANCH   5   7
ENDBRANCH   4   5
ENDBRANCH   3   4
ENDBRANCH   2   3
ENDBRANCH   1   2
BRANCH   1  25
ATOM     25  C   UNL     1       5.629  -6.313  -0.184  1.00  0.00     0.188 C 
BRANCH  25  26
ATOM     26  C   UNL     1       4.855  -6.141   1.145  1.00  0.00     0.188 C 
BRANCH  26  27
ATOM     27  O   UNL     1       4.567  -4.862   1.700  1.00  0.00    -0.376 OA
BRANCH  27  28
ATOM     28  C   UNL     1       5.522  -3.811   1.717  1.00  0.00     0.202 C 
BRANCH  28  29
ATOM     29  C   UNL     1       6.927  -4.023   2.276  1.00  0.00     0.261 C 
BRANCH  29  30
ATOM     30  O   UNL     1       7.528  -5.242   1.889  1.00  0.00    -0.460 OA
BRANCH  30  31
ATOM     31  C   UNL     1       7.379  -6.231   2.794  1.00  0.00     0.338 C 
ATOM     32  O   UNL     1       6.720  -6.217   3.813  1.00  0.00    -0.246 OA
BRANCH  31  33
ATOM     33  C   UNL     1       8.228  -7.355   2.389  1.00  0.00     0.060 A 
ATOM     34  C   UNL     1       8.061  -8.545   3.100  1.00  0.00     0.016 A 
ATOM     35  C   UNL     1       9.349  -7.102   1.588  1.00  0.00     0.016 A 
ATOM     36  C   UNL     1       9.152  -9.367   3.233  1.00  0.00     0.010 A 
ATOM     37  C   UNL     1      10.444  -7.910   1.740  1.00  0.00     0.010 A 
ATOM     38  C   UNL     1      10.354  -8.964   2.645  1.00  0.00    -0.014 A 
BRANCH  38  39
ATOM     39  C   UNL     1      11.552  -9.679   3.013  1.00  0.00     0.031 A 
ATOM     40  C   UNL     1      11.694 -10.972   2.322  1.00  0.00     0.074 A 
ATOM     41  C   UNL     1      12.467  -9.127   3.831  1.00  0.00     0.049 A 
ATOM     42  N   UNL     1      11.681 -12.151   2.844  1.00  0.00    -0.248 NA
ATOM     43  C   UNL     1      11.684 -10.958   0.850  1.00  0.00     0.031 C 
ATOM     44  C   UNL     1      12.528  -7.748   4.326  1.00  0.00     0.029 A 
ATOM     45  N   UNL     1      13.615  -9.672   4.309  1.00  0.00    -0.354 N 
ATOM     46  C   UNL     1      11.877 -13.023   1.780  1.00  0.00     0.074 A 
ATOM     47  C   UNL     1      11.672 -12.261   0.577  1.00  0.00     0.031 C 
ATOM     48  C   UNL     1      13.760  -7.512   4.831  1.00  0.00     0.029 A 
ATOM     49  C   UNL     1      14.524  -8.748   4.802  1.00  0.00     0.049 A 
ATOM     50  H   UNL     1      13.787 -10.641   4.307  1.00  0.00     0.167 HD
ATOM     51  C   UNL     1      12.468 -14.230   1.970  1.00  0.00     0.037 A 
ATOM     52  C   UNL     1      15.832  -8.989   5.068  1.00  0.00     0.037 A 
ATOM     53  C   UNL     1      12.408 -14.634   3.352  1.00  0.00     0.049 A 
ATOM     54  C   UNL     1      15.999 -10.463   5.175  1.00  0.00     0.074 A 
ATOM     55  C   UNL     1      11.383 -14.861   4.250  1.00  0.00     0.029 A 
ATOM     56  N   UNL     1      13.547 -14.505   4.108  1.00  0.00    -0.354 N 
ATOM     57  N   UNL     1      15.519 -11.183   6.150  1.00  0.00    -0.248 NA
ATOM     58  C   UNL     1      16.313 -11.199   3.957  1.00  0.00     0.031 C 
ATOM     59  C   UNL     1      11.875 -14.393   5.503  1.00  0.00     0.029 A 
ATOM     60  C   UNL     1      13.185 -13.954   5.310  1.00  0.00     0.049 A 
ATOM     61  H   UNL     1      14.458 -14.762   3.836  1.00  0.00     0.167 HD
ATOM     62  C   UNL     1      15.069 -12.347   5.544  1.00  0.00     0.074 A 
ATOM     63  C   UNL     1      15.669 -12.341   4.212  1.00  0.00     0.031 C 
ATOM     64  C   UNL     1      14.024 -13.054   6.066  1.00  0.00     0.037 A 
BRANCH  51  65
ATOM     65  C   UNL     1      13.440 -14.832   0.989  1.00  0.00     0.057 A 
ATOM     66  C   UNL     1      13.891 -16.145   1.198  1.00  0.00     0.134 A 
ATOM     67  C   UNL     1      14.169 -14.092   0.032  1.00  0.00     0.134 A 
ATOM     68  F   UNL     1      13.293 -16.942   2.096  1.00  0.00    -0.206 F 
ATOM     69  C   UNL     1      15.027 -16.656   0.560  1.00  0.00     0.040 A 
ATOM     70  C   UNL     1      15.269 -14.612  -0.652  1.00  0.00     0.040 A 
ATOM     71  F   UNL     1      13.930 -12.800  -0.220  1.00  0.00    -0.206 F 
ATOM     72  C   UNL     1      15.723 -15.887  -0.363  1.00  0.00     0.006 A 
ENDBRANCH  51  65
BRANCH  52  73
ATOM     73  C   UNL     1      16.989  -8.076   4.908  1.00  0.00     0.057 A 
ATOM     74  C   UNL     1      18.239  -8.395   5.458  1.00  0.00     0.134 A 
ATOM     75  C   UNL     1      16.977  -7.013   3.988  1.00  0.00     0.134 A 
ATOM     76  F   UNL     1      18.364  -9.418   6.316  1.00  0.00    -0.206 F 
ATOM     77  C   UNL     1      19.411  -7.718   5.093  1.00  0.00     0.040 A 
ATOM     78  C   UNL     1      18.137  -6.322   3.623  1.00  0.00     0.040 A 
ATOM     79  F   UNL     1      15.856  -6.664   3.340  1.00  0.00    -0.206 F 
ATOM     80  C   UNL     1      19.363  -6.684   4.163  1.00  0.00     0.006 A 
ENDBRANCH  52  73
BRANCH  64  81
ATOM     81  C   UNL     1      13.551 -12.687   7.445  1.00  0.00     0.057 A 
ATOM     82  C   UNL     1      12.992 -11.444   7.778  1.00  0.00     0.134 A 
ATOM     83  C   UNL     1      13.523 -13.677   8.433  1.00  0.00     0.134 A 
ATOM     84  F   UNL     1      12.880 -10.467   6.869  1.00  0.00    -0.206 F 
ATOM     85  C   UNL     1      12.472 -11.185   9.050  1.00  0.00     0.040 A 
ATOM     86  C   UNL     1      12.975 -13.444   9.696  1.00  0.00     0.040 A 
ATOM     87  F   UNL     1      13.987 -14.909   8.168  1.00  0.00    -0.206 F 
ATOM     88  C   UNL     1      12.457 -12.191  10.012  1.00  0.00     0.006 A 
ENDBRANCH  64  81
ENDBRANCH  38  39
ENDBRANCH  31  33
ENDBRANCH  30  31
ENDBRANCH  29  30
ENDBRANCH  28  29
ENDBRANCH  27  28
ENDBRANCH  26  27
ENDBRANCH  25  26
ENDBRANCH   1  25
TORSDOF 22
