REMARK SMILES O=C(COc1ccc(N2C[C@@H](C(=O)OCCOCCOCCOC(=O)c3ccc(-c4c5nc(c(-c6c(F)cccc6F)c6ccc([nH]6)c(-c6c(F)cccc6F)c6nc(c(-c7c(F)cccc7F)c7ccc4[nH]7)C=C6)C=C5)cc3)CC2=O)cc1)Nc1ccc(Cl)cc1Cl
REMARK SMILES IDX 17 1 16 2 15 3 14 4 12 5 13 6 11 7 9 8 10 9 81 10 80 11
REMARK SMILES IDX 82 12 8 13 5 14 6 15 84 16 7 17 83 18 4 19 3 20 2 21 1 22
REMARK SMILES IDX 85 23 86 25 87 26 92 27 88 28 91 29 93 30 89 31 90 32 18 33
REMARK SMILES IDX 19 34 20 35 21 36 22 37 23 38 24 39 25 40 26 41 27 42 79 43
REMARK SMILES IDX 28 44 78 45 29 46 30 47 31 48 72 49 32 50 77 51 71 52 73 53
REMARK SMILES IDX 33 54 76 55 70 56 69 57 34 59 60 60 43 61 59 62 44 63 47 64
REMARK SMILES IDX 58 65 74 66 45 67 46 68 57 70 75 71 48 72 35 73 36 74 41 75
REMARK SMILES IDX 37 76 38 77 40 78 42 79 39 80 61 81 62 82 67 83 63 84 64 85
REMARK SMILES IDX 66 86 68 87 65 88 49 89 50 90 55 91 51 92 52 93 54 94 56 95
REMARK SMILES IDX 53 96
REMARK H PARENT 85 24 73 58 47 69
REMARK Flexibility Score: inf
ROOT
ATOM      1  O   UNL     1      -2.098  -7.029  -9.653  1.00  0.00    -0.376 OA
ENDROOT
BRANCH   1   2
ATOM      2  C   UNL     1      -3.085  -6.723  -8.672  1.00  0.00     0.202 C 
BRANCH   2   3
ATOM      3  C   UNL     1      -2.629  -6.426  -7.234  1.00  0.00     0.261 C 
BRANCH   3   4
ATOM      4  O   UNL     1      -1.634  -5.388  -7.124  1.00  0.00    -0.463 OA
BRANCH   4   5
ATOM      5  C   UNL     1      -0.472  -5.723  -6.517  1.00  0.00     0.311 C 
ATOM      6  O   UNL     1      -0.259  -6.800  -5.971  1.00  0.00    -0.252 OA
BRANCH   5   7
ATOM      7  C   UNL     1       0.617  -4.677  -6.638  1.00  0.00     0.128 C 
ATOM      8  N   UNL     1       1.688  -3.148  -5.224  1.00  0.00    -0.312 N 
ATOM      9  C   UNL     1       1.196  -4.496  -5.250  1.00  0.00     0.141 C 
ATOM     10  C   UNL     1       1.163  -2.376  -6.253  1.00  0.00     0.227 C 
ATOM     11  C   UNL     1       0.281  -3.256  -7.080  1.00  0.00     0.117 C 
ATOM     12  O   UNL     1       1.355  -1.197  -6.508  1.00  0.00    -0.274 OA
BRANCH   8  13
ATOM     13  C   UNL     1       2.359  -2.638  -4.102  1.00  0.00     0.044 A 
ATOM     14  C   UNL     1       3.508  -1.641  -1.758  1.00  0.00     0.120 A 
ATOM     15  C   UNL     1       3.830  -2.924  -2.190  1.00  0.00     0.048 A 
ATOM     16  C   UNL     1       2.667  -0.843  -2.526  1.00  0.00     0.048 A 
ATOM     17  C   UNL     1       3.237  -3.430  -3.352  1.00  0.00     0.030 A 
ATOM     18  C   UNL     1       2.097  -1.335  -3.688  1.00  0.00     0.030 A 
BRANCH  14  19
ATOM     19  O   UNL     1       4.090  -1.160  -0.616  1.00  0.00    -0.484 OA
BRANCH  19  20
ATOM     20  C   UNL     1       3.142  -1.029   0.450  1.00  0.00     0.329 C 
BRANCH  20  21
ATOM     21  C   UNL     1       2.214   0.188   0.334  1.00  0.00     0.262 C 
ATOM     22  O   UNL     1       1.007   0.082   0.518  1.00  0.00    -0.271 OA
ATOM     23  N   UNL     1       2.890   1.322  -0.106  1.00  0.00    -0.322 N 
ATOM     24  H   UNL     1       3.873   1.282  -0.138  1.00  0.00     0.170 HD
BRANCH  23  25
ATOM     25  C   UNL     1       2.272   2.529  -0.511  1.00  0.00     0.060 A 
ATOM     26  C   UNL     1       2.802   3.119  -1.673  1.00  0.00     0.029 A 
ATOM     27  C   UNL     1       1.185   3.153   0.126  1.00  0.00     0.066 A 
ATOM     28  C   UNL     1       2.213   4.255  -2.233  1.00  0.00     0.023 A 
ATOM     29  C   UNL     1       0.595   4.290  -0.442  1.00  0.00     0.043 A 
ATOM     30  Cl  UNL     1       0.634   2.719   1.707  1.00  0.00    -0.082 Cl
ATOM     31  C   UNL     1       1.102   4.827  -1.622  1.00  0.00     0.042 A 
ATOM     32  Cl  UNL     1       0.375   6.226  -2.309  1.00  0.00    -0.084 Cl
ENDBRANCH  23  25
ENDBRANCH  20  21
ENDBRANCH  19  20
ENDBRANCH  14  19
ENDBRANCH   8  13
ENDBRANCH   5   7
ENDBRANCH   4   5
ENDBRANCH   3   4
ENDBRANCH   2   3
ENDBRANCH   1   2
BRANCH   1  33
ATOM     33  C   UNL     1      -1.013  -6.132  -9.862  1.00  0.00     0.188 C 
BRANCH  33  34
ATOM     34  C   UNL     1      -1.264  -4.618  -9.810  1.00  0.00     0.188 C 
BRANCH  34  35
ATOM     35  O   UNL     1      -2.605  -4.242  -9.625  1.00  0.00    -0.376 OA
BRANCH  35  36
ATOM     36  C   UNL     1      -3.235  -3.502 -10.651  1.00  0.00     0.202 C 
BRANCH  36  37
ATOM     37  C   UNL     1      -3.187  -4.045 -12.090  1.00  0.00     0.261 C 
BRANCH  37  38
ATOM     38  O   UNL     1      -1.937  -4.604 -12.536  1.00  0.00    -0.460 OA
BRANCH  38  39
ATOM     39  C   UNL     1      -0.959  -3.736 -12.898  1.00  0.00     0.338 C 
ATOM     40  O   UNL     1      -1.021  -2.525 -12.895  1.00  0.00    -0.246 OA
BRANCH  39  41
ATOM     41  C   UNL     1       0.293  -4.517 -13.075  1.00  0.00     0.060 A 
ATOM     42  C   UNL     1       1.392  -4.246 -12.245  1.00  0.00     0.016 A 
ATOM     43  C   UNL     1       0.378  -5.518 -14.043  1.00  0.00     0.016 A 
ATOM     44  C   UNL     1       2.583  -4.963 -12.394  1.00  0.00     0.010 A 
ATOM     45  C   UNL     1       1.579  -6.216 -14.209  1.00  0.00     0.010 A 
ATOM     46  C   UNL     1       2.697  -5.928 -13.404  1.00  0.00    -0.014 A 
BRANCH  46  47
ATOM     47  C   UNL     1       4.019  -6.516 -13.742  1.00  0.00     0.031 A 
ATOM     48  C   UNL     1       4.780  -5.947 -14.910  1.00  0.00     0.074 A 
ATOM     49  C   UNL     1       4.537  -7.544 -13.044  1.00  0.00     0.049 A 
ATOM     50  N   UNL     1       5.894  -6.359 -15.459  1.00  0.00    -0.248 NA
ATOM     51  C   UNL     1       4.199  -4.754 -15.546  1.00  0.00     0.031 C 
ATOM     52  C   UNL     1       3.934  -8.158 -11.864  1.00  0.00     0.029 A 
ATOM     53  N   UNL     1       5.692  -8.263 -13.245  1.00  0.00    -0.354 N 
ATOM     54  C   UNL     1       6.136  -5.490 -16.517  1.00  0.00     0.074 A 
ATOM     55  C   UNL     1       5.045  -4.540 -16.543  1.00  0.00     0.031 C 
ATOM     56  C   UNL     1       4.715  -9.174 -11.454  1.00  0.00     0.029 A 
ATOM     57  C   UNL     1       5.851  -9.307 -12.366  1.00  0.00     0.049 A 
ATOM     58  H   UNL     1       6.343  -8.050 -13.952  1.00  0.00     0.167 HD
ATOM     59  C   UNL     1       7.173  -5.483 -17.387  1.00  0.00     0.037 A 
ATOM     60  C   UNL     1       6.788 -10.276 -12.323  1.00  0.00     0.037 A 
ATOM     61  C   UNL     1       8.263  -6.423 -17.358  1.00  0.00     0.049 A 
ATOM     62  C   UNL     1       7.886 -10.297 -13.359  1.00  0.00     0.074 A 
ATOM     63  C   UNL     1       9.378  -6.472 -18.177  1.00  0.00     0.029 A 
ATOM     64  N   UNL     1       8.369  -7.485 -16.474  1.00  0.00    -0.354 N 
ATOM     65  N   UNL     1       8.125  -9.452 -14.333  1.00  0.00    -0.248 NA
ATOM     66  C   UNL     1       8.844 -11.411 -13.288  1.00  0.00     0.031 C 
ATOM     67  C   UNL     1      10.125  -7.601 -17.831  1.00  0.00     0.029 A 
ATOM     68  C   UNL     1       9.512  -8.217 -16.753  1.00  0.00     0.049 A 
ATOM     69  H   UNL     1       7.728  -7.688 -15.755  1.00  0.00     0.167 HD
ATOM     70  C   UNL     1       9.277  -9.911 -14.963  1.00  0.00     0.074 A 
ATOM     71  C   UNL     1       9.696 -11.101 -14.255  1.00  0.00     0.031 C 
ATOM     72  C   UNL     1       9.930  -9.392 -16.032  1.00  0.00     0.037 A 
BRANCH  59  73
ATOM     73  C   UNL     1       7.165  -4.447 -18.473  1.00  0.00     0.057 A 
ATOM     74  C   UNL     1       7.398  -3.091 -18.212  1.00  0.00     0.134 A 
ATOM     75  C   UNL     1       6.973  -4.824 -19.809  1.00  0.00     0.134 A 
ATOM     76  F   UNL     1       7.575  -2.661 -16.954  1.00  0.00    -0.206 F 
ATOM     77  C   UNL     1       7.421  -2.145 -19.238  1.00  0.00     0.040 A 
ATOM     78  C   UNL     1       7.023  -3.892 -20.846  1.00  0.00     0.040 A 
ATOM     79  F   UNL     1       6.750  -6.108 -20.129  1.00  0.00    -0.206 F 
ATOM     80  C   UNL     1       7.243  -2.547 -20.561  1.00  0.00     0.006 A 
ENDBRANCH  59  73
BRANCH  60  81
ATOM     81  C   UNL     1       6.733 -11.335 -11.280  1.00  0.00     0.057 A 
ATOM     82  C   UNL     1       7.730 -11.440 -10.302  1.00  0.00     0.134 A 
ATOM     83  C   UNL     1       5.719 -12.301 -11.269  1.00  0.00     0.134 A 
ATOM     84  F   UNL     1       8.745 -10.563 -10.277  1.00  0.00    -0.206 F 
ATOM     85  C   UNL     1       7.736 -12.478  -9.369  1.00  0.00     0.040 A 
ATOM     86  C   UNL     1       5.696 -13.327 -10.322  1.00  0.00     0.040 A 
ATOM     87  F   UNL     1       4.737 -12.263 -12.181  1.00  0.00    -0.206 F 
ATOM     88  C   UNL     1       6.713 -13.424  -9.375  1.00  0.00     0.006 A 
ENDBRANCH  60  81
BRANCH  72  89
ATOM     89  C   UNL     1      11.196 -10.073 -16.474  1.00  0.00     0.057 A 
ATOM     90  C   UNL     1      11.190 -11.328 -17.096  1.00  0.00     0.134 A 
ATOM     91  C   UNL     1      12.436  -9.439 -16.316  1.00  0.00     0.134 A 
ATOM     92  F   UNL     1      10.039 -11.995 -17.269  1.00  0.00    -0.206 F 
ATOM     93  C   UNL     1      12.372 -11.939 -17.520  1.00  0.00     0.040 A 
ATOM     94  C   UNL     1      13.621 -10.025 -16.765  1.00  0.00     0.040 A 
ATOM     95  F   UNL     1      12.515  -8.230 -15.740  1.00  0.00    -0.206 F 
ATOM     96  C   UNL     1      13.591 -11.283 -17.362  1.00  0.00     0.006 A 
ENDBRANCH  72  89
ENDBRANCH  46  47
ENDBRANCH  39  41
ENDBRANCH  38  39
ENDBRANCH  37  38
ENDBRANCH  36  37
ENDBRANCH  35  36
ENDBRANCH  34  35
ENDBRANCH  33  34
ENDBRANCH   1  33
TORSDOF 22
