REMARK SMILES Cc1ccnc(C(=O)c2[nH]c3ccc(C(C)(C)C)cc3c2CC(=O)OCCOCCOCCOC(=O)c2ccc(-c3c4nc(c(-c5c(F)cccc5F)c5ccc([nH]5)c(-c5c(F)cccc5F)c5nc(c(-c6c(F)cccc6F)c6ccc3[nH]6)C=C5)C=C4)cc2)c1
REMARK SMILES IDX 29 1 28 2 27 3 26 4 25 5 23 6 24 7 22 8 21 9 9 10 10 11
REMARK SMILES IDX 11 12 20 14 12 15 19 16 13 17 14 18 7 19 8 20 6 21 1 22 2 23
REMARK SMILES IDX 3 24 91 25 4 26 5 27 15 28 16 29 17 30 18 31 30 32 31 33
REMARK SMILES IDX 32 34 33 35 34 36 35 37 36 38 37 39 38 40 90 41 39 42 89 43
REMARK SMILES IDX 40 44 41 45 42 46 83 47 43 48 88 49 82 50 84 51 44 52 87 53
REMARK SMILES IDX 81 54 80 55 45 57 71 58 54 59 70 60 55 61 58 62 69 63 85 64
REMARK SMILES IDX 56 65 57 66 68 68 86 69 59 70 46 71 47 72 52 73 48 74 49 75
REMARK SMILES IDX 51 76 53 77 50 78 72 79 73 80 78 81 74 82 75 83 77 84 79 85
REMARK SMILES IDX 76 86 60 87 61 88 66 89 62 90 63 91 65 92 67 93 64 94
REMARK H PARENT 10 13 84 56 58 67
REMARK Flexibility Score: inf
ROOT
ATOM      1  C   UNL     1       4.848  -3.258   0.371  1.00  0.00     0.188 C 
ENDROOT
BRANCH   1   2
ATOM      2  O   UNL     1       6.053  -4.002   0.509  1.00  0.00    -0.376 OA
BRANCH   2   3
ATOM      3  C   UNL     1       5.975  -5.418   0.409  1.00  0.00     0.202 C 
BRANCH   3   4
ATOM      4  C   UNL     1       5.147  -6.111   1.493  1.00  0.00     0.261 C 
BRANCH   4   5
ATOM      5  O   UNL     1       3.748  -5.759   1.418  1.00  0.00    -0.463 OA
BRANCH   5   6
ATOM      6  C   UNL     1       3.120  -5.584   2.607  1.00  0.00     0.310 C 
ATOM      7  O   UNL     1       3.656  -5.807   3.692  1.00  0.00    -0.252 OA
BRANCH   6   8
ATOM      8  C   UNL     1       1.719  -5.007   2.544  1.00  0.00     0.161 C 
BRANCH   8   9
ATOM      9  C   UNL     1       0.940  -5.018   1.248  1.00  0.00     0.000 A 
ATOM     10  C   UNL     1       0.528  -3.924   0.477  1.00  0.00     0.093 A 
ATOM     11  N   UNL     1      -0.127  -4.432  -0.625  1.00  0.00    -0.352 N 
ATOM     12  C   UNL     1      -0.503  -5.727  -0.380  1.00  0.00     0.046 A 
ATOM     13  H   UNL     1      -0.299  -3.939  -1.460  1.00  0.00     0.167 HD
ATOM     14  C   UNL     1       0.176  -6.129   0.763  1.00  0.00     0.004 A 
ATOM     15  C   UNL     1      -1.411  -6.547  -1.051  1.00  0.00     0.027 A 
ATOM     16  C   UNL     1      -0.089  -7.409   1.281  1.00  0.00     0.015 A 
ATOM     17  C   UNL     1      -1.724  -7.777  -0.457  1.00  0.00     0.006 A 
ATOM     18  C   UNL     1      -1.109  -8.212   0.727  1.00  0.00    -0.042 A 
BRANCH  10  19
ATOM     19  C   UNL     1       0.704  -2.511   0.747  1.00  0.00     0.227 C 
ATOM     20  O   UNL     1       1.472  -2.090   1.610  1.00  0.00    -0.285 OA
BRANCH  19  21
ATOM     21  C   UNL     1      -0.119  -1.512   0.010  1.00  0.00     0.113 A 
ATOM     22  C   UNL     1      -3.515   0.135   0.227  1.00  0.00     0.044 C 
ATOM     23  C   UNL     1      -2.103  -0.186  -0.164  1.00  0.00    -0.047 A 
ATOM     24  C   UNL     1      -1.385   0.688  -0.985  1.00  0.00     0.023 A 
ATOM     25  C   UNL     1      -1.447  -1.305   0.364  1.00  0.00     0.036 A 
ATOM     26  C   UNL     1      -0.081   0.365  -1.321  1.00  0.00     0.112 A 
ATOM     27  N   UNL     1       0.557  -0.733  -0.866  1.00  0.00    -0.253 NA
ENDBRANCH  19  21
ENDBRANCH  10  19
BRANCH  18  28
ATOM     28  C   UNL     1      -1.560  -9.464   1.497  1.00  0.00    -0.013 C 
ATOM     29  C   UNL     1      -0.378 -10.441   1.645  1.00  0.00     0.016 C 
ATOM     30  C   UNL     1      -2.052  -9.034   2.901  1.00  0.00     0.016 C 
ATOM     31  C   UNL     1      -2.724 -10.225   0.828  1.00  0.00     0.016 C 
ENDBRANCH  18  28
ENDBRANCH   8   9
ENDBRANCH   6   8
ENDBRANCH   5   6
ENDBRANCH   4   5
ENDBRANCH   3   4
ENDBRANCH   2   3
ENDBRANCH   1   2
BRANCH   1  32
ATOM     32  C   UNL     1       3.840  -3.666  -0.724  1.00  0.00     0.188 C 
BRANCH  32  33
ATOM     33  O   UNL     1       4.324  -4.264  -1.920  1.00  0.00    -0.376 OA
BRANCH  33  34
ATOM     34  C   UNL     1       5.349  -3.572  -2.619  1.00  0.00     0.202 C 
BRANCH  34  35
ATOM     35  C   UNL     1       4.940  -2.185  -3.106  1.00  0.00     0.261 C 
BRANCH  35  36
ATOM     36  O   UNL     1       4.836  -1.270  -1.999  1.00  0.00    -0.460 OA
BRANCH  36  37
ATOM     37  C   UNL     1       4.067  -0.188  -2.252  1.00  0.00     0.338 C 
ATOM     38  O   UNL     1       3.563   0.112  -3.322  1.00  0.00    -0.246 OA
BRANCH  37  39
ATOM     39  C   UNL     1       3.872   0.637  -1.040  1.00  0.00     0.060 A 
ATOM     40  C   UNL     1       3.241   0.107   0.080  1.00  0.00     0.016 A 
ATOM     41  C   UNL     1       4.069   2.013  -1.126  1.00  0.00     0.016 A 
ATOM     42  C   UNL     1       2.645   0.957   1.016  1.00  0.00     0.010 A 
ATOM     43  C   UNL     1       3.562   2.858  -0.130  1.00  0.00     0.010 A 
ATOM     44  C   UNL     1       2.765   2.348   0.911  1.00  0.00    -0.014 A 
BRANCH  44  45
ATOM     45  C   UNL     1       1.971   3.258   1.796  1.00  0.00     0.031 A 
ATOM     46  C   UNL     1       1.022   4.274   1.192  1.00  0.00     0.074 A 
ATOM     47  C   UNL     1       2.029   3.155   3.140  1.00  0.00     0.049 A 
ATOM     48  N   UNL     1       0.367   5.251   1.772  1.00  0.00    -0.248 NA
ATOM     49  C   UNL     1       0.773   4.176  -0.257  1.00  0.00     0.031 C 
ATOM     50  C   UNL     1       2.813   2.170   3.885  1.00  0.00     0.029 A 
ATOM     51  N   UNL     1       1.403   3.888   4.123  1.00  0.00    -0.354 N 
ATOM     52  C   UNL     1      -0.336   5.899   0.761  1.00  0.00     0.074 A 
ATOM     53  C   UNL     1      -0.024   5.214  -0.474  1.00  0.00     0.031 C 
ATOM     54  C   UNL     1       2.598   2.337   5.199  1.00  0.00     0.029 A 
ATOM     55  C   UNL     1       1.746   3.503   5.397  1.00  0.00     0.049 A 
ATOM     56  H   UNL     1       0.771   4.618   3.931  1.00  0.00     0.167 HD
ATOM     57  C   UNL     1      -1.164   6.970   0.848  1.00  0.00     0.037 A 
ATOM     58  C   UNL     1       1.462   4.054   6.594  1.00  0.00     0.037 A 
ATOM     59  C   UNL     1      -1.490   7.655   2.073  1.00  0.00     0.049 A 
ATOM     60  C   UNL     1       0.637   5.309   6.653  1.00  0.00     0.074 A 
ATOM     61  C   UNL     1      -2.280   8.780   2.250  1.00  0.00     0.029 A 
ATOM     62  N   UNL     1      -1.053   7.276   3.332  1.00  0.00    -0.354 N 
ATOM     63  N   UNL     1       0.050   5.963   5.680  1.00  0.00    -0.248 NA
ATOM     64  C   UNL     1       0.458   5.918   7.979  1.00  0.00     0.031 C 
ATOM     65  C   UNL     1      -2.283   9.107   3.611  1.00  0.00     0.029 A 
ATOM     66  C   UNL     1      -1.539   8.155   4.287  1.00  0.00     0.049 A 
ATOM     67  H   UNL     1      -0.481   6.497   3.520  1.00  0.00     0.167 HD
ATOM     68  C   UNL     1      -0.575   7.050   6.278  1.00  0.00     0.074 A 
ATOM     69  C   UNL     1      -0.324   6.949   7.700  1.00  0.00     0.031 C 
ATOM     70  C   UNL     1      -1.283   8.050   5.699  1.00  0.00     0.037 A 
BRANCH  57  71
ATOM     71  C   UNL     1      -1.754   7.503  -0.426  1.00  0.00     0.057 A 
ATOM     72  C   UNL     1      -2.803   6.855  -1.089  1.00  0.00     0.134 A 
ATOM     73  C   UNL     1      -1.307   8.720  -0.960  1.00  0.00     0.134 A 
ATOM     74  F   UNL     1      -3.266   5.677  -0.641  1.00  0.00    -0.206 F 
ATOM     75  C   UNL     1      -3.384   7.395  -2.239  1.00  0.00     0.040 A 
ATOM     76  C   UNL     1      -1.892   9.280  -2.096  1.00  0.00     0.040 A 
ATOM     77  F   UNL     1      -0.307   9.394  -0.371  1.00  0.00    -0.206 F 
ATOM     78  C   UNL     1      -2.934   8.616  -2.740  1.00  0.00     0.006 A 
ENDBRANCH  57  71
BRANCH  58  79
ATOM     79  C   UNL     1       2.031   3.472   7.839  1.00  0.00     0.057 A 
ATOM     80  C   UNL     1       1.209   2.927   8.832  1.00  0.00     0.134 A 
ATOM     81  C   UNL     1       3.411   3.487   8.082  1.00  0.00     0.134 A 
ATOM     82  F   UNL     1      -0.123   2.916   8.677  1.00  0.00    -0.206 F 
ATOM     83  C   UNL     1       1.737   2.432  10.027  1.00  0.00     0.040 A 
ATOM     84  C   UNL     1       3.954   2.962   9.255  1.00  0.00     0.040 A 
ATOM     85  F   UNL     1       4.254   4.005   7.177  1.00  0.00    -0.206 F 
ATOM     86  C   UNL     1       3.115   2.441  10.236  1.00  0.00     0.006 A 
ENDBRANCH  58  79
BRANCH  70  87
ATOM     87  C   UNL     1      -1.857   9.092   6.615  1.00  0.00     0.057 A 
ATOM     88  C   UNL     1      -1.046  10.028   7.270  1.00  0.00     0.134 A 
ATOM     89  C   UNL     1      -3.235   9.147   6.859  1.00  0.00     0.134 A 
ATOM     90  F   UNL     1       0.284  10.019   7.090  1.00  0.00    -0.206 F 
ATOM     91  C   UNL     1      -1.579  10.953   8.169  1.00  0.00     0.040 A 
ATOM     92  C   UNL     1      -3.783  10.086   7.734  1.00  0.00     0.040 A 
ATOM     93  F   UNL     1      -4.070   8.288   6.256  1.00  0.00    -0.206 F 
ATOM     94  C   UNL     1      -2.953  10.984   8.402  1.00  0.00     0.006 A 
ENDBRANCH  70  87
ENDBRANCH  44  45
ENDBRANCH  37  39
ENDBRANCH  36  37
ENDBRANCH  35  36
ENDBRANCH  34  35
ENDBRANCH  33  34
ENDBRANCH  32  33
ENDBRANCH   1  32
TORSDOF 21
