REMARK SMILES O=C(OCCOCCOCCOC(=O)c1ccc(-c2c3nc(c(-c4c(F)cccc4F)c4ccc([nH]4)c(-c4c(F)cccc4F)c4nc(c(-c5c(F)cccc5F)c5ccc2[nH]5)C=C4)C=C3)cc1)C1=Cc2cc(Cl)ccc2O[C@@H]1C(F)(F)F
REMARK SMILES IDX 8 1 7 2 6 3 5 4 4 5 3 6 2 7 1 8 69 9 70 10 79 11 71 12 78 13
REMARK SMILES IDX 72 14 77 15 73 16 76 17 74 18 75 19 80 20 81 21 82 22 83 23
REMARK SMILES IDX 9 24 10 25 11 26 12 27 13 28 14 29 15 30 16 31 68 32 17 33
REMARK SMILES IDX 67 34 18 35 19 36 20 37 61 38 21 39 66 40 60 41 62 42 22 43
REMARK SMILES IDX 65 44 59 45 58 46 23 48 49 49 32 50 48 51 33 52 36 53 47 54
REMARK SMILES IDX 63 55 34 56 35 57 46 59 64 60 37 61 24 62 25 63 30 64 26 65
REMARK SMILES IDX 27 66 29 67 31 68 28 69 50 70 51 71 56 72 52 73 53 74 55 75
REMARK SMILES IDX 57 76 54 77 38 78 39 79 44 80 40 81 41 82 43 83 45 84 42 85
REMARK H PARENT 62 47 36 58
REMARK Flexibility Score: inf
ROOT
ATOM      1  C   UNL     1       2.107  -3.317  -0.424  1.00  0.00     0.188 C 
ENDROOT
BRANCH   1   2
ATOM      2  C   UNL     1       2.386  -1.919  -0.997  1.00  0.00     0.188 C 
BRANCH   2   3
ATOM      3  O   UNL     1       3.774  -1.436  -1.279  1.00  0.00    -0.376 OA
BRANCH   3   4
ATOM      4  C   UNL     1       4.507   0.052  -0.780  1.00  0.00     0.202 C 
BRANCH   4   5
ATOM      5  C   UNL     1       3.835   1.234   0.915  1.00  0.00     0.261 C 
BRANCH   5   6
ATOM      6  O   UNL     1       2.844   2.387   0.870  1.00  0.00    -0.460 OA
BRANCH   6   7
ATOM      7  C   UNL     1       2.985   3.117  -0.246  1.00  0.00     0.338 C 
ATOM      8  O   UNL     1       2.243   3.967  -0.675  1.00  0.00    -0.246 OA
BRANCH   7   9
ATOM      9  C   UNL     1       3.885   2.207  -0.940  1.00  0.00     0.087 C 
ATOM     10  C   UNL     1       5.281   2.215  -0.516  1.00  0.00     0.027 C 
ATOM     11  C   UNL     1       2.685   0.727  -0.723  1.00  0.00     0.316 C 
ATOM     12  C   UNL     1       6.022   0.969   0.544  1.00  0.00     0.019 A 
ATOM     13  O   UNL     1       3.394  -0.553   0.572  1.00  0.00    -0.475 OA
ATOM     14  C   UNL     1       7.323   1.105   0.942  1.00  0.00     0.032 A 
ATOM     15  C   UNL     1       5.121  -0.376   1.150  1.00  0.00     0.128 A 
ATOM     16  C   UNL     1       7.795   0.073   1.774  1.00  0.00     0.041 A 
ATOM     17  C   UNL     1       5.658  -1.346   1.947  1.00  0.00     0.048 A 
ATOM     18  Cl  UNL     1       9.450   0.193   2.288  1.00  0.00    -0.084 Cl
ATOM     19  C   UNL     1       7.022  -1.082   2.235  1.00  0.00     0.024 A 
BRANCH  11  20
ATOM     20  C   UNL     1       2.397   0.602  -2.382  1.00  0.00     0.430 C 
ATOM     21  F   UNL     1       2.601  -0.537  -3.046  1.00  0.00    -0.167 F 
ATOM     22  F   UNL     1       1.121   0.985  -2.642  1.00  0.00    -0.167 F 
ATOM     23  F   UNL     1       3.173   1.495  -3.078  1.00  0.00    -0.167 F 
ENDBRANCH  11  20
ENDBRANCH   7   9
ENDBRANCH   6   7
ENDBRANCH   5   6
ENDBRANCH   4   5
ENDBRANCH   3   4
ENDBRANCH   2   3
ENDBRANCH   1   2
BRANCH   1  24
ATOM     24  O   UNL     1       3.063  -3.898   0.427  1.00  0.00    -0.376 OA
BRANCH  24  25
ATOM     25  C   UNL     1       4.360  -4.044  -0.136  1.00  0.00     0.202 C 
BRANCH  25  26
ATOM     26  C   UNL     1       4.477  -4.727  -1.512  1.00  0.00     0.261 C 
BRANCH  26  27
ATOM     27  O   UNL     1       3.983  -3.937  -2.621  1.00  0.00    -0.460 OA
BRANCH  27  28
ATOM     28  C   UNL     1       2.941  -4.431  -3.340  1.00  0.00     0.338 C 
ATOM     29  O   UNL     1       2.342  -5.476  -3.151  1.00  0.00    -0.246 OA
BRANCH  28  30
ATOM     30  C   UNL     1       2.524  -3.438  -4.355  1.00  0.00     0.060 A 
ATOM     31  C   UNL     1       1.260  -2.829  -4.276  1.00  0.00     0.016 A 
ATOM     32  C   UNL     1       3.376  -3.143  -5.417  1.00  0.00     0.016 A 
ATOM     33  C   UNL     1       0.877  -1.871  -5.224  1.00  0.00     0.010 A 
ATOM     34  C   UNL     1       2.969  -2.230  -6.394  1.00  0.00     0.010 A 
ATOM     35  C   UNL     1       1.721  -1.585  -6.304  1.00  0.00    -0.014 A 
BRANCH  35  36
ATOM     36  C   UNL     1       1.247  -0.776  -7.456  1.00  0.00     0.031 A 
ATOM     37  C   UNL     1       0.611  -1.502  -8.607  1.00  0.00     0.074 A 
ATOM     38  C   UNL     1       1.440   0.554  -7.520  1.00  0.00     0.049 A 
ATOM     39  N   UNL     1       0.265  -1.054  -9.785  1.00  0.00    -0.248 NA
ATOM     40  C   UNL     1       0.344  -2.936  -8.404  1.00  0.00     0.031 C 
ATOM     41  C   UNL     1       2.013   1.376  -6.458  1.00  0.00     0.029 A 
ATOM     42  N   UNL     1       1.198   1.445  -8.540  1.00  0.00    -0.354 N 
ATOM     43  C   UNL     1      -0.234  -2.153 -10.472  1.00  0.00     0.074 A 
ATOM     44  C   UNL     1      -0.143  -3.290  -9.584  1.00  0.00     0.031 C 
ATOM     45  C   UNL     1       2.106   2.647  -6.891  1.00  0.00     0.029 A 
ATOM     46  C   UNL     1       1.644   2.720  -8.277  1.00  0.00     0.049 A 
ATOM     47  H   UNL     1       0.750   1.194  -9.380  1.00  0.00     0.167 HD
ATOM     48  C   UNL     1      -0.712  -2.208 -11.736  1.00  0.00     0.037 A 
ATOM     49  C   UNL     1       1.713   3.804  -9.078  1.00  0.00     0.037 A 
ATOM     50  C   UNL     1      -0.788  -1.075 -12.619  1.00  0.00     0.049 A 
ATOM     51  C   UNL     1       1.237   3.695 -10.509  1.00  0.00     0.074 A 
ATOM     52  C   UNL     1      -1.297  -1.023 -13.904  1.00  0.00     0.029 A 
ATOM     53  N   UNL     1      -0.320   0.194 -12.319  1.00  0.00    -0.354 N 
ATOM     54  N   UNL     1       0.713   2.667 -11.133  1.00  0.00    -0.248 NA
ATOM     55  C   UNL     1       1.373   4.894 -11.354  1.00  0.00     0.031 C 
ATOM     56  C   UNL     1      -1.059   0.255 -14.413  1.00  0.00     0.029 A 
ATOM     57  C   UNL     1      -0.481   1.024 -13.415  1.00  0.00     0.049 A 
ATOM     58  H   UNL     1       0.069   0.465 -11.456  1.00  0.00     0.167 HD
ATOM     59  C   UNL     1       0.434   3.101 -12.425  1.00  0.00     0.074 A 
ATOM     60  C   UNL     1       0.826   4.492 -12.492  1.00  0.00     0.031 C 
ATOM     61  C   UNL     1      -0.095   2.410 -13.464  1.00  0.00     0.037 A 
BRANCH  48  62
ATOM     62  C   UNL     1      -1.140  -3.545 -12.265  1.00  0.00     0.057 A 
ATOM     63  C   UNL     1      -2.291  -4.197 -11.807  1.00  0.00     0.134 A 
ATOM     64  C   UNL     1      -0.415  -4.159 -13.296  1.00  0.00     0.134 A 
ATOM     65  F   UNL     1      -3.022  -3.671 -10.813  1.00  0.00    -0.206 F 
ATOM     66  C   UNL     1      -2.697  -5.420 -12.344  1.00  0.00     0.040 A 
ATOM     67  C   UNL     1      -0.828  -5.364 -13.862  1.00  0.00     0.040 A 
ATOM     68  F   UNL     1       0.697  -3.586 -13.782  1.00  0.00    -0.206 F 
ATOM     69  C   UNL     1      -1.971  -6.001 -13.383  1.00  0.00     0.006 A 
ENDBRANCH  48  62
BRANCH  49  70
ATOM     70  C   UNL     1       2.305   5.080  -8.586  1.00  0.00     0.057 A 
ATOM     71  C   UNL     1       1.549   6.258  -8.509  1.00  0.00     0.134 A 
ATOM     72  C   UNL     1       3.662   5.173  -8.246  1.00  0.00     0.134 A 
ATOM     73  F   UNL     1       0.252   6.250  -8.849  1.00  0.00    -0.206 F 
ATOM     74  C   UNL     1       2.124   7.479  -8.149  1.00  0.00     0.040 A 
ATOM     75  C   UNL     1       4.241   6.379  -7.848  1.00  0.00     0.040 A 
ATOM     76  F   UNL     1       4.451   4.089  -8.303  1.00  0.00    -0.206 F 
ATOM     77  C   UNL     1       3.474   7.541  -7.812  1.00  0.00     0.006 A 
ENDBRANCH  49  70
BRANCH  61  78
ATOM     78  C   UNL     1      -0.318   3.145 -14.757  1.00  0.00     0.057 A 
ATOM     79  C   UNL     1       0.744   3.546 -15.577  1.00  0.00     0.134 A 
ATOM     80  C   UNL     1      -1.618   3.382 -15.224  1.00  0.00     0.134 A 
ATOM     81  F   UNL     1       2.014   3.358 -15.187  1.00  0.00    -0.206 F 
ATOM     82  C   UNL     1       0.521   4.171 -16.805  1.00  0.00     0.040 A 
ATOM     83  C   UNL     1      -1.854   3.974 -16.465  1.00  0.00     0.040 A 
ATOM     84  F   UNL     1      -2.683   3.011 -14.496  1.00  0.00    -0.206 F 
ATOM     85  C   UNL     1      -0.781   4.375 -17.258  1.00  0.00     0.006 A 
ENDBRANCH  61  78
ENDBRANCH  35  36
ENDBRANCH  28  30
ENDBRANCH  27  28
ENDBRANCH  26  27
ENDBRANCH  25  26
ENDBRANCH  24  25
ENDBRANCH   1  24
TORSDOF 18
