REMARK SMILES NC(=O)c1c(F)cccc1O[C@@H](F)C(=O)OCCOCCOCCOC(=O)c1ccc(-c2c3nc(c(-c4c(F)cccc4F)c4ccc([nH]4)c(-c4c(F)cccc4F)c4nc(c(-c5c(F)cccc5F)c5ccc2[nH]5)C=C4)C=C3)cc1
REMARK SMILES IDX 20 1 19 2 18 3 17 4 16 5 14 6 15 7 12 8 13 9 11 10 10 11
REMARK SMILES IDX 4 12 5 13 6 14 7 15 9 16 8 17 2 18 1 19 3 22 21 23 22 24
REMARK SMILES IDX 23 25 24 26 25 27 26 28 27 29 28 30 29 31 81 32 30 33 80 34
REMARK SMILES IDX 31 35 32 36 33 37 74 38 34 39 79 40 73 41 75 42 35 43 78 44
REMARK SMILES IDX 72 45 71 46 36 48 62 49 45 50 61 51 46 52 49 53 60 54 76 55
REMARK SMILES IDX 47 56 48 57 59 59 77 60 50 61 37 62 38 63 43 64 39 65 40 66
REMARK SMILES IDX 42 67 44 68 41 69 63 70 64 71 69 72 65 73 66 74 68 75 70 76
REMARK SMILES IDX 67 77 51 78 52 79 57 80 53 81 54 82 56 83 58 84 55 85
REMARK H PARENT 1 20 1 21 75 47 49 58
REMARK Flexibility Score: inf
ROOT
ATOM      1  C   UNL     1       0.330   3.847   1.913  1.00  0.00     0.188 C 
ENDROOT
BRANCH   1   2
ATOM      2  O   UNL     1       0.875   3.081   2.981  1.00  0.00    -0.376 OA
BRANCH   2   3
ATOM      3  C   UNL     1       1.337   1.760   2.705  1.00  0.00     0.202 C 
BRANCH   3   4
ATOM      4  C   UNL     1       0.403   0.829   1.918  1.00  0.00     0.261 C 
BRANCH   4   5
ATOM      5  O   UNL     1       0.044   1.352   0.623  1.00  0.00    -0.458 OA
BRANCH   5   6
ATOM      6  C   UNL     1      -1.265   1.215   0.250  1.00  0.00     0.381 C 
ATOM      7  O   UNL     1      -2.105   0.635   0.931  1.00  0.00    -0.244 OA
BRANCH   6   8
ATOM      8  C   UNL     1      -1.605   2.032  -1.036  1.00  0.00     0.461 C 
ATOM      9  F   UNL     1      -2.658   1.497  -1.727  1.00  0.00    -0.189 F 
BRANCH   8  10
ATOM     10  O   UNL     1      -0.755   2.623  -1.996  1.00  0.00    -0.450 OA
BRANCH  10  11
ATOM     11  C   UNL     1       0.400   2.113  -2.498  1.00  0.00     0.139 A 
ATOM     12  C   UNL     1       0.939   0.825  -2.438  1.00  0.00     0.117 A 
ATOM     13  C   UNL     1       2.203   0.583  -3.000  1.00  0.00     0.139 A 
ATOM     14  F   UNL     1       2.751  -0.642  -2.954  1.00  0.00    -0.206 F 
ATOM     15  C   UNL     1       2.932   1.587  -3.633  1.00  0.00     0.040 A 
ATOM     16  C   UNL     1       1.143   3.115  -3.161  1.00  0.00     0.047 A 
ATOM     17  C   UNL     1       2.397   2.862  -3.722  1.00  0.00     0.007 A 
BRANCH  12  18
ATOM     18  C   UNL     1       0.223  -0.330  -1.877  1.00  0.00     0.255 C 
ATOM     19  N   UNL     1       0.915  -1.138  -1.022  1.00  0.00    -0.365 N 
ATOM     20  H   UNL     1       0.476  -1.923  -0.622  1.00  0.00     0.159 HD
ATOM     21  H   UNL     1       1.854  -0.935  -0.804  1.00  0.00     0.159 HD
ATOM     22  O   UNL     1      -0.957  -0.529  -2.119  1.00  0.00    -0.269 OA
ENDBRANCH  12  18
ENDBRANCH  10  11
ENDBRANCH   8  10
ENDBRANCH   6   8
ENDBRANCH   5   6
ENDBRANCH   4   5
ENDBRANCH   3   4
ENDBRANCH   2   3
ENDBRANCH   1   2
BRANCH   1  23
ATOM     23  C   UNL     1       1.136   3.976   0.605  1.00  0.00     0.188 C 
BRANCH  23  24
ATOM     24  O   UNL     1       2.325   3.211   0.575  1.00  0.00    -0.376 OA
BRANCH  24  25
ATOM     25  C   UNL     1       3.540   3.946   0.536  1.00  0.00     0.202 C 
BRANCH  25  26
ATOM     26  C   UNL     1       3.838   4.905   1.704  1.00  0.00     0.261 C 
BRANCH  26  27
ATOM     27  O   UNL     1       2.765   5.774   2.112  1.00  0.00    -0.460 OA
BRANCH  27  28
ATOM     28  C   UNL     1       2.478   6.833   1.321  1.00  0.00     0.338 C 
ATOM     29  O   UNL     1       3.039   7.146   0.285  1.00  0.00    -0.246 OA
BRANCH  28  30
ATOM     30  C   UNL     1       1.199   7.416   1.797  1.00  0.00     0.060 A 
ATOM     31  C   UNL     1       0.100   7.444   0.925  1.00  0.00     0.016 A 
ATOM     32  C   UNL     1       1.067   7.888   3.105  1.00  0.00     0.016 A 
ATOM     33  C   UNL     1      -1.127   7.958   1.356  1.00  0.00     0.010 A 
ATOM     34  C   UNL     1      -0.154   8.427   3.525  1.00  0.00     0.010 A 
ATOM     35  C   UNL     1      -1.251   8.487   2.647  1.00  0.00    -0.014 A 
BRANCH  35  36
ATOM     36  C   UNL     1      -2.465   9.256   3.022  1.00  0.00     0.031 A 
ATOM     37  C   UNL     1      -2.423  10.756   2.917  1.00  0.00     0.074 A 
ATOM     38  C   UNL     1      -3.590   8.646   3.438  1.00  0.00     0.049 A 
ATOM     39  N   UNL     1      -3.334  11.638   3.238  1.00  0.00    -0.248 NA
ATOM     40  C   UNL     1      -1.184  11.340   2.376  1.00  0.00     0.031 C 
ATOM     41  C   UNL     1      -3.777   7.202   3.547  1.00  0.00     0.029 A 
ATOM     42  N   UNL     1      -4.787   9.175   3.857  1.00  0.00    -0.354 N 
ATOM     43  C   UNL     1      -2.778  12.877   2.946  1.00  0.00     0.074 A 
ATOM     44  C   UNL     1      -1.442  12.637   2.445  1.00  0.00     0.031 C 
ATOM     45  C   UNL     1      -5.014   6.958   4.016  1.00  0.00     0.029 A 
ATOM     46  C   UNL     1      -5.693   8.229   4.272  1.00  0.00     0.049 A 
ATOM     47  H   UNL     1      -4.978  10.140   3.858  1.00  0.00     0.167 HD
ATOM     48  C   UNL     1      -3.334  14.104   3.075  1.00  0.00     0.037 A 
ATOM     49  C   UNL     1      -6.918   8.372   4.819  1.00  0.00     0.037 A 
ATOM     50  C   UNL     1      -4.664  14.344   3.567  1.00  0.00     0.049 A 
ATOM     51  C   UNL     1      -7.490   9.752   5.020  1.00  0.00     0.074 A 
ATOM     52  C   UNL     1      -5.321  15.554   3.704  1.00  0.00     0.029 A 
ATOM     53  N   UNL     1      -5.535  13.362   4.011  1.00  0.00    -0.354 N 
ATOM     54  N   UNL     1      -6.966  10.916   4.716  1.00  0.00    -0.248 NA
ATOM     55  C   UNL     1      -8.821   9.842   5.641  1.00  0.00     0.031 C 
ATOM     56  C   UNL     1      -6.566  15.311   4.287  1.00  0.00     0.029 A 
ATOM     57  C   UNL     1      -6.711  13.943   4.454  1.00  0.00     0.049 A 
ATOM     58  H   UNL     1      -5.345  12.396   4.011  1.00  0.00     0.167 HD
ATOM     59  C   UNL     1      -7.909  11.869   5.086  1.00  0.00     0.074 A 
ATOM     60  C   UNL     1      -9.043  11.150   5.624  1.00  0.00     0.031 C 
ATOM     61  C   UNL     1      -7.838  13.220   4.987  1.00  0.00     0.037 A 
BRANCH  48  62
ATOM     62  C   UNL     1      -2.504  15.294   2.696  1.00  0.00     0.057 A 
ATOM     63  C   UNL     1      -2.049  16.184   3.677  1.00  0.00     0.134 A 
ATOM     64  C   UNL     1      -2.225  15.605   1.359  1.00  0.00     0.134 A 
ATOM     65  F   UNL     1      -2.285  15.945   4.976  1.00  0.00    -0.206 F 
ATOM     66  C   UNL     1      -1.366  17.353   3.341  1.00  0.00     0.040 A 
ATOM     67  C   UNL     1      -1.520  16.759   1.012  1.00  0.00     0.040 A 
ATOM     68  F   UNL     1      -2.619  14.785   0.373  1.00  0.00    -0.206 F 
ATOM     69  C   UNL     1      -1.100  17.643   2.004  1.00  0.00     0.006 A 
ENDBRANCH  48  62
BRANCH  49  70
ATOM     70  C   UNL     1      -7.689   7.168   5.229  1.00  0.00     0.057 A 
ATOM     71  C   UNL     1      -7.278   6.372   6.306  1.00  0.00     0.134 A 
ATOM     72  C   UNL     1      -8.854   6.785   4.555  1.00  0.00     0.134 A 
ATOM     73  F   UNL     1      -6.173   6.689   6.999  1.00  0.00    -0.206 F 
ATOM     74  C   UNL     1      -7.982   5.228   6.683  1.00  0.00     0.040 A 
ATOM     75  C   UNL     1      -9.583   5.657   4.937  1.00  0.00     0.040 A 
ATOM     76  F   UNL     1      -9.316   7.522   3.534  1.00  0.00    -0.206 F 
ATOM     77  C   UNL     1      -9.142   4.869   5.999  1.00  0.00     0.006 A 
ENDBRANCH  49  70
BRANCH  61  78
ATOM     78  C   UNL     1      -9.020  14.024   5.448  1.00  0.00     0.057 A 
ATOM     79  C   UNL     1      -9.805  14.732   4.527  1.00  0.00     0.134 A 
ATOM     80  C   UNL     1      -9.326  14.175   6.806  1.00  0.00     0.134 A 
ATOM     81  F   UNL     1      -9.558  14.645   3.211  1.00  0.00    -0.206 F 
ATOM     82  C   UNL     1     -10.839  15.573   4.941  1.00  0.00     0.040 A 
ATOM     83  C   UNL     1     -10.376  14.991   7.231  1.00  0.00     0.040 A 
ATOM     84  F   UNL     1      -8.618  13.521   7.739  1.00  0.00    -0.206 F 
ATOM     85  C   UNL     1     -11.129  15.702   6.297  1.00  0.00     0.006 A 
ENDBRANCH  61  78
ENDBRANCH  35  36
ENDBRANCH  28  30
ENDBRANCH  27  28
ENDBRANCH  26  27
ENDBRANCH  25  26
ENDBRANCH  24  25
ENDBRANCH  23  24
ENDBRANCH   1  23
TORSDOF 20
