REMARK SMILES Cc1cccc(-c2cc(C(=O)OCCOCCOCCOC(=O)c3ccc(-c4c5nc(c(-c6c(F)cccc6F)c6ccc([nH]6)c(-c6c(F)cccc6F)c6nc(c(-c7c(F)cccc7F)c7ccc4[nH]7)C=C6)C=C5)cc3)ccn2)c1
REMARK SMILES IDX 17 1 16 2 15 3 14 4 13 5 12 6 10 7 11 8 9 9 7 10 8 11 80 12
REMARK SMILES IDX 79 13 78 14 6 15 1 16 2 17 3 18 81 19 4 20 5 21 18 22 19 23
REMARK SMILES IDX 20 24 21 25 22 26 23 27 24 28 25 29 77 30 26 31 76 32 27 33
REMARK SMILES IDX 28 34 29 35 70 36 30 37 75 38 69 39 71 40 31 41 74 42 68 43
REMARK SMILES IDX 67 44 32 46 58 47 41 48 57 49 42 50 45 51 56 52 72 53 43 54
REMARK SMILES IDX 44 55 55 57 73 58 46 59 33 60 34 61 39 62 35 63 36 64 38 65
REMARK SMILES IDX 40 66 37 67 59 68 60 69 65 70 61 71 62 72 64 73 66 74 63 75
REMARK SMILES IDX 47 76 48 77 53 78 49 79 50 80 52 81 54 82 51 83
REMARK H PARENT 71 45 45 56
REMARK Flexibility Score: inf
ROOT
ATOM      1  C   UNL     1      -4.281   6.541  -6.188  1.00  0.00     0.188 C 
ENDROOT
BRANCH   1   2
ATOM      2  C   UNL     1      -3.238   7.307  -5.366  1.00  0.00     0.188 C 
BRANCH   2   3
ATOM      3  O   UNL     1      -1.871   6.863  -5.336  1.00  0.00    -0.376 OA
BRANCH   3   4
ATOM      4  C   UNL     1      -1.371   6.026  -6.374  1.00  0.00     0.202 C 
BRANCH   4   5
ATOM      5  C   UNL     1      -0.578   4.740  -5.925  1.00  0.00     0.261 C 
BRANCH   5   6
ATOM      6  O   UNL     1      -1.212   3.688  -5.068  1.00  0.00    -0.460 OA
BRANCH   6   7
ATOM      7  C   UNL     1      -0.856   3.799  -3.744  1.00  0.00     0.338 C 
ATOM      8  O   UNL     1      -0.173   4.776  -3.457  1.00  0.00    -0.246 OA
BRANCH   7   9
ATOM      9  C   UNL     1      -1.498   2.836  -2.614  1.00  0.00     0.063 A 
ATOM     10  C   UNL     1      -1.579   0.795  -1.390  1.00  0.00     0.071 A 
ATOM     11  C   UNL     1      -1.256   1.491  -2.585  1.00  0.00     0.044 A 
ATOM     12  N   UNL     1      -2.289   1.258  -0.324  1.00  0.00    -0.256 NA
ATOM     13  C   UNL     1      -2.429   2.552  -0.275  1.00  0.00     0.112 A 
ATOM     14  C   UNL     1      -1.990   3.300  -1.344  1.00  0.00     0.036 A 
BRANCH  10  15
ATOM     15  C   UNL     1      -0.768  -0.309  -0.933  1.00  0.00     0.000 A 
ATOM     16  C   UNL     1       2.807  -0.776   0.245  1.00  0.00     0.044 C 
ATOM     17  C   UNL     1       1.363  -1.051  -0.040  1.00  0.00    -0.050 A 
ATOM     18  C   UNL     1       0.785  -2.303   0.197  1.00  0.00     0.003 A 
ATOM     19  C   UNL     1       0.575  -0.056  -0.601  1.00  0.00     0.013 A 
ATOM     20  C   UNL     1      -0.575  -2.527  -0.049  1.00  0.00     0.001 A 
ATOM     21  C   UNL     1      -1.357  -1.523  -0.596  1.00  0.00     0.010 A 
ENDBRANCH  10  15
ENDBRANCH   7   9
ENDBRANCH   6   7
ENDBRANCH   5   6
ENDBRANCH   4   5
ENDBRANCH   3   4
ENDBRANCH   2   3
ENDBRANCH   1   2
BRANCH   1  22
ATOM     22  O   UNL     1      -4.003   5.152  -6.134  1.00  0.00    -0.376 OA
BRANCH  22  23
ATOM     23  C   UNL     1      -4.803   4.311  -6.948  1.00  0.00     0.202 C 
BRANCH  23  24
ATOM     24  C   UNL     1      -6.221   4.108  -6.386  1.00  0.00     0.261 C 
BRANCH  24  25
ATOM     25  O   UNL     1      -6.150   3.542  -5.051  1.00  0.00    -0.460 OA
BRANCH  25  26
ATOM     26  C   UNL     1      -6.553   4.332  -4.008  1.00  0.00     0.338 C 
ATOM     27  O   UNL     1      -7.611   4.953  -3.973  1.00  0.00    -0.246 OA
BRANCH  26  28
ATOM     28  C   UNL     1      -5.424   4.551  -3.039  1.00  0.00     0.060 A 
ATOM     29  C   UNL     1      -5.470   5.319  -1.865  1.00  0.00     0.016 A 
ATOM     30  C   UNL     1      -4.179   4.298  -3.530  1.00  0.00     0.016 A 
ATOM     31  C   UNL     1      -4.263   5.858  -1.270  1.00  0.00     0.010 A 
ATOM     32  C   UNL     1      -3.149   5.150  -3.141  1.00  0.00     0.010 A 
ATOM     33  C   UNL     1      -3.034   5.824  -1.938  1.00  0.00    -0.014 A 
BRANCH  33  34
ATOM     34  C   UNL     1      -1.649   6.486  -1.613  1.00  0.00     0.031 A 
ATOM     35  C   UNL     1      -0.218   5.894  -1.005  1.00  0.00     0.074 A 
ATOM     36  C   UNL     1      -1.687   7.782  -1.978  1.00  0.00     0.049 A 
ATOM     37  N   UNL     1       0.586   6.545  -0.189  1.00  0.00    -0.248 NA
ATOM     38  C   UNL     1       0.398   4.525  -1.105  1.00  0.00     0.031 C 
ATOM     39  C   UNL     1      -0.600   8.728  -2.076  1.00  0.00     0.029 A 
ATOM     40  N   UNL     1      -2.850   8.565  -2.096  1.00  0.00    -0.354 N 
ATOM     41  C   UNL     1       1.764   5.760  -0.056  1.00  0.00     0.074 A 
ATOM     42  C   UNL     1       1.362   4.430  -0.207  1.00  0.00     0.031 C 
ATOM     43  C   UNL     1      -1.111   9.958  -1.885  1.00  0.00     0.029 A 
ATOM     44  C   UNL     1      -2.517   9.802  -1.532  1.00  0.00     0.049 A 
ATOM     45  H   UNL     1      -3.712   8.299  -2.490  1.00  0.00     0.167 HD
ATOM     46  C   UNL     1       3.021   6.268  -0.254  1.00  0.00     0.037 A 
ATOM     47  C   UNL     1      -3.126  10.189  -0.374  1.00  0.00     0.037 A 
ATOM     48  C   UNL     1       2.919   7.693  -0.093  1.00  0.00     0.049 A 
ATOM     49  C   UNL     1      -2.133  10.364   0.755  1.00  0.00     0.074 A 
ATOM     50  C   UNL     1       2.906   8.762  -0.962  1.00  0.00     0.029 A 
ATOM     51  N   UNL     1       2.395   8.130   1.103  1.00  0.00    -0.354 N 
ATOM     52  N   UNL     1      -0.891   9.963   0.688  1.00  0.00    -0.248 NA
ATOM     53  C   UNL     1      -2.426  11.007   2.033  1.00  0.00     0.031 C 
ATOM     54  C   UNL     1       2.177   9.804  -0.314  1.00  0.00     0.029 A 
ATOM     55  C   UNL     1       1.807   9.364   0.946  1.00  0.00     0.049 A 
ATOM     56  H   UNL     1       2.435   7.630   1.950  1.00  0.00     0.167 HD
ATOM     57  C   UNL     1      -0.241  10.243   1.855  1.00  0.00     0.074 A 
ATOM     58  C   UNL     1      -1.239  10.913   2.663  1.00  0.00     0.031 C 
ATOM     59  C   UNL     1       1.051   9.872   2.078  1.00  0.00     0.037 A 
BRANCH  46  60
ATOM     60  C   UNL     1       4.287   5.561  -0.815  1.00  0.00     0.057 A 
ATOM     61  C   UNL     1       5.433   6.347  -1.084  1.00  0.00     0.134 A 
ATOM     62  C   UNL     1       4.458   4.212  -1.222  1.00  0.00     0.134 A 
ATOM     63  F   UNL     1       5.495   7.634  -0.716  1.00  0.00    -0.206 F 
ATOM     64  C   UNL     1       6.583   5.871  -1.747  1.00  0.00     0.040 A 
ATOM     65  C   UNL     1       5.616   3.719  -1.866  1.00  0.00     0.040 A 
ATOM     66  F   UNL     1       3.538   3.262  -1.050  1.00  0.00    -0.206 F 
ATOM     67  C   UNL     1       6.678   4.553  -2.152  1.00  0.00     0.006 A 
ENDBRANCH  46  60
BRANCH  47  68
ATOM     68  C   UNL     1      -4.572   9.787  -0.304  1.00  0.00     0.057 A 
ATOM     69  C   UNL     1      -5.411  10.186  -1.371  1.00  0.00     0.134 A 
ATOM     70  C   UNL     1      -5.083   8.788   0.529  1.00  0.00     0.134 A 
ATOM     71  F   UNL     1      -5.011  11.154  -2.211  1.00  0.00    -0.206 F 
ATOM     72  C   UNL     1      -6.613   9.537  -1.678  1.00  0.00     0.040 A 
ATOM     73  C   UNL     1      -6.312   8.151   0.251  1.00  0.00     0.040 A 
ATOM     74  F   UNL     1      -4.357   8.308   1.548  1.00  0.00    -0.206 F 
ATOM     75  C   UNL     1      -7.054   8.492  -0.880  1.00  0.00     0.006 A 
ENDBRANCH  47  68
BRANCH  59  76
ATOM     76  C   UNL     1       1.728   9.821   3.425  1.00  0.00     0.057 A 
ATOM     77  C   UNL     1       1.067   9.452   4.603  1.00  0.00     0.134 A 
ATOM     78  C   UNL     1       3.141   9.843   3.495  1.00  0.00     0.134 A 
ATOM     79  F   UNL     1      -0.265   9.313   4.645  1.00  0.00    -0.206 F 
ATOM     80  C   UNL     1       1.764   9.128   5.772  1.00  0.00     0.040 A 
ATOM     81  C   UNL     1       3.845   9.449   4.632  1.00  0.00     0.040 A 
ATOM     82  F   UNL     1       3.888  10.167   2.427  1.00  0.00    -0.206 F 
ATOM     83  C   UNL     1       3.155   9.096   5.781  1.00  0.00     0.006 A 
ENDBRANCH  59  76
ENDBRANCH  33  34
ENDBRANCH  26  28
ENDBRANCH  25  26
ENDBRANCH  24  25
ENDBRANCH  23  24
ENDBRANCH  22  23
ENDBRANCH   1  22
TORSDOF 18
