REMARK SMILES Cc1ccc(-c2ncc(C(=O)OCCOCCOCCOC(=O)c3ccc(-c4c5nc(c(-c6c(F)cccc6F)c6ccc([nH]6)c(-c6c(F)cccc6F)c6nc(c(-c7c(F)cccc7F)c7ccc4[nH]7)C=C6)C=C5)cc3)c(Nc3ccccc3)n2)cc1
REMARK SMILES IDX 16 1 15 2 14 3 13 4 12 5 10 6 11 7 9 8 6 9 7 10 86 11 8 12
REMARK SMILES IDX 78 13 5 14 1 15 2 16 3 17 88 18 4 19 87 20 79 21 80 23 81 24
REMARK SMILES IDX 85 25 82 26 84 27 83 28 17 29 18 30 19 31 20 32 21 33 22 34
REMARK SMILES IDX 23 35 24 36 25 37 77 38 26 39 76 40 27 41 28 42 29 43 70 44
REMARK SMILES IDX 30 45 75 46 69 47 71 48 31 49 74 50 68 51 67 52 32 54 58 55
REMARK SMILES IDX 41 56 57 57 42 58 45 59 56 60 72 61 43 62 44 63 55 65 73 66
REMARK SMILES IDX 46 67 33 68 34 69 39 70 35 71 36 72 38 73 40 74 37 75 59 76
REMARK SMILES IDX 60 77 65 78 61 79 62 80 64 81 66 82 63 83 47 84 48 85 53 86
REMARK SMILES IDX 49 87 50 88 52 89 54 90 51 91
REMARK H PARENT 79 22 71 53 45 64
REMARK Flexibility Score: inf
ROOT
ATOM      1  C   UNL     1     -10.944   2.146   0.726  1.00  0.00     0.188 C 
ENDROOT
BRANCH   1   2
ATOM      2  O   UNL     1     -10.585   0.839   1.224  1.00  0.00    -0.376 OA
BRANCH   2   3
ATOM      3  C   UNL     1     -10.117   0.570   2.545  1.00  0.00     0.202 C 
BRANCH   3   4
ATOM      4  C   UNL     1      -8.728  -0.285   2.932  1.00  0.00     0.261 C 
BRANCH   4   5
ATOM      5  O   UNL     1      -7.064  -0.121   2.465  1.00  0.00    -0.460 OA
BRANCH   5   6
ATOM      6  C   UNL     1      -6.166  -0.451   1.392  1.00  0.00     0.343 C 
ATOM      7  O   UNL     1      -6.295  -1.244   0.462  1.00  0.00    -0.246 OA
BRANCH   6   8
ATOM      8  C   UNL     1      -4.840   0.123   1.215  1.00  0.00     0.121 A 
ATOM      9  C   UNL     1      -2.185   0.220   0.790  1.00  0.00     0.161 A 
ATOM     10  N   UNL     1      -2.603  -0.233   1.987  1.00  0.00    -0.236 NA
ATOM     11  N   UNL     1      -2.971   0.643  -0.204  1.00  0.00    -0.210 NA
ATOM     12  C   UNL     1      -3.934  -0.257   2.174  1.00  0.00     0.133 A 
ATOM     13  C   UNL     1      -4.298   0.494  -0.051  1.00  0.00     0.149 A 
BRANCH   9  14
ATOM     14  C   UNL     1      -0.763   0.162   0.500  1.00  0.00     0.019 A 
ATOM     15  C   UNL     1       3.495   0.039  -0.136  1.00  0.00     0.044 C 
ATOM     16  C   UNL     1       2.008   0.083   0.038  1.00  0.00    -0.051 A 
ATOM     17  C   UNL     1       1.291  -1.105   0.217  1.00  0.00     0.004 A 
ATOM     18  C   UNL     1       1.325   1.303   0.028  1.00  0.00     0.004 A 
ATOM     19  C   UNL     1      -0.084  -1.065   0.451  1.00  0.00     0.012 A 
ATOM     20  C   UNL     1      -0.051   1.339   0.245  1.00  0.00     0.012 A 
ENDBRANCH   9  14
BRANCH  13  21
ATOM     21  N   UNL     1      -5.048   0.618  -1.254  1.00  0.00    -0.339 N 
ATOM     22  H   UNL     1      -5.976   0.290  -1.230  1.00  0.00     0.168 HD
BRANCH  21  23
ATOM     23  C   UNL     1      -4.596   1.170  -2.489  1.00  0.00     0.040 A 
ATOM     24  C   UNL     1      -4.488   2.560  -2.649  1.00  0.00     0.026 A 
ATOM     25  C   UNL     1      -4.195   0.365  -3.569  1.00  0.00     0.026 A 
ATOM     26  C   UNL     1      -4.048   3.131  -3.854  1.00  0.00     0.002 A 
ATOM     27  C   UNL     1      -3.726   0.934  -4.770  1.00  0.00     0.002 A 
ATOM     28  C   UNL     1      -3.663   2.318  -4.917  1.00  0.00     0.000 A 
ENDBRANCH  21  23
ENDBRANCH  13  21
ENDBRANCH   6   8
ENDBRANCH   5   6
ENDBRANCH   4   5
ENDBRANCH   3   4
ENDBRANCH   2   3
ENDBRANCH   1   2
BRANCH   1  29
ATOM     29  C   UNL     1     -10.966   3.383   1.622  1.00  0.00     0.188 C 
BRANCH  29  30
ATOM     30  O   UNL     1      -9.831   3.363   2.465  1.00  0.00    -0.376 OA
BRANCH  30  31
ATOM     31  C   UNL     1      -9.738   4.412   3.408  1.00  0.00     0.202 C 
BRANCH  31  32
ATOM     32  C   UNL     1      -9.026   5.634   2.809  1.00  0.00     0.261 C 
BRANCH  32  33
ATOM     33  O   UNL     1      -7.796   5.229   2.152  1.00  0.00    -0.460 OA
BRANCH  33  34
ATOM     34  C   UNL     1      -7.790   5.178   0.778  1.00  0.00     0.338 C 
ATOM     35  O   UNL     1      -8.237   6.054   0.049  1.00  0.00    -0.246 OA
BRANCH  34  36
ATOM     36  C   UNL     1      -7.406   3.799   0.305  1.00  0.00     0.060 A 
ATOM     37  C   UNL     1      -7.693   3.246  -0.954  1.00  0.00     0.016 A 
ATOM     38  C   UNL     1      -7.162   2.900   1.282  1.00  0.00     0.016 A 
ATOM     39  C   UNL     1      -7.926   1.808  -1.139  1.00  0.00     0.010 A 
ATOM     40  C   UNL     1      -7.764   1.657   1.082  1.00  0.00     0.010 A 
ATOM     41  C   UNL     1      -8.075   0.906  -0.075  1.00  0.00    -0.014 A 
BRANCH  41  42
ATOM     42  C   UNL     1      -8.753  -0.643  -0.152  1.00  0.00     0.031 A 
ATOM     43  C   UNL     1      -8.395  -2.196   0.520  1.00  0.00     0.074 A 
ATOM     44  C   UNL     1      -9.797  -0.766  -1.009  1.00  0.00     0.049 A 
ATOM     45  N   UNL     1      -8.523  -3.340  -0.144  1.00  0.00    -0.248 NA
ATOM     46  C   UNL     1      -7.820  -2.594   1.856  1.00  0.00     0.031 C 
ATOM     47  C   UNL     1     -10.690  -1.911  -1.174  1.00  0.00     0.029 A 
ATOM     48  N   UNL     1     -10.201   0.117  -2.017  1.00  0.00    -0.354 N 
ATOM     49  C   UNL     1      -8.200  -4.427   0.691  1.00  0.00     0.074 A 
ATOM     50  C   UNL     1      -7.723  -3.903   1.901  1.00  0.00     0.031 C 
ATOM     51  C   UNL     1     -11.295  -1.819  -2.365  1.00  0.00     0.029 A 
ATOM     52  C   UNL     1     -10.758  -0.658  -3.044  1.00  0.00     0.049 A 
ATOM     53  H   UNL     1     -10.112   1.098  -2.007  1.00  0.00     0.167 HD
ATOM     54  C   UNL     1      -8.421  -5.746   0.445  1.00  0.00     0.037 A 
ATOM     55  C   UNL     1     -10.286  -0.611  -4.318  1.00  0.00     0.037 A 
ATOM     56  C   UNL     1      -9.112  -5.905  -0.792  1.00  0.00     0.049 A 
ATOM     57  C   UNL     1      -9.834  -1.948  -4.851  1.00  0.00     0.074 A 
ATOM     58  C   UNL     1     -10.460  -5.899  -1.089  1.00  0.00     0.029 A 
ATOM     59  N   UNL     1      -8.424  -5.668  -1.962  1.00  0.00    -0.354 N 
ATOM     60  N   UNL     1      -9.716  -3.023  -4.122  1.00  0.00    -0.248 NA
ATOM     61  C   UNL     1      -9.435  -2.176  -6.238  1.00  0.00     0.031 C 
ATOM     62  C   UNL     1     -10.588  -5.586  -2.459  1.00  0.00     0.029 A 
ATOM     63  C   UNL     1      -9.316  -5.464  -2.991  1.00  0.00     0.049 A 
ATOM     64  H   UNL     1      -7.444  -5.648  -2.050  1.00  0.00     0.167 HD
ATOM     65  C   UNL     1      -9.163  -4.028  -4.874  1.00  0.00     0.074 A 
ATOM     66  C   UNL     1      -9.046  -3.463  -6.201  1.00  0.00     0.031 C 
ATOM     67  C   UNL     1      -8.816  -5.228  -4.328  1.00  0.00     0.037 A 
BRANCH  54  68
ATOM     68  C   UNL     1      -8.303  -6.777   1.557  1.00  0.00     0.057 A 
ATOM     69  C   UNL     1      -9.373  -7.631   1.863  1.00  0.00     0.134 A 
ATOM     70  C   UNL     1      -7.213  -6.857   2.450  1.00  0.00     0.134 A 
ATOM     71  F   UNL     1     -10.434  -7.733   1.052  1.00  0.00    -0.206 F 
ATOM     72  C   UNL     1      -9.425  -8.389   3.043  1.00  0.00     0.040 A 
ATOM     73  C   UNL     1      -7.274  -7.565   3.663  1.00  0.00     0.040 A 
ATOM     74  F   UNL     1      -6.074  -6.185   2.209  1.00  0.00    -0.206 F 
ATOM     75  C   UNL     1      -8.397  -8.318   3.974  1.00  0.00     0.006 A 
ENDBRANCH  54  68
BRANCH  55  76
ATOM     76  C   UNL     1      -9.761   0.721  -4.716  1.00  0.00     0.057 A 
ATOM     77  C   UNL     1     -10.662   1.802  -4.762  1.00  0.00     0.134 A 
ATOM     78  C   UNL     1      -8.400   1.033  -4.706  1.00  0.00     0.134 A 
ATOM     79  F   UNL     1     -11.986   1.575  -4.773  1.00  0.00    -0.206 F 
ATOM     80  C   UNL     1     -10.237   3.131  -4.689  1.00  0.00     0.040 A 
ATOM     81  C   UNL     1      -7.961   2.365  -4.649  1.00  0.00     0.040 A 
ATOM     82  F   UNL     1      -7.481   0.063  -4.608  1.00  0.00    -0.206 F 
ATOM     83  C   UNL     1      -8.879   3.415  -4.602  1.00  0.00     0.006 A 
ENDBRANCH  55  76
BRANCH  67  84
ATOM     84  C   UNL     1      -7.998  -6.320  -4.970  1.00  0.00     0.057 A 
ATOM     85  C   UNL     1      -6.991  -6.095  -5.914  1.00  0.00     0.134 A 
ATOM     86  C   UNL     1      -8.089  -7.649  -4.490  1.00  0.00     0.134 A 
ATOM     87  F   UNL     1      -6.730  -4.867  -6.382  1.00  0.00    -0.206 F 
ATOM     88  C   UNL     1      -6.158  -7.123  -6.377  1.00  0.00     0.040 A 
ATOM     89  C   UNL     1      -7.226  -8.667  -4.898  1.00  0.00     0.040 A 
ATOM     90  F   UNL     1      -9.003  -8.008  -3.574  1.00  0.00    -0.206 F 
ATOM     91  C   UNL     1      -6.261  -8.408  -5.857  1.00  0.00     0.006 A 
ENDBRANCH  67  84
ENDBRANCH  41  42
ENDBRANCH  34  36
ENDBRANCH  33  34
ENDBRANCH  32  33
ENDBRANCH  31  32
ENDBRANCH  30  31
ENDBRANCH  29  30
ENDBRANCH   1  29
TORSDOF 20
