REMARK SMILES CC(C)C[C@H](NC(=O)[C@H]1N2C(=O)c3ccccc3[C@@H]2SC1(C)C)C(=O)N[C@@H](C)C(=O)OCCOCCOCCOC(=O)c1ccc(-c2c3nc(c(-c4c(F)cccc4F)c4ccc([nH]4)c(-c4c(F)cccc4F)c4nc(c(-c5c(F)cccc5F)c5ccc2[nH]5)C=C4)C=C3)cc1
REMARK SMILES IDX 35 1 34 2 33 3 32 4 31 5 29 6 30 7 27 8 28 9 26 10 24 11
REMARK SMILES IDX 25 12 5 14 4 15 2 16 1 17 3 18 6 19 7 20 8 22 9 23 10 24
REMARK SMILES IDX 21 25 11 26 19 27 20 28 22 29 23 30 12 31 13 32 18 33 14 34
REMARK SMILES IDX 17 35 15 36 16 37 36 38 37 39 38 40 39 41 40 42 41 43 42 44
REMARK SMILES IDX 43 45 44 46 96 47 45 48 95 49 46 50 47 51 48 52 89 53 49 54
REMARK SMILES IDX 94 55 88 56 90 57 50 58 93 59 87 60 86 61 51 63 77 64 60 65
REMARK SMILES IDX 76 66 61 67 64 68 75 69 91 70 62 71 63 72 74 74 92 75 65 76
REMARK SMILES IDX 52 77 53 78 58 79 54 80 55 81 57 82 59 83 56 84 78 85 79 86
REMARK SMILES IDX 84 87 80 88 81 89 83 90 85 91 82 92 66 93 67 94 72 95 68 96
REMARK SMILES IDX 69 97 71 98 73 99 70 100
REMARK H PARENT 26 13 6 21 90 62 64 73
REMARK Flexibility Score: inf
ROOT
ATOM      1  C   UNL     1      -3.629  -1.683   5.948  1.00  0.00     0.188 C 
ENDROOT
BRANCH   1   2
ATOM      2  O   UNL     1      -4.364  -1.647   7.144  1.00  0.00    -0.376 OA
BRANCH   2   3
ATOM      3  C   UNL     1      -5.486  -0.782   7.175  1.00  0.00     0.202 C 
BRANCH   3   4
ATOM      4  C   UNL     1      -5.324   0.630   6.585  1.00  0.00     0.261 C 
BRANCH   4   5
ATOM      5  O   UNL     1      -4.912   0.682   5.182  1.00  0.00    -0.462 OA
BRANCH   5   6
ATOM      6  C   UNL     1      -3.791   1.421   4.922  1.00  0.00     0.328 C 
ATOM      7  O   UNL     1      -3.200   2.066   5.786  1.00  0.00    -0.250 OA
BRANCH   6   8
ATOM      8  C   UNL     1      -3.258   1.389   3.441  1.00  0.00     0.189 C 
ATOM      9  C   UNL     1      -3.319   2.857   3.006  1.00  0.00     0.043 C 
BRANCH   8  10
ATOM     10  N   UNL     1      -3.922   0.586   2.393  1.00  0.00    -0.341 N 
ATOM     11  C   UNL     1      -3.520  -0.092   1.270  1.00  0.00     0.243 C 
ATOM     12  O   UNL     1      -4.438  -0.353   0.477  1.00  0.00    -0.273 OA
ATOM     13  H   UNL     1      -4.894   0.521   2.536  1.00  0.00     0.164 HD
BRANCH  11  14
ATOM     14  C   UNL     1      -2.091  -0.729   0.972  1.00  0.00     0.171 C 
BRANCH  14  15
ATOM     15  C   UNL     1      -1.845  -1.798   2.098  1.00  0.00     0.038 C 
BRANCH  15  16
ATOM     16  C   UNL     1      -2.286  -3.320   1.844  1.00  0.00    -0.015 C 
ATOM     17  C   UNL     1      -2.848  -3.763   0.490  1.00  0.00     0.007 C 
ATOM     18  C   UNL     1      -1.177  -4.332   2.184  1.00  0.00     0.007 C 
ENDBRANCH  15  16
ENDBRANCH  14  15
BRANCH  14  19
ATOM     19  N   UNL     1      -0.909   0.193   0.723  1.00  0.00    -0.342 N 
ATOM     20  C   UNL     1       0.263   0.273  -0.022  1.00  0.00     0.244 C 
ATOM     21  H   UNL     1      -1.004   1.004   1.272  1.00  0.00     0.164 HD
ATOM     22  O   UNL     1       0.872   1.336   0.203  1.00  0.00    -0.273 OA
BRANCH  20  23
ATOM     23  C   UNL     1       0.914  -0.721  -1.159  1.00  0.00     0.191 C 
ATOM     24  N   UNL     1       2.443  -0.743  -1.228  1.00  0.00    -0.309 N 
ATOM     25  C   UNL     1       0.573  -2.226  -1.049  1.00  0.00     0.042 C 
ATOM     26  C   UNL     1       3.207  -0.642  -2.421  1.00  0.00     0.256 C 
ATOM     27  C   UNL     1       3.031  -1.817  -0.475  1.00  0.00     0.176 C 
ATOM     28  S   UNL     1       2.068  -3.215  -1.235  1.00  0.00    -0.123 SA
ATOM     29  C   UNL     1       0.374  -2.607   0.379  1.00  0.00     0.026 C 
ATOM     30  C   UNL     1      -0.499  -2.673  -2.032  1.00  0.00     0.026 C 
ATOM     31  O   UNL     1       2.870  -0.116  -3.471  1.00  0.00    -0.269 OA
ATOM     32  C   UNL     1       4.450  -1.488  -2.246  1.00  0.00     0.046 A 
ATOM     33  C   UNL     1       4.407  -2.011  -0.959  1.00  0.00    -0.002 A 
ATOM     34  C   UNL     1       5.291  -2.090  -3.166  1.00  0.00     0.014 A 
ATOM     35  C   UNL     1       5.283  -2.975  -0.467  1.00  0.00     0.007 A 
ATOM     36  C   UNL     1       6.130  -3.139  -2.722  1.00  0.00     0.001 A 
ATOM     37  C   UNL     1       6.152  -3.552  -1.376  1.00  0.00     0.000 A 
ENDBRANCH  20  23
ENDBRANCH  14  19
ENDBRANCH  11  14
ENDBRANCH   8  10
ENDBRANCH   6   8
ENDBRANCH   5   6
ENDBRANCH   4   5
ENDBRANCH   3   4
ENDBRANCH   2   3
ENDBRANCH   1   2
BRANCH   1  38
ATOM     38  C   UNL     1      -4.320  -2.138   4.655  1.00  0.00     0.188 C 
BRANCH  38  39
ATOM     39  O   UNL     1      -5.690  -2.468   4.653  1.00  0.00    -0.376 OA
BRANCH  39  40
ATOM     40  C   UNL     1      -6.051  -3.681   5.307  1.00  0.00     0.202 C 
BRANCH  40  41
ATOM     41  C   UNL     1      -5.199  -4.927   5.011  1.00  0.00     0.261 C 
BRANCH  41  42
ATOM     42  O   UNL     1      -3.834  -4.830   5.503  1.00  0.00    -0.460 OA
BRANCH  42  43
ATOM     43  C   UNL     1      -3.022  -5.830   5.053  1.00  0.00     0.338 C 
ATOM     44  O   UNL     1      -3.407  -6.799   4.414  1.00  0.00    -0.246 OA
BRANCH  43  45
ATOM     45  C   UNL     1      -1.556  -5.579   5.275  1.00  0.00     0.060 A 
ATOM     46  C   UNL     1      -0.646  -6.630   5.135  1.00  0.00     0.016 A 
ATOM     47  C   UNL     1      -1.033  -4.292   5.265  1.00  0.00     0.016 A 
ATOM     48  C   UNL     1       0.737  -6.382   4.945  1.00  0.00     0.010 A 
ATOM     49  C   UNL     1       0.327  -4.050   4.995  1.00  0.00     0.010 A 
ATOM     50  C   UNL     1       1.256  -5.077   4.800  1.00  0.00    -0.014 A 
BRANCH  50  51
ATOM     51  C   UNL     1       2.689  -4.813   4.366  1.00  0.00     0.031 A 
ATOM     52  C   UNL     1       3.544  -3.689   4.949  1.00  0.00     0.074 A 
ATOM     53  C   UNL     1       3.262  -5.505   3.348  1.00  0.00     0.049 A 
ATOM     54  N   UNL     1       4.829  -3.454   4.776  1.00  0.00    -0.248 NA
ATOM     55  C   UNL     1       2.877  -2.640   5.734  1.00  0.00     0.031 C 
ATOM     56  C   UNL     1       2.580  -6.422   2.430  1.00  0.00     0.029 A 
ATOM     57  N   UNL     1       4.577  -5.555   2.919  1.00  0.00    -0.354 N 
ATOM     58  C   UNL     1       5.092  -2.257   5.435  1.00  0.00     0.074 A 
ATOM     59  C   UNL     1       3.816  -1.712   5.822  1.00  0.00     0.031 C 
ATOM     60  C   UNL     1       3.486  -7.018   1.634  1.00  0.00     0.029 A 
ATOM     61  C   UNL     1       4.819  -6.533   1.976  1.00  0.00     0.049 A 
ATOM     62  H   UNL     1       5.276  -4.948   3.256  1.00  0.00     0.167 HD
ATOM     63  C   UNL     1       6.271  -1.706   5.818  1.00  0.00     0.037 A 
ATOM     64  C   UNL     1       5.977  -7.028   1.485  1.00  0.00     0.037 A 
ATOM     65  C   UNL     1       7.561  -2.247   5.501  1.00  0.00     0.049 A 
ATOM     66  C   UNL     1       7.301  -6.486   1.972  1.00  0.00     0.074 A 
ATOM     67  C   UNL     1       8.807  -1.853   5.956  1.00  0.00     0.029 A 
ATOM     68  N   UNL     1       7.766  -3.305   4.635  1.00  0.00    -0.354 N 
ATOM     69  N   UNL     1       7.539  -5.515   2.818  1.00  0.00    -0.248 NA
ATOM     70  C   UNL     1       8.519  -7.129   1.448  1.00  0.00     0.031 C 
ATOM     71  C   UNL     1       9.771  -2.660   5.341  1.00  0.00     0.029 A 
ATOM     72  C   UNL     1       9.118  -3.576   4.534  1.00  0.00     0.049 A 
ATOM     73  H   UNL     1       7.054  -3.794   4.161  1.00  0.00     0.167 HD
ATOM     74  C   UNL     1       8.924  -5.464   2.960  1.00  0.00     0.074 A 
ATOM     75  C   UNL     1       9.473  -6.506   2.124  1.00  0.00     0.031 C 
ATOM     76  C   UNL     1       9.670  -4.625   3.720  1.00  0.00     0.037 A 
BRANCH  63  77
ATOM     77  C   UNL     1       6.194  -0.512   6.734  1.00  0.00     0.057 A 
ATOM     78  C   UNL     1       6.646   0.752   6.344  1.00  0.00     0.134 A 
ATOM     79  C   UNL     1       5.645  -0.630   8.023  1.00  0.00     0.134 A 
ATOM     80  F   UNL     1       7.208   0.937   5.141  1.00  0.00    -0.206 F 
ATOM     81  C   UNL     1       6.521   1.861   7.186  1.00  0.00     0.040 A 
ATOM     82  C   UNL     1       5.477   0.475   8.855  1.00  0.00     0.040 A 
ATOM     83  F   UNL     1       5.194  -1.815   8.463  1.00  0.00    -0.206 F 
ATOM     84  C   UNL     1       5.917   1.727   8.437  1.00  0.00     0.006 A 
ENDBRANCH  63  77
BRANCH  64  85
ATOM     85  C   UNL     1       5.981  -8.188   0.547  1.00  0.00     0.057 A 
ATOM     86  C   UNL     1       5.625  -8.054  -0.798  1.00  0.00     0.134 A 
ATOM     87  C   UNL     1       6.441  -9.446   0.966  1.00  0.00     0.134 A 
ATOM     88  F   UNL     1       5.181  -6.879  -1.265  1.00  0.00    -0.206 F 
ATOM     89  C   UNL     1       5.743  -9.120  -1.695  1.00  0.00     0.040 A 
ATOM     90  C   UNL     1       6.592 -10.510   0.075  1.00  0.00     0.040 A 
ATOM     91  F   UNL     1       6.827  -9.632   2.237  1.00  0.00    -0.206 F 
ATOM     92  C   UNL     1       6.242 -10.348  -1.263  1.00  0.00     0.006 A 
ENDBRANCH  64  85
BRANCH  76  93
ATOM     93  C   UNL     1      11.159  -4.814   3.727  1.00  0.00     0.057 A 
ATOM     94  C   UNL     1      11.812  -5.271   4.880  1.00  0.00     0.134 A 
ATOM     95  C   UNL     1      11.954  -4.493   2.620  1.00  0.00     0.134 A 
ATOM     96  F   UNL     1      11.112  -5.587   5.980  1.00  0.00    -0.206 F 
ATOM     97  C   UNL     1      13.201  -5.394   4.933  1.00  0.00     0.040 A 
ATOM     98  C   UNL     1      13.343  -4.639   2.652  1.00  0.00     0.040 A 
ATOM     99  F   UNL     1      11.392  -4.061   1.481  1.00  0.00    -0.206 F 
ATOM    100  C   UNL     1      13.970  -5.082   3.814  1.00  0.00     0.006 A 
ENDBRANCH  76  93
ENDBRANCH  50  51
ENDBRANCH  43  45
ENDBRANCH  42  43
ENDBRANCH  41  42
ENDBRANCH  40  41
ENDBRANCH  39  40
ENDBRANCH  38  39
ENDBRANCH   1  38
TORSDOF 23
