REMARK SMILES COc1cccc(NC(=O)[C@@H]2[C@@H](C(=O)OCCOCCOCCOC(=O)c3ccc(-c4c5nc(c(-c6c(F)cccc6F)c6ccc([nH]6)c(-c6c(F)cccc6F)c6nc(c(-c7c(F)cccc7F)c7ccc4[nH]7)C=C6)C=C5)cc3)[C@H]3C=C[C@@H]2C3)c1
REMARK SMILES IDX 19 1 18 2 17 3 16 4 15 5 13 6 14 7 12 8 11 9 84 10 81 11
REMARK SMILES IDX 83 12 85 13 82 14 9 15 8 16 10 18 7 19 3 20 4 21 86 22 5 23
REMARK SMILES IDX 6 24 2 25 1 26 20 27 21 28 22 29 23 30 24 31 25 32 26 33
REMARK SMILES IDX 27 34 28 35 80 36 29 37 79 38 30 39 31 40 32 41 73 42 33 43
REMARK SMILES IDX 78 44 72 45 74 46 34 47 77 48 71 49 70 50 35 52 61 53 44 54
REMARK SMILES IDX 60 55 45 56 48 57 59 58 75 59 46 60 47 61 58 63 76 64 49 65
REMARK SMILES IDX 36 66 37 67 42 68 38 69 39 70 41 71 43 72 40 73 62 74 63 75
REMARK SMILES IDX 68 76 64 77 65 78 67 79 69 80 66 81 50 82 51 83 56 84 52 85
REMARK SMILES IDX 53 86 55 87 57 88 54 89
REMARK H PARENT 8 17 74 51 48 62
REMARK Flexibility Score: inf
ROOT
ATOM      1  C   UNL     1       1.907   7.208   2.646  1.00  0.00     0.188 C 
ENDROOT
BRANCH   1   2
ATOM      2  O   UNL     1       0.600   7.757   2.745  1.00  0.00    -0.376 OA
BRANCH   2   3
ATOM      3  C   UNL     1      -0.257   7.139   3.704  1.00  0.00     0.202 C 
BRANCH   3   4
ATOM      4  C   UNL     1       0.152   7.375   5.160  1.00  0.00     0.261 C 
BRANCH   4   5
ATOM      5  O   UNL     1       1.464   6.852   5.419  1.00  0.00    -0.463 OA
BRANCH   5   6
ATOM      6  C   UNL     1       1.572   5.549   5.785  1.00  0.00     0.310 C 
ATOM      7  O   UNL     1       0.625   4.830   6.057  1.00  0.00    -0.252 OA
BRANCH   6   8
ATOM      8  C   UNL     1       3.040   5.148   5.730  1.00  0.00     0.119 C 
ATOM      9  C   UNL     1       3.379   3.685   6.171  1.00  0.00     0.100 C 
ATOM     10  C   UNL     1       4.327   3.946   7.384  1.00  0.00     0.025 C 
ATOM     11  C   UNL     1       3.842   6.023   6.738  1.00  0.00     0.027 C 
ATOM     12  C   UNL     1       3.508   4.580   8.489  1.00  0.00    -0.027 C 
ATOM     13  C   UNL     1       5.104   5.193   6.931  1.00  0.00     0.017 C 
ATOM     14  C   UNL     1       3.240   5.838   8.113  1.00  0.00    -0.027 C 
BRANCH   9  15
ATOM     15  C   UNL     1       4.131   2.904   5.087  1.00  0.00     0.228 C 
ATOM     16  N   UNL     1       3.572   2.421   3.945  1.00  0.00    -0.326 N 
ATOM     17  H   UNL     1       4.247   2.045   3.335  1.00  0.00     0.169 HD
ATOM     18  O   UNL     1       5.349   2.703   5.191  1.00  0.00    -0.274 OA
BRANCH  16  19
ATOM     19  C   UNL     1       2.276   2.324   3.418  1.00  0.00     0.044 A 
ATOM     20  C   UNL     1       0.897   1.752   1.508  1.00  0.00     0.120 A 
ATOM     21  C   UNL     1      -0.249   2.169   2.169  1.00  0.00     0.046 A 
ATOM     22  C   UNL     1       2.157   1.862   2.101  1.00  0.00     0.072 A 
ATOM     23  C   UNL     1      -0.142   2.580   3.488  1.00  0.00     0.006 A 
ATOM     24  C   UNL     1       1.109   2.609   4.113  1.00  0.00     0.026 A 
BRANCH  20  25
ATOM     25  O   UNL     1       0.763   1.226   0.255  1.00  0.00    -0.497 OA
ATOM     26  C   UNL     1       0.649  -0.197   0.351  1.00  0.00     0.278 C 
ENDBRANCH  20  25
ENDBRANCH  16  19
ENDBRANCH   9  15
ENDBRANCH   6   8
ENDBRANCH   5   6
ENDBRANCH   4   5
ENDBRANCH   3   4
ENDBRANCH   2   3
ENDBRANCH   1   2
BRANCH   1  27
ATOM     27  C   UNL     1       3.034   8.054   3.286  1.00  0.00     0.188 C 
BRANCH  27  28
ATOM     28  O   UNL     1       2.753   9.320   3.863  1.00  0.00    -0.376 OA
BRANCH  28  29
ATOM     29  C   UNL     1       1.930  10.234   3.152  1.00  0.00     0.202 C 
BRANCH  29  30
ATOM     30  C   UNL     1       2.332  10.640   1.726  1.00  0.00     0.261 C 
BRANCH  30  31
ATOM     31  O   UNL     1       2.582   9.538   0.835  1.00  0.00    -0.460 OA
BRANCH  31  32
ATOM     32  C   UNL     1       3.859   9.422   0.399  1.00  0.00     0.338 C 
ATOM     33  O   UNL     1       4.799  10.163   0.643  1.00  0.00    -0.246 OA
BRANCH  32  34
ATOM     34  C   UNL     1       4.037   8.139  -0.310  1.00  0.00     0.060 A 
ATOM     35  C   UNL     1       4.956   7.216   0.208  1.00  0.00     0.016 A 
ATOM     36  C   UNL     1       3.377   7.880  -1.512  1.00  0.00     0.016 A 
ATOM     37  C   UNL     1       5.239   6.040  -0.487  1.00  0.00     0.010 A 
ATOM     38  C   UNL     1       3.684   6.713  -2.223  1.00  0.00     0.010 A 
ATOM     39  C   UNL     1       4.639   5.804  -1.730  1.00  0.00    -0.014 A 
BRANCH  39  40
ATOM     40  C   UNL     1       5.147   4.710  -2.594  1.00  0.00     0.031 A 
ATOM     41  C   UNL     1       6.189   5.031  -3.630  1.00  0.00     0.074 A 
ATOM     42  C   UNL     1       4.706   3.447  -2.463  1.00  0.00     0.049 A 
ATOM     43  N   UNL     1       6.727   4.253  -4.534  1.00  0.00    -0.248 NA
ATOM     44  C   UNL     1       6.684   6.416  -3.651  1.00  0.00     0.031 C 
ATOM     45  C   UNL     1       3.720   2.990  -1.488  1.00  0.00     0.029 A 
ATOM     46  N   UNL     1       5.029   2.318  -3.176  1.00  0.00    -0.354 N 
ATOM     47  C   UNL     1       7.614   5.056  -5.240  1.00  0.00     0.074 A 
ATOM     48  C   UNL     1       7.529   6.384  -4.671  1.00  0.00     0.031 C 
ATOM     49  C   UNL     1       3.504   1.677  -1.682  1.00  0.00     0.029 A 
ATOM     50  C   UNL     1       4.312   1.209  -2.800  1.00  0.00     0.049 A 
ATOM     51  H   UNL     1       5.708   2.305  -3.888  1.00  0.00     0.167 HD
ATOM     52  C   UNL     1       8.426   4.718  -6.269  1.00  0.00     0.037 A 
ATOM     53  C   UNL     1       4.287  -0.034  -3.315  1.00  0.00     0.037 A 
ATOM     54  C   UNL     1       8.514   3.401  -6.843  1.00  0.00     0.049 A 
ATOM     55  C   UNL     1       5.157  -0.372  -4.492  1.00  0.00     0.074 A 
ATOM     56  C   UNL     1       9.327   2.962  -7.873  1.00  0.00     0.029 A 
ATOM     57  N   UNL     1       7.754   2.313  -6.443  1.00  0.00    -0.354 N 
ATOM     58  N   UNL     1       6.000   0.390  -5.142  1.00  0.00    -0.248 NA
ATOM     59  C   UNL     1       5.068  -1.748  -5.005  1.00  0.00     0.031 C 
ATOM     60  C   UNL     1       9.027   1.620  -8.129  1.00  0.00     0.029 A 
ATOM     61  C   UNL     1       8.062   1.210  -7.224  1.00  0.00     0.049 A 
ATOM     62  H   UNL     1       7.094   2.322  -5.713  1.00  0.00     0.167 HD
ATOM     63  C   UNL     1       6.549  -0.414  -6.132  1.00  0.00     0.074 A 
ATOM     64  C   UNL     1       5.959  -1.727  -5.986  1.00  0.00     0.031 C 
ATOM     65  C   UNL     1       7.462  -0.090  -7.079  1.00  0.00     0.037 A 
BRANCH  52  66
ATOM     66  C   UNL     1       9.267   5.806  -6.865  1.00  0.00     0.057 A 
ATOM     67  C   UNL     1      10.380   6.331  -6.197  1.00  0.00     0.134 A 
ATOM     68  C   UNL     1       8.975   6.314  -8.137  1.00  0.00     0.134 A 
ATOM     69  F   UNL     1      10.703   5.898  -4.969  1.00  0.00    -0.206 F 
ATOM     70  C   UNL     1      11.162   7.338  -6.765  1.00  0.00     0.040 A 
ATOM     71  C   UNL     1       9.763   7.302  -8.726  1.00  0.00     0.040 A 
ATOM     72  F   UNL     1       7.923   5.851  -8.829  1.00  0.00    -0.206 F 
ATOM     73  C   UNL     1      10.858   7.821  -8.037  1.00  0.00     0.006 A 
ENDBRANCH  52  66
BRANCH  53  74
ATOM     74  C   UNL     1       3.378  -1.067  -2.762  1.00  0.00     0.057 A 
ATOM     75  C   UNL     1       3.869  -2.120  -1.982  1.00  0.00     0.134 A 
ATOM     76  C   UNL     1       2.015  -1.071  -3.077  1.00  0.00     0.134 A 
ATOM     77  F   UNL     1       5.173  -2.185  -1.680  1.00  0.00    -0.206 F 
ATOM     78  C   UNL     1       3.038  -3.155  -1.549  1.00  0.00     0.040 A 
ATOM     79  C   UNL     1       1.172  -2.096  -2.644  1.00  0.00     0.040 A 
ATOM     80  F   UNL     1       1.489  -0.089  -3.821  1.00  0.00    -0.206 F 
ATOM     81  C   UNL     1       1.684  -3.144  -1.881  1.00  0.00     0.006 A 
ENDBRANCH  53  74
BRANCH  65  82
ATOM     82  C   UNL     1       7.892  -1.179  -8.015  1.00  0.00     0.057 A 
ATOM     83  C   UNL     1       7.051  -1.656  -9.029  1.00  0.00     0.134 A 
ATOM     84  C   UNL     1       9.169  -1.743  -7.913  1.00  0.00     0.134 A 
ATOM     85  F   UNL     1       5.809  -1.170  -9.167  1.00  0.00    -0.206 F 
ATOM     86  C   UNL     1       7.460  -2.671  -9.896  1.00  0.00     0.040 A 
ATOM     87  C   UNL     1       9.598  -2.741  -8.789  1.00  0.00     0.040 A 
ATOM     88  F   UNL     1      10.023  -1.329  -6.965  1.00  0.00    -0.206 F 
ATOM     89  C   UNL     1       8.740  -3.211  -9.781  1.00  0.00     0.006 A 
ENDBRANCH  65  82
ENDBRANCH  39  40
ENDBRANCH  32  34
ENDBRANCH  31  32
ENDBRANCH  30  31
ENDBRANCH  29  30
ENDBRANCH  28  29
ENDBRANCH  27  28
ENDBRANCH   1  27
TORSDOF 20
