REMARK SMILES O=C(OCCOCCOCCOC(=O)[C@@H]1CCC[N@@H+](Cc2ccc(F)cc2Cl)C1)c1ccc(-c2c3nc(c(-c4c(F)cccc4F)c4ccc([nH]4)c(-c4c(F)cccc4F)c4nc(c(-c5c(F)cccc5F)c5ccc2[nH]5)C=C4)C=C3)cc1
REMARK SMILES IDX 7 1 6 2 5 3 4 4 3 5 2 6 1 7 30 8 31 9 83 10 32 11 82 12
REMARK SMILES IDX 33 13 34 14 35 15 76 16 36 17 81 18 75 19 77 20 37 21 80 22
REMARK SMILES IDX 74 23 73 24 38 26 64 27 47 28 63 29 48 30 51 31 62 32 78 33
REMARK SMILES IDX 49 34 50 35 61 37 79 38 52 39 39 40 40 41 45 42 41 43 42 44
REMARK SMILES IDX 44 45 46 46 43 47 65 48 66 49 71 50 67 51 68 52 70 53 72 54
REMARK SMILES IDX 69 55 53 56 54 57 59 58 55 59 56 60 58 61 60 62 57 63 8 64
REMARK SMILES IDX 9 65 10 66 11 67 12 68 13 69 14 70 15 71 16 72 29 73 17 74
REMARK SMILES IDX 19 75 18 76 20 78 21 79 22 80 27 81 23 82 26 83 28 84 24 85
REMARK SMILES IDX 25 86
REMARK H PARENT 77 25 51 36 19 77
REMARK Flexibility Score: inf
ROOT
ATOM      1  C   UNL     1       2.541  -0.598   1.910  1.00  0.00     0.188 C 
ENDROOT
BRANCH   1   2
ATOM      2  O   UNL     1       3.826  -0.912   1.373  1.00  0.00    -0.376 OA
BRANCH   2   3
ATOM      3  C   UNL     1       4.749   0.177   1.312  1.00  0.00     0.202 C 
BRANCH   3   4
ATOM      4  C   UNL     1       4.350   1.383   0.444  1.00  0.00     0.261 C 
BRANCH   4   5
ATOM      5  O   UNL     1       2.967   1.422   0.053  1.00  0.00    -0.460 OA
BRANCH   5   6
ATOM      6  C   UNL     1       2.375   0.921  -1.056  1.00  0.00     0.338 C 
ATOM      7  O   UNL     1       1.193   1.180  -1.271  1.00  0.00    -0.246 OA
BRANCH   6   8
ATOM      8  C   UNL     1       3.084   0.059  -2.040  1.00  0.00     0.060 A 
ATOM      9  C   UNL     1       4.079  -0.858  -1.709  1.00  0.00     0.016 A 
ATOM     10  C   UNL     1       2.627   0.084  -3.367  1.00  0.00     0.016 A 
ATOM     11  C   UNL     1       4.687  -1.654  -2.668  1.00  0.00     0.010 A 
ATOM     12  C   UNL     1       3.189  -0.757  -4.332  1.00  0.00     0.010 A 
ATOM     13  C   UNL     1       4.243  -1.610  -3.985  1.00  0.00    -0.014 A 
BRANCH  13  14
ATOM     14  C   UNL     1       4.942  -2.437  -4.984  1.00  0.00     0.031 A 
ATOM     15  C   UNL     1       5.833  -1.770  -5.975  1.00  0.00     0.074 A 
ATOM     16  C   UNL     1       4.809  -3.774  -4.954  1.00  0.00     0.049 A 
ATOM     17  N   UNL     1       6.472  -2.299  -6.981  1.00  0.00    -0.248 NA
ATOM     18  C   UNL     1       6.011  -0.317  -5.832  1.00  0.00     0.031 C 
ATOM     19  C   UNL     1       3.950  -4.502  -4.024  1.00  0.00     0.029 A 
ATOM     20  N   UNL     1       5.377  -4.756  -5.722  1.00  0.00    -0.354 N 
ATOM     21  C   UNL     1       7.072  -1.235  -7.634  1.00  0.00     0.074 A 
ATOM     22  C   UNL     1       6.747  -0.035  -6.895  1.00  0.00     0.031 C 
ATOM     23  C   UNL     1       4.050  -5.813  -4.287  1.00  0.00     0.029 A 
ATOM     24  C   UNL     1       4.978  -6.026  -5.380  1.00  0.00     0.049 A 
ATOM     25  H   UNL     1       6.011  -4.569  -6.452  1.00  0.00     0.167 HD
ATOM     26  C   UNL     1       7.796  -1.270  -8.774  1.00  0.00     0.037 A 
ATOM     27  C   UNL     1       5.309  -7.213  -5.918  1.00  0.00     0.037 A 
ATOM     28  C   UNL     1       8.103  -2.479  -9.487  1.00  0.00     0.049 A 
ATOM     29  C   UNL     1       6.148  -7.210  -7.158  1.00  0.00     0.074 A 
ATOM     30  C   UNL     1       8.832  -2.632 -10.651  1.00  0.00     0.029 A 
ATOM     31  N   UNL     1       7.684  -3.745  -9.104  1.00  0.00    -0.354 N 
ATOM     32  N   UNL     1       6.673  -6.194  -7.793  1.00  0.00    -0.248 NA
ATOM     33  C   UNL     1       6.386  -8.517  -7.787  1.00  0.00     0.031 C 
ATOM     34  C   UNL     1       8.807  -3.985 -11.004  1.00  0.00     0.029 A 
ATOM     35  C   UNL     1       8.113  -4.681 -10.028  1.00  0.00     0.049 A 
ATOM     36  H   UNL     1       7.160  -3.947  -8.295  1.00  0.00     0.167 HD
ATOM     37  C   UNL     1       7.259  -6.732  -8.925  1.00  0.00     0.074 A 
ATOM     38  C   UNL     1       7.079  -8.168  -8.858  1.00  0.00     0.031 C 
ATOM     39  C   UNL     1       7.869  -6.094  -9.948  1.00  0.00     0.037 A 
BRANCH  26  40
ATOM     40  C   UNL     1       8.210   0.043  -9.356  1.00  0.00     0.057 A 
ATOM     41  C   UNL     1       9.210   0.839  -8.786  1.00  0.00     0.134 A 
ATOM     42  C   UNL     1       7.575   0.523 -10.509  1.00  0.00     0.134 A 
ATOM     43  F   UNL     1       9.831   0.451  -7.662  1.00  0.00    -0.206 F 
ATOM     44  C   UNL     1       9.551   2.077  -9.333  1.00  0.00     0.040 A 
ATOM     45  C   UNL     1       7.925   1.745 -11.079  1.00  0.00     0.040 A 
ATOM     46  F   UNL     1       6.598  -0.188 -11.094  1.00  0.00    -0.206 F 
ATOM     47  C   UNL     1       8.912   2.529 -10.487  1.00  0.00     0.006 A 
ENDBRANCH  26  40
BRANCH  27  48
ATOM     48  C   UNL     1       4.812  -8.518  -5.422  1.00  0.00     0.057 A 
ATOM     49  C   UNL     1       5.631  -9.361  -4.660  1.00  0.00     0.134 A 
ATOM     50  C   UNL     1       3.596  -9.035  -5.879  1.00  0.00     0.134 A 
ATOM     51  F   UNL     1       6.833  -8.937  -4.243  1.00  0.00    -0.206 F 
ATOM     52  C   UNL     1       5.257 -10.676  -4.371  1.00  0.00     0.040 A 
ATOM     53  C   UNL     1       3.210 -10.348  -5.599  1.00  0.00     0.040 A 
ATOM     54  F   UNL     1       2.765  -8.266  -6.597  1.00  0.00    -0.206 F 
ATOM     55  C   UNL     1       4.043 -11.173  -4.844  1.00  0.00     0.006 A 
ENDBRANCH  27  48
BRANCH  39  56
ATOM     56  C   UNL     1       8.342  -6.958 -11.070  1.00  0.00     0.057 A 
ATOM     57  C   UNL     1       7.444  -7.526 -11.982  1.00  0.00     0.134 A 
ATOM     58  C   UNL     1       9.705  -7.219 -11.237  1.00  0.00     0.134 A 
ATOM     59  F   UNL     1       6.122  -7.337 -11.845  1.00  0.00    -0.206 F 
ATOM     60  C   UNL     1       7.890  -8.336 -13.024  1.00  0.00     0.040 A 
ATOM     61  C   UNL     1      10.164  -8.005 -12.291  1.00  0.00     0.040 A 
ATOM     62  F   UNL     1      10.605  -6.710 -10.383  1.00  0.00    -0.206 F 
ATOM     63  C   UNL     1       9.255  -8.568 -13.185  1.00  0.00     0.006 A 
ENDBRANCH  39  56
ENDBRANCH  13  14
ENDBRANCH   6   8
ENDBRANCH   5   6
ENDBRANCH   4   5
ENDBRANCH   3   4
ENDBRANCH   2   3
ENDBRANCH   1   2
BRANCH   1  64
ATOM     64  C   UNL     1       1.946  -1.759   2.700  1.00  0.00     0.188 C 
BRANCH  64  65
ATOM     65  O   UNL     1       2.599  -2.134   3.910  1.00  0.00    -0.376 OA
BRANCH  65  66
ATOM     66  C   UNL     1       4.017  -2.245   3.911  1.00  0.00     0.202 C 
BRANCH  66  67
ATOM     67  C   UNL     1       4.676  -3.428   3.183  1.00  0.00     0.261 C 
BRANCH  67  68
ATOM     68  O   UNL     1       4.179  -3.704   1.871  1.00  0.00    -0.463 OA
BRANCH  68  69
ATOM     69  C   UNL     1       3.132  -4.582   1.870  1.00  0.00     0.314 C 
ATOM     70  O   UNL     1       2.641  -5.065   2.872  1.00  0.00    -0.252 OA
BRANCH  69  71
ATOM     71  C   UNL     1       2.659  -4.827   0.446  1.00  0.00     0.154 C 
ATOM     72  C   UNL     1       1.147  -5.055   0.359  1.00  0.00     0.027 C 
ATOM     73  C   UNL     1       3.401  -6.037  -0.105  1.00  0.00     0.277 C 
ATOM     74  C   UNL     1       0.729  -6.346   1.054  1.00  0.00     0.062 C 
ATOM     75  N   UNL     1       3.080  -7.246   0.661  1.00  0.00    -0.330 N 
ATOM     76  C   UNL     1       1.631  -7.528   0.695  1.00  0.00     0.262 C 
ATOM     77  H   UNL     1       3.347  -7.032   1.622  1.00  0.00     0.348 HD
BRANCH  75  78
ATOM     78  C   UNL     1       3.914  -8.429   0.318  1.00  0.00     0.300 C 
BRANCH  78  79
ATOM     79  C   UNL     1       3.334  -9.237  -0.831  1.00  0.00     0.025 A 
ATOM     80  C   UNL     1       3.268  -8.586  -2.065  1.00  0.00     0.014 A 
ATOM     81  C   UNL     1       2.565 -10.395  -0.641  1.00  0.00     0.052 A 
ATOM     82  C   UNL     1       2.224  -8.864  -2.936  1.00  0.00     0.040 A 
ATOM     83  C   UNL     1       1.605 -10.758  -1.586  1.00  0.00     0.060 A 
ATOM     84  Cl  UNL     1       2.700 -11.359   0.780  1.00  0.00    -0.084 Cl
ATOM     85  C   UNL     1       1.398  -9.946  -2.689  1.00  0.00     0.124 A 
ATOM     86  F   UNL     1       0.399 -10.209  -3.539  1.00  0.00    -0.207 F 
ENDBRANCH  78  79
ENDBRANCH  75  78
ENDBRANCH  69  71
ENDBRANCH  68  69
ENDBRANCH  67  68
ENDBRANCH  66  67
ENDBRANCH  65  66
ENDBRANCH  64  65
ENDBRANCH   1  64
TORSDOF 19
