REMARK SMILES Cc1c(C)c2c(c(C)c1O)CC[C@@](C)(C(=O)OCCOCCOCCOC(=O)c1ccc(-c3c4nc(c(-c5c(F)cccc5F)c5ccc([nH]5)c(-c5c(F)cccc5F)c5nc(c(-c6c(F)cccc6F)c6ccc3[nH]6)C=C5)C=C4)cc1)O2
REMARK SMILES IDX 22 1 21 2 20 3 19 4 18 5 17 6 15 7 16 8 13 9 1 10 2 11 3 12
REMARK SMILES IDX 9 13 4 14 5 15 7 16 6 17 83 18 8 19 11 20 12 21 14 22 10 23
REMARK SMILES IDX 23 25 24 26 25 27 26 28 27 29 28 30 29 31 30 32 82 33 31 34
REMARK SMILES IDX 81 35 32 36 33 37 34 38 75 39 35 40 80 41 74 42 76 43 36 44
REMARK SMILES IDX 79 45 73 46 72 47 37 49 63 50 46 51 62 52 47 53 50 54 61 55
REMARK SMILES IDX 77 56 48 57 49 58 60 60 78 61 51 62 38 63 39 64 44 65 40 66
REMARK SMILES IDX 41 67 43 68 45 69 42 70 64 71 65 72 70 73 66 74 67 75 69 76
REMARK SMILES IDX 71 77 68 78 52 79 53 80 58 81 54 82 55 83 57 84 59 85 56 86
REMARK H PARENT 10 24 76 48 50 59
REMARK Flexibility Score: inf
ROOT
ATOM      1  C   UNL     1       0.287  -1.395  -8.274  1.00  0.00     0.188 C 
ENDROOT
BRANCH   1   2
ATOM      2  C   UNL     1      -0.131  -2.798  -7.820  1.00  0.00     0.188 C 
BRANCH   2   3
ATOM      3  O   UNL     1      -1.013  -3.549  -8.643  1.00  0.00    -0.376 OA
BRANCH   3   4
ATOM      4  C   UNL     1      -2.088  -2.883  -9.294  1.00  0.00     0.202 C 
BRANCH   4   5
ATOM      5  C   UNL     1      -3.083  -2.064  -8.453  1.00  0.00     0.261 C 
BRANCH   5   6
ATOM      6  O   UNL     1      -2.549  -0.979  -7.655  1.00  0.00    -0.460 OA
BRANCH   6   7
ATOM      7  C   UNL     1      -2.588  -1.167  -6.304  1.00  0.00     0.350 C 
ATOM      8  O   UNL     1      -2.971  -2.216  -5.788  1.00  0.00    -0.247 OA
BRANCH   7   9
ATOM      9  C   UNL     1      -2.166   0.063  -5.461  1.00  0.00     0.203 C 
ATOM     10  C   UNL     1       1.010   0.001  -0.167  1.00  0.00     0.049 C 
ATOM     11  C   UNL     1       0.496   0.571  -1.467  1.00  0.00    -0.002 A 
ATOM     12  C   UNL     1      -0.079  -0.259  -2.456  1.00  0.00    -0.002 A 
ATOM     13  C   UNL     1       0.591   1.954  -1.723  1.00  0.00     0.122 A 
ATOM     14  C   UNL     1      -0.133  -1.758  -2.268  1.00  0.00     0.049 C 
ATOM     15  C   UNL     1      -0.632   0.327  -3.616  1.00  0.00     0.127 A 
ATOM     16  C   UNL     1       0.113   2.528  -2.915  1.00  0.00    -0.002 A 
ATOM     17  C   UNL     1      -0.496   1.699  -3.881  1.00  0.00     0.001 A 
ATOM     18  O   UNL     1      -1.305  -0.521  -4.458  1.00  0.00    -0.475 OA
ATOM     19  C   UNL     1       0.270   4.006  -3.170  1.00  0.00     0.049 C 
ATOM     20  C   UNL     1      -1.022   2.279  -5.173  1.00  0.00     0.044 C 
ATOM     21  C   UNL     1      -1.409   1.187  -6.167  1.00  0.00     0.065 C 
ATOM     22  C   UNL     1      -3.474   0.569  -4.828  1.00  0.00     0.069 C 
BRANCH  13  23
ATOM     23  O   UNL     1       1.162   2.809  -0.815  1.00  0.00    -0.507 OA
ATOM     24  H   UNL     1       1.496   2.477  -0.005  1.00  0.00     0.293 HD
ENDBRANCH  13  23
ENDBRANCH   7   9
ENDBRANCH   6   7
ENDBRANCH   5   6
ENDBRANCH   4   5
ENDBRANCH   3   4
ENDBRANCH   2   3
ENDBRANCH   1   2
BRANCH   1  25
ATOM     25  O   UNL     1      -0.137  -1.056  -9.574  1.00  0.00    -0.376 OA
BRANCH  25  26
ATOM     26  C   UNL     1       0.807  -0.506 -10.472  1.00  0.00     0.202 C 
BRANCH  26  27
ATOM     27  C   UNL     1       1.975  -1.417 -10.884  1.00  0.00     0.261 C 
BRANCH  27  28
ATOM     28  O   UNL     1       2.676  -2.077  -9.815  1.00  0.00    -0.460 OA
BRANCH  28  29
ATOM     29  C   UNL     1       3.478  -1.318  -9.030  1.00  0.00     0.338 C 
ATOM     30  O   UNL     1       3.719  -0.130  -9.163  1.00  0.00    -0.246 OA
BRANCH  29  31
ATOM     31  C   UNL     1       3.786  -2.120  -7.818  1.00  0.00     0.060 A 
ATOM     32  C   UNL     1       3.412  -1.619  -6.561  1.00  0.00     0.016 A 
ATOM     33  C   UNL     1       4.361  -3.389  -7.922  1.00  0.00     0.016 A 
ATOM     34  C   UNL     1       3.608  -2.387  -5.410  1.00  0.00     0.010 A 
ATOM     35  C   UNL     1       4.585  -4.144  -6.765  1.00  0.00     0.010 A 
ATOM     36  C   UNL     1       4.227  -3.641  -5.500  1.00  0.00    -0.014 A 
BRANCH  36  37
ATOM     37  C   UNL     1       4.665  -4.341  -4.265  1.00  0.00     0.031 A 
ATOM     38  C   UNL     1       6.091  -4.174  -3.818  1.00  0.00     0.074 A 
ATOM     39  C   UNL     1       3.819  -5.088  -3.532  1.00  0.00     0.049 A 
ATOM     40  N   UNL     1       6.703  -4.684  -2.780  1.00  0.00    -0.248 NA
ATOM     41  C   UNL     1       6.943  -3.314  -4.657  1.00  0.00     0.031 C 
ATOM     42  C   UNL     1       2.405  -5.305  -3.826  1.00  0.00     0.029 A 
ATOM     43  N   UNL     1       4.037  -5.808  -2.380  1.00  0.00    -0.354 N 
ATOM     44  C   UNL     1       8.003  -4.199  -2.835  1.00  0.00     0.074 A 
ATOM     45  C   UNL     1       8.107  -3.393  -4.032  1.00  0.00     0.031 C 
ATOM     46  C   UNL     1       1.881  -6.104  -2.879  1.00  0.00     0.029 A 
ATOM     47  C   UNL     1       2.927  -6.477  -1.925  1.00  0.00     0.049 A 
ATOM     48  H   UNL     1       4.909  -5.840  -1.923  1.00  0.00     0.167 HD
ATOM     49  C   UNL     1       9.015  -4.388  -1.957  1.00  0.00     0.037 A 
ATOM     50  C   UNL     1       2.774  -7.301  -0.867  1.00  0.00     0.037 A 
ATOM     51  C   UNL     1       8.920  -5.191  -0.769  1.00  0.00     0.049 A 
ATOM     52  C   UNL     1       3.945  -7.579   0.043  1.00  0.00     0.074 A 
ATOM     53  C   UNL     1       9.894  -5.429   0.185  1.00  0.00     0.029 A 
ATOM     54  N   UNL     1       7.793  -5.895  -0.377  1.00  0.00    -0.354 N 
ATOM     55  N   UNL     1       5.158  -7.084   0.004  1.00  0.00    -0.248 NA
ATOM     56  C   UNL     1       3.726  -8.531   1.145  1.00  0.00     0.031 C 
ATOM     57  C   UNL     1       9.375  -6.320   1.125  1.00  0.00     0.029 A 
ATOM     58  C   UNL     1       8.058  -6.591   0.790  1.00  0.00     0.049 A 
ATOM     59  H   UNL     1       6.933  -5.899  -0.856  1.00  0.00     0.167 HD
ATOM     60  C   UNL     1       5.833  -7.635   1.088  1.00  0.00     0.074 A 
ATOM     61  C   UNL     1       4.896  -8.500   1.771  1.00  0.00     0.031 C 
ATOM     62  C   UNL     1       7.115  -7.436   1.479  1.00  0.00     0.037 A 
BRANCH  49  63
ATOM     63  C   UNL     1      10.322  -3.712  -2.246  1.00  0.00     0.057 A 
ATOM     64  C   UNL     1      10.477  -2.327  -2.110  1.00  0.00     0.134 A 
ATOM     65  C   UNL     1      11.453  -4.460  -2.596  1.00  0.00     0.134 A 
ATOM     66  F   UNL     1       9.429  -1.553  -1.788  1.00  0.00    -0.206 F 
ATOM     67  C   UNL     1      11.709  -1.707  -2.324  1.00  0.00     0.040 A 
ATOM     68  C   UNL     1      12.696  -3.855  -2.785  1.00  0.00     0.040 A 
ATOM     69  F   UNL     1      11.373  -5.792  -2.736  1.00  0.00    -0.206 F 
ATOM     70  C   UNL     1      12.825  -2.474  -2.652  1.00  0.00     0.006 A 
ENDBRANCH  49  63
BRANCH  50  71
ATOM     71  C   UNL     1       1.449  -7.916  -0.594  1.00  0.00     0.057 A 
ATOM     72  C   UNL     1       0.695  -7.542   0.525  1.00  0.00     0.134 A 
ATOM     73  C   UNL     1       0.905  -8.893  -1.437  1.00  0.00     0.134 A 
ATOM     74  F   UNL     1       1.174  -6.633   1.387  1.00  0.00    -0.206 F 
ATOM     75  C   UNL     1      -0.547  -8.118   0.798  1.00  0.00     0.040 A 
ATOM     76  C   UNL     1      -0.347  -9.460  -1.190  1.00  0.00     0.040 A 
ATOM     77  F   UNL     1       1.580  -9.303  -2.522  1.00  0.00    -0.206 F 
ATOM     78  C   UNL     1      -1.075  -9.075  -0.067  1.00  0.00     0.006 A 
ENDBRANCH  50  71
BRANCH  62  79
ATOM     79  C   UNL     1       7.603  -8.130   2.718  1.00  0.00     0.057 A 
ATOM     80  C   UNL     1       7.901  -9.497   2.728  1.00  0.00     0.134 A 
ATOM     81  C   UNL     1       7.907  -7.394   3.873  1.00  0.00     0.134 A 
ATOM     82  F   UNL     1       7.629 -10.260   1.658  1.00  0.00    -0.206 F 
ATOM     83  C   UNL     1       8.488 -10.108   3.838  1.00  0.00     0.040 A 
ATOM     84  C   UNL     1       8.518  -7.987   4.979  1.00  0.00     0.040 A 
ATOM     85  F   UNL     1       7.660  -6.076   3.925  1.00  0.00    -0.206 F 
ATOM     86  C   UNL     1       8.812  -9.349   4.962  1.00  0.00     0.006 A 
ENDBRANCH  62  79
ENDBRANCH  36  37
ENDBRANCH  29  31
ENDBRANCH  28  29
ENDBRANCH  27  28
ENDBRANCH  26  27
ENDBRANCH  25  26
ENDBRANCH   1  25
TORSDOF 18
