REMARK SMILES O=C(OCCOCCOCCOC(=O)[C@H](c1ccccc1)C(c1ccccc1)c1ccccc1)c1ccc(-c2c3nc(c(-c4c(F)cccc4F)c4ccc([nH]4)c(-c4c(F)cccc4F)c4nc(c(-c5c(F)cccc5F)c5ccc2[nH]5)C=C4)C=C3)cc1
REMARK SMILES IDX 7 1 6 2 5 3 4 4 3 5 2 6 1 7 35 8 36 9 88 10 37 11 87 12
REMARK SMILES IDX 38 13 39 14 40 15 81 16 41 17 86 18 80 19 82 20 42 21 85 22
REMARK SMILES IDX 79 23 78 24 43 26 69 27 52 28 68 29 53 30 56 31 67 32 83 33
REMARK SMILES IDX 54 34 55 35 66 37 84 38 57 39 44 40 45 41 50 42 46 43 47 44
REMARK SMILES IDX 49 45 51 46 48 47 70 48 71 49 76 50 72 51 73 52 75 53 77 54
REMARK SMILES IDX 74 55 58 56 59 57 64 58 60 59 61 60 63 61 65 62 62 63 8 64
REMARK SMILES IDX 9 65 10 66 11 67 12 68 13 69 14 70 15 71 22 72 23 73 24 74
REMARK SMILES IDX 28 75 25 76 27 77 26 78 29 79 30 80 34 81 31 82 33 83 32 84
REMARK SMILES IDX 16 85 17 86 21 87 18 88 20 89 19 90
REMARK H PARENT 82 25 56 36
REMARK Flexibility Score: inf
ROOT
ATOM      1  C   UNL     1       2.482   1.777   1.937  1.00  0.00     0.188 C 
ENDROOT
BRANCH   1   2
ATOM      2  O   UNL     1       1.655   2.664   2.682  1.00  0.00    -0.376 OA
BRANCH   2   3
ATOM      3  C   UNL     1       1.119   2.122   3.891  1.00  0.00     0.202 C 
BRANCH   3   4
ATOM      4  C   UNL     1      -0.049   1.119   3.738  1.00  0.00     0.261 C 
BRANCH   4   5
ATOM      5  O   UNL     1       0.082   0.193   2.642  1.00  0.00    -0.460 OA
BRANCH   5   6
ATOM      6  C   UNL     1      -0.362   0.281   1.364  1.00  0.00     0.338 C 
ATOM      7  O   UNL     1      -0.232  -0.701   0.634  1.00  0.00    -0.246 OA
BRANCH   6   8
ATOM      8  C   UNL     1      -0.990   1.505   0.770  1.00  0.00     0.060 A 
ATOM      9  C   UNL     1      -1.008   2.761   1.369  1.00  0.00     0.016 A 
ATOM     10  C   UNL     1      -1.596   1.380  -0.496  1.00  0.00     0.016 A 
ATOM     11  C   UNL     1      -1.680   3.830   0.805  1.00  0.00     0.010 A 
ATOM     12  C   UNL     1      -2.263   2.461  -1.090  1.00  0.00     0.010 A 
ATOM     13  C   UNL     1      -2.352   3.674  -0.401  1.00  0.00    -0.014 A 
BRANCH  13  14
ATOM     14  C   UNL     1      -3.326   4.727  -0.740  1.00  0.00     0.031 A 
ATOM     15  C   UNL     1      -4.770   4.459  -0.434  1.00  0.00     0.074 A 
ATOM     16  C   UNL     1      -2.898   5.957  -1.072  1.00  0.00     0.049 A 
ATOM     17  N   UNL     1      -5.803   5.247  -0.551  1.00  0.00    -0.248 NA
ATOM     18  C   UNL     1      -5.088   3.127   0.112  1.00  0.00     0.031 C 
ATOM     19  C   UNL     1      -1.495   6.343  -1.212  1.00  0.00     0.029 A 
ATOM     20  N   UNL     1      -3.585   7.117  -1.298  1.00  0.00    -0.354 N 
ATOM     21  C   UNL     1      -6.891   4.501  -0.117  1.00  0.00     0.074 A 
ATOM     22  C   UNL     1      -6.401   3.196   0.255  1.00  0.00     0.031 C 
ATOM     23  C   UNL     1      -1.420   7.652  -1.495  1.00  0.00     0.029 A 
ATOM     24  C   UNL     1      -2.772   8.185  -1.594  1.00  0.00     0.049 A 
ATOM     25  H   UNL     1      -4.566   7.181  -1.254  1.00  0.00     0.167 HD
ATOM     26  C   UNL     1      -8.186   4.881  -0.040  1.00  0.00     0.037 A 
ATOM     27  C   UNL     1      -3.100   9.447  -1.923  1.00  0.00     0.037 A 
ATOM     28  C   UNL     1      -8.643   6.191  -0.411  1.00  0.00     0.049 A 
ATOM     29  C   UNL     1      -4.559   9.809  -1.942  1.00  0.00     0.074 A 
ATOM     30  C   UNL     1      -9.934   6.681  -0.445  1.00  0.00     0.029 A 
ATOM     31  N   UNL     1      -7.806   7.223  -0.817  1.00  0.00    -0.354 N 
ATOM     32  N   UNL     1      -5.596   9.079  -1.604  1.00  0.00    -0.248 NA
ATOM     33  C   UNL     1      -4.897  11.165  -2.389  1.00  0.00     0.031 C 
ATOM     34  C   UNL     1      -9.882   7.995  -0.923  1.00  0.00     0.029 A 
ATOM     35  C   UNL     1      -8.554   8.344  -1.125  1.00  0.00     0.049 A 
ATOM     36  H   UNL     1      -6.825   7.165  -0.875  1.00  0.00     0.167 HD
ATOM     37  C   UNL     1      -6.707   9.893  -1.768  1.00  0.00     0.074 A 
ATOM     38  C   UNL     1      -6.212  11.178  -2.223  1.00  0.00     0.031 C 
ATOM     39  C   UNL     1      -8.018   9.610  -1.563  1.00  0.00     0.037 A 
BRANCH  26  40
ATOM     40  C   UNL     1      -9.177   3.833   0.373  1.00  0.00     0.057 A 
ATOM     41  C   UNL     1      -9.251   3.337   1.681  1.00  0.00     0.134 A 
ATOM     42  C   UNL     1     -10.037   3.270  -0.579  1.00  0.00     0.134 A 
ATOM     43  F   UNL     1      -8.431   3.806   2.635  1.00  0.00    -0.206 F 
ATOM     44  C   UNL     1     -10.121   2.297   2.020  1.00  0.00     0.040 A 
ATOM     45  C   UNL     1     -10.929   2.249  -0.247  1.00  0.00     0.040 A 
ATOM     46  F   UNL     1     -10.011   3.690  -1.853  1.00  0.00    -0.206 F 
ATOM     47  C   UNL     1     -10.965   1.753   1.054  1.00  0.00     0.006 A 
ENDBRANCH  26  40
BRANCH  27  48
ATOM     48  C   UNL     1      -2.047  10.430  -2.290  1.00  0.00     0.057 A 
ATOM     49  C   UNL     1      -1.810  11.575  -1.521  1.00  0.00     0.134 A 
ATOM     50  C   UNL     1      -1.268  10.259  -3.442  1.00  0.00     0.134 A 
ATOM     51  F   UNL     1      -2.536  11.811  -0.418  1.00  0.00    -0.206 F 
ATOM     52  C   UNL     1      -0.855  12.524  -1.895  1.00  0.00     0.040 A 
ATOM     53  C   UNL     1      -0.288  11.183  -3.810  1.00  0.00     0.040 A 
ATOM     54  F   UNL     1      -1.453   9.192  -4.234  1.00  0.00    -0.206 F 
ATOM     55  C   UNL     1      -0.087  12.326  -3.041  1.00  0.00     0.006 A 
ENDBRANCH  27  48
BRANCH  39  56
ATOM     56  C   UNL     1      -8.992  10.728  -1.780  1.00  0.00     0.057 A 
ATOM     57  C   UNL     1      -9.302  11.205  -3.059  1.00  0.00     0.134 A 
ATOM     58  C   UNL     1      -9.655  11.306  -0.691  1.00  0.00     0.134 A 
ATOM     59  F   UNL     1      -8.691  10.700  -4.141  1.00  0.00    -0.206 F 
ATOM     60  C   UNL     1     -10.219  12.240  -3.245  1.00  0.00     0.040 A 
ATOM     61  C   UNL     1     -10.597  12.319  -0.866  1.00  0.00     0.040 A 
ATOM     62  F   UNL     1      -9.410  10.884   0.559  1.00  0.00    -0.206 F 
ATOM     63  C   UNL     1     -10.874  12.794  -2.146  1.00  0.00     0.006 A 
ENDBRANCH  39  56
ENDBRANCH  13  14
ENDBRANCH   6   8
ENDBRANCH   5   6
ENDBRANCH   4   5
ENDBRANCH   3   4
ENDBRANCH   2   3
ENDBRANCH   1   2
BRANCH   1  64
ATOM     64  C   UNL     1       3.991   1.797   2.216  1.00  0.00     0.188 C 
BRANCH  64  65
ATOM     65  O   UNL     1       4.425   2.301   3.465  1.00  0.00    -0.376 OA
BRANCH  65  66
ATOM     66  C   UNL     1       4.222   3.696   3.696  1.00  0.00     0.202 C 
BRANCH  66  67
ATOM     67  C   UNL     1       4.582   4.681   2.570  1.00  0.00     0.261 C 
BRANCH  67  68
ATOM     68  O   UNL     1       3.764   4.522   1.388  1.00  0.00    -0.463 OA
BRANCH  68  69
ATOM     69  C   UNL     1       4.379   4.809   0.195  1.00  0.00     0.314 C 
ATOM     70  O   UNL     1       5.555   5.105   0.081  1.00  0.00    -0.252 OA
BRANCH  69  71
ATOM     71  C   UNL     1       3.383   4.746  -0.984  1.00  0.00     0.141 C 
BRANCH  71  72
ATOM     72  C   UNL     1       3.156   6.251  -1.414  1.00  0.00     0.068 C 
BRANCH  72  73
ATOM     73  C   UNL     1       2.359   6.510  -2.701  1.00  0.00    -0.039 A 
ATOM     74  C   UNL     1       2.752   7.580  -3.534  1.00  0.00     0.004 A 
ATOM     75  C   UNL     1       1.314   5.688  -3.141  1.00  0.00     0.004 A 
ATOM     76  C   UNL     1       2.140   7.808  -4.765  1.00  0.00     0.000 A 
ATOM     77  C   UNL     1       0.705   5.913  -4.381  1.00  0.00     0.000 A 
ATOM     78  C   UNL     1       1.119   6.968  -5.193  1.00  0.00     0.000 A 
ENDBRANCH  72  73
BRANCH  72  79
ATOM     79  C   UNL     1       2.652   7.177  -0.282  1.00  0.00    -0.039 A 
ATOM     80  C   UNL     1       3.069   8.522  -0.266  1.00  0.00     0.004 A 
ATOM     81  C   UNL     1       1.814   6.745   0.759  1.00  0.00     0.004 A 
ATOM     82  C   UNL     1       2.697   9.389   0.763  1.00  0.00     0.000 A 
ATOM     83  C   UNL     1       1.475   7.604   1.812  1.00  0.00     0.000 A 
ATOM     84  C   UNL     1       1.917   8.924   1.814  1.00  0.00     0.000 A 
ENDBRANCH  72  79
ENDBRANCH  71  72
BRANCH  71  85
ATOM     85  C   UNL     1       3.882   3.721  -2.030  1.00  0.00    -0.033 A 
ATOM     86  C   UNL     1       4.081   2.385  -1.633  1.00  0.00     0.004 A 
ATOM     87  C   UNL     1       4.108   4.005  -3.384  1.00  0.00     0.004 A 
ATOM     88  C   UNL     1       4.473   1.387  -2.532  1.00  0.00     0.000 A 
ATOM     89  C   UNL     1       4.453   3.001  -4.300  1.00  0.00     0.000 A 
ATOM     90  C   UNL     1       4.641   1.693  -3.874  1.00  0.00     0.000 A 
ENDBRANCH  71  85
ENDBRANCH  69  71
ENDBRANCH  68  69
ENDBRANCH  67  68
ENDBRANCH  66  67
ENDBRANCH  65  66
ENDBRANCH  64  65
ENDBRANCH   1  64
TORSDOF 21
