REMARK SMILES O=C1CCCC2=C1[C@H](c1ccc([N+](=O)[O-])cc1)CC(=O)N2c1ccccc1C(=O)OCCOCCOCCOC(=O)c1ccc(-c2c3nc(c(-c4c(F)cccc4F)c4ccc([nH]4)c(-c4c(F)cccc4F)c4nc(c(-c5c(F)cccc5F)c5ccc2[nH]5)C=C4)C=C3)cc1
REMARK SMILES IDX 34 1 33 2 32 3 31 4 30 5 28 6 29 7 27 8 22 9 23 10 24 11
REMARK SMILES IDX 26 12 25 13 21 14 1 15 2 16 3 17 7 18 4 19 6 20 8 21 5 22
REMARK SMILES IDX 18 23 19 24 20 25 9 26 10 27 17 28 11 29 16 30 12 31 13 32
REMARK SMILES IDX 14 33 15 34 35 35 36 36 37 37 38 38 39 39 40 40 41 41 42 42
REMARK SMILES IDX 43 43 95 44 44 45 94 46 45 47 46 48 47 49 88 50 48 51 93 52
REMARK SMILES IDX 87 53 89 54 49 55 92 56 86 57 85 58 50 60 76 61 59 62 75 63
REMARK SMILES IDX 60 64 63 65 74 66 90 67 61 68 62 69 73 71 91 72 64 73 51 74
REMARK SMILES IDX 52 75 57 76 53 77 54 78 56 79 58 80 55 81 77 82 78 83 83 84
REMARK SMILES IDX 79 85 80 86 82 87 84 88 81 89 65 90 66 91 71 92 67 93 68 94
REMARK SMILES IDX 70 95 72 96 69 97
REMARK H PARENT 89 59 63 70
REMARK Flexibility Score: inf
ROOT
ATOM      1  C   UNL     1       7.797  -1.405   3.166  1.00  0.00     0.188 C 
ENDROOT
BRANCH   1   2
ATOM      2  O   UNL     1       6.973  -0.576   3.984  1.00  0.00    -0.376 OA
BRANCH   2   3
ATOM      3  C   UNL     1       6.551   0.641   3.381  1.00  0.00     0.202 C 
BRANCH   3   4
ATOM      4  C   UNL     1       5.578   0.512   2.204  1.00  0.00     0.261 C 
BRANCH   4   5
ATOM      5  O   UNL     1       6.032  -0.308   1.117  1.00  0.00    -0.460 OA
BRANCH   5   6
ATOM      6  C   UNL     1       7.041   0.134   0.344  1.00  0.00     0.340 C 
ATOM      7  O   UNL     1       7.646   1.183   0.492  1.00  0.00    -0.246 OA
BRANCH   6   8
ATOM      8  C   UNL     1       7.375  -0.881  -0.700  1.00  0.00     0.084 A 
ATOM      9  C   UNL     1       6.472  -1.805  -1.281  1.00  0.00     0.063 A 
ATOM     10  C   UNL     1       7.006  -2.761  -2.177  1.00  0.00     0.027 A 
ATOM     11  C   UNL     1       8.368  -2.819  -2.481  1.00  0.00     0.002 A 
ATOM     12  C   UNL     1       8.749  -0.947  -1.024  1.00  0.00     0.018 A 
ATOM     13  C   UNL     1       9.242  -1.912  -1.902  1.00  0.00     0.001 A 
BRANCH   9  14
ATOM     14  N   UNL     1       5.044  -1.882  -1.017  1.00  0.00    -0.284 N 
ATOM     15  O   UNL     1       0.799   0.186  -0.702  1.00  0.00    -0.294 OA
ATOM     16  C   UNL     1       2.019   0.291  -0.628  1.00  0.00     0.161 C 
ATOM     17  C   UNL     1       2.703   1.625  -0.576  1.00  0.00     0.081 C 
ATOM     18  C   UNL     1       2.902  -0.909  -0.576  1.00  0.00     0.023 C 
ATOM     19  C   UNL     1       3.633   1.667  -1.766  1.00  0.00     0.015 C 
ATOM     20  C   UNL     1       4.162  -0.779  -1.055  1.00  0.00     0.033 C 
ATOM     21  C   UNL     1       2.277  -2.216  -0.136  1.00  0.00     0.064 C 
ATOM     22  C   UNL     1       4.641   0.516  -1.715  1.00  0.00     0.055 C 
ATOM     23  C   UNL     1       3.051  -3.338  -0.823  1.00  0.00     0.114 C 
ATOM     24  C   UNL     1       4.548  -3.172  -0.687  1.00  0.00     0.232 C 
ATOM     25  O   UNL     1       5.244  -4.155  -0.421  1.00  0.00    -0.274 OA
BRANCH  21  26
ATOM     26  C   UNL     1       2.032  -2.369   1.375  1.00  0.00    -0.039 A 
ATOM     27  C   UNL     1       2.435  -3.501   2.103  1.00  0.00     0.011 A 
ATOM     28  C   UNL     1       1.250  -1.415   2.061  1.00  0.00     0.011 A 
ATOM     29  C   UNL     1       2.081  -3.667   3.452  1.00  0.00     0.086 A 
ATOM     30  C   UNL     1       0.935  -1.544   3.419  1.00  0.00     0.086 A 
ATOM     31  C   UNL     1       1.365  -2.671   4.115  1.00  0.00     0.269 A 
BRANCH  31  32
ATOM     32  N   UNL     1       1.078  -2.800   5.547  1.00  0.00     0.062 N 
ATOM     33  O   UNL     1       1.604  -3.742   6.158  1.00  0.00    -0.258 OA
ATOM     34  O   UNL     1       0.338  -1.953   6.067  1.00  0.00    -0.258 OA
ENDBRANCH  31  32
ENDBRANCH  21  26
ENDBRANCH   9  14
ENDBRANCH   6   8
ENDBRANCH   5   6
ENDBRANCH   4   5
ENDBRANCH   3   4
ENDBRANCH   2   3
ENDBRANCH   1   2
BRANCH   1  35
ATOM     35  C   UNL     1       7.016  -2.586   2.565  1.00  0.00     0.188 C 
BRANCH  35  36
ATOM     36  O   UNL     1       5.703  -2.685   3.105  1.00  0.00    -0.376 OA
BRANCH  36  37
ATOM     37  C   UNL     1       5.538  -3.706   4.082  1.00  0.00     0.202 C 
BRANCH  37  38
ATOM     38  C   UNL     1       6.304  -3.533   5.397  1.00  0.00     0.261 C 
BRANCH  38  39
ATOM     39  O   UNL     1       7.734  -3.554   5.293  1.00  0.00    -0.460 OA
BRANCH  39  40
ATOM     40  C   UNL     1       8.327  -4.641   4.754  1.00  0.00     0.338 C 
ATOM     41  O   UNL     1       7.803  -5.679   4.397  1.00  0.00    -0.246 OA
BRANCH  40  42
ATOM     42  C   UNL     1       9.723  -4.249   4.468  1.00  0.00     0.060 A 
ATOM     43  C   UNL     1      10.227  -4.404   3.169  1.00  0.00     0.016 A 
ATOM     44  C   UNL     1      10.501  -3.659   5.467  1.00  0.00     0.016 A 
ATOM     45  C   UNL     1      11.528  -3.989   2.877  1.00  0.00     0.010 A 
ATOM     46  C   UNL     1      11.804  -3.259   5.179  1.00  0.00     0.010 A 
ATOM     47  C   UNL     1      12.333  -3.450   3.891  1.00  0.00    -0.014 A 
BRANCH  47  48
ATOM     48  C   UNL     1      13.790  -3.294   3.686  1.00  0.00     0.031 A 
ATOM     49  C   UNL     1      14.680  -4.431   4.104  1.00  0.00     0.074 A 
ATOM     50  C   UNL     1      14.318  -2.168   3.175  1.00  0.00     0.049 A 
ATOM     51  N   UNL     1      15.985  -4.516   4.088  1.00  0.00    -0.248 NA
ATOM     52  C   UNL     1      14.002  -5.633   4.618  1.00  0.00     0.031 C 
ATOM     53  C   UNL     1      13.561  -1.006   2.716  1.00  0.00     0.029 A 
ATOM     54  N   UNL     1      15.630  -1.820   2.973  1.00  0.00    -0.354 N 
ATOM     55  C   UNL     1      16.282  -5.774   4.594  1.00  0.00     0.074 A 
ATOM     56  C   UNL     1      15.027  -6.407   4.934  1.00  0.00     0.031 C 
ATOM     57  C   UNL     1      14.425  -0.066   2.291  1.00  0.00     0.029 A 
ATOM     58  C   UNL     1      15.792  -0.550   2.476  1.00  0.00     0.049 A 
ATOM     59  H   UNL     1      16.383  -2.424   3.165  1.00  0.00     0.167 HD
ATOM     60  C   UNL     1      17.492  -6.355   4.758  1.00  0.00     0.037 A 
ATOM     61  C   UNL     1      16.920   0.141   2.220  1.00  0.00     0.037 A 
ATOM     62  C   UNL     1      18.741  -5.725   4.431  1.00  0.00     0.049 A 
ATOM     63  C   UNL     1      18.259  -0.500   2.479  1.00  0.00     0.074 A 
ATOM     64  C   UNL     1      20.020  -6.242   4.528  1.00  0.00     0.029 A 
ATOM     65  N   UNL     1      18.865  -4.429   3.955  1.00  0.00    -0.354 N 
ATOM     66  N   UNL     1      18.531  -1.709   2.909  1.00  0.00    -0.248 NA
ATOM     67  C   UNL     1      19.450   0.323   2.219  1.00  0.00     0.031 C 
ATOM     68  C   UNL     1      20.923  -5.241   4.156  1.00  0.00     0.029 A 
ATOM     69  C   UNL     1      20.203  -4.117   3.782  1.00  0.00     0.049 A 
ATOM     70  H   UNL     1      18.114  -3.820   3.769  1.00  0.00     0.167 HD
ATOM     71  C   UNL     1      19.918  -1.802   2.939  1.00  0.00     0.074 A 
ATOM     72  C   UNL     1      20.432  -0.529   2.479  1.00  0.00     0.031 C 
ATOM     73  C   UNL     1      20.696  -2.849   3.310  1.00  0.00     0.037 A 
BRANCH  60  74
ATOM     74  C   UNL     1      17.514  -7.734   5.345  1.00  0.00     0.057 A 
ATOM     75  C   UNL     1      17.090  -8.854   4.618  1.00  0.00     0.134 A 
ATOM     76  C   UNL     1      17.965  -7.943   6.654  1.00  0.00     0.134 A 
ATOM     77  F   UNL     1      16.626  -8.716   3.366  1.00  0.00    -0.206 F 
ATOM     78  C   UNL     1      17.092 -10.131   5.181  1.00  0.00     0.040 A 
ATOM     79  C   UNL     1      17.994  -9.218   7.219  1.00  0.00     0.040 A 
ATOM     80  F   UNL     1      18.382  -6.912   7.404  1.00  0.00    -0.206 F 
ATOM     81  C   UNL     1      17.550 -10.316   6.484  1.00  0.00     0.006 A 
ENDBRANCH  60  74
BRANCH  61  82
ATOM     82  C   UNL     1      16.846   1.525   1.686  1.00  0.00     0.057 A 
ATOM     83  C   UNL     1      17.242   1.813   0.375  1.00  0.00     0.134 A 
ATOM     84  C   UNL     1      16.414   2.594   2.479  1.00  0.00     0.134 A 
ATOM     85  F   UNL     1      17.692   0.834  -0.425  1.00  0.00    -0.206 F 
ATOM     86  C   UNL     1      17.228   3.117  -0.124  1.00  0.00     0.040 A 
ATOM     87  C   UNL     1      16.374   3.900   1.986  1.00  0.00     0.040 A 
ATOM     88  F   UNL     1      16.026   2.385   3.745  1.00  0.00    -0.206 F 
ATOM     89  C   UNL     1      16.788   4.164   0.682  1.00  0.00     0.006 A 
ENDBRANCH  61  82
BRANCH  73  90
ATOM     90  C   UNL     1      22.183  -2.680   3.194  1.00  0.00     0.057 A 
ATOM     91  C   UNL     1      22.910  -1.889   4.091  1.00  0.00     0.134 A 
ATOM     92  C   UNL     1      22.900  -3.363   2.203  1.00  0.00     0.134 A 
ATOM     93  F   UNL     1      22.282  -1.200   5.055  1.00  0.00    -0.206 F 
ATOM     94  C   UNL     1      24.298  -1.767   3.994  1.00  0.00     0.040 A 
ATOM     95  C   UNL     1      24.289  -3.270   2.112  1.00  0.00     0.040 A 
ATOM     96  F   UNL     1      22.263  -4.147   1.319  1.00  0.00    -0.206 F 
ATOM     97  C   UNL     1      24.991  -2.466   3.006  1.00  0.00     0.006 A 
ENDBRANCH  73  90
ENDBRANCH  47  48
ENDBRANCH  40  42
ENDBRANCH  39  40
ENDBRANCH  38  39
ENDBRANCH  37  38
ENDBRANCH  36  37
ENDBRANCH  35  36
ENDBRANCH   1  35
TORSDOF 20
