REMARK SMILES Cc1ccc(C)c(N2C(=O)S[C@H](CC(=O)Nc3ccc(C(=O)OCCOCCOCCOC(=O)c4ccc(-c5c6nc(c(-c7c(F)cccc7F)c7ccc([nH]7)c(-c7c(F)cccc7F)c7nc(c(-c8c(F)cccc8F)c8ccc5[nH]8)C=C7)C=C6)cc4)c(O)c3)C2=O)c1
REMARK SMILES IDX 27 1 26 2 25 3 24 4 23 5 21 6 22 7 20 8 17 9 18 10 91 11
REMARK SMILES IDX 19 12 89 13 16 14 14 15 15 16 13 18 12 19 8 20 9 21 92 22
REMARK SMILES IDX 10 23 11 24 93 25 7 26 1 27 2 28 3 29 94 30 4 31 5 32 6 33
REMARK SMILES IDX 90 34 28 36 29 37 30 38 31 39 32 40 33 41 34 42 35 43 36 44
REMARK SMILES IDX 88 45 37 46 87 47 38 48 39 49 40 50 81 51 41 52 86 53 80 54
REMARK SMILES IDX 82 55 42 56 85 57 79 58 78 59 43 61 69 62 52 63 68 64 53 65
REMARK SMILES IDX 56 66 67 67 83 68 54 69 55 70 66 72 84 73 57 74 44 75 45 76
REMARK SMILES IDX 50 77 46 78 47 79 49 80 51 81 48 82 70 83 71 84 76 85 72 86
REMARK SMILES IDX 73 87 75 88 77 89 74 90 58 91 59 92 64 93 60 94 61 95 63 96
REMARK SMILES IDX 65 97 62 98
REMARK H PARENT 16 17 90 35 82 60 56 71
REMARK Flexibility Score: inf
ROOT
ATOM      1  C   UNL     1       1.974   1.988  -2.967  1.00  0.00     0.188 C 
ENDROOT
BRANCH   1   2
ATOM      2  O   UNL     1       1.991   1.743  -4.377  1.00  0.00    -0.376 OA
BRANCH   2   3
ATOM      3  C   UNL     1       2.326   2.866  -5.195  1.00  0.00     0.202 C 
BRANCH   3   4
ATOM      4  C   UNL     1       1.178   3.849  -5.497  1.00  0.00     0.261 C 
BRANCH   4   5
ATOM      5  O   UNL     1       0.569   4.453  -4.332  1.00  0.00    -0.460 OA
BRANCH   5   6
ATOM      6  C   UNL     1      -0.632   5.047  -4.558  1.00  0.00     0.341 C 
ATOM      7  O   UNL     1      -1.291   4.966  -5.583  1.00  0.00    -0.246 OA
BRANCH   6   8
ATOM      8  C   UNL     1      -1.162   5.729  -3.349  1.00  0.00     0.101 A 
ATOM      9  C   UNL     1      -2.252   6.711  -0.941  1.00  0.00     0.044 A 
ATOM     10  C   UNL     1      -2.958   5.818  -1.737  1.00  0.00     0.027 A 
ATOM     11  C   UNL     1      -1.110   7.296  -1.464  1.00  0.00     0.073 A 
ATOM     12  C   UNL     1      -2.402   5.287  -2.902  1.00  0.00     0.022 A 
ATOM     13  C   UNL     1      -0.594   6.823  -2.684  1.00  0.00     0.132 A 
BRANCH   9  14
ATOM     14  N   UNL     1      -2.742   7.053   0.328  1.00  0.00    -0.326 N 
ATOM     15  C   UNL     1      -3.212   6.156   1.270  1.00  0.00     0.226 C 
ATOM     16  O   UNL     1      -4.103   6.471   2.057  1.00  0.00    -0.275 OA
ATOM     17  H   UNL     1      -2.752   8.007   0.568  1.00  0.00     0.169 HD
BRANCH  15  18
ATOM     18  C   UNL     1      -2.413   4.867   1.452  1.00  0.00     0.125 C 
BRANCH  18  19
ATOM     19  C   UNL     1      -3.174   3.548   1.345  1.00  0.00     0.156 C 
ATOM     20  N   UNL     1      -1.578   1.953   0.529  1.00  0.00    -0.240 N 
ATOM     21  C   UNL     1      -2.073   2.426  -0.664  1.00  0.00     0.293 C 
ATOM     22  C   UNL     1      -2.228   2.391   1.675  1.00  0.00     0.248 C 
ATOM     23  O   UNL     1      -1.576   2.381  -1.765  1.00  0.00    -0.261 OA
ATOM     24  S   UNL     1      -3.655   3.128  -0.354  1.00  0.00    -0.050 SA
ATOM     25  O   UNL     1      -2.102   1.938   2.807  1.00  0.00    -0.273 OA
BRANCH  20  26
ATOM     26  C   UNL     1      -0.798   0.777   0.495  1.00  0.00     0.056 A 
ATOM     27  C   UNL     1       2.881  -0.249   0.247  1.00  0.00     0.044 C 
ATOM     28  C   UNL     1       1.382  -0.289   0.290  1.00  0.00    -0.049 A 
ATOM     29  C   UNL     1       0.745  -1.522   0.115  1.00  0.00     0.004 A 
ATOM     30  C   UNL     1       0.604   0.866   0.480  1.00  0.00     0.030 A 
ATOM     31  C   UNL     1      -0.644  -1.612   0.132  1.00  0.00     0.006 A 
ATOM     32  C   UNL     1      -1.434  -0.470   0.312  1.00  0.00    -0.027 A 
ATOM     33  C   UNL     1      -2.926  -0.657   0.272  1.00  0.00     0.046 C 
ENDBRANCH  20  26
ENDBRANCH  18  19
ENDBRANCH  15  18
ENDBRANCH   9  14
BRANCH  13  34
ATOM     34  O   UNL     1       0.435   7.562  -3.180  1.00  0.00    -0.507 OA
ATOM     35  H   UNL     1       0.839   7.318  -3.989  1.00  0.00     0.293 HD
ENDBRANCH  13  34
ENDBRANCH   6   8
ENDBRANCH   5   6
ENDBRANCH   4   5
ENDBRANCH   3   4
ENDBRANCH   2   3
ENDBRANCH   1   2
BRANCH   1  36
ATOM     36  C   UNL     1       3.369   2.059  -2.321  1.00  0.00     0.188 C 
BRANCH  36  37
ATOM     37  O   UNL     1       4.058   3.224  -2.738  1.00  0.00    -0.376 OA
BRANCH  37  38
ATOM     38  C   UNL     1       5.442   3.277  -2.461  1.00  0.00     0.202 C 
BRANCH  38  39
ATOM     39  C   UNL     1       5.882   3.241  -0.991  1.00  0.00     0.261 C 
BRANCH  39  40
ATOM     40  O   UNL     1       5.036   3.729   0.086  1.00  0.00    -0.460 OA
BRANCH  40  41
ATOM     41  C   UNL     1       4.188   4.777   0.168  1.00  0.00     0.338 C 
ATOM     42  O   UNL     1       3.413   4.916   1.106  1.00  0.00    -0.246 OA
BRANCH  41  43
ATOM     43  C   UNL     1       4.097   5.652  -0.999  1.00  0.00     0.060 A 
ATOM     44  C   UNL     1       2.897   5.580  -1.684  1.00  0.00     0.016 A 
ATOM     45  C   UNL     1       5.194   6.350  -1.523  1.00  0.00     0.016 A 
ATOM     46  C   UNL     1       2.899   5.992  -2.997  1.00  0.00     0.010 A 
ATOM     47  C   UNL     1       5.153   6.803  -2.850  1.00  0.00     0.010 A 
ATOM     48  C   UNL     1       4.021   6.540  -3.618  1.00  0.00    -0.014 A 
BRANCH  48  49
ATOM     49  C   UNL     1       3.791   6.930  -5.016  1.00  0.00     0.031 A 
ATOM     50  C   UNL     1       2.825   8.057  -5.150  1.00  0.00     0.074 A 
ATOM     51  C   UNL     1       4.291   6.316  -6.109  1.00  0.00     0.049 A 
ATOM     52  N   UNL     1       1.686   8.068  -5.774  1.00  0.00    -0.248 NA
ATOM     53  C   UNL     1       3.088   9.257  -4.339  1.00  0.00     0.031 C 
ATOM     54  C   UNL     1       5.320   5.279  -6.154  1.00  0.00     0.029 A 
ATOM     55  N   UNL     1       4.031   6.547  -7.440  1.00  0.00    -0.354 N 
ATOM     56  C   UNL     1       1.211   9.367  -5.624  1.00  0.00     0.074 A 
ATOM     57  C   UNL     1       2.011   9.992  -4.601  1.00  0.00     0.031 C 
ATOM     58  C   UNL     1       5.761   5.146  -7.425  1.00  0.00     0.029 A 
ATOM     59  C   UNL     1       4.996   6.023  -8.296  1.00  0.00     0.049 A 
ATOM     60  H   UNL     1       3.238   7.037  -7.757  1.00  0.00     0.167 HD
ATOM     61  C   UNL     1       0.344   9.946  -6.491  1.00  0.00     0.037 A 
ATOM     62  C   UNL     1       5.226   6.356  -9.594  1.00  0.00     0.037 A 
ATOM     63  C   UNL     1      -0.422   9.013  -7.256  1.00  0.00     0.049 A 
ATOM     64  C   UNL     1       4.009   6.994 -10.142  1.00  0.00     0.074 A 
ATOM     65  C   UNL     1      -1.357   8.038  -6.971  1.00  0.00     0.029 A 
ATOM     66  N   UNL     1      -0.096   8.834  -8.575  1.00  0.00    -0.354 N 
ATOM     67  N   UNL     1       2.916   6.362 -10.455  1.00  0.00    -0.248 NA
ATOM     68  C   UNL     1       3.882   8.436 -10.002  1.00  0.00     0.031 C 
ATOM     69  C   UNL     1      -1.209   7.057  -7.994  1.00  0.00     0.029 A 
ATOM     70  C   UNL     1      -0.204   7.497  -8.851  1.00  0.00     0.049 A 
ATOM     71  H   UNL     1       0.169   9.539  -9.209  1.00  0.00     0.167 HD
ATOM     72  C   UNL     1       1.900   7.242 -10.122  1.00  0.00     0.074 A 
ATOM     73  C   UNL     1       2.554   8.533  -9.942  1.00  0.00     0.031 C 
ATOM     74  C   UNL     1       0.669   6.788  -9.755  1.00  0.00     0.037 A 
BRANCH  61  75
ATOM     75  C   UNL     1       0.498  11.395  -6.843  1.00  0.00     0.057 A 
ATOM     76  C   UNL     1      -0.561  12.128  -7.388  1.00  0.00     0.134 A 
ATOM     77  C   UNL     1       1.757  12.035  -6.854  1.00  0.00     0.134 A 
ATOM     78  F   UNL     1      -1.780  11.584  -7.512  1.00  0.00    -0.206 F 
ATOM     79  C   UNL     1      -0.381  13.427  -7.877  1.00  0.00     0.040 A 
ATOM     80  C   UNL     1       1.935  13.350  -7.274  1.00  0.00     0.040 A 
ATOM     81  F   UNL     1       2.885  11.380  -6.539  1.00  0.00    -0.206 F 
ATOM     82  C   UNL     1       0.864  14.049  -7.802  1.00  0.00     0.006 A 
ENDBRANCH  61  75
BRANCH  62  83
ATOM     83  C   UNL     1       6.526   6.441 -10.314  1.00  0.00     0.057 A 
ATOM     84  C   UNL     1       6.585   6.594 -11.710  1.00  0.00     0.134 A 
ATOM     85  C   UNL     1       7.735   6.657  -9.630  1.00  0.00     0.134 A 
ATOM     86  F   UNL     1       5.481   6.464 -12.460  1.00  0.00    -0.206 F 
ATOM     87  C   UNL     1       7.765   6.958 -12.377  1.00  0.00     0.040 A 
ATOM     88  C   UNL     1       8.922   7.006 -10.283  1.00  0.00     0.040 A 
ATOM     89  F   UNL     1       7.792   6.631  -8.291  1.00  0.00    -0.206 F 
ATOM     90  C   UNL     1       8.938   7.172 -11.660  1.00  0.00     0.006 A 
ENDBRANCH  62  83
BRANCH  74  91
ATOM     91  C   UNL     1       0.305   5.373 -10.095  1.00  0.00     0.057 A 
ATOM     92  C   UNL     1       0.963   4.239  -9.596  1.00  0.00     0.134 A 
ATOM     93  C   UNL     1      -0.841   5.155 -10.872  1.00  0.00     0.134 A 
ATOM     94  F   UNL     1       2.017   4.350  -8.773  1.00  0.00    -0.206 F 
ATOM     95  C   UNL     1       0.517   2.946  -9.894  1.00  0.00     0.040 A 
ATOM     96  C   UNL     1      -1.314   3.872 -11.147  1.00  0.00     0.040 A 
ATOM     97  F   UNL     1      -1.542   6.197 -11.349  1.00  0.00    -0.206 F 
ATOM     98  C   UNL     1      -0.629   2.761 -10.665  1.00  0.00     0.006 A 
ENDBRANCH  74  91
ENDBRANCH  48  49
ENDBRANCH  41  43
ENDBRANCH  40  41
ENDBRANCH  39  40
ENDBRANCH  38  39
ENDBRANCH  37  38
ENDBRANCH  36  37
ENDBRANCH   1  36
TORSDOF 22
