REMARK SMILES Cc1nc(N2CCN(c3ccccc3)CC2)nc(OCC(=O)OCCOCCOCCOC(=O)c2ccc(-c3c4nc(c(-c5c(F)cccc5F)c5ccc([nH]5)c(-c5c(F)cccc5F)c5nc(c(-c6c(F)cccc6F)c6ccc3[nH]6)C=C5)C=C4)cc2)c1C
REMARK SMILES IDX 27 1 26 2 25 3 24 4 23 5 21 6 22 7 20 8 19 9 18 10 1 11 2 12
REMARK SMILES IDX 3 13 89 14 4 15 90 16 17 17 5 18 6 19 16 20 7 21 15 22 8 23
REMARK SMILES IDX 9 24 10 25 14 26 11 27 13 28 12 29 28 30 29 31 30 32 31 33
REMARK SMILES IDX 32 34 33 35 34 36 35 37 36 38 88 39 37 40 87 41 38 42 39 43
REMARK SMILES IDX 40 44 81 45 41 46 86 47 80 48 82 49 42 50 85 51 79 52 78 53
REMARK SMILES IDX 43 55 69 56 52 57 68 58 53 59 56 60 67 61 83 62 54 63 55 64
REMARK SMILES IDX 66 66 84 67 57 68 44 69 45 70 50 71 46 72 47 73 49 74 51 75
REMARK SMILES IDX 48 76 70 77 71 78 76 79 72 80 73 81 75 82 77 83 74 84 58 85
REMARK SMILES IDX 59 86 64 87 60 88 61 89 63 90 65 91 62 92
REMARK H PARENT 82 54 56 65
REMARK Flexibility Score: inf
ROOT
ATOM      1  C   UNL     1      -2.890   0.641  -1.308  1.00  0.00     0.188 C 
ENDROOT
BRANCH   1   2
ATOM      2  O   UNL     1      -4.262   1.020  -1.330  1.00  0.00    -0.376 OA
BRANCH   2   3
ATOM      3  C   UNL     1      -5.105   0.365  -2.274  1.00  0.00     0.202 C 
BRANCH   3   4
ATOM      4  C   UNL     1      -4.779   0.686  -3.734  1.00  0.00     0.261 C 
BRANCH   4   5
ATOM      5  O   UNL     1      -3.764  -0.205  -4.245  1.00  0.00    -0.461 OA
BRANCH   5   6
ATOM      6  C   UNL     1      -2.666   0.346  -4.828  1.00  0.00     0.344 C 
ATOM      7  O   UNL     1      -2.446   1.547  -4.924  1.00  0.00    -0.248 OA
BRANCH   6   8
ATOM      8  C   UNL     1      -1.742  -0.725  -5.405  1.00  0.00     0.353 C 
BRANCH   8   9
ATOM      9  O   UNL     1      -1.526  -1.846  -4.585  1.00  0.00    -0.465 OA
BRANCH   9  10
ATOM     10  C   UNL     1      -0.445  -2.089  -3.806  1.00  0.00     0.221 A 
ATOM     11  C   UNL     1       2.722  -1.133  -1.969  1.00  0.00     0.067 C 
ATOM     12  C   UNL     1       1.503  -1.809  -2.527  1.00  0.00     0.050 A 
ATOM     13  N   UNL     1       1.387  -3.071  -2.072  1.00  0.00    -0.218 NA
ATOM     14  C   UNL     1       0.574  -1.232  -3.398  1.00  0.00     0.033 A 
ATOM     15  C   UNL     1       0.395  -3.828  -2.534  1.00  0.00     0.229 A 
ATOM     16  C   UNL     1       0.713   0.185  -3.850  1.00  0.00     0.052 C 
ATOM     17  N   UNL     1      -0.513  -3.370  -3.390  1.00  0.00    -0.177 NA
BRANCH  15  18
ATOM     18  N   UNL     1       0.403  -5.186  -2.239  1.00  0.00    -0.337 N 
ATOM     19  C   UNL     1       0.397  -5.489  -0.797  1.00  0.00     0.141 C 
ATOM     20  C   UNL     1       1.489  -5.842  -2.989  1.00  0.00     0.141 C 
ATOM     21  C   UNL     1       0.409  -7.021  -0.552  1.00  0.00     0.138 C 
ATOM     22  C   UNL     1       1.512  -7.359  -2.738  1.00  0.00     0.138 C 
ATOM     23  N   UNL     1       1.524  -7.638  -1.290  1.00  0.00    -0.368 N 
BRANCH  23  24
ATOM     24  C   UNL     1       2.051  -8.860  -0.911  1.00  0.00     0.037 A 
ATOM     25  C   UNL     1       1.262  -9.932  -0.482  1.00  0.00     0.026 A 
ATOM     26  C   UNL     1       3.439  -9.053  -0.983  1.00  0.00     0.026 A 
ATOM     27  C   UNL     1       1.842 -11.161  -0.147  1.00  0.00     0.002 A 
ATOM     28  C   UNL     1       4.025 -10.271  -0.635  1.00  0.00     0.002 A 
ATOM     29  C   UNL     1       3.224 -11.330  -0.222  1.00  0.00     0.000 A 
ENDBRANCH  23  24
ENDBRANCH  15  18
ENDBRANCH   9  10
ENDBRANCH   8   9
ENDBRANCH   6   8
ENDBRANCH   5   6
ENDBRANCH   4   5
ENDBRANCH   3   4
ENDBRANCH   2   3
ENDBRANCH   1   2
BRANCH   1  30
ATOM     30  C   UNL     1      -2.586  -0.867  -1.325  1.00  0.00     0.188 C 
BRANCH  30  31
ATOM     31  O   UNL     1      -3.436  -1.707  -0.554  1.00  0.00    -0.376 OA
BRANCH  31  32
ATOM     32  C   UNL     1      -3.612  -1.362   0.814  1.00  0.00     0.202 C 
BRANCH  32  33
ATOM     33  C   UNL     1      -2.335  -1.468   1.643  1.00  0.00     0.261 C 
BRANCH  33  34
ATOM     34  O   UNL     1      -1.448  -0.386   1.311  1.00  0.00    -0.460 OA
BRANCH  34  35
ATOM     35  C   UNL     1      -0.295  -0.386   2.016  1.00  0.00     0.338 C 
ATOM     36  O   UNL     1      -0.010  -1.129   2.938  1.00  0.00    -0.246 OA
BRANCH  35  37
ATOM     37  C   UNL     1       0.616   0.664   1.504  1.00  0.00     0.060 A 
ATOM     38  C   UNL     1       0.716   0.953   0.140  1.00  0.00     0.016 A 
ATOM     39  C   UNL     1       1.483   1.285   2.406  1.00  0.00     0.016 A 
ATOM     40  C   UNL     1       1.737   1.786  -0.326  1.00  0.00     0.010 A 
ATOM     41  C   UNL     1       2.477   2.150   1.940  1.00  0.00     0.010 A 
ATOM     42  C   UNL     1       2.651   2.365   0.564  1.00  0.00    -0.014 A 
BRANCH  42  43
ATOM     43  C   UNL     1       3.859   3.083   0.072  1.00  0.00     0.031 A 
ATOM     44  C   UNL     1       5.227   2.538   0.399  1.00  0.00     0.074 A 
ATOM     45  C   UNL     1       3.766   4.190  -0.689  1.00  0.00     0.049 A 
ATOM     46  N   UNL     1       6.396   3.117   0.302  1.00  0.00    -0.248 NA
ATOM     47  C   UNL     1       5.284   1.152   0.895  1.00  0.00     0.031 C 
ATOM     48  C   UNL     1       2.526   4.776  -1.193  1.00  0.00     0.029 A 
ATOM     49  N   UNL     1       4.748   5.024  -1.168  1.00  0.00    -0.354 N 
ATOM     50  C   UNL     1       7.318   2.191   0.772  1.00  0.00     0.074 A 
ATOM     51  C   UNL     1       6.579   1.004   1.141  1.00  0.00     0.031 C 
ATOM     52  C   UNL     1       2.820   5.865  -1.920  1.00  0.00     0.029 A 
ATOM     53  C   UNL     1       4.258   6.111  -1.850  1.00  0.00     0.049 A 
ATOM     54  H   UNL     1       5.710   4.859  -1.035  1.00  0.00     0.167 HD
ATOM     55  C   UNL     1       8.660   2.324   0.892  1.00  0.00     0.037 A 
ATOM     56  C   UNL     1       4.880   7.216  -2.307  1.00  0.00     0.037 A 
ATOM     57  C   UNL     1       9.403   3.487   0.486  1.00  0.00     0.049 A 
ATOM     58  C   UNL     1       6.352   7.397  -2.061  1.00  0.00     0.074 A 
ATOM     59  C   UNL     1      10.764   3.720   0.590  1.00  0.00     0.029 A 
ATOM     60  N   UNL     1       8.850   4.603  -0.118  1.00  0.00    -0.354 N 
ATOM     61  N   UNL     1       7.203   6.571  -1.504  1.00  0.00    -0.248 NA
ATOM     62  C   UNL     1       6.942   8.681  -2.471  1.00  0.00     0.031 C 
ATOM     63  C   UNL     1      11.030   4.993   0.077  1.00  0.00     0.029 A 
ATOM     64  C   UNL     1       9.839   5.536  -0.378  1.00  0.00     0.049 A 
ATOM     65  H   UNL     1       7.896   4.716  -0.332  1.00  0.00     0.167 HD
ATOM     66  C   UNL     1       8.424   7.234  -1.490  1.00  0.00     0.074 A 
ATOM     67  C   UNL     1       8.211   8.521  -2.118  1.00  0.00     0.031 C 
ATOM     68  C   UNL     1       9.613   6.817  -0.992  1.00  0.00     0.037 A 
BRANCH  55  69
ATOM     69  C   UNL     1       9.423   1.200   1.524  1.00  0.00     0.057 A 
ATOM     70  C   UNL     1       9.759   0.042   0.815  1.00  0.00     0.134 A 
ATOM     71  C   UNL     1       9.902   1.323   2.834  1.00  0.00     0.134 A 
ATOM     72  F   UNL     1       9.319  -0.139  -0.439  1.00  0.00    -0.206 F 
ATOM     73  C   UNL     1      10.549  -0.956   1.388  1.00  0.00     0.040 A 
ATOM     74  C   UNL     1      10.706   0.341   3.412  1.00  0.00     0.040 A 
ATOM     75  F   UNL     1       9.616   2.413   3.563  1.00  0.00    -0.206 F 
ATOM     76  C   UNL     1      11.034  -0.803   2.687  1.00  0.00     0.006 A 
ENDBRANCH  55  69
BRANCH  56  77
ATOM     77  C   UNL     1       4.088   8.285  -2.966  1.00  0.00     0.057 A 
ATOM     78  C   UNL     1       4.230   8.556  -4.330  1.00  0.00     0.134 A 
ATOM     79  C   UNL     1       3.165   9.055  -2.246  1.00  0.00     0.134 A 
ATOM     80  F   UNL     1       5.120   7.874  -5.066  1.00  0.00    -0.206 F 
ATOM     81  C   UNL     1       3.478   9.551  -4.957  1.00  0.00     0.040 A 
ATOM     82  C   UNL     1       2.388  10.033  -2.865  1.00  0.00     0.040 A 
ATOM     83  F   UNL     1       2.990   8.848  -0.932  1.00  0.00    -0.206 F 
ATOM     84  C   UNL     1       2.545  10.285  -4.226  1.00  0.00     0.006 A 
ENDBRANCH  56  77
BRANCH  68  85
ATOM     85  C   UNL     1      10.776   7.755  -1.099  1.00  0.00     0.057 A 
ATOM     86  C   UNL     1      10.909   8.852  -0.240  1.00  0.00     0.134 A 
ATOM     87  C   UNL     1      11.800   7.526  -2.026  1.00  0.00     0.134 A 
ATOM     88  F   UNL     1       9.955   9.128   0.662  1.00  0.00    -0.206 F 
ATOM     89  C   UNL     1      12.018   9.696  -0.305  1.00  0.00     0.040 A 
ATOM     90  C   UNL     1      12.923   8.353  -2.088  1.00  0.00     0.040 A 
ATOM     91  F   UNL     1      11.735   6.486  -2.870  1.00  0.00    -0.206 F 
ATOM     92  C   UNL     1      13.032   9.443  -1.226  1.00  0.00     0.006 A 
ENDBRANCH  68  85
ENDBRANCH  42  43
ENDBRANCH  35  37
ENDBRANCH  34  35
ENDBRANCH  33  34
ENDBRANCH  32  33
ENDBRANCH  31  32
ENDBRANCH  30  31
ENDBRANCH   1  30
TORSDOF 21
