REMARK SMILES Cc1nc(CCNc2nccc(-c3cc(C(=O)OCCOCCOCCOC(=O)c4ccc(-c5c6nc(c(-c7c(F)cccc7F)c7ccc([nH]7)c(-c7c(F)cccc7F)c7nc(c(-c8c(F)cccc8F)c8ccc5[nH]8)C=C7)C=C6)cc4)ccn3)n2)cc(=O)[nH]1
REMARK SMILES IDX 21 1 20 2 19 3 18 4 16 5 17 6 15 7 13 8 14 9 86 10 85 11
REMARK SMILES IDX 84 12 12 13 8 14 9 15 87 16 10 17 11 18 7 19 6 21 5 22 4 23
REMARK SMILES IDX 1 24 2 25 3 26 91 27 89 28 88 30 90 31 22 32 23 33 24 34
REMARK SMILES IDX 25 35 26 36 27 37 28 38 29 39 30 40 31 41 83 42 32 43 82 44
REMARK SMILES IDX 33 45 34 46 35 47 76 48 36 49 81 50 75 51 77 52 37 53 80 54
REMARK SMILES IDX 74 55 73 56 38 58 64 59 47 60 63 61 48 62 51 63 62 64 78 65
REMARK SMILES IDX 49 66 50 67 61 69 79 70 52 71 39 72 40 73 45 74 41 75 42 76
REMARK SMILES IDX 44 77 46 78 43 79 65 80 66 81 71 82 67 83 68 84 70 85 72 86
REMARK SMILES IDX 69 87 53 88 54 89 59 90 55 91 56 92 58 93 60 94 57 95
REMARK H PARENT 7 20 91 29 77 57 51 68
REMARK Flexibility Score: inf
ROOT
ATOM      1  O   UNL     1       1.401  13.832   2.954  1.00  0.00    -0.376 OA
ENDROOT
BRANCH   1   2
ATOM      2  C   UNL     1       2.245  13.996   1.822  1.00  0.00     0.202 C 
BRANCH   2   3
ATOM      3  C   UNL     1       3.584  13.244   1.720  1.00  0.00     0.261 C 
BRANCH   3   4
ATOM      4  O   UNL     1       3.528  11.843   2.029  1.00  0.00    -0.460 OA
BRANCH   4   5
ATOM      5  C   UNL     1       4.158  11.463   3.166  1.00  0.00     0.338 C 
ATOM      6  O   UNL     1       4.822  12.164   3.916  1.00  0.00    -0.246 OA
BRANCH   5   7
ATOM      7  C   UNL     1       3.753  10.084   3.509  1.00  0.00     0.063 A 
ATOM      8  C   UNL     1       3.268   7.811   2.941  1.00  0.00     0.090 A 
ATOM      9  C   UNL     1       3.696   9.075   2.546  1.00  0.00     0.046 A 
ATOM     10  N   UNL     1       2.865   7.565   4.218  1.00  0.00    -0.255 NA
ATOM     11  C   UNL     1       2.920   8.563   5.123  1.00  0.00     0.112 A 
ATOM     12  C   UNL     1       3.374   9.827   4.825  1.00  0.00     0.036 A 
BRANCH   8  13
ATOM     13  C   UNL     1       3.355   6.630   2.055  1.00  0.00     0.094 A 
ATOM     14  C   UNL     1       2.515   4.565   1.494  1.00  0.00     0.223 A 
ATOM     15  N   UNL     1       3.602   4.246   0.779  1.00  0.00    -0.222 NA
ATOM     16  N   UNL     1       2.334   5.740   2.103  1.00  0.00    -0.211 NA
ATOM     17  C   UNL     1       4.560   5.179   0.677  1.00  0.00     0.117 A 
ATOM     18  C   UNL     1       4.495   6.393   1.308  1.00  0.00     0.051 A 
BRANCH  14  19
ATOM     19  N   UNL     1       1.617   3.546   1.665  1.00  0.00    -0.354 N 
ATOM     20  H   UNL     1       1.938   2.665   1.966  1.00  0.00     0.163 HD
BRANCH  19  21
ATOM     21  C   UNL     1       0.203   3.737   1.411  1.00  0.00     0.122 C 
BRANCH  21  22
ATOM     22  C   UNL     1      -0.206   3.154   0.042  1.00  0.00     0.077 C 
BRANCH  22  23
ATOM     23  C   UNL     1      -0.092   1.640  -0.046  1.00  0.00     0.050 A 
ATOM     24  C   UNL     1      -2.432  -1.209   0.140  1.00  0.00     0.087 C 
ATOM     25  C   UNL     1      -1.201  -0.356   0.035  1.00  0.00     0.105 A 
ATOM     26  N   UNL     1      -1.266   0.935   0.114  1.00  0.00    -0.240 NA
ATOM     27  N   UNL     1      -0.036  -1.045  -0.151  1.00  0.00    -0.311 N 
ATOM     28  C   UNL     1       1.156  -0.411  -0.314  1.00  0.00     0.251 A 
ATOM     29  H   UNL     1      -0.060  -2.029  -0.167  1.00  0.00     0.171 HD
ATOM     30  C   UNL     1       1.086   1.055  -0.315  1.00  0.00     0.095 A 
ATOM     31  O   UNL     1       2.218  -1.006  -0.442  1.00  0.00    -0.270 OA
ENDBRANCH  22  23
ENDBRANCH  21  22
ENDBRANCH  19  21
ENDBRANCH  14  19
ENDBRANCH   8  13
ENDBRANCH   5   7
ENDBRANCH   4   5
ENDBRANCH   3   4
ENDBRANCH   2   3
ENDBRANCH   1   2
BRANCH   1  32
ATOM     32  C   UNL     1       1.070  12.530   3.419  1.00  0.00     0.188 C 
BRANCH  32  33
ATOM     33  C   UNL     1       0.611  11.439   2.428  1.00  0.00     0.188 C 
BRANCH  33  34
ATOM     34  O   UNL     1       0.663  11.835   1.079  1.00  0.00    -0.376 OA
BRANCH  34  35
ATOM     35  C   UNL     1      -0.527  12.263   0.440  1.00  0.00     0.202 C 
BRANCH  35  36
ATOM     36  C   UNL     1      -1.692  12.983   1.155  1.00  0.00     0.261 C 
BRANCH  36  37
ATOM     37  O   UNL     1      -1.762  12.920   2.584  1.00  0.00    -0.460 OA
BRANCH  37  38
ATOM     38  C   UNL     1      -2.551  11.960   3.118  1.00  0.00     0.338 C 
ATOM     39  O   UNL     1      -3.175  11.097   2.520  1.00  0.00    -0.246 OA
BRANCH  38  40
ATOM     40  C   UNL     1      -2.418  12.013   4.587  1.00  0.00     0.060 A 
ATOM     41  C   UNL     1      -1.762  10.967   5.251  1.00  0.00     0.016 A 
ATOM     42  C   UNL     1      -2.956  13.081   5.307  1.00  0.00     0.016 A 
ATOM     43  C   UNL     1      -1.661  10.979   6.644  1.00  0.00     0.010 A 
ATOM     44  C   UNL     1      -2.871  13.081   6.703  1.00  0.00     0.010 A 
ATOM     45  C   UNL     1      -2.246  12.018   7.381  1.00  0.00    -0.014 A 
BRANCH  45  46
ATOM     46  C   UNL     1      -2.353  11.916   8.858  1.00  0.00     0.031 A 
ATOM     47  C   UNL     1      -3.655  11.460   9.458  1.00  0.00     0.074 A 
ATOM     48  C   UNL     1      -1.316  12.222   9.658  1.00  0.00     0.049 A 
ATOM     49  N   UNL     1      -4.006  11.367  10.715  1.00  0.00    -0.248 NA
ATOM     50  C   UNL     1      -4.705  11.061   8.507  1.00  0.00     0.031 C 
ATOM     51  C   UNL     1       0.008  12.639   9.205  1.00  0.00     0.029 A 
ATOM     52  N   UNL     1      -1.225  12.239  11.029  1.00  0.00    -0.354 N 
ATOM     53  C   UNL     1      -5.318  10.907  10.706  1.00  0.00     0.074 A 
ATOM     54  C   UNL     1      -5.710  10.771   9.320  1.00  0.00     0.031 C 
ATOM     55  C   UNL     1       0.777  12.888  10.280  1.00  0.00     0.029 A 
ATOM     56  C   UNL     1      -0.011  12.682  11.494  1.00  0.00     0.049 A 
ATOM     57  H   UNL     1      -1.960  11.961  11.621  1.00  0.00     0.167 HD
ATOM     58  C   UNL     1      -6.121  10.618  11.758  1.00  0.00     0.037 A 
ATOM     59  C   UNL     1       0.404  12.920  12.754  1.00  0.00     0.037 A 
ATOM     60  C   UNL     1      -5.732  10.758  13.137  1.00  0.00     0.049 A 
ATOM     61  C   UNL     1      -0.535  12.668  13.906  1.00  0.00     0.074 A 
ATOM     62  C   UNL     1      -6.469  10.473  14.273  1.00  0.00     0.029 A 
ATOM     63  N   UNL     1      -4.503  11.235  13.566  1.00  0.00    -0.354 N 
ATOM     64  N   UNL     1      -1.763  12.208  13.890  1.00  0.00    -0.248 NA
ATOM     65  C   UNL     1      -0.028  12.967  15.254  1.00  0.00     0.031 C 
ATOM     66  C   UNL     1      -5.708  10.833  15.389  1.00  0.00     0.029 A 
ATOM     67  C   UNL     1      -4.472  11.280  14.951  1.00  0.00     0.049 A 
ATOM     68  H   UNL     1      -3.762  11.502  12.976  1.00  0.00     0.167 HD
ATOM     69  C   UNL     1      -2.160  12.130  15.221  1.00  0.00     0.074 A 
ATOM     70  C   UNL     1      -1.039  12.580  16.018  1.00  0.00     0.031 C 
ATOM     71  C   UNL     1      -3.346  11.721  15.736  1.00  0.00     0.037 A 
BRANCH  58  72
ATOM     72  C   UNL     1      -7.515  10.149  11.455  1.00  0.00     0.057 A 
ATOM     73  C   UNL     1      -7.771   8.888  10.898  1.00  0.00     0.134 A 
ATOM     74  C   UNL     1      -8.619  10.958  11.753  1.00  0.00     0.134 A 
ATOM     75  F   UNL     1      -6.758   8.069  10.576  1.00  0.00    -0.206 F 
ATOM     76  C   UNL     1      -9.072   8.461  10.625  1.00  0.00     0.040 A 
ATOM     77  C   UNL     1      -9.925  10.530  11.512  1.00  0.00     0.040 A 
ATOM     78  F   UNL     1      -8.446  12.174  12.292  1.00  0.00    -0.206 F 
ATOM     79  C   UNL     1     -10.154   9.281  10.940  1.00  0.00     0.006 A 
ENDBRANCH  58  72
BRANCH  59  80
ATOM     80  C   UNL     1       1.772  13.445  13.003  1.00  0.00     0.057 A 
ATOM     81  C   UNL     1       2.739  12.674  13.658  1.00  0.00     0.134 A 
ATOM     82  C   UNL     1       2.136  14.743  12.623  1.00  0.00     0.134 A 
ATOM     83  F   UNL     1       2.445  11.432  14.072  1.00  0.00    -0.206 F 
ATOM     84  C   UNL     1       4.009  13.178  13.944  1.00  0.00     0.040 A 
ATOM     85  C   UNL     1       3.411  15.251  12.876  1.00  0.00     0.040 A 
ATOM     86  F   UNL     1       1.256  15.537  11.994  1.00  0.00    -0.206 F 
ATOM     87  C   UNL     1       4.350  14.470  13.547  1.00  0.00     0.006 A 
ENDBRANCH  59  80
BRANCH  71  88
ATOM     88  C   UNL     1      -3.481  11.691  17.233  1.00  0.00     0.057 A 
ATOM     89  C   UNL     1      -3.559  12.862  17.998  1.00  0.00     0.134 A 
ATOM     90  C   UNL     1      -3.578  10.470  17.913  1.00  0.00     0.134 A 
ATOM     91  F   UNL     1      -3.463  14.065  17.412  1.00  0.00    -0.206 F 
ATOM     92  C   UNL     1      -3.703  12.819  19.386  1.00  0.00     0.040 A 
ATOM     93  C   UNL     1      -3.753  10.414  19.297  1.00  0.00     0.040 A 
ATOM     94  F   UNL     1      -3.522   9.309  17.243  1.00  0.00    -0.206 F 
ATOM     95  C   UNL     1      -3.808  11.592  20.039  1.00  0.00     0.006 A 
ENDBRANCH  71  88
ENDBRANCH  45  46
ENDBRANCH  38  40
ENDBRANCH  37  38
ENDBRANCH  36  37
ENDBRANCH  35  36
ENDBRANCH  34  35
ENDBRANCH  33  34
ENDBRANCH  32  33
ENDBRANCH   1  32
TORSDOF 22
