REMARK SMILES O=C(OCCOCCOCCOC(=O)c1ccn(-c2cc(-c3ccncc3)nc(-c3ccccc3F)n2)n1)c1ccc(-c2c3nc(c(-c4c(F)cccc4F)c4ccc([nH]4)c(-c4c(F)cccc4F)c4nc(c(-c5c(F)cccc5F)c5ccc2[nH]5)C=C4)C=C3)cc1
REMARK SMILES IDX 7 1 6 2 5 3 4 4 3 5 2 6 1 7 39 8 40 9 92 10 41 11 91 12
REMARK SMILES IDX 42 13 43 14 44 15 85 16 45 17 90 18 84 19 86 20 46 21 89 22
REMARK SMILES IDX 83 23 82 24 47 26 73 27 56 28 72 29 57 30 60 31 71 32 87 33
REMARK SMILES IDX 58 34 59 35 70 37 88 38 61 39 48 40 49 41 54 42 50 43 51 44
REMARK SMILES IDX 53 45 55 46 52 47 74 48 75 49 80 50 76 51 77 52 79 53 81 54
REMARK SMILES IDX 78 55 62 56 63 57 68 58 64 59 65 60 67 61 69 62 66 63 8 64
REMARK SMILES IDX 9 65 10 66 11 67 12 68 13 69 14 70 15 71 16 72 38 73 17 74
REMARK SMILES IDX 18 75 19 76 20 77 37 78 21 79 29 80 28 81 22 82 23 83 27 84
REMARK SMILES IDX 24 85 26 86 25 87 30 88 31 89 35 90 32 91 34 92 36 93 33 94
REMARK H PARENT 86 25 60 36
REMARK Flexibility Score: inf
ROOT
ATOM      1  C   UNL     1       3.527  -0.223   1.633  1.00  0.00     0.188 C 
ENDROOT
BRANCH   1   2
ATOM      2  O   UNL     1       4.777   0.372   1.313  1.00  0.00    -0.376 OA
BRANCH   2   3
ATOM      3  C   UNL     1       5.201   0.194  -0.027  1.00  0.00     0.202 C 
BRANCH   3   4
ATOM      4  C   UNL     1       4.613   1.252  -0.957  1.00  0.00     0.261 C 
BRANCH   4   5
ATOM      5  O   UNL     1       3.191   1.452  -0.828  1.00  0.00    -0.460 OA
BRANCH   5   6
ATOM      6  C   UNL     1       2.159   0.835  -1.432  1.00  0.00     0.338 C 
ATOM      7  O   UNL     1       1.083   1.416  -1.545  1.00  0.00    -0.246 OA
BRANCH   6   8
ATOM      8  C   UNL     1       2.203  -0.606  -1.789  1.00  0.00     0.060 A 
ATOM      9  C   UNL     1       3.287  -1.243  -2.389  1.00  0.00     0.016 A 
ATOM     10  C   UNL     1       1.012  -1.330  -1.587  1.00  0.00     0.016 A 
ATOM     11  C   UNL     1       3.171  -2.562  -2.824  1.00  0.00     0.010 A 
ATOM     12  C   UNL     1       0.890  -2.645  -2.031  1.00  0.00     0.010 A 
ATOM     13  C   UNL     1       1.956  -3.244  -2.703  1.00  0.00    -0.014 A 
BRANCH  13  14
ATOM     14  C   UNL     1       1.823  -4.514  -3.426  1.00  0.00     0.031 A 
ATOM     15  C   UNL     1       2.662  -5.684  -3.006  1.00  0.00     0.074 A 
ATOM     16  C   UNL     1       0.944  -4.648  -4.442  1.00  0.00     0.049 A 
ATOM     17  N   UNL     1       3.356  -6.498  -3.742  1.00  0.00    -0.248 NA
ATOM     18  C   UNL     1       2.722  -6.001  -1.573  1.00  0.00     0.031 C 
ATOM     19  C   UNL     1      -0.127  -3.728  -4.844  1.00  0.00     0.029 A 
ATOM     20  N   UNL     1       0.789  -5.698  -5.301  1.00  0.00    -0.354 N 
ATOM     21  C   UNL     1       3.803  -7.517  -2.898  1.00  0.00     0.074 A 
ATOM     22  C   UNL     1       3.383  -7.160  -1.568  1.00  0.00     0.031 C 
ATOM     23  C   UNL     1      -0.933  -4.343  -5.736  1.00  0.00     0.029 A 
ATOM     24  C   UNL     1      -0.361  -5.634  -6.070  1.00  0.00     0.049 A 
ATOM     25  H   UNL     1       1.437  -6.436  -5.368  1.00  0.00     0.167 HD
ATOM     26  C   UNL     1       4.428  -8.640  -3.350  1.00  0.00     0.037 A 
ATOM     27  C   UNL     1      -0.841  -6.584  -6.903  1.00  0.00     0.037 A 
ATOM     28  C   UNL     1       5.076  -8.414  -4.607  1.00  0.00     0.049 A 
ATOM     29  C   UNL     1       0.271  -7.491  -7.260  1.00  0.00     0.074 A 
ATOM     30  C   UNL     1       6.131  -7.627  -5.021  1.00  0.00     0.029 A 
ATOM     31  N   UNL     1       4.492  -8.893  -5.748  1.00  0.00    -0.354 N 
ATOM     32  N   UNL     1       1.284  -7.173  -8.018  1.00  0.00    -0.248 NA
ATOM     33  C   UNL     1       0.408  -8.739  -6.525  1.00  0.00     0.031 C 
ATOM     34  C   UNL     1       5.865  -7.322  -6.384  1.00  0.00     0.029 A 
ATOM     35  C   UNL     1       4.653  -7.932  -6.713  1.00  0.00     0.049 A 
ATOM     36  H   UNL     1       4.043  -9.762  -5.856  1.00  0.00     0.167 HD
ATOM     37  C   UNL     1       2.325  -7.967  -7.568  1.00  0.00     0.074 A 
ATOM     38  C   UNL     1       1.692  -9.006  -6.768  1.00  0.00     0.031 C 
ATOM     39  C   UNL     1       3.622  -7.553  -7.654  1.00  0.00     0.037 A 
BRANCH  26  40
ATOM     40  C   UNL     1       4.312 -10.018  -2.747  1.00  0.00     0.057 A 
ATOM     41  C   UNL     1       3.220 -10.428  -1.960  1.00  0.00     0.134 A 
ATOM     42  C   UNL     1       5.156 -11.059  -3.182  1.00  0.00     0.134 A 
ATOM     43  F   UNL     1       2.308  -9.555  -1.517  1.00  0.00    -0.206 F 
ATOM     44  C   UNL     1       2.967 -11.771  -1.651  1.00  0.00     0.040 A 
ATOM     45  C   UNL     1       4.899 -12.408  -2.902  1.00  0.00     0.040 A 
ATOM     46  F   UNL     1       6.226 -10.805  -3.950  1.00  0.00    -0.206 F 
ATOM     47  C   UNL     1       3.795 -12.769  -2.143  1.00  0.00     0.006 A 
ENDBRANCH  26  40
BRANCH  27  48
ATOM     48  C   UNL     1      -2.246  -6.874  -7.255  1.00  0.00     0.057 A 
ATOM     49  C   UNL     1      -3.294  -6.642  -6.347  1.00  0.00     0.134 A 
ATOM     50  C   UNL     1      -2.572  -7.622  -8.395  1.00  0.00     0.134 A 
ATOM     51  F   UNL     1      -3.081  -5.998  -5.189  1.00  0.00    -0.206 F 
ATOM     52  C   UNL     1      -4.587  -7.130  -6.554  1.00  0.00     0.040 A 
ATOM     53  C   UNL     1      -3.862  -8.125  -8.611  1.00  0.00     0.040 A 
ATOM     54  F   UNL     1      -1.633  -7.929  -9.301  1.00  0.00    -0.206 F 
ATOM     55  C   UNL     1      -4.872  -7.887  -7.684  1.00  0.00     0.006 A 
ENDBRANCH  27  48
BRANCH  39  56
ATOM     56  C   UNL     1       3.937  -6.386  -8.546  1.00  0.00     0.057 A 
ATOM     57  C   UNL     1       4.870  -6.550  -9.577  1.00  0.00     0.134 A 
ATOM     58  C   UNL     1       3.495  -5.081  -8.288  1.00  0.00     0.134 A 
ATOM     59  F   UNL     1       5.389  -7.761  -9.835  1.00  0.00    -0.206 F 
ATOM     60  C   UNL     1       5.344  -5.465 -10.319  1.00  0.00     0.040 A 
ATOM     61  C   UNL     1       3.937  -3.992  -9.045  1.00  0.00     0.040 A 
ATOM     62  F   UNL     1       2.686  -4.816  -7.254  1.00  0.00    -0.206 F 
ATOM     63  C   UNL     1       4.872  -4.181 -10.059  1.00  0.00     0.006 A 
ENDBRANCH  39  56
ENDBRANCH  13  14
ENDBRANCH   6   8
ENDBRANCH   5   6
ENDBRANCH   4   5
ENDBRANCH   3   4
ENDBRANCH   2   3
ENDBRANCH   1   2
BRANCH   1  64
ATOM     64  C   UNL     1       2.481   0.755   2.208  1.00  0.00     0.188 C 
BRANCH  64  65
ATOM     65  O   UNL     1       2.857   1.964   2.863  1.00  0.00    -0.376 OA
BRANCH  65  66
ATOM     66  C   UNL     1       4.130   2.083   3.470  1.00  0.00     0.202 C 
BRANCH  66  67
ATOM     67  C   UNL     1       4.373   1.212   4.702  1.00  0.00     0.261 C 
BRANCH  67  68
ATOM     68  O   UNL     1       4.051  -0.172   4.495  1.00  0.00    -0.458 OA
BRANCH  68  69
ATOM     69  C   UNL     1       2.997  -0.647   5.221  1.00  0.00     0.358 C 
ATOM     70  O   UNL     1       2.382  -0.001   6.059  1.00  0.00    -0.244 OA
BRANCH  69  71
ATOM     71  C   UNL     1       2.722  -2.075   4.998  1.00  0.00     0.170 A 
ATOM     72  C   UNL     1       2.954  -3.066   5.982  1.00  0.00     0.058 A 
ATOM     73  N   UNL     1       2.087  -2.595   3.915  1.00  0.00    -0.159 NA
ATOM     74  C   UNL     1       2.257  -4.160   5.551  1.00  0.00     0.118 A 
ATOM     75  N   UNL     1       1.662  -3.818   4.356  1.00  0.00    -0.222 N 
BRANCH  75  76
ATOM     76  C   UNL     1       0.617  -4.577   3.747  1.00  0.00     0.158 A 
ATOM     77  C   UNL     1       0.489  -4.657   2.372  1.00  0.00     0.078 A 
ATOM     78  N   UNL     1      -0.204  -5.229   4.607  1.00  0.00    -0.209 NA
ATOM     79  C   UNL     1      -0.505  -5.516   1.925  1.00  0.00     0.077 A 
ATOM     80  C   UNL     1      -1.198  -5.941   4.068  1.00  0.00     0.165 A 
ATOM     81  N   UNL     1      -1.374  -6.122   2.758  1.00  0.00    -0.228 NA
BRANCH  79  82
ATOM     82  C   UNL     1      -0.669  -5.967   0.541  1.00  0.00     0.003 A 
ATOM     83  C   UNL     1       0.054  -7.073   0.077  1.00  0.00     0.030 A 
ATOM     84  C   UNL     1      -1.666  -5.445  -0.290  1.00  0.00     0.030 A 
ATOM     85  C   UNL     1      -0.228  -7.582  -1.182  1.00  0.00     0.111 A 
ATOM     86  C   UNL     1      -1.872  -6.024  -1.536  1.00  0.00     0.111 A 
ATOM     87  N   UNL     1      -1.168  -7.076  -2.000  1.00  0.00    -0.265 NA
ENDBRANCH  79  82
BRANCH  80  88
ATOM     88  C   UNL     1      -2.234  -6.446   4.950  1.00  0.00     0.055 A 
ATOM     89  C   UNL     1      -3.160  -5.568   5.543  1.00  0.00     0.015 A 
ATOM     90  C   UNL     1      -2.370  -7.813   5.197  1.00  0.00     0.134 A 
ATOM     91  C   UNL     1      -4.196  -6.055   6.345  1.00  0.00     0.001 A 
ATOM     92  C   UNL     1      -3.396  -8.306   6.002  1.00  0.00     0.040 A 
ATOM     93  F   UNL     1      -1.502  -8.687   4.664  1.00  0.00    -0.206 F 
ATOM     94  C   UNL     1      -4.314  -7.425   6.573  1.00  0.00     0.003 A 
ENDBRANCH  80  88
ENDBRANCH  75  76
ENDBRANCH  69  71
ENDBRANCH  68  69
ENDBRANCH  67  68
ENDBRANCH  66  67
ENDBRANCH  65  66
ENDBRANCH  64  65
ENDBRANCH   1  64
TORSDOF 20
