REMARK SMILES CC[C@@H](C(=O)OCCOCCOCCOC(=O)c1ccc(-c2c3nc(c(-c4c(F)cccc4F)c4ccc([nH]4)c(-c4c(F)cccc4F)c4nc(c(-c5c(F)cccc5F)c5ccc2[nH]5)C=C4)C=C3)cc1)N(C)C(=O)N(C)CC(C)(C)O
REMARK SMILES IDX 8 1 7 2 6 3 4 4 5 5 3 6 2 7 1 8 72 9 73 10 74 11 75 12 76 13
REMARK SMILES IDX 77 14 78 15 79 16 80 17 81 18 82 19 9 21 10 22 11 23 12 24
REMARK SMILES IDX 13 25 14 26 15 27 16 28 17 29 18 30 19 31 71 32 20 33 70 34
REMARK SMILES IDX 21 35 22 36 23 37 64 38 24 39 69 40 63 41 65 42 25 43 68 44
REMARK SMILES IDX 62 45 61 46 26 48 52 49 35 50 51 51 36 52 39 53 50 54 66 55
REMARK SMILES IDX 37 56 38 57 49 59 67 60 40 61 27 62 28 63 33 64 29 65 30 66
REMARK SMILES IDX 32 67 34 68 31 69 53 70 54 71 59 72 55 73 56 74 58 75 60 76
REMARK SMILES IDX 57 77 41 78 42 79 47 80 43 81 44 82 46 83 48 84 45 85
REMARK H PARENT 82 20 65 47 39 58
REMARK Flexibility Score: inf
ROOT
ATOM      1  C   UNL     1      -0.118   2.989   3.190  1.00  0.00     0.202 C 
ENDROOT
BRANCH   1   2
ATOM      2  C   UNL     1       1.330   2.482   3.403  1.00  0.00     0.261 C 
BRANCH   2   3
ATOM      3  O   UNL     1       1.685   1.333   2.593  1.00  0.00    -0.462 OA
BRANCH   3   4
ATOM      4  C   UNL     1       1.745   0.132   3.238  1.00  0.00     0.328 C 
ATOM      5  O   UNL     1       1.788   0.041   4.463  1.00  0.00    -0.250 OA
BRANCH   4   6
ATOM      6  C   UNL     1       1.830  -1.109   2.288  1.00  0.00     0.196 C 
BRANCH   6   7
ATOM      7  C   UNL     1       1.305  -1.046   0.829  1.00  0.00     0.034 C 
ATOM      8  C   UNL     1       1.819   0.057  -0.080  1.00  0.00     0.007 C 
ENDBRANCH   6   7
BRANCH   6   9
ATOM      9  N   UNL     1       1.277  -2.294   3.060  1.00  0.00    -0.314 N 
ATOM     10  C   UNL     1       2.234  -2.982   3.903  1.00  0.00     0.149 C 
BRANCH   9  11
ATOM     11  C   UNL     1      -0.093  -2.491   3.101  1.00  0.00     0.320 C 
ATOM     12  O   UNL     1      -0.789  -2.176   2.134  1.00  0.00    -0.248 OA
BRANCH  11  13
ATOM     13  N   UNL     1      -0.739  -2.905   4.253  1.00  0.00    -0.325 N 
ATOM     14  C   UNL     1      -0.403  -4.122   4.986  1.00  0.00     0.148 C 
BRANCH  13  15
ATOM     15  C   UNL     1      -2.174  -2.521   4.337  1.00  0.00     0.155 C 
BRANCH  15  16
ATOM     16  C   UNL     1      -2.663  -1.688   5.592  1.00  0.00     0.077 C 
ATOM     17  C   UNL     1      -2.679  -0.215   5.182  1.00  0.00     0.043 C 
ATOM     18  C   UNL     1      -4.072  -1.992   6.146  1.00  0.00     0.043 C 
BRANCH  16  19
ATOM     19  O   UNL     1      -1.775  -1.859   6.699  1.00  0.00    -0.389 OA
ATOM     20  H   UNL     1      -0.865  -1.681   6.415  1.00  0.00     0.211 HD
ENDBRANCH  16  19
ENDBRANCH  15  16
ENDBRANCH  13  15
ENDBRANCH  11  13
ENDBRANCH   9  11
ENDBRANCH   6   9
ENDBRANCH   4   6
ENDBRANCH   3   4
ENDBRANCH   2   3
ENDBRANCH   1   2
BRANCH   1  21
ATOM     21  O   UNL     1      -1.181   2.041   3.282  1.00  0.00    -0.376 OA
BRANCH  21  22
ATOM     22  C   UNL     1      -1.008   0.935   2.402  1.00  0.00     0.188 C 
BRANCH  22  23
ATOM     23  C   UNL     1      -2.241   0.558   1.635  1.00  0.00     0.188 C 
BRANCH  23  24
ATOM     24  O   UNL     1      -2.287   1.265   0.393  1.00  0.00    -0.376 OA
BRANCH  24  25
ATOM     25  C   UNL     1      -3.048   2.456   0.480  1.00  0.00     0.202 C 
BRANCH  25  26
ATOM     26  C   UNL     1      -4.567   2.207   0.430  1.00  0.00     0.261 C 
BRANCH  26  27
ATOM     27  O   UNL     1      -5.018   1.023   1.134  1.00  0.00    -0.460 OA
BRANCH  27  28
ATOM     28  C   UNL     1      -4.919  -0.166   0.459  1.00  0.00     0.338 C 
ATOM     29  O   UNL     1      -4.660  -0.301  -0.716  1.00  0.00    -0.246 OA
BRANCH  28  30
ATOM     30  C   UNL     1      -5.061  -1.323   1.417  1.00  0.00     0.060 A 
ATOM     31  C   UNL     1      -4.346  -2.513   1.192  1.00  0.00     0.016 A 
ATOM     32  C   UNL     1      -5.905  -1.263   2.525  1.00  0.00     0.016 A 
ATOM     33  C   UNL     1      -4.488  -3.634   2.050  1.00  0.00     0.010 A 
ATOM     34  C   UNL     1      -6.060  -2.387   3.366  1.00  0.00     0.010 A 
ATOM     35  C   UNL     1      -5.355  -3.599   3.155  1.00  0.00    -0.014 A 
BRANCH  35  36
ATOM     36  C   UNL     1      -5.790  -4.863   3.879  1.00  0.00     0.031 A 
ATOM     37  C   UNL     1      -7.057  -5.487   3.347  1.00  0.00     0.074 A 
ATOM     38  C   UNL     1      -5.223  -5.470   4.957  1.00  0.00     0.049 A 
ATOM     39  N   UNL     1      -7.691  -6.556   3.753  1.00  0.00    -0.248 NA
ATOM     40  C   UNL     1      -7.704  -4.793   2.219  1.00  0.00     0.031 C 
ATOM     41  C   UNL     1      -4.033  -5.057   5.663  1.00  0.00     0.029 A 
ATOM     42  N   UNL     1      -5.601  -6.581   5.700  1.00  0.00    -0.354 N 
ATOM     43  C   UNL     1      -8.783  -6.678   2.912  1.00  0.00     0.074 A 
ATOM     44  C   UNL     1      -8.789  -5.524   2.042  1.00  0.00     0.031 C 
ATOM     45  C   UNL     1      -3.779  -5.821   6.727  1.00  0.00     0.029 A 
ATOM     46  C   UNL     1      -4.803  -6.829   6.806  1.00  0.00     0.049 A 
ATOM     47  H   UNL     1      -6.372  -7.145   5.461  1.00  0.00     0.167 HD
ATOM     48  C   UNL     1      -9.684  -7.681   2.831  1.00  0.00     0.037 A 
ATOM     49  C   UNL     1      -4.840  -7.736   7.802  1.00  0.00     0.037 A 
ATOM     50  C   UNL     1      -9.727  -8.812   3.714  1.00  0.00     0.049 A 
ATOM     51  C   UNL     1      -5.890  -8.790   7.755  1.00  0.00     0.074 A 
ATOM     52  C   UNL     1     -10.597  -9.886   3.689  1.00  0.00     0.029 A 
ATOM     53  N   UNL     1      -8.884  -9.003   4.799  1.00  0.00    -0.354 N 
ATOM     54  N   UNL     1      -6.857  -8.930   6.886  1.00  0.00    -0.248 NA
ATOM     55  C   UNL     1      -5.839  -9.829   8.790  1.00  0.00     0.031 C 
ATOM     56  C   UNL     1     -10.317 -10.700   4.790  1.00  0.00     0.029 A 
ATOM     57  C   UNL     1      -9.231 -10.168   5.464  1.00  0.00     0.049 A 
ATOM     58  H   UNL     1      -8.150  -8.400   5.058  1.00  0.00     0.167 HD
ATOM     59  C   UNL     1      -7.501 -10.103   7.234  1.00  0.00     0.074 A 
ATOM     60  C   UNL     1      -6.815 -10.633   8.396  1.00  0.00     0.031 C 
ATOM     61  C   UNL     1      -8.555 -10.691   6.623  1.00  0.00     0.037 A 
BRANCH  48  62
ATOM     62  C   UNL     1     -10.695  -7.565   1.731  1.00  0.00     0.057 A 
ATOM     63  C   UNL     1     -10.325  -7.673   0.382  1.00  0.00     0.134 A 
ATOM     64  C   UNL     1     -12.034  -7.285   2.017  1.00  0.00     0.134 A 
ATOM     65  F   UNL     1      -9.047  -7.907   0.043  1.00  0.00    -0.206 F 
ATOM     66  C   UNL     1     -11.245  -7.465  -0.645  1.00  0.00     0.040 A 
ATOM     67  C   UNL     1     -12.970  -7.107   0.999  1.00  0.00     0.040 A 
ATOM     68  F   UNL     1     -12.449  -7.158   3.286  1.00  0.00    -0.206 F 
ATOM     69  C   UNL     1     -12.574  -7.185  -0.336  1.00  0.00     0.006 A 
ENDBRANCH  48  62
BRANCH  49  70
ATOM     70  C   UNL     1      -3.823  -7.716   8.897  1.00  0.00     0.057 A 
ATOM     71  C   UNL     1      -2.823  -8.694   8.984  1.00  0.00     0.134 A 
ATOM     72  C   UNL     1      -3.823  -6.717   9.880  1.00  0.00     0.134 A 
ATOM     73  F   UNL     1      -2.771  -9.687   8.084  1.00  0.00    -0.206 F 
ATOM     74  C   UNL     1      -1.879  -8.693  10.015  1.00  0.00     0.040 A 
ATOM     75  C   UNL     1      -2.869  -6.689  10.902  1.00  0.00     0.040 A 
ATOM     76  F   UNL     1      -4.741  -5.740   9.851  1.00  0.00    -0.206 F 
ATOM     77  C   UNL     1      -1.898  -7.685  10.976  1.00  0.00     0.006 A 
ENDBRANCH  49  70
BRANCH  61  78
ATOM     78  C   UNL     1      -8.992 -12.012   7.170  1.00  0.00     0.057 A 
ATOM     79  C   UNL     1      -9.619 -12.134   8.416  1.00  0.00     0.134 A 
ATOM     80  C   UNL     1      -8.771 -13.182   6.434  1.00  0.00     0.134 A 
ATOM     81  F   UNL     1      -9.834 -11.051   9.180  1.00  0.00    -0.206 F 
ATOM     82  C   UNL     1      -9.984 -13.380   8.924  1.00  0.00     0.040 A 
ATOM     83  C   UNL     1      -9.162 -14.429   6.916  1.00  0.00     0.040 A 
ATOM     84  F   UNL     1      -8.172 -13.130   5.234  1.00  0.00    -0.206 F 
ATOM     85  C   UNL     1      -9.762 -14.531   8.169  1.00  0.00     0.006 A 
ENDBRANCH  61  78
ENDBRANCH  35  36
ENDBRANCH  28  30
ENDBRANCH  27  28
ENDBRANCH  26  27
ENDBRANCH  25  26
ENDBRANCH  24  25
ENDBRANCH  23  24
ENDBRANCH  22  23
ENDBRANCH  21  22
ENDBRANCH   1  21
TORSDOF 24
