REMARK SMILES Cc1ccc(NC(=O)c2cnn3c2NC2=C(C(=O)CCC2)[C@H]3c2ccc(C(=O)OCCOCCOCCOC(=O)c3ccc(-c4c5nc(c(-c6c(F)cccc6F)c6ccc([nH]6)c(-c6c(F)cccc6F)c6nc(c(-c7c(F)cccc7F)c7ccc4[nH]7)C=C6)C=C5)cc3)cc2)cc1
REMARK SMILES IDX 33 1 32 2 31 3 30 4 29 5 27 6 28 7 26 8 23 9 24 10 96 11
REMARK SMILES IDX 25 12 95 13 22 14 9 15 10 16 13 17 11 18 12 19 14 20 15 21
REMARK SMILES IDX 16 23 21 24 17 25 20 26 18 27 19 28 7 29 6 30 8 32 5 33 1 34
REMARK SMILES IDX 2 35 3 36 98 37 4 38 97 39 34 40 35 41 36 42 37 43 38 44
REMARK SMILES IDX 39 45 40 46 41 47 42 48 94 49 43 50 93 51 44 52 45 53 46 54
REMARK SMILES IDX 87 55 47 56 92 57 86 58 88 59 48 60 91 61 85 62 84 63 49 65
REMARK SMILES IDX 75 66 58 67 74 68 59 69 62 70 73 71 89 72 60 73 61 74 72 76
REMARK SMILES IDX 90 77 63 78 50 79 51 80 56 81 52 82 53 83 55 84 57 85 54 86
REMARK SMILES IDX 76 87 77 88 82 89 78 90 79 91 81 92 83 93 80 94 64 95 65 96
REMARK SMILES IDX 70 97 66 98 67 99 69 100 71 101 68 102
REMARK H PARENT 14 22 6 31 88 64 62 75
REMARK Flexibility Score: inf
ROOT
ATOM      1  C   UNL     1       0.776  -5.068  -9.961  1.00  0.00     0.188 C 
ENDROOT
BRANCH   1   2
ATOM      2  O   UNL     1      -0.288  -4.218  -9.505  1.00  0.00    -0.376 OA
BRANCH   2   3
ATOM      3  C   UNL     1       0.042  -2.817  -9.502  1.00  0.00     0.202 C 
BRANCH   3   4
ATOM      4  C   UNL     1      -0.763  -1.853  -8.531  1.00  0.00     0.261 C 
BRANCH   4   5
ATOM      5  O   UNL     1      -0.623  -1.699  -6.971  1.00  0.00    -0.460 OA
BRANCH   5   6
ATOM      6  C   UNL     1      -0.768  -2.864  -6.254  1.00  0.00     0.338 C 
ATOM      7  O   UNL     1      -0.674  -3.815  -7.017  1.00  0.00    -0.246 OA
BRANCH   6   8
ATOM      8  C   UNL     1      -1.318  -3.194  -4.639  1.00  0.00     0.060 A 
ATOM      9  C   UNL     1      -1.738  -4.972  -2.155  1.00  0.00    -0.019 A 
ATOM     10  C   UNL     1      -2.399  -5.181  -3.323  1.00  0.00     0.007 A 
ATOM     11  C   UNL     1      -0.760  -3.941  -2.284  1.00  0.00     0.007 A 
ATOM     12  C   UNL     1      -2.231  -4.284  -4.409  1.00  0.00     0.016 A 
ATOM     13  C   UNL     1      -0.549  -3.071  -3.487  1.00  0.00     0.016 A 
BRANCH   9  14
ATOM     14  C   UNL     1      -2.293  -5.646  -0.820  1.00  0.00     0.175 C 
ATOM     15  C   UNL     1      -3.788  -2.622  -0.011  1.00  0.00     0.102 A 
ATOM     16  C   UNL     1      -2.946  -2.853   1.123  1.00  0.00     0.151 A 
ATOM     17  C   UNL     1      -3.986  -3.888  -0.522  1.00  0.00     0.142 A 
ATOM     18  N   UNL     1      -2.337  -4.040   1.072  1.00  0.00    -0.178 NA
ATOM     19  N   UNL     1      -2.846  -4.535  -0.060  1.00  0.00    -0.237 N 
ATOM     20  N   UNL     1      -4.802  -4.584  -1.389  1.00  0.00    -0.343 N 
ATOM     21  C   UNL     1      -4.678  -5.991  -1.479  1.00  0.00     0.026 C 
ATOM     22  H   UNL     1      -5.464  -4.107  -1.940  1.00  0.00     0.168 HD
ATOM     23  C   UNL     1      -3.559  -6.543  -0.939  1.00  0.00     0.044 C 
ATOM     24  C   UNL     1      -5.866  -6.892  -1.733  1.00  0.00     0.055 C 
ATOM     25  C   UNL     1      -4.018  -7.248   0.337  1.00  0.00     0.163 C 
ATOM     26  C   UNL     1      -6.432  -7.420  -0.416  1.00  0.00     0.014 C 
ATOM     27  O   UNL     1      -3.199  -7.782   1.080  1.00  0.00    -0.294 OA
ATOM     28  C   UNL     1      -5.503  -7.089   0.749  1.00  0.00     0.081 C 
BRANCH  15  29
ATOM     29  C   UNL     1      -4.273  -1.357  -0.496  1.00  0.00     0.261 C 
ATOM     30  N   UNL     1      -3.423  -0.257  -0.465  1.00  0.00    -0.322 N 
ATOM     31  H   UNL     1      -3.892   0.606  -0.536  1.00  0.00     0.170 HD
ATOM     32  O   UNL     1      -5.427  -1.220  -0.906  1.00  0.00    -0.269 OA
BRANCH  30  33
ATOM     33  C   UNL     1      -2.012  -0.130  -0.351  1.00  0.00     0.041 A 
ATOM     34  C   UNL     1       2.291   0.376   0.056  1.00  0.00     0.044 C 
ATOM     35  C   UNL     1       0.807   0.229  -0.099  1.00  0.00    -0.051 A 
ATOM     36  C   UNL     1       0.272  -1.020  -0.382  1.00  0.00     0.005 A 
ATOM     37  C   UNL     1      -0.075   1.303   0.045  1.00  0.00     0.005 A 
ATOM     38  C   UNL     1      -1.112  -1.174  -0.530  1.00  0.00     0.026 A 
ATOM     39  C   UNL     1      -1.468   1.126  -0.086  1.00  0.00     0.026 A 
ENDBRANCH  30  33
ENDBRANCH  15  29
ENDBRANCH   9  14
ENDBRANCH   6   8
ENDBRANCH   5   6
ENDBRANCH   4   5
ENDBRANCH   3   4
ENDBRANCH   2   3
ENDBRANCH   1   2
BRANCH   1  40
ATOM     40  C   UNL     1       1.813  -5.344  -8.873  1.00  0.00     0.188 C 
BRANCH  40  41
ATOM     41  O   UNL     1       2.188  -4.156  -8.193  1.00  0.00    -0.376 OA
BRANCH  41  42
ATOM     42  C   UNL     1       3.572  -3.925  -8.015  1.00  0.00     0.202 C 
BRANCH  42  43
ATOM     43  C   UNL     1       4.349  -5.078  -7.354  1.00  0.00     0.261 C 
BRANCH  43  44
ATOM     44  O   UNL     1       3.605  -5.632  -6.243  1.00  0.00    -0.460 OA
BRANCH  44  45
ATOM     45  C   UNL     1       3.214  -6.944  -6.282  1.00  0.00     0.338 C 
ATOM     46  O   UNL     1       3.792  -7.840  -6.910  1.00  0.00    -0.246 OA
BRANCH  45  47
ATOM     47  C   UNL     1       1.823  -7.078  -5.727  1.00  0.00     0.060 A 
ATOM     48  C   UNL     1       0.871  -7.999  -6.183  1.00  0.00     0.016 A 
ATOM     49  C   UNL     1       1.305  -5.976  -5.149  1.00  0.00     0.016 A 
ATOM     50  C   UNL     1      -0.522  -7.623  -6.417  1.00  0.00     0.010 A 
ATOM     51  C   UNL     1       0.002  -5.638  -5.555  1.00  0.00     0.010 A 
ATOM     52  C   UNL     1      -1.002  -6.320  -6.300  1.00  0.00    -0.014 A 
BRANCH  52  53
ATOM     53  C   UNL     1      -2.334  -5.716  -7.193  1.00  0.00     0.031 A 
ATOM     54  C   UNL     1      -3.543  -4.553  -6.970  1.00  0.00     0.074 A 
ATOM     55  C   UNL     1      -2.475  -6.180  -8.450  1.00  0.00     0.049 A 
ATOM     56  N   UNL     1      -4.841  -4.692  -6.721  1.00  0.00    -0.248 NA
ATOM     57  C   UNL     1      -3.305  -3.106  -6.867  1.00  0.00     0.031 C 
ATOM     58  C   UNL     1      -3.327  -5.626  -9.498  1.00  0.00     0.029 A 
ATOM     59  N   UNL     1      -1.956  -7.343  -9.005  1.00  0.00    -0.354 N 
ATOM     60  C   UNL     1      -5.369  -3.358  -6.528  1.00  0.00     0.074 A 
ATOM     61  C   UNL     1      -4.263  -2.580  -6.115  1.00  0.00     0.031 C 
ATOM     62  C   UNL     1      -3.499  -6.558 -10.446  1.00  0.00     0.029 A 
ATOM     63  C   UNL     1      -2.880  -7.777  -9.966  1.00  0.00     0.049 A 
ATOM     64  H   UNL     1      -1.105  -7.779  -8.769  1.00  0.00     0.167 HD
ATOM     65  C   UNL     1      -6.334  -2.719  -7.288  1.00  0.00     0.037 A 
ATOM     66  C   UNL     1      -3.497  -8.985  -9.822  1.00  0.00     0.037 A 
ATOM     67  C   UNL     1      -6.659  -3.563  -8.400  1.00  0.00     0.049 A 
ATOM     68  C   UNL     1      -4.994  -8.857  -9.682  1.00  0.00     0.074 A 
ATOM     69  C   UNL     1      -6.354  -3.531  -9.749  1.00  0.00     0.029 A 
ATOM     70  N   UNL     1      -7.170  -4.797  -8.118  1.00  0.00    -0.354 N 
ATOM     71  N   UNL     1      -5.591  -7.726  -9.413  1.00  0.00    -0.248 NA
ATOM     72  C   UNL     1      -5.954  -9.941  -9.870  1.00  0.00     0.031 C 
ATOM     73  C   UNL     1      -6.695  -4.799 -10.282  1.00  0.00     0.029 A 
ATOM     74  C   UNL     1      -7.209  -5.562  -9.249  1.00  0.00     0.049 A 
ATOM     75  H   UNL     1      -7.468  -5.093  -7.228  1.00  0.00     0.167 HD
ATOM     76  C   UNL     1      -6.948  -7.904  -9.392  1.00  0.00     0.074 A 
ATOM     77  C   UNL     1      -7.127  -9.308  -9.680  1.00  0.00     0.031 C 
ATOM     78  C   UNL     1      -7.797  -6.872  -9.127  1.00  0.00     0.037 A 
BRANCH  65  79
ATOM     79  C   UNL     1      -6.691  -1.193  -7.321  1.00  0.00     0.057 A 
ATOM     80  C   UNL     1      -7.458  -0.655  -8.384  1.00  0.00     0.134 A 
ATOM     81  C   UNL     1      -6.346  -0.215  -6.359  1.00  0.00     0.134 A 
ATOM     82  F   UNL     1      -8.027  -1.444  -9.305  1.00  0.00    -0.206 F 
ATOM     83  C   UNL     1      -7.727   0.719  -8.549  1.00  0.00     0.040 A 
ATOM     84  C   UNL     1      -6.562   1.171  -6.537  1.00  0.00     0.040 A 
ATOM     85  F   UNL     1      -5.833  -0.548  -5.167  1.00  0.00    -0.206 F 
ATOM     86  C   UNL     1      -7.245   1.647  -7.644  1.00  0.00     0.006 A 
ENDBRANCH  65  79
BRANCH  66  87
ATOM     87  C   UNL     1      -2.564 -10.011  -9.266  1.00  0.00     0.057 A 
ATOM     88  C   UNL     1      -1.409 -10.265 -10.040  1.00  0.00     0.134 A 
ATOM     89  C   UNL     1      -2.486 -10.329  -7.906  1.00  0.00     0.134 A 
ATOM     90  F   UNL     1      -1.412  -9.988 -11.354  1.00  0.00    -0.206 F 
ATOM     91  C   UNL     1      -0.188 -10.629  -9.467  1.00  0.00     0.040 A 
ATOM     92  C   UNL     1      -1.274 -10.761  -7.330  1.00  0.00     0.040 A 
ATOM     93  F   UNL     1      -3.503 -10.053  -7.079  1.00  0.00    -0.206 F 
ATOM     94  C   UNL     1      -0.112 -10.851  -8.100  1.00  0.00     0.006 A 
ENDBRANCH  66  87
BRANCH  78  95
ATOM     95  C   UNL     1      -9.231  -6.941  -8.649  1.00  0.00     0.057 A 
ATOM     96  C   UNL     1      -9.768  -8.047  -7.985  1.00  0.00     0.134 A 
ATOM     97  C   UNL     1     -10.039  -5.771  -8.613  1.00  0.00     0.134 A 
ATOM     98  F   UNL     1      -9.081  -9.188  -7.854  1.00  0.00    -0.206 F 
ATOM     99  C   UNL     1     -11.018  -8.006  -7.353  1.00  0.00     0.040 A 
ATOM    100  C   UNL     1     -11.249  -5.698  -7.920  1.00  0.00     0.040 A 
ATOM    101  F   UNL     1      -9.659  -4.626  -9.202  1.00  0.00    -0.206 F 
ATOM    102  C   UNL     1     -11.751  -6.826  -7.297  1.00  0.00     0.006 A 
ENDBRANCH  78  95
ENDBRANCH  52  53
ENDBRANCH  45  47
ENDBRANCH  44  45
ENDBRANCH  43  44
ENDBRANCH  42  43
ENDBRANCH  41  42
ENDBRANCH  40  41
ENDBRANCH   1  40
TORSDOF 20
