REMARK SMILES C[C@@H](Oc1ccc(/C=C2\C(=O)[NH+]=C(OCCOCCOCCOC(=O)c3ccc(-c4c5nc(c(-c6c(F)cccc6F)c6ccc([nH]6)c(-c6c(F)cccc6F)c6nc(c(-c7c(F)cccc7F)c7ccc4[nH]7)C=C6)C=C5)cc3)N(c3ccc4c(c3)OCO4)C2=O)cc1)C(=O)[O-]
REMARK SMILES IDX 18 1 17 2 16 3 15 4 14 5 13 6 8 7 9 8 10 9 90 10 11 11 12 12
REMARK SMILES IDX 80 13 91 14 7 16 4 17 5 18 93 19 6 20 92 21 3 22 2 23 1 24
REMARK SMILES IDX 94 25 95 26 96 27 81 28 82 29 86 30 83 31 85 32 84 33 87 34
REMARK SMILES IDX 89 35 88 36 19 37 20 38 21 39 22 40 23 41 24 42 25 43 26 44
REMARK SMILES IDX 27 45 79 46 28 47 78 48 29 49 30 50 31 51 72 52 32 53 77 54
REMARK SMILES IDX 71 55 73 56 33 57 76 58 70 59 69 60 34 62 60 63 43 64 59 65
REMARK SMILES IDX 44 66 47 67 58 68 74 69 45 70 46 71 57 73 75 74 48 75 35 76
REMARK SMILES IDX 36 77 41 78 37 79 38 80 40 81 42 82 39 83 61 84 62 85 67 86
REMARK SMILES IDX 63 87 64 88 66 89 68 90 65 91 49 92 50 93 55 94 51 95 52 96
REMARK SMILES IDX 54 97 56 98 53 99
REMARK H PARENT 12 15 73 61 47 72
REMARK Flexibility Score: inf
ROOT
ATOM      1  C   UNL     1       8.370   5.122  -5.457  1.00  0.00     0.188 C 
ENDROOT
BRANCH   1   2
ATOM      2  O   UNL     1       9.440   4.400  -6.059  1.00  0.00    -0.376 OA
BRANCH   2   3
ATOM      3  C   UNL     1       9.500   4.563  -7.480  1.00  0.00     0.202 C 
BRANCH   3   4
ATOM      4  C   UNL     1       9.885   3.230  -8.130  1.00  0.00     0.266 C 
BRANCH   4   5
ATOM      5  O   UNL     1       8.897   2.171  -8.006  1.00  0.00    -0.428 OA
BRANCH   5   6
ATOM      6  C   UNL     1       8.273   1.986  -6.810  1.00  0.00     0.465 C 
ATOM      7  C   UNL     1       6.165   0.684  -3.640  1.00  0.00     0.032 C 
ATOM      8  C   UNL     1       6.896   1.344  -4.564  1.00  0.00     0.155 C 
ATOM      9  C   UNL     1       6.422   2.364  -5.512  1.00  0.00     0.349 C 
ATOM     10  C   UNL     1       8.352   1.038  -4.602  1.00  0.00     0.357 C 
ATOM     11  O   UNL     1       5.589   3.201  -5.196  1.00  0.00    -0.240 OA
ATOM     12  N   UNL     1       7.046   2.370  -6.728  1.00  0.00    -0.171 N 
ATOM     13  N   UNL     1       8.989   1.397  -5.782  1.00  0.00    -0.123 N 
ATOM     14  O   UNL     1       8.896   0.458  -3.661  1.00  0.00    -0.240 OA
ATOM     15  H   UNL     1       6.562   2.664  -7.533  1.00  0.00     0.319 HD
BRANCH   7  16
ATOM     16  C   UNL     1       4.736   0.679  -3.257  1.00  0.00    -0.024 A 
ATOM     17  C   UNL     1       2.063   0.435  -2.360  1.00  0.00     0.120 A 
ATOM     18  C   UNL     1       2.350   1.078  -3.561  1.00  0.00     0.047 A 
ATOM     19  C   UNL     1       3.095  -0.122  -1.621  1.00  0.00     0.047 A 
ATOM     20  C   UNL     1       3.676   1.190  -4.011  1.00  0.00     0.012 A 
ATOM     21  C   UNL     1       4.413   0.016  -2.059  1.00  0.00     0.012 A 
BRANCH  17  22
ATOM     22  O   UNL     1       0.753   0.246  -2.022  1.00  0.00    -0.485 OA
BRANCH  22  23
ATOM     23  C   UNL     1       0.357   0.909  -0.811  1.00  0.00     0.216 C 
ATOM     24  C   UNL     1       0.503   0.008   0.412  1.00  0.00     0.059 C 
BRANCH  23  25
ATOM     25  C   UNL     1      -1.116   1.281  -0.940  1.00  0.00     0.082 C 
ATOM     26  O   UNL     1      -1.620   2.339  -0.593  1.00  0.00    -0.546 OA
ATOM     27  O   UNL     1      -1.897   0.291  -1.423  1.00  0.00    -0.546 OA
ENDBRANCH  23  25
ENDBRANCH  22  23
ENDBRANCH  17  22
ENDBRANCH   7  16
BRANCH  13  28
ATOM     28  C   UNL     1      10.356   1.032  -5.915  1.00  0.00     0.144 A 
ATOM     29  C   UNL     1      11.310   1.609  -5.044  1.00  0.00     0.056 A 
ATOM     30  C   UNL     1      10.752   0.093  -6.877  1.00  0.00     0.103 A 
ATOM     31  C   UNL     1      12.660   1.263  -5.133  1.00  0.00     0.055 A 
ATOM     32  C   UNL     1      12.085  -0.255  -6.911  1.00  0.00     0.170 A 
ATOM     33  C   UNL     1      13.012   0.315  -6.068  1.00  0.00     0.166 A 
ATOM     34  O   UNL     1      12.641  -1.183  -7.736  1.00  0.00    -0.453 OA
ATOM     35  O   UNL     1      14.264  -0.175  -6.267  1.00  0.00    -0.454 OA
ATOM     36  C   UNL     1      14.000  -1.197  -7.250  1.00  0.00     0.468 C 
ENDBRANCH  13  28
ENDBRANCH   5   6
ENDBRANCH   4   5
ENDBRANCH   3   4
ENDBRANCH   2   3
ENDBRANCH   1   2
BRANCH   1  37
ATOM     37  C   UNL     1       8.600   6.610  -5.181  1.00  0.00     0.188 C 
BRANCH  37  38
ATOM     38  O   UNL     1       9.811   7.180  -5.651  1.00  0.00    -0.376 OA
BRANCH  38  39
ATOM     39  C   UNL     1      11.020   6.771  -5.006  1.00  0.00     0.202 C 
BRANCH  39  40
ATOM     40  C   UNL     1      11.044   6.906  -3.482  1.00  0.00     0.261 C 
BRANCH  40  41
ATOM     41  O   UNL     1      10.553   5.696  -2.862  1.00  0.00    -0.460 OA
BRANCH  41  42
ATOM     42  C   UNL     1       9.659   5.883  -1.868  1.00  0.00     0.338 C 
ATOM     43  O   UNL     1       9.186   6.940  -1.484  1.00  0.00    -0.246 OA
BRANCH  42  44
ATOM     44  C   UNL     1       9.259   4.597  -1.278  1.00  0.00     0.060 A 
ATOM     45  C   UNL     1       7.911   4.230  -1.342  1.00  0.00     0.016 A 
ATOM     46  C   UNL     1      10.156   3.890  -0.471  1.00  0.00     0.016 A 
ATOM     47  C   UNL     1       7.437   3.202  -0.527  1.00  0.00     0.010 A 
ATOM     48  C   UNL     1       9.677   2.863   0.349  1.00  0.00     0.010 A 
ATOM     49  C   UNL     1       8.305   2.560   0.370  1.00  0.00    -0.014 A 
BRANCH  49  50
ATOM     50  C   UNL     1       7.733   1.737   1.464  1.00  0.00     0.031 A 
ATOM     51  C   UNL     1       7.459   2.384   2.797  1.00  0.00     0.074 A 
ATOM     52  C   UNL     1       7.424   0.445   1.271  1.00  0.00     0.049 A 
ATOM     53  N   UNL     1       6.911   1.874   3.871  1.00  0.00    -0.248 NA
ATOM     54  C   UNL     1       7.872   3.789   2.941  1.00  0.00     0.031 C 
ATOM     55  C   UNL     1       7.668  -0.307   0.044  1.00  0.00     0.029 A 
ATOM     56  N   UNL     1       6.827  -0.459   2.113  1.00  0.00    -0.354 N 
ATOM     57  C   UNL     1       6.923   2.889   4.819  1.00  0.00     0.074 A 
ATOM     58  C   UNL     1       7.551   4.038   4.202  1.00  0.00     0.031 C 
ATOM     59  C   UNL     1       7.200  -1.558   0.203  1.00  0.00     0.029 A 
ATOM     60  C   UNL     1       6.632  -1.692   1.544  1.00  0.00     0.049 A 
ATOM     61  H   UNL     1       6.563  -0.243   3.036  1.00  0.00     0.167 HD
ATOM     62  C   UNL     1       6.451   2.873   6.089  1.00  0.00     0.037 A 
ATOM     63  C   UNL     1       6.052  -2.797   2.047  1.00  0.00     0.037 A 
ATOM     64  C   UNL     1       5.829   1.736   6.713  1.00  0.00     0.049 A 
ATOM     65  C   UNL     1       5.497  -2.783   3.446  1.00  0.00     0.074 A 
ATOM     66  C   UNL     1       5.327   1.620   7.999  1.00  0.00     0.029 A 
ATOM     67  N   UNL     1       5.621   0.515   6.091  1.00  0.00    -0.354 N 
ATOM     68  N   UNL     1       5.487  -1.807   4.321  1.00  0.00    -0.248 NA
ATOM     69  C   UNL     1       4.870  -4.024   3.924  1.00  0.00     0.031 C 
ATOM     70  C   UNL     1       4.834   0.320   8.161  1.00  0.00     0.029 A 
ATOM     71  C   UNL     1       5.000  -0.361   6.966  1.00  0.00     0.049 A 
ATOM     72  H   UNL     1       5.878   0.302   5.165  1.00  0.00     0.167 HD
ATOM     73  C   UNL     1       4.851  -2.314   5.448  1.00  0.00     0.074 A 
ATOM     74  C   UNL     1       4.465  -3.674   5.137  1.00  0.00     0.031 C 
ATOM     75  C   UNL     1       4.617  -1.709   6.639  1.00  0.00     0.037 A 
BRANCH  62  76
ATOM     76  C   UNL     1       6.610   4.129   6.892  1.00  0.00     0.057 A 
ATOM     77  C   UNL     1       5.805   5.252   6.664  1.00  0.00     0.134 A 
ATOM     78  C   UNL     1       7.569   4.213   7.908  1.00  0.00     0.134 A 
ATOM     79  F   UNL     1       4.878   5.238   5.694  1.00  0.00    -0.206 F 
ATOM     80  C   UNL     1       5.963   6.425   7.405  1.00  0.00     0.040 A 
ATOM     81  C   UNL     1       7.723   5.373   8.669  1.00  0.00     0.040 A 
ATOM     82  F   UNL     1       8.370   3.172   8.178  1.00  0.00    -0.206 F 
ATOM     83  C   UNL     1       6.923   6.485   8.414  1.00  0.00     0.006 A 
ENDBRANCH  62  76
BRANCH  63  84
ATOM     84  C   UNL     1       5.936  -4.012   1.207  1.00  0.00     0.057 A 
ATOM     85  C   UNL     1       4.703  -4.402   0.671  1.00  0.00     0.134 A 
ATOM     86  C   UNL     1       7.049  -4.810   0.922  1.00  0.00     0.134 A 
ATOM     87  F   UNL     1       3.600  -3.683   0.927  1.00  0.00    -0.206 F 
ATOM     88  C   UNL     1       4.578  -5.552  -0.108  1.00  0.00     0.040 A 
ATOM     89  C   UNL     1       6.943  -5.951   0.127  1.00  0.00     0.040 A 
ATOM     90  F   UNL     1       8.257  -4.483   1.405  1.00  0.00    -0.206 F 
ATOM     91  C   UNL     1       5.702  -6.328  -0.386  1.00  0.00     0.006 A 
ENDBRANCH  63  84
BRANCH  75  92
ATOM     92  C   UNL     1       3.897  -2.507   7.684  1.00  0.00     0.057 A 
ATOM     93  C   UNL     1       4.538  -3.521   8.406  1.00  0.00     0.134 A 
ATOM     94  C   UNL     1       2.559  -2.235   7.995  1.00  0.00     0.134 A 
ATOM     95  F   UNL     1       5.816  -3.835   8.147  1.00  0.00    -0.206 F 
ATOM     96  C   UNL     1       3.867  -4.251   9.388  1.00  0.00     0.040 A 
ATOM     97  C   UNL     1       1.883  -2.945   8.988  1.00  0.00     0.040 A 
ATOM     98  F   UNL     1       1.891  -1.271   7.344  1.00  0.00    -0.206 F 
ATOM     99  C   UNL     1       2.537  -3.960   9.685  1.00  0.00     0.006 A 
ENDBRANCH  75  92
ENDBRANCH  49  50
ENDBRANCH  42  44
ENDBRANCH  41  42
ENDBRANCH  40  41
ENDBRANCH  39  40
ENDBRANCH  38  39
ENDBRANCH  37  38
ENDBRANCH   1  37
TORSDOF 21
