REMARK SMILES CCCCCC(=O)N1CCC[C@H](C(=O)OCCOCCOCCOC(=O)c2ccc(-c3c4nc(c(-c5c(F)cccc5F)c5ccc([nH]5)c(-c5c(F)cccc5F)c5nc(c(-c6c(F)cccc6F)c6ccc3[nH]6)C=C5)C=C4)cc2)C1
REMARK SMILES IDX 18 1 17 2 16 3 15 4 13 5 14 6 12 7 8 8 9 9 81 10 10 11 11 12
REMARK SMILES IDX 6 13 7 14 5 15 4 16 3 17 2 18 1 19 19 20 20 21 21 22 22 23
REMARK SMILES IDX 23 24 24 25 25 26 26 27 27 28 28 29 80 30 29 31 79 32 30 33
REMARK SMILES IDX 31 34 32 35 73 36 33 37 78 38 72 39 74 40 34 41 77 42 71 43
REMARK SMILES IDX 70 44 35 46 61 47 44 48 60 49 45 50 48 51 59 52 75 53 46 54
REMARK SMILES IDX 47 55 58 57 76 58 49 59 36 60 37 61 42 62 38 63 39 64 41 65
REMARK SMILES IDX 43 66 40 67 62 68 63 69 68 70 64 71 65 72 67 73 69 74 66 75
REMARK SMILES IDX 50 76 51 77 56 78 52 79 53 80 55 81 57 82 54 83
REMARK H PARENT 74 45 48 56
REMARK Flexibility Score: inf
ROOT
ATOM      1  O   UNL     1       1.804   5.936  -6.681  1.00  0.00    -0.376 OA
ENDROOT
BRANCH   1   2
ATOM      2  C   UNL     1       0.591   5.197  -6.809  1.00  0.00     0.202 C 
BRANCH   2   3
ATOM      3  C   UNL     1       0.211   4.153  -5.744  1.00  0.00     0.261 C 
BRANCH   3   4
ATOM      4  O   UNL     1      -0.123   4.719  -4.454  1.00  0.00    -0.463 OA
BRANCH   4   5
ATOM      5  C   UNL     1       0.624   4.327  -3.398  1.00  0.00     0.310 C 
ATOM      6  O   UNL     1       1.595   3.579  -3.487  1.00  0.00    -0.252 OA
BRANCH   5   7
ATOM      7  C   UNL     1       0.183   4.868  -2.042  1.00  0.00     0.119 C 
ATOM      8  N   UNL     1      -1.575   3.204  -1.725  1.00  0.00    -0.342 N 
ATOM      9  C   UNL     1      -2.642   4.193  -1.615  1.00  0.00     0.119 C 
ATOM     10  C   UNL     1      -0.300   3.678  -1.214  1.00  0.00     0.134 C 
ATOM     11  C   UNL     1      -2.282   5.507  -2.307  1.00  0.00     0.022 C 
ATOM     12  C   UNL     1      -0.869   5.978  -1.960  1.00  0.00     0.019 C 
BRANCH   8  13
ATOM     13  C   UNL     1      -1.635   2.261  -2.747  1.00  0.00     0.222 C 
ATOM     14  O   UNL     1      -2.258   2.482  -3.788  1.00  0.00    -0.275 OA
BRANCH  13  15
ATOM     15  C   UNL     1      -1.078   0.865  -2.468  1.00  0.00     0.100 C 
BRANCH  15  16
ATOM     16  C   UNL     1       0.382   0.511  -2.764  1.00  0.00     0.010 C 
BRANCH  16  17
ATOM     17  C   UNL     1       1.471   0.761  -1.705  1.00  0.00     0.000 C 
BRANCH  17  18
ATOM     18  C   UNL     1       1.055   0.676  -0.232  1.00  0.00    -0.003 C 
ATOM     19  C   UNL     1       1.201  -0.718   0.341  1.00  0.00     0.004 C 
ENDBRANCH  17  18
ENDBRANCH  16  17
ENDBRANCH  15  16
ENDBRANCH  13  15
ENDBRANCH   8  13
ENDBRANCH   5   7
ENDBRANCH   4   5
ENDBRANCH   3   4
ENDBRANCH   2   3
ENDBRANCH   1   2
BRANCH   1  20
ATOM     20  C   UNL     1       2.191   6.320  -5.381  1.00  0.00     0.188 C 
BRANCH  20  21
ATOM     21  C   UNL     1       1.301   7.316  -4.643  1.00  0.00     0.188 C 
BRANCH  21  22
ATOM     22  O   UNL     1      -0.076   7.363  -4.919  1.00  0.00    -0.376 OA
BRANCH  22  23
ATOM     23  C   UNL     1      -0.681   8.335  -5.758  1.00  0.00     0.202 C 
BRANCH  23  24
ATOM     24  C   UNL     1      -0.003   9.594  -6.342  1.00  0.00     0.261 C 
BRANCH  24  25
ATOM     25  O   UNL     1       1.242  10.028  -5.795  1.00  0.00    -0.460 OA
BRANCH  25  26
ATOM     26  C   UNL     1       1.220  10.538  -4.541  1.00  0.00     0.338 C 
ATOM     27  O   UNL     1       0.235  10.822  -3.882  1.00  0.00    -0.246 OA
BRANCH  26  28
ATOM     28  C   UNL     1       2.602  10.410  -3.997  1.00  0.00     0.060 A 
ATOM     29  C   UNL     1       2.763   9.796  -2.745  1.00  0.00     0.016 A 
ATOM     30  C   UNL     1       3.726  10.748  -4.757  1.00  0.00     0.016 A 
ATOM     31  C   UNL     1       4.041   9.566  -2.230  1.00  0.00     0.010 A 
ATOM     32  C   UNL     1       5.006  10.536  -4.232  1.00  0.00     0.010 A 
ATOM     33  C   UNL     1       5.169   9.980  -2.950  1.00  0.00    -0.014 A 
BRANCH  33  34
ATOM     34  C   UNL     1       6.489  10.074  -2.273  1.00  0.00     0.031 A 
ATOM     35  C   UNL     1       6.893  11.415  -1.720  1.00  0.00     0.074 A 
ATOM     36  C   UNL     1       7.310   9.018  -2.130  1.00  0.00     0.049 A 
ATOM     37  N   UNL     1       8.014  11.785  -1.157  1.00  0.00    -0.248 NA
ATOM     38  C   UNL     1       5.889  12.488  -1.826  1.00  0.00     0.031 C 
ATOM     39  C   UNL     1       7.027   7.654  -2.567  1.00  0.00     0.029 A 
ATOM     40  N   UNL     1       8.567   8.942  -1.579  1.00  0.00    -0.354 N 
ATOM     41  C   UNL     1       7.854  13.131  -0.853  1.00  0.00     0.074 A 
ATOM     42  C   UNL     1       6.544  13.522  -1.324  1.00  0.00     0.031 C 
ATOM     43  C   UNL     1       8.088   6.877  -2.279  1.00  0.00     0.029 A 
ATOM     44  C   UNL     1       9.137   7.696  -1.671  1.00  0.00     0.049 A 
ATOM     45  H   UNL     1       9.017   9.710  -1.157  1.00  0.00     0.167 HD
ATOM     46  C   UNL     1       8.715  13.969  -0.229  1.00  0.00     0.037 A 
ATOM     47  C   UNL     1      10.372   7.275  -1.329  1.00  0.00     0.037 A 
ATOM     48  C   UNL     1      10.021  13.589   0.235  1.00  0.00     0.049 A 
ATOM     49  C   UNL     1      11.352   8.250  -0.722  1.00  0.00     0.074 A 
ATOM     50  C   UNL     1      10.963  14.365   0.886  1.00  0.00     0.029 A 
ATOM     51  N   UNL     1      10.575  12.327   0.086  1.00  0.00    -0.354 N 
ATOM     52  N   UNL     1      11.187   9.516  -0.419  1.00  0.00    -0.248 NA
ATOM     53  C   UNL     1      12.695   7.735  -0.409  1.00  0.00     0.031 C 
ATOM     54  C   UNL     1      12.110  13.589   1.079  1.00  0.00     0.029 A 
ATOM     55  C   UNL     1      11.858  12.311   0.608  1.00  0.00     0.049 A 
ATOM     56  H   UNL     1      10.124  11.556  -0.329  1.00  0.00     0.167 HD
ATOM     57  C   UNL     1      12.385   9.934   0.151  1.00  0.00     0.074 A 
ATOM     58  C   UNL     1      13.266   8.786   0.162  1.00  0.00     0.031 C 
ATOM     59  C   UNL     1      12.723  11.159   0.627  1.00  0.00     0.037 A 
BRANCH  46  60
ATOM     60  C   UNL     1       8.276  15.393  -0.048  1.00  0.00     0.057 A 
ATOM     61  C   UNL     1       7.252  15.748   0.841  1.00  0.00     0.134 A 
ATOM     62  C   UNL     1       8.895  16.425  -0.765  1.00  0.00     0.134 A 
ATOM     63  F   UNL     1       6.604  14.807   1.544  1.00  0.00    -0.206 F 
ATOM     64  C   UNL     1       6.842  17.074   0.989  1.00  0.00     0.040 A 
ATOM     65  C   UNL     1       8.515  17.757  -0.602  1.00  0.00     0.040 A 
ATOM     66  F   UNL     1       9.883  16.155  -1.631  1.00  0.00    -0.206 F 
ATOM     67  C   UNL     1       7.480  18.084   0.271  1.00  0.00     0.006 A 
ENDBRANCH  46  60
BRANCH  47  68
ATOM     68  C   UNL     1      10.777   5.863  -1.563  1.00  0.00     0.057 A 
ATOM     69  C   UNL     1      11.042   4.997  -0.496  1.00  0.00     0.134 A 
ATOM     70  C   UNL     1      10.954   5.359  -2.858  1.00  0.00     0.134 A 
ATOM     71  F   UNL     1      10.922   5.428   0.769  1.00  0.00    -0.206 F 
ATOM     72  C   UNL     1      11.487   3.690  -0.705  1.00  0.00     0.040 A 
ATOM     73  C   UNL     1      11.371   4.046  -3.083  1.00  0.00     0.040 A 
ATOM     74  F   UNL     1      10.726   6.138  -3.925  1.00  0.00    -0.206 F 
ATOM     75  C   UNL     1      11.648   3.209  -2.003  1.00  0.00     0.006 A 
ENDBRANCH  47  68
BRANCH  59  76
ATOM     76  C   UNL     1      14.083  11.314   1.249  1.00  0.00     0.057 A 
ATOM     77  C   UNL     1      15.260  11.293   0.489  1.00  0.00     0.134 A 
ATOM     78  C   UNL     1      14.212  11.537   2.627  1.00  0.00     0.134 A 
ATOM     79  F   UNL     1      15.211  11.076  -0.834  1.00  0.00    -0.206 F 
ATOM     80  C   UNL     1      16.514  11.460   1.080  1.00  0.00     0.040 A 
ATOM     81  C   UNL     1      15.457  11.737   3.224  1.00  0.00     0.040 A 
ATOM     82  F   UNL     1      13.126  11.583   3.414  1.00  0.00    -0.206 F 
ATOM     83  C   UNL     1      16.615  11.691   2.450  1.00  0.00     0.006 A 
ENDBRANCH  59  76
ENDBRANCH  33  34
ENDBRANCH  26  28
ENDBRANCH  25  26
ENDBRANCH  24  25
ENDBRANCH  23  24
ENDBRANCH  22  23
ENDBRANCH  21  22
ENDBRANCH  20  21
ENDBRANCH   1  20
TORSDOF 22
