REMARK SMILES CCC(CC)NC(=O)N[C@@H]1C=C[C@@H](C(=O)OCCOCCOCCOC(=O)c2ccc(-c3c4nc(c(-c5c(F)cccc5F)c5ccc([nH]5)c(-c5c(F)cccc5F)c5nc(c(-c6c(F)cccc6F)c6ccc3[nH]6)C=C5)C=C4)cc2)C1
REMARK SMILES IDX 20 1 19 2 18 3 17 4 16 5 14 6 15 7 13 8 10 9 11 10 82 11
REMARK SMILES IDX 12 12 9 13 6 14 7 15 8 17 3 19 2 20 1 21 4 22 5 23 21 24
REMARK SMILES IDX 22 25 23 26 24 27 25 28 26 29 27 30 28 31 29 32 81 33 30 34
REMARK SMILES IDX 80 35 31 36 32 37 33 38 74 39 34 40 79 41 73 42 75 43 35 44
REMARK SMILES IDX 78 45 72 46 71 47 36 49 62 50 45 51 61 52 46 53 49 54 60 55
REMARK SMILES IDX 76 56 47 57 48 58 59 60 77 61 50 62 37 63 38 64 43 65 39 66
REMARK SMILES IDX 40 67 42 68 44 69 41 70 63 71 64 72 69 73 65 74 66 75 68 76
REMARK SMILES IDX 70 77 67 78 51 79 52 80 57 81 53 82 54 83 56 84 58 85 55 86
REMARK H PARENT 6 16 9 18 75 48 49 59
REMARK Flexibility Score: inf
ROOT
ATOM      1  C   UNL     1       1.833  -1.620   2.597  1.00  0.00     0.188 C 
ENDROOT
BRANCH   1   2
ATOM      2  O   UNL     1       1.241  -2.010   3.813  1.00  0.00    -0.376 OA
BRANCH   2   3
ATOM      3  C   UNL     1       1.850  -1.560   5.019  1.00  0.00     0.202 C 
BRANCH   3   4
ATOM      4  C   UNL     1       2.885  -0.416   5.043  1.00  0.00     0.261 C 
BRANCH   4   5
ATOM      5  O   UNL     1       2.752   0.584   4.012  1.00  0.00    -0.463 OA
BRANCH   5   6
ATOM      6  C   UNL     1       3.927   1.191   3.698  1.00  0.00     0.312 C 
ATOM      7  O   UNL     1       4.947   1.040   4.373  1.00  0.00    -0.252 OA
BRANCH   6   8
ATOM      8  C   UNL     1       3.986   1.808   2.297  1.00  0.00     0.124 C 
ATOM      9  C   UNL     1       3.574   3.634   0.700  1.00  0.00     0.107 C 
ATOM     10  C   UNL     1       4.868   3.826   1.389  1.00  0.00    -0.006 C 
ATOM     11  C   UNL     1       2.874   2.539   1.534  1.00  0.00     0.048 C 
ATOM     12  C   UNL     1       5.084   2.857   2.286  1.00  0.00    -0.014 C 
BRANCH   9  13
ATOM     13  N   UNL     1       3.703   3.451  -0.755  1.00  0.00    -0.332 N 
ATOM     14  N   UNL     1       5.262   1.850  -1.624  1.00  0.00    -0.335 N 
ATOM     15  C   UNL     1       4.311   2.780  -1.734  1.00  0.00     0.315 C 
ATOM     16  H   UNL     1       5.564   1.497  -2.492  1.00  0.00     0.165 HD
ATOM     17  O   UNL     1       3.958   3.063  -2.885  1.00  0.00    -0.249 OA
ATOM     18  H   UNL     1       3.084   4.086  -1.182  1.00  0.00     0.165 HD
BRANCH  14  19
ATOM     19  C   UNL     1       5.941   1.252  -0.498  1.00  0.00     0.083 C 
BRANCH  19  20
ATOM     20  C   UNL     1       5.824  -0.280  -0.509  1.00  0.00     0.021 C 
ATOM     21  C   UNL     1       6.329  -0.933   0.775  1.00  0.00     0.006 C 
ENDBRANCH  19  20
BRANCH  19  22
ATOM     22  C   UNL     1       7.335   1.841  -0.251  1.00  0.00     0.021 C 
ATOM     23  C   UNL     1       8.467   1.222  -1.050  1.00  0.00     0.006 C 
ENDBRANCH  19  22
ENDBRANCH  14  19
ENDBRANCH   9  13
ENDBRANCH   6   8
ENDBRANCH   5   6
ENDBRANCH   4   5
ENDBRANCH   3   4
ENDBRANCH   2   3
ENDBRANCH   1   2
BRANCH   1  24
ATOM     24  C   UNL     1       1.157  -0.424   1.917  1.00  0.00     0.188 C 
BRANCH  24  25
ATOM     25  O   UNL     1       0.416   0.556   2.625  1.00  0.00    -0.376 OA
BRANCH  25  26
ATOM     26  C   UNL     1      -0.654   0.142   3.465  1.00  0.00     0.202 C 
BRANCH  26  27
ATOM     27  C   UNL     1      -1.768  -0.790   2.950  1.00  0.00     0.261 C 
BRANCH  27  28
ATOM     28  O   UNL     1      -1.396  -1.721   1.926  1.00  0.00    -0.460 OA
BRANCH  28  29
ATOM     29  C   UNL     1      -1.718  -1.345   0.659  1.00  0.00     0.338 C 
ATOM     30  O   UNL     1      -2.328  -0.353   0.312  1.00  0.00    -0.246 OA
BRANCH  29  31
ATOM     31  C   UNL     1      -1.006  -2.238  -0.283  1.00  0.00     0.060 A 
ATOM     32  C   UNL     1      -0.011  -1.689  -1.109  1.00  0.00     0.016 A 
ATOM     33  C   UNL     1      -1.299  -3.598  -0.335  1.00  0.00     0.016 A 
ATOM     34  C   UNL     1       0.719  -2.506  -1.970  1.00  0.00     0.010 A 
ATOM     35  C   UNL     1      -0.604  -4.406  -1.237  1.00  0.00     0.010 A 
ATOM     36  C   UNL     1       0.401  -3.864  -2.061  1.00  0.00    -0.014 A 
BRANCH  36  37
ATOM     37  C   UNL     1       0.997  -4.707  -3.121  1.00  0.00     0.031 A 
ATOM     38  C   UNL     1       0.216  -4.919  -4.384  1.00  0.00     0.074 A 
ATOM     39  C   UNL     1       2.186  -5.307  -2.945  1.00  0.00     0.049 A 
ATOM     40  N   UNL     1       0.430  -5.761  -5.360  1.00  0.00    -0.248 NA
ATOM     41  C   UNL     1      -0.971  -4.069  -4.564  1.00  0.00     0.031 C 
ATOM     42  C   UNL     1       3.067  -5.124  -1.794  1.00  0.00     0.029 A 
ATOM     43  N   UNL     1       2.840  -6.223  -3.731  1.00  0.00    -0.354 N 
ATOM     44  C   UNL     1      -0.606  -5.558  -6.262  1.00  0.00     0.074 A 
ATOM     45  C   UNL     1      -1.454  -4.523  -5.712  1.00  0.00     0.031 C 
ATOM     46  C   UNL     1       4.132  -5.934  -1.930  1.00  0.00     0.029 A 
ATOM     47  C   UNL     1       3.979  -6.726  -3.150  1.00  0.00     0.049 A 
ATOM     48  H   UNL     1       2.524  -6.494  -4.623  1.00  0.00     0.167 HD
ATOM     49  C   UNL     1      -0.827  -6.182  -7.441  1.00  0.00     0.037 A 
ATOM     50  C   UNL     1       4.773  -7.744  -3.535  1.00  0.00     0.037 A 
ATOM     51  C   UNL     1       0.019  -7.215  -7.978  1.00  0.00     0.049 A 
ATOM     52  C   UNL     1       4.441  -8.505  -4.794  1.00  0.00     0.074 A 
ATOM     53  C   UNL     1      -0.108  -7.897  -9.174  1.00  0.00     0.029 A 
ATOM     54  N   UNL     1       1.143  -7.722  -7.343  1.00  0.00    -0.354 N 
ATOM     55  N   UNL     1       3.469  -8.304  -5.652  1.00  0.00    -0.248 NA
ATOM     56  C   UNL     1       5.308  -9.644  -5.131  1.00  0.00     0.031 C 
ATOM     57  C   UNL     1       0.905  -8.859  -9.236  1.00  0.00     0.029 A 
ATOM     58  C   UNL     1       1.696  -8.738  -8.104  1.00  0.00     0.049 A 
ATOM     59  H   UNL     1       1.495  -7.407  -6.479  1.00  0.00     0.167 HD
ATOM     60  C   UNL     1       3.620  -9.274  -6.636  1.00  0.00     0.074 A 
ATOM     61  C   UNL     1       4.787 -10.052  -6.280  1.00  0.00     0.031 C 
ATOM     62  C   UNL     1       2.860  -9.502  -7.736  1.00  0.00     0.037 A 
BRANCH  49  63
ATOM     63  C   UNL     1      -2.054  -5.794  -8.212  1.00  0.00     0.057 A 
ATOM     64  C   UNL     1      -2.162  -4.558  -8.861  1.00  0.00     0.134 A 
ATOM     65  C   UNL     1      -3.127  -6.686  -8.336  1.00  0.00     0.134 A 
ATOM     66  F   UNL     1      -1.177  -3.652  -8.769  1.00  0.00    -0.206 F 
ATOM     67  C   UNL     1      -3.302  -4.215  -9.591  1.00  0.00     0.040 A 
ATOM     68  C   UNL     1      -4.259  -6.366  -9.085  1.00  0.00     0.040 A 
ATOM     69  F   UNL     1      -3.086  -7.888  -7.740  1.00  0.00    -0.206 F 
ATOM     70  C   UNL     1      -4.351  -5.125  -9.711  1.00  0.00     0.006 A 
ENDBRANCH  49  63
BRANCH  50  71
ATOM     71  C   UNL     1       5.932  -8.147  -2.698  1.00  0.00     0.057 A 
ATOM     72  C   UNL     1       7.245  -7.989  -3.157  1.00  0.00     0.134 A 
ATOM     73  C   UNL     1       5.757  -8.730  -1.437  1.00  0.00     0.134 A 
ATOM     74  F   UNL     1       7.477  -7.463  -4.368  1.00  0.00    -0.206 F 
ATOM     75  C   UNL     1       8.340  -8.411  -2.401  1.00  0.00     0.040 A 
ATOM     76  C   UNL     1       6.844  -9.131  -0.658  1.00  0.00     0.040 A 
ATOM     77  F   UNL     1       4.525  -8.914  -0.940  1.00  0.00    -0.206 F 
ATOM     78  C   UNL     1       8.141  -8.979  -1.144  1.00  0.00     0.006 A 
ENDBRANCH  50  71
BRANCH  62  79
ATOM     79  C   UNL     1       3.273 -10.623  -8.645  1.00  0.00     0.057 A 
ATOM     80  C   UNL     1       3.097 -11.965  -8.287  1.00  0.00     0.134 A 
ATOM     81  C   UNL     1       3.791 -10.356  -9.920  1.00  0.00     0.134 A 
ATOM     82  F   UNL     1       2.618 -12.289  -7.077  1.00  0.00    -0.206 F 
ATOM     83  C   UNL     1       3.434 -13.002  -9.159  1.00  0.00     0.040 A 
ATOM     84  C   UNL     1       4.106 -11.384 -10.810  1.00  0.00     0.040 A 
ATOM     85  F   UNL     1       3.975  -9.092 -10.329  1.00  0.00    -0.206 F 
ATOM     86  C   UNL     1       3.930 -12.712 -10.428  1.00  0.00     0.006 A 
ENDBRANCH  62  79
ENDBRANCH  36  37
ENDBRANCH  29  31
ENDBRANCH  28  29
ENDBRANCH  27  28
ENDBRANCH  26  27
ENDBRANCH  25  26
ENDBRANCH  24  25
ENDBRANCH   1  24
TORSDOF 21
