REMARK SMILES CCc1cc(S(F)(F)(F)(F)F)cc2c1O[C@@H](C(F)(F)F)C(C(=O)OCCOCCOCCOC(=O)c1ccc(-c3c4nc(c(-c5c(F)cccc5F)c5ccc([nH]5)c(-c5c(F)cccc5F)c5nc(c(-c6c(F)cccc6F)c6ccc3[nH]6)C=C5)C=C4)cc1)=C2
REMARK SMILES IDX 29 1 28 2 27 3 26 4 25 5 24 6 22 7 23 8 21 9 3 10 4 11 14 12
REMARK SMILES IDX 5 13 13 14 15 15 12 16 90 17 16 18 2 19 1 20 6 21 7 22 8 23
REMARK SMILES IDX 9 24 10 25 11 26 17 27 18 28 19 29 20 30 30 31 31 32 32 33
REMARK SMILES IDX 33 34 34 35 35 36 36 37 37 38 89 39 38 40 88 41 39 42 40 43
REMARK SMILES IDX 41 44 82 45 42 46 87 47 81 48 83 49 43 50 86 51 80 52 79 53
REMARK SMILES IDX 44 55 70 56 53 57 69 58 54 59 57 60 68 61 84 62 55 63 56 64
REMARK SMILES IDX 67 66 85 67 58 68 45 69 46 70 51 71 47 72 48 73 50 74 52 75
REMARK SMILES IDX 49 76 71 77 72 78 77 79 73 80 74 81 76 82 78 83 75 84 59 85
REMARK SMILES IDX 60 86 65 87 61 88 62 89 64 90 66 91 63 92
REMARK H PARENT 83 54 57 65
REMARK Flexibility Score: inf
ROOT
ATOM      1  C   UNL     1       5.612  -3.112  -6.049  1.00  0.00     0.188 C 
ENDROOT
BRANCH   1   2
ATOM      2  C   UNL     1       6.518  -2.243  -5.192  1.00  0.00     0.188 C 
BRANCH   2   3
ATOM      3  O   UNL     1       7.866  -2.415  -5.603  1.00  0.00    -0.376 OA
BRANCH   3   4
ATOM      4  C   UNL     1       8.236  -3.778  -5.452  1.00  0.00     0.202 C 
BRANCH   4   5
ATOM      5  C   UNL     1       8.095  -4.183  -3.993  1.00  0.00     0.261 C 
BRANCH   5   6
ATOM      6  O   UNL     1       6.747  -4.010  -3.583  1.00  0.00    -0.460 OA
BRANCH   6   7
ATOM      7  C   UNL     1       6.145  -2.725  -3.642  1.00  0.00     0.338 C 
ATOM      8  O   UNL     1       6.814  -1.729  -4.062  1.00  0.00    -0.246 OA
BRANCH   7   9
ATOM      9  C   UNL     1       4.702  -2.540  -3.202  1.00  0.00     0.087 C 
ATOM     10  C   UNL     1       0.926  -1.861  -1.551  1.00  0.00    -0.004 A 
ATOM     11  C   UNL     1       0.094  -2.929  -1.267  1.00  0.00     0.032 A 
ATOM     12  C   UNL     1       2.183  -2.115  -2.043  1.00  0.00     0.131 A 
ATOM     13  C   UNL     1       0.511  -4.218  -1.467  1.00  0.00     0.108 A 
ATOM     14  C   UNL     1       2.631  -3.403  -2.275  1.00  0.00     0.019 A 
ATOM     15  O   UNL     1       3.036  -1.052  -2.213  1.00  0.00    -0.475 OA
ATOM     16  C   UNL     1       1.772  -4.454  -1.975  1.00  0.00     0.036 A 
ATOM     17  C   UNL     1       3.990  -3.570  -2.761  1.00  0.00     0.027 C 
ATOM     18  C   UNL     1       4.041  -1.169  -3.259  1.00  0.00     0.316 C 
BRANCH  10  19
ATOM     19  C   UNL     1       0.419  -0.446  -1.324  1.00  0.00     0.036 C 
ATOM     20  C   UNL     1       0.926   0.066   0.015  1.00  0.00     0.009 C 
ENDBRANCH  10  19
BRANCH  13  21
ATOM     21  S   UNL     1      -0.583  -5.603  -1.066  1.00  0.00     0.310 S 
ATOM     22  F   UNL     1      -0.121  -5.590   0.451  1.00  0.00    -0.094 F 
ATOM     23  F   UNL     1       0.634  -6.560  -1.358  1.00  0.00    -0.094 F 
ATOM     24  F   UNL     1      -1.490  -6.817  -0.715  1.00  0.00    -0.094 F 
ATOM     25  F   UNL     1      -1.747  -4.622  -0.644  1.00  0.00    -0.094 F 
ATOM     26  F   UNL     1       0.358  -4.357  -1.310  1.00  0.00    -0.094 F 
ENDBRANCH  13  21
BRANCH  18  27
ATOM     27  C   UNL     1       5.100  -0.099  -3.051  1.00  0.00     0.430 C 
ATOM     28  F   UNL     1       6.022  -0.195  -4.005  1.00  0.00    -0.167 F 
ATOM     29  F   UNL     1       4.532   1.103  -3.103  1.00  0.00    -0.167 F 
ATOM     30  F   UNL     1       5.673  -0.267  -1.862  1.00  0.00    -0.167 F 
ENDBRANCH  18  27
ENDBRANCH   7   9
ENDBRANCH   6   7
ENDBRANCH   5   6
ENDBRANCH   4   5
ENDBRANCH   3   4
ENDBRANCH   2   3
ENDBRANCH   1   2
BRANCH   1  31
ATOM     31  O   UNL     1       5.982  -4.474  -5.898  1.00  0.00    -0.376 OA
BRANCH  31  32
ATOM     32  C   UNL     1       7.330  -4.647  -6.309  1.00  0.00     0.202 C 
BRANCH  32  33
ATOM     33  C   UNL     1       7.471  -4.242  -7.767  1.00  0.00     0.261 C 
BRANCH  33  34
ATOM     34  O   UNL     1       7.102  -2.880  -7.918  1.00  0.00    -0.460 OA
BRANCH  34  35
ATOM     35  C   UNL     1       5.791  -2.457  -7.570  1.00  0.00     0.338 C 
ATOM     36  O   UNL     1       4.950  -3.298  -7.124  1.00  0.00    -0.246 OA
BRANCH  35  37
ATOM     37  C   UNL     1       5.396  -0.998  -7.732  1.00  0.00     0.060 A 
ATOM     38  C   UNL     1       4.700  -0.365  -6.715  1.00  0.00     0.016 A 
ATOM     39  C   UNL     1       5.723  -0.355  -8.847  1.00  0.00     0.016 A 
ATOM     40  C   UNL     1       4.138   0.877  -7.092  1.00  0.00     0.010 A 
ATOM     41  C   UNL     1       5.248   0.911  -9.088  1.00  0.00     0.010 A 
ATOM     42  C   UNL     1       4.505   1.574  -8.152  1.00  0.00    -0.014 A 
BRANCH  42  43
ATOM     43  C   UNL     1       4.121   3.035  -8.322  1.00  0.00     0.031 A 
ATOM     44  C   UNL     1       3.359   3.413  -9.428  1.00  0.00     0.074 A 
ATOM     45  C   UNL     1       4.571   3.918  -7.354  1.00  0.00     0.049 A 
ATOM     46  N   UNL     1       2.911   4.632  -9.730  1.00  0.00    -0.248 NA
ATOM     47  C   UNL     1       2.909   2.483 -10.475  1.00  0.00     0.031 C 
ATOM     48  C   UNL     1       5.333   3.544  -6.230  1.00  0.00     0.029 A 
ATOM     49  N   UNL     1       4.374   5.280  -7.296  1.00  0.00    -0.354 N 
ATOM     50  C   UNL     1       2.200   4.596 -10.859  1.00  0.00     0.074 A 
ATOM     51  C   UNL     1       2.194   3.214 -11.358  1.00  0.00     0.031 C 
ATOM     52  C   UNL     1       5.602   4.665  -5.511  1.00  0.00     0.029 A 
ATOM     53  C   UNL     1       5.012   5.759  -6.173  1.00  0.00     0.049 A 
ATOM     54  H   UNL     1       3.866   5.818  -7.945  1.00  0.00     0.167 HD
ATOM     55  C   UNL     1       1.555   5.660 -11.491  1.00  0.00     0.037 A 
ATOM     56  C   UNL     1       5.088   7.072  -5.735  1.00  0.00     0.037 A 
ATOM     57  C   UNL     1       1.595   6.966 -11.029  1.00  0.00     0.049 A 
ATOM     58  C   UNL     1       4.491   8.146  -6.399  1.00  0.00     0.074 A 
ATOM     59  C   UNL     1       0.944   8.049 -11.650  1.00  0.00     0.029 A 
ATOM     60  N   UNL     1       2.253   7.449  -9.920  1.00  0.00    -0.354 N 
ATOM     61  N   UNL     1       3.748   8.103  -7.505  1.00  0.00    -0.248 NA
ATOM     62  C   UNL     1       4.592   9.545  -5.962  1.00  0.00     0.031 C 
ATOM     63  C   UNL     1       1.213   9.171 -10.931  1.00  0.00     0.029 A 
ATOM     64  C   UNL     1       2.037   8.807  -9.849  1.00  0.00     0.049 A 
ATOM     65  H   UNL     1       2.785   6.915  -9.287  1.00  0.00     0.167 HD
ATOM     66  C   UNL     1       3.335   9.330  -7.830  1.00  0.00     0.074 A 
ATOM     67  C   UNL     1       3.878  10.276  -6.846  1.00  0.00     0.031 C 
ATOM     68  C   UNL     1       2.524   9.698  -8.905  1.00  0.00     0.037 A 
BRANCH  55  69
ATOM     69  C   UNL     1       0.765   5.370 -12.757  1.00  0.00     0.057 A 
ATOM     70  C   UNL     1      -0.317   4.507 -12.708  1.00  0.00     0.134 A 
ATOM     71  C   UNL     1       1.109   5.979 -13.885  1.00  0.00     0.134 A 
ATOM     72  F   UNL     1      -0.851   4.077 -11.568  1.00  0.00    -0.206 F 
ATOM     73  C   UNL     1      -0.804   4.125 -13.980  1.00  0.00     0.040 A 
ATOM     74  C   UNL     1       0.498   5.653 -15.072  1.00  0.00     0.040 A 
ATOM     75  F   UNL     1       2.056   6.914 -13.867  1.00  0.00    -0.206 F 
ATOM     76  C   UNL     1      -0.540   4.763 -15.106  1.00  0.00     0.006 A 
ENDBRANCH  55  69
BRANCH  56  77
ATOM     77  C   UNL     1       5.864   7.358  -4.460  1.00  0.00     0.057 A 
ATOM     78  C   UNL     1       5.227   7.968  -3.392  1.00  0.00     0.134 A 
ATOM     79  C   UNL     1       7.154   7.047  -4.406  1.00  0.00     0.134 A 
ATOM     80  F   UNL     1       3.904   8.068  -3.298  1.00  0.00    -0.206 F 
ATOM     81  C   UNL     1       6.111   8.475  -2.410  1.00  0.00     0.040 A 
ATOM     82  C   UNL     1       7.929   7.459  -3.349  1.00  0.00     0.040 A 
ATOM     83  F   UNL     1       7.700   6.329  -5.383  1.00  0.00    -0.206 F 
ATOM     84  C   UNL     1       7.376   8.119  -2.287  1.00  0.00     0.006 A 
ENDBRANCH  56  77
BRANCH  68  85
ATOM     85  C   UNL     1       2.151  11.165  -9.048  1.00  0.00     0.057 A 
ATOM     86  C   UNL     1       3.148  12.113  -9.204  1.00  0.00     0.134 A 
ATOM     87  C   UNL     1       0.869  11.511  -9.021  1.00  0.00     0.134 A 
ATOM     88  F   UNL     1       4.409  11.800  -9.488  1.00  0.00    -0.206 F 
ATOM     89  C   UNL     1       2.704  13.446  -9.034  1.00  0.00     0.040 A 
ATOM     90  C   UNL     1       0.503  12.835  -8.993  1.00  0.00     0.040 A 
ATOM     91  F   UNL     1      -0.068  10.567  -9.022  1.00  0.00    -0.206 F 
ATOM     92  C   UNL     1       1.440  13.826  -9.084  1.00  0.00     0.006 A 
ENDBRANCH  68  85
ENDBRANCH  42  43
ENDBRANCH  35  37
ENDBRANCH  34  35
ENDBRANCH  33  34
ENDBRANCH  32  33
ENDBRANCH  31  32
ENDBRANCH   1  31
TORSDOF 20
