REMARK SMILES COc1ccc2c(c1)c(CC(=O)OCCOCCOCCOC(=O)c1ccc(-c3c4nc(c(-c5c(F)cccc5F)c5ccc([nH]5)c(-c5c(F)cccc5F)c5nc(c(-c6c(F)cccc6F)c6ccc3[nH]6)C=C5)C=C4)cc1)c(C)n2Cc1ccn(C(F)F)c(=O)c1
REMARK SMILES IDX 17 1 16 2 15 3 14 4 13 5 11 6 12 7 10 8 9 9 3 10 4 11 8 12
REMARK SMILES IDX 5 13 7 14 6 15 81 16 79 17 80 18 2 19 1 20 82 21 83 22 84 23
REMARK SMILES IDX 92 24 85 25 90 26 86 27 91 28 87 29 88 30 89 31 18 32 19 33
REMARK SMILES IDX 20 34 21 35 22 36 23 37 24 38 25 39 26 40 78 41 27 42 77 43
REMARK SMILES IDX 28 44 29 45 30 46 71 47 31 48 76 49 70 50 72 51 32 52 75 53
REMARK SMILES IDX 69 54 68 55 33 57 59 58 42 59 58 60 43 61 46 62 57 63 73 64
REMARK SMILES IDX 44 65 45 66 56 68 74 69 47 70 34 71 35 72 40 73 36 74 37 75
REMARK SMILES IDX 39 76 41 77 38 78 60 79 61 80 66 81 62 82 63 83 65 84 67 85
REMARK SMILES IDX 64 86 48 87 49 88 54 89 50 90 51 91 53 92 55 93 52 94
REMARK H PARENT 72 56 46 67
REMARK Flexibility Score: inf
ROOT
ATOM      1  C   UNL     1      -1.888   2.528  -4.912  1.00  0.00     0.188 C 
ENDROOT
BRANCH   1   2
ATOM      2  O   UNL     1      -2.239   2.744  -6.267  1.00  0.00    -0.376 OA
BRANCH   2   3
ATOM      3  C   UNL     1      -1.425   3.594  -7.057  1.00  0.00     0.202 C 
BRANCH   3   4
ATOM      4  C   UNL     1      -1.357   5.054  -6.596  1.00  0.00     0.261 C 
BRANCH   4   5
ATOM      5  O   UNL     1      -0.618   5.159  -5.363  1.00  0.00    -0.463 OA
BRANCH   5   6
ATOM      6  C   UNL     1      -0.994   6.133  -4.497  1.00  0.00     0.310 C 
ATOM      7  O   UNL     1      -1.667   7.104  -4.830  1.00  0.00    -0.252 OA
BRANCH   6   8
ATOM      8  C   UNL     1      -0.695   5.770  -3.046  1.00  0.00     0.160 C 
BRANCH   8   9
ATOM      9  C   UNL     1       0.681   5.890  -2.507  1.00  0.00    -0.008 A 
ATOM     10  C   UNL     1       2.313   2.731  -1.063  1.00  0.00     0.119 A 
ATOM     11  C   UNL     1       3.502   3.328  -0.684  1.00  0.00     0.048 A 
ATOM     12  C   UNL     1       1.329   3.496  -1.688  1.00  0.00     0.057 A 
ATOM     13  C   UNL     1       3.709   4.702  -0.894  1.00  0.00     0.031 A 
ATOM     14  C   UNL     1       1.499   4.870  -1.927  1.00  0.00     0.007 A 
ATOM     15  C   UNL     1       2.685   5.461  -1.494  1.00  0.00     0.049 A 
ATOM     16  N   UNL     1       2.577   6.803  -1.807  1.00  0.00    -0.340 N 
ATOM     17  C   UNL     1       1.279   7.090  -2.170  1.00  0.00     0.020 A 
ATOM     18  C   UNL     1       0.662   8.445  -2.186  1.00  0.00     0.065 C 
BRANCH  10  19
ATOM     19  O   UNL     1       2.054   1.393  -0.953  1.00  0.00    -0.497 OA
ATOM     20  C   UNL     1       2.330   0.832   0.327  1.00  0.00     0.278 C 
ENDBRANCH  10  19
BRANCH  16  21
ATOM     21  C   UNL     1       3.692   7.744  -1.889  1.00  0.00     0.158 C 
BRANCH  21  22
ATOM     22  C   UNL     1       3.973   8.055  -3.341  1.00  0.00    -0.021 A 
ATOM     23  C   UNL     1       3.254   9.148  -3.966  1.00  0.00     0.024 A 
ATOM     24  C   UNL     1       4.759   7.272  -4.099  1.00  0.00     0.077 A 
ATOM     25  C   UNL     1       3.207   9.249  -5.298  1.00  0.00     0.095 A 
ATOM     26  C   UNL     1       4.817   7.459  -5.576  1.00  0.00     0.255 A 
ATOM     27  N   UNL     1       3.940   8.396  -6.099  1.00  0.00    -0.258 N 
ATOM     28  O   UNL     1       5.597   6.764  -6.224  1.00  0.00    -0.269 OA
BRANCH  27  29
ATOM     29  C   UNL     1       3.885   8.524  -7.530  1.00  0.00     0.451 C 
ATOM     30  F   UNL     1       5.032   9.066  -8.007  1.00  0.00    -0.185 F 
ATOM     31  F   UNL     1       3.701   7.326  -8.135  1.00  0.00    -0.185 F 
ENDBRANCH  27  29
ENDBRANCH  21  22
ENDBRANCH  16  21
ENDBRANCH   8   9
ENDBRANCH   6   8
ENDBRANCH   5   6
ENDBRANCH   4   5
ENDBRANCH   3   4
ENDBRANCH   2   3
ENDBRANCH   1   2
BRANCH   1  32
ATOM     32  C   UNL     1      -0.422   2.494  -4.449  1.00  0.00     0.188 C 
BRANCH  32  33
ATOM     33  O   UNL     1       0.584   2.025  -5.317  1.00  0.00    -0.376 OA
BRANCH  33  34
ATOM     34  C   UNL     1       0.538   0.647  -5.656  1.00  0.00     0.202 C 
BRANCH  34  35
ATOM     35  C   UNL     1       0.416  -0.333  -4.476  1.00  0.00     0.261 C 
BRANCH  35  36
ATOM     36  O   UNL     1      -0.909  -0.262  -3.897  1.00  0.00    -0.460 OA
BRANCH  36  37
ATOM     37  C   UNL     1      -0.978  -0.557  -2.570  1.00  0.00     0.338 C 
ATOM     38  O   UNL     1      -0.205  -1.266  -1.949  1.00  0.00    -0.246 OA
BRANCH  37  39
ATOM     39  C   UNL     1      -1.884   0.443  -1.937  1.00  0.00     0.060 A 
ATOM     40  C   UNL     1      -3.166   0.758  -2.399  1.00  0.00     0.016 A 
ATOM     41  C   UNL     1      -1.288   1.261  -0.980  1.00  0.00     0.016 A 
ATOM     42  C   UNL     1      -3.796   1.948  -1.978  1.00  0.00     0.010 A 
ATOM     43  C   UNL     1      -1.875   2.473  -0.629  1.00  0.00     0.010 A 
ATOM     44  C   UNL     1      -3.126   2.844  -1.135  1.00  0.00    -0.014 A 
BRANCH  44  45
ATOM     45  C   UNL     1      -3.768   4.015  -0.513  1.00  0.00     0.031 A 
ATOM     46  C   UNL     1      -4.331   3.716   0.816  1.00  0.00     0.074 A 
ATOM     47  C   UNL     1      -3.891   5.294  -0.934  1.00  0.00     0.049 A 
ATOM     48  N   UNL     1      -5.592   3.527   1.020  1.00  0.00    -0.248 NA
ATOM     49  C   UNL     1      -3.482   3.485   1.985  1.00  0.00     0.031 C 
ATOM     50  C   UNL     1      -3.541   5.861  -2.225  1.00  0.00     0.029 A 
ATOM     51  N   UNL     1      -4.327   6.403  -0.238  1.00  0.00    -0.354 N 
ATOM     52  C   UNL     1      -5.729   3.390   2.384  1.00  0.00     0.074 A 
ATOM     53  C   UNL     1      -4.402   3.156   2.896  1.00  0.00     0.031 C 
ATOM     54  C   UNL     1      -3.535   7.216  -2.156  1.00  0.00     0.029 A 
ATOM     55  C   UNL     1      -4.033   7.614  -0.856  1.00  0.00     0.049 A 
ATOM     56  H   UNL     1      -4.804   6.342   0.621  1.00  0.00     0.167 HD
ATOM     57  C   UNL     1      -6.883   3.771   2.990  1.00  0.00     0.037 A 
ATOM     58  C   UNL     1      -4.408   8.873  -0.523  1.00  0.00     0.037 A 
ATOM     59  C   UNL     1      -7.956   3.954   2.032  1.00  0.00     0.049 A 
ATOM     60  C   UNL     1      -5.766   8.765   0.031  1.00  0.00     0.074 A 
ATOM     61  C   UNL     1      -8.543   3.178   1.049  1.00  0.00     0.029 A 
ATOM     62  N   UNL     1      -8.369   5.238   1.776  1.00  0.00    -0.354 N 
ATOM     63  N   UNL     1      -6.803   8.420  -0.680  1.00  0.00    -0.248 NA
ATOM     64  C   UNL     1      -5.924   8.657   1.470  1.00  0.00     0.031 C 
ATOM     65  C   UNL     1      -8.919   4.085   0.012  1.00  0.00     0.029 A 
ATOM     66  C   UNL     1      -8.569   5.369   0.425  1.00  0.00     0.049 A 
ATOM     67  H   UNL     1      -8.499   5.946   2.448  1.00  0.00     0.167 HD
ATOM     68  C   UNL     1      -7.539   7.614   0.171  1.00  0.00     0.074 A 
ATOM     69  C   UNL     1      -7.036   7.919   1.506  1.00  0.00     0.031 C 
ATOM     70  C   UNL     1      -8.281   6.576  -0.315  1.00  0.00     0.037 A 
BRANCH  57  71
ATOM     71  C   UNL     1      -6.934   4.356   4.378  1.00  0.00     0.057 A 
ATOM     72  C   UNL     1      -5.852   4.989   5.024  1.00  0.00     0.134 A 
ATOM     73  C   UNL     1      -8.186   4.543   4.987  1.00  0.00     0.134 A 
ATOM     74  F   UNL     1      -4.612   4.998   4.519  1.00  0.00    -0.206 F 
ATOM     75  C   UNL     1      -6.002   5.752   6.184  1.00  0.00     0.040 A 
ATOM     76  C   UNL     1      -8.357   5.356   6.113  1.00  0.00     0.040 A 
ATOM     77  F   UNL     1      -9.296   4.012   4.454  1.00  0.00    -0.206 F 
ATOM     78  C   UNL     1      -7.263   5.966   6.713  1.00  0.00     0.006 A 
ENDBRANCH  57  71
BRANCH  58  79
ATOM     79  C   UNL     1      -3.627  10.126  -0.575  1.00  0.00     0.057 A 
ATOM     80  C   UNL     1      -2.269  10.119  -0.209  1.00  0.00     0.134 A 
ATOM     81  C   UNL     1      -4.207  11.389  -0.742  1.00  0.00     0.134 A 
ATOM     82  F   UNL     1      -1.658   8.966   0.101  1.00  0.00    -0.206 F 
ATOM     83  C   UNL     1      -1.519  11.293  -0.056  1.00  0.00     0.040 A 
ATOM     84  C   UNL     1      -3.471  12.576  -0.584  1.00  0.00     0.040 A 
ATOM     85  F   UNL     1      -5.513  11.507  -1.014  1.00  0.00    -0.206 F 
ATOM     86  C   UNL     1      -2.122  12.531  -0.242  1.00  0.00     0.006 A 
ENDBRANCH  58  79
BRANCH  70  87
ATOM     87  C   UNL     1      -8.574   6.573  -1.790  1.00  0.00     0.057 A 
ATOM     88  C   UNL     1      -9.889   6.741  -2.229  1.00  0.00     0.134 A 
ATOM     89  C   UNL     1      -7.613   6.302  -2.773  1.00  0.00     0.134 A 
ATOM     90  F   UNL     1     -10.874   6.949  -1.342  1.00  0.00    -0.206 F 
ATOM     91  C   UNL     1     -10.230   6.662  -3.583  1.00  0.00     0.040 A 
ATOM     92  C   UNL     1      -7.931   6.249  -4.134  1.00  0.00     0.040 A 
ATOM     93  F   UNL     1      -6.352   6.023  -2.436  1.00  0.00    -0.206 F 
ATOM     94  C   UNL     1      -9.248   6.426  -4.543  1.00  0.00     0.006 A 
ENDBRANCH  70  87
ENDBRANCH  44  45
ENDBRANCH  37  39
ENDBRANCH  36  37
ENDBRANCH  35  36
ENDBRANCH  34  35
ENDBRANCH  33  34
ENDBRANCH  32  33
ENDBRANCH   1  32
TORSDOF 22
