REMARK SMILES CC(=O)N[C@@H](CS[C@@H]1CC(=O)N(c2cccc3ccccc23)C1=O)C(=O)OCCOCCOCCOC(=O)c1ccc(-c2c3nc(c(-c4c(F)cccc4F)c4ccc([nH]4)c(-c4c(F)cccc4F)c4nc(c(-c5c(F)cccc5F)c5ccc2[nH]5)C=C4)C=C3)cc1
REMARK SMILES IDX 31 1 30 2 29 3 28 4 27 5 25 6 26 7 5 8 4 9 1 10 2 11 3 12
REMARK SMILES IDX 6 14 7 15 8 16 9 17 23 18 10 19 12 20 24 21 11 22 13 23
REMARK SMILES IDX 14 24 22 25 15 26 17 27 21 28 16 29 18 30 20 31 19 32 32 33
REMARK SMILES IDX 33 34 34 35 35 36 36 37 37 38 38 39 39 40 40 41 92 42 41 43
REMARK SMILES IDX 91 44 42 45 43 46 44 47 85 48 45 49 90 50 84 51 86 52 46 53
REMARK SMILES IDX 89 54 83 55 82 56 47 58 73 59 56 60 72 61 57 62 60 63 71 64
REMARK SMILES IDX 87 65 58 66 59 67 70 69 88 70 61 71 48 72 49 73 54 74 50 75
REMARK SMILES IDX 51 76 53 77 55 78 52 79 74 80 75 81 80 82 76 83 77 84 79 85
REMARK SMILES IDX 81 86 78 87 62 88 63 89 68 90 64 91 65 92 67 93 69 94 66 95
REMARK H PARENT 4 13 86 57 60 68
REMARK Flexibility Score: inf
ROOT
ATOM      1  C   UNL     1      -0.991   3.909  -1.835  1.00  0.00     0.188 C 
ENDROOT
BRANCH   1   2
ATOM      2  O   UNL     1      -1.141   5.071  -2.640  1.00  0.00    -0.376 OA
BRANCH   2   3
ATOM      3  C   UNL     1      -0.836   4.989  -4.030  1.00  0.00     0.202 C 
BRANCH   3   4
ATOM      4  C   UNL     1       0.540   4.438  -4.445  1.00  0.00     0.261 C 
BRANCH   4   5
ATOM      5  O   UNL     1       0.878   3.148  -3.882  1.00  0.00    -0.462 OA
BRANCH   5   6
ATOM      6  C   UNL     1       2.128   3.027  -3.356  1.00  0.00     0.329 C 
ATOM      7  O   UNL     1       2.984   3.906  -3.386  1.00  0.00    -0.250 OA
BRANCH   6   8
ATOM      8  C   UNL     1       2.403   1.644  -2.721  1.00  0.00     0.202 C 
BRANCH   8   9
ATOM      9  N   UNL     1       1.268   0.744  -2.503  1.00  0.00    -0.342 N 
ATOM     10  C   UNL     1       1.765   0.067  -0.182  1.00  0.00     0.114 C 
ATOM     11  C   UNL     1       0.934  -0.015  -1.425  1.00  0.00     0.217 C 
ATOM     12  O   UNL     1      -0.075  -0.715  -1.489  1.00  0.00    -0.275 OA
ATOM     13  H   UNL     1       0.644   0.678  -3.261  1.00  0.00     0.164 HD
ENDBRANCH   8   9
BRANCH   8  14
ATOM     14  C   UNL     1       3.500   0.925  -3.520  1.00  0.00     0.107 C 
BRANCH  14  15
ATOM     15  S   UNL     1       3.225   0.571  -5.310  1.00  0.00    -0.145 SA
BRANCH  15  16
ATOM     16  C   UNL     1       1.588  -0.262  -5.362  1.00  0.00     0.146 C 
ATOM     17  C   UNL     1       1.493  -1.568  -4.593  1.00  0.00     0.125 C 
ATOM     18  C   UNL     1       1.288  -0.657  -6.787  1.00  0.00     0.247 C 
ATOM     19  C   UNL     1       1.347  -2.627  -5.640  1.00  0.00     0.235 C 
ATOM     20  N   UNL     1       1.296  -2.027  -6.869  1.00  0.00    -0.249 N 
ATOM     21  O   UNL     1       1.027   0.150  -7.670  1.00  0.00    -0.273 OA
ATOM     22  O   UNL     1       1.283  -3.819  -5.372  1.00  0.00    -0.274 OA
BRANCH  20  23
ATOM     23  C   UNL     1       1.147  -2.729  -8.085  1.00  0.00     0.060 A 
ATOM     24  C   UNL     1       0.131  -3.692  -8.184  1.00  0.00     0.027 A 
ATOM     25  C   UNL     1       2.011  -2.474  -9.190  1.00  0.00     0.006 A 
ATOM     26  C   UNL     1      -0.090  -4.360  -9.383  1.00  0.00     0.003 A 
ATOM     27  C   UNL     1       1.779  -3.174 -10.398  1.00  0.00    -0.016 A 
ATOM     28  C   UNL     1       3.135  -1.609  -9.143  1.00  0.00     0.011 A 
ATOM     29  C   UNL     1       0.722  -4.094 -10.482  1.00  0.00     0.009 A 
ATOM     30  C   UNL     1       2.622  -2.962 -11.502  1.00  0.00     0.009 A 
ATOM     31  C   UNL     1       3.966  -1.414 -10.245  1.00  0.00     0.001 A 
ATOM     32  C   UNL     1       3.706  -2.088 -11.427  1.00  0.00     0.001 A 
ENDBRANCH  20  23
ENDBRANCH  15  16
ENDBRANCH  14  15
ENDBRANCH   8  14
ENDBRANCH   6   8
ENDBRANCH   5   6
ENDBRANCH   4   5
ENDBRANCH   3   4
ENDBRANCH   2   3
ENDBRANCH   1   2
BRANCH   1  33
ATOM     33  C   UNL     1      -1.475   2.559  -2.381  1.00  0.00     0.188 C 
BRANCH  33  34
ATOM     34  O   UNL     1      -2.049   2.592  -3.662  1.00  0.00    -0.376 OA
BRANCH  34  35
ATOM     35  C   UNL     1      -3.417   2.251  -3.779  1.00  0.00     0.202 C 
BRANCH  35  36
ATOM     36  C   UNL     1      -4.448   2.865  -2.810  1.00  0.00     0.261 C 
BRANCH  36  37
ATOM     37  O   UNL     1      -4.039   3.043  -1.440  1.00  0.00    -0.460 OA
BRANCH  37  38
ATOM     38  C   UNL     1      -4.127   1.965  -0.620  1.00  0.00     0.338 C 
ATOM     39  O   UNL     1      -4.552   0.865  -0.904  1.00  0.00    -0.246 OA
BRANCH  38  40
ATOM     40  C   UNL     1      -3.399   2.286   0.636  1.00  0.00     0.060 A 
ATOM     41  C   UNL     1      -2.236   1.566   0.954  1.00  0.00     0.016 A 
ATOM     42  C   UNL     1      -3.860   3.284   1.496  1.00  0.00     0.016 A 
ATOM     43  C   UNL     1      -1.544   1.829   2.141  1.00  0.00     0.010 A 
ATOM     44  C   UNL     1      -3.184   3.524   2.700  1.00  0.00     0.010 A 
ATOM     45  C   UNL     1      -2.039   2.780   3.043  1.00  0.00    -0.014 A 
BRANCH  45  46
ATOM     46  C   UNL     1      -1.494   2.851   4.424  1.00  0.00     0.031 A 
ATOM     47  C   UNL     1      -2.230   2.123   5.519  1.00  0.00     0.074 A 
ATOM     48  C   UNL     1      -0.372   3.533   4.717  1.00  0.00     0.049 A 
ATOM     49  N   UNL     1      -2.010   2.113   6.808  1.00  0.00    -0.248 NA
ATOM     50  C   UNL     1      -3.373   1.299   5.095  1.00  0.00     0.031 C 
ATOM     51  C   UNL     1       0.467   4.239   3.753  1.00  0.00     0.029 A 
ATOM     52  N   UNL     1       0.243   3.755   5.926  1.00  0.00    -0.354 N 
ATOM     53  C   UNL     1      -2.996   1.298   7.351  1.00  0.00     0.074 A 
ATOM     54  C   UNL     1      -3.827   0.850   6.254  1.00  0.00     0.031 C 
ATOM     55  C   UNL     1       1.479   4.833   4.410  1.00  0.00     0.029 A 
ATOM     56  C   UNL     1       1.336   4.583   5.845  1.00  0.00     0.049 A 
ATOM     57  H   UNL     1      -0.070   3.357   6.771  1.00  0.00     0.167 HD
ATOM     58  C   UNL     1      -3.192   0.950   8.645  1.00  0.00     0.037 A 
ATOM     59  C   UNL     1       2.110   5.105   6.818  1.00  0.00     0.037 A 
ATOM     60  C   UNL     1      -2.368   1.392   9.739  1.00  0.00     0.049 A 
ATOM     61  C   UNL     1       1.826   4.768   8.261  1.00  0.00     0.074 A 
ATOM     62  C   UNL     1      -2.478   1.077  11.082  1.00  0.00     0.029 A 
ATOM     63  N   UNL     1      -1.288   2.252   9.617  1.00  0.00    -0.354 N 
ATOM     64  N   UNL     1       0.902   3.984   8.764  1.00  0.00    -0.248 NA
ATOM     65  C   UNL     1       2.694   5.391   9.273  1.00  0.00     0.031 C 
ATOM     66  C   UNL     1      -1.500   1.792  11.780  1.00  0.00     0.029 A 
ATOM     67  C   UNL     1      -0.740   2.502  10.865  1.00  0.00     0.049 A 
ATOM     68  H   UNL     1      -0.959   2.629   8.770  1.00  0.00     0.167 HD
ATOM     69  C   UNL     1       1.098   3.995  10.141  1.00  0.00     0.074 A 
ATOM     70  C   UNL     1       2.235   4.853  10.395  1.00  0.00     0.031 C 
ATOM     71  C   UNL     1       0.399   3.350  11.108  1.00  0.00     0.037 A 
BRANCH  58  72
ATOM     72  C   UNL     1      -4.373   0.074   8.952  1.00  0.00     0.057 A 
ATOM     73  C   UNL     1      -4.416  -1.276   8.579  1.00  0.00     0.134 A 
ATOM     74  C   UNL     1      -5.473   0.586   9.652  1.00  0.00     0.134 A 
ATOM     75  F   UNL     1      -3.403  -1.825   7.893  1.00  0.00    -0.206 F 
ATOM     76  C   UNL     1      -5.523  -2.077   8.868  1.00  0.00     0.040 A 
ATOM     77  C   UNL     1      -6.571  -0.212   9.973  1.00  0.00     0.040 A 
ATOM     78  F   UNL     1      -5.494   1.870  10.043  1.00  0.00    -0.206 F 
ATOM     79  C   UNL     1      -6.601  -1.546   9.574  1.00  0.00     0.006 A 
ENDBRANCH  58  72
BRANCH  59  80
ATOM     80  C   UNL     1       3.220   6.032   6.473  1.00  0.00     0.057 A 
ATOM     81  C   UNL     1       4.558   5.672   6.675  1.00  0.00     0.134 A 
ATOM     82  C   UNL     1       2.969   7.314   5.968  1.00  0.00     0.134 A 
ATOM     83  F   UNL     1       4.865   4.470   7.183  1.00  0.00    -0.206 F 
ATOM     84  C   UNL     1       5.604   6.558   6.404  1.00  0.00     0.040 A 
ATOM     85  C   UNL     1       4.005   8.199   5.666  1.00  0.00     0.040 A 
ATOM     86  F   UNL     1       1.709   7.723   5.756  1.00  0.00    -0.206 F 
ATOM     87  C   UNL     1       5.327   7.824   5.893  1.00  0.00     0.006 A 
ENDBRANCH  59  80
BRANCH  71  88
ATOM     88  C   UNL     1       0.869   3.504  12.528  1.00  0.00     0.057 A 
ATOM     89  C   UNL     1       0.720   4.703  13.236  1.00  0.00     0.134 A 
ATOM     90  C   UNL     1       1.438   2.420  13.210  1.00  0.00     0.134 A 
ATOM     91  F   UNL     1       0.193   5.784  12.642  1.00  0.00    -0.206 F 
ATOM     92  C   UNL     1       1.143   4.825  14.562  1.00  0.00     0.040 A 
ATOM     93  C   UNL     1       1.836   2.520  14.544  1.00  0.00     0.040 A 
ATOM     94  F   UNL     1       1.599   1.238  12.596  1.00  0.00    -0.206 F 
ATOM     95  C   UNL     1       1.696   3.729  15.222  1.00  0.00     0.006 A 
ENDBRANCH  71  88
ENDBRANCH  45  46
ENDBRANCH  38  40
ENDBRANCH  37  38
ENDBRANCH  36  37
ENDBRANCH  35  36
ENDBRANCH  34  35
ENDBRANCH  33  34
ENDBRANCH   1  33
TORSDOF 22
