REMARK SMILES O=C(OCCOCCOCCOC(=O)[C@H]1[C@H]2CC[C@H](CC2)[C@@H]1C(=O)Nc1sc2c(c1C(=O)N1CCCCC1)CCCC2)c1ccc(-c2c3nc(c(-c4c(F)cccc4F)c4ccc([nH]4)c(-c4c(F)cccc4F)c4nc(c(-c5c(F)cccc5F)c5ccc2[nH]5)C=C4)C=C3)cc1
REMARK SMILES IDX 8 1 7 2 6 3 5 4 4 5 3 6 2 7 1 8 43 9 44 10 96 11 45 12 95 13
REMARK SMILES IDX 46 14 47 15 48 16 89 17 49 18 94 19 88 20 90 21 50 22 93 23
REMARK SMILES IDX 87 24 86 25 51 27 77 28 60 29 76 30 61 31 64 32 75 33 91 34
REMARK SMILES IDX 62 35 63 36 74 38 92 39 65 40 52 41 53 42 58 43 54 44 55 45
REMARK SMILES IDX 57 46 59 47 56 48 78 49 79 50 84 51 80 52 81 53 83 54 85 55
REMARK SMILES IDX 82 56 66 57 67 58 72 59 68 60 69 61 71 62 73 63 70 64 9 65
REMARK SMILES IDX 10 66 11 67 12 68 13 69 14 70 15 71 16 72 22 73 21 74 17 75
REMARK SMILES IDX 19 76 20 77 18 78 23 79 24 80 25 81 26 83 27 84 30 85 28 86
REMARK SMILES IDX 29 87 42 88 39 89 41 90 40 91 31 92 32 93 33 94 34 95 38 96
REMARK SMILES IDX 35 97 37 98 36 99
REMARK H PARENT 90 26 64 37 25 82
REMARK Flexibility Score: inf
ROOT
ATOM      1  C   UNL     1       1.514  -2.835   1.134  1.00  0.00     0.188 C 
ENDROOT
BRANCH   1   2
ATOM      2  C   UNL     1       1.947  -1.383   0.909  1.00  0.00     0.188 C 
BRANCH   2   3
ATOM      3  O   UNL     1       3.261  -1.248   0.351  1.00  0.00    -0.376 OA
BRANCH   3   4
ATOM      4  C   UNL     1       4.096  -0.395   1.135  1.00  0.00     0.202 C 
BRANCH   4   5
ATOM      5  C   UNL     1       3.819   1.111   0.983  1.00  0.00     0.261 C 
BRANCH   5   6
ATOM      6  O   UNL     1       2.464   1.439   0.599  1.00  0.00    -0.460 OA
BRANCH   6   7
ATOM      7  C   UNL     1       1.863   1.650  -0.603  1.00  0.00     0.338 C 
ATOM      8  O   UNL     1       0.687   2.014  -0.588  1.00  0.00    -0.246 OA
BRANCH   7   9
ATOM      9  C   UNL     1       2.505   1.481  -1.952  1.00  0.00     0.060 A 
ATOM     10  C   UNL     1       3.777   1.003  -2.150  1.00  0.00     0.016 A 
ATOM     11  C   UNL     1       1.780   1.812  -3.126  1.00  0.00     0.016 A 
ATOM     12  C   UNL     1       4.322   0.951  -3.440  1.00  0.00     0.010 A 
ATOM     13  C   UNL     1       2.315   1.661  -4.443  1.00  0.00     0.010 A 
ATOM     14  C   UNL     1       3.617   1.208  -4.619  1.00  0.00    -0.014 A 
BRANCH  14  15
ATOM     15  C   UNL     1       4.439   1.100  -5.881  1.00  0.00     0.031 A 
ATOM     16  C   UNL     1       5.392   2.230  -6.128  1.00  0.00     0.074 A 
ATOM     17  C   UNL     1       4.641  -0.039  -6.594  1.00  0.00     0.049 A 
ATOM     18  N   UNL     1       6.306   2.355  -7.051  1.00  0.00    -0.248 NA
ATOM     19  C   UNL     1       5.298   3.372  -5.203  1.00  0.00     0.031 C 
ATOM     20  C   UNL     1       3.872  -1.259  -6.478  1.00  0.00     0.029 A 
ATOM     21  N   UNL     1       5.618  -0.408  -7.503  1.00  0.00    -0.354 N 
ATOM     22  C   UNL     1       6.869   3.599  -6.841  1.00  0.00     0.074 A 
ATOM     23  C   UNL     1       6.244   4.168  -5.668  1.00  0.00     0.031 C 
ATOM     24  C   UNL     1       4.527  -2.293  -7.021  1.00  0.00     0.029 A 
ATOM     25  C   UNL     1       5.600  -1.753  -7.837  1.00  0.00     0.049 A 
ATOM     26  H   UNL     1       6.268   0.229  -7.878  1.00  0.00     0.167 HD
ATOM     27  C   UNL     1       7.771   4.242  -7.613  1.00  0.00     0.037 A 
ATOM     28  C   UNL     1       6.257  -2.463  -8.782  1.00  0.00     0.037 A 
ATOM     29  C   UNL     1       8.323   3.700  -8.823  1.00  0.00     0.049 A 
ATOM     30  C   UNL     1       7.124  -1.687  -9.732  1.00  0.00     0.074 A 
ATOM     31  C   UNL     1       9.110   4.330  -9.767  1.00  0.00     0.029 A 
ATOM     32  N   UNL     1       8.127   2.399  -9.264  1.00  0.00    -0.354 N 
ATOM     33  N   UNL     1       7.513  -0.439  -9.651  1.00  0.00    -0.248 NA
ATOM     34  C   UNL     1       7.562  -2.377 -10.954  1.00  0.00     0.031 C 
ATOM     35  C   UNL     1       9.339   3.429 -10.812  1.00  0.00     0.029 A 
ATOM     36  C   UNL     1       8.758   2.215 -10.483  1.00  0.00     0.049 A 
ATOM     37  H   UNL     1       7.617   1.709  -8.782  1.00  0.00     0.167 HD
ATOM     38  C   UNL     1       8.219  -0.184 -10.815  1.00  0.00     0.074 A 
ATOM     39  C   UNL     1       8.245  -1.421 -11.569  1.00  0.00     0.031 C 
ATOM     40  C   UNL     1       8.775   0.980 -11.226  1.00  0.00     0.037 A 
BRANCH  27  41
ATOM     41  C   UNL     1       8.035   5.666  -7.247  1.00  0.00     0.057 A 
ATOM     42  C   UNL     1       8.797   6.032  -6.132  1.00  0.00     0.134 A 
ATOM     43  C   UNL     1       7.420   6.688  -7.983  1.00  0.00     0.134 A 
ATOM     44  F   UNL     1       9.356   5.096  -5.351  1.00  0.00    -0.206 F 
ATOM     45  C   UNL     1       8.924   7.369  -5.752  1.00  0.00     0.040 A 
ATOM     46  C   UNL     1       7.560   8.027  -7.628  1.00  0.00     0.040 A 
ATOM     47  F   UNL     1       6.648   6.395  -9.041  1.00  0.00    -0.206 F 
ATOM     48  C   UNL     1       8.308   8.370  -6.504  1.00  0.00     0.006 A 
ENDBRANCH  27  41
BRANCH  28  49
ATOM     49  C   UNL     1       5.965  -3.914  -9.033  1.00  0.00     0.057 A 
ATOM     50  C   UNL     1       6.969  -4.893  -9.025  1.00  0.00     0.134 A 
ATOM     51  C   UNL     1       4.669  -4.358  -9.347  1.00  0.00     0.134 A 
ATOM     52  F   UNL     1       8.247  -4.550  -8.806  1.00  0.00    -0.206 F 
ATOM     53  C   UNL     1       6.694  -6.241  -9.291  1.00  0.00     0.040 A 
ATOM     54  C   UNL     1       4.370  -5.706  -9.562  1.00  0.00     0.040 A 
ATOM     55  F   UNL     1       3.655  -3.485  -9.441  1.00  0.00    -0.206 F 
ATOM     56  C   UNL     1       5.386  -6.654  -9.541  1.00  0.00     0.006 A 
ENDBRANCH  28  49
BRANCH  40  57
ATOM     57  C   UNL     1       9.503   0.957 -12.534  1.00  0.00     0.057 A 
ATOM     58  C   UNL     1       8.833   0.870 -13.760  1.00  0.00     0.134 A 
ATOM     59  C   UNL     1      10.900   1.046 -12.561  1.00  0.00     0.134 A 
ATOM     60  F   UNL     1       7.496   0.766 -13.801  1.00  0.00    -0.206 F 
ATOM     61  C   UNL     1       9.530   0.849 -14.968  1.00  0.00     0.040 A 
ATOM     62  C   UNL     1      11.606   1.055 -13.762  1.00  0.00     0.040 A 
ATOM     63  F   UNL     1      11.599   1.137 -11.419  1.00  0.00    -0.206 F 
ATOM     64  C   UNL     1      10.921   0.949 -14.971  1.00  0.00     0.006 A 
ENDBRANCH  40  57
ENDBRANCH  14  15
ENDBRANCH   7   9
ENDBRANCH   6   7
ENDBRANCH   5   6
ENDBRANCH   4   5
ENDBRANCH   3   4
ENDBRANCH   2   3
ENDBRANCH   1   2
BRANCH   1  65
ATOM     65  O   UNL     1       2.251  -3.534   2.138  1.00  0.00    -0.376 OA
BRANCH  65  66
ATOM     66  C   UNL     1       3.514  -4.074   1.734  1.00  0.00     0.202 C 
BRANCH  66  67
ATOM     67  C   UNL     1       3.416  -5.213   0.715  1.00  0.00     0.261 C 
BRANCH  67  68
ATOM     68  O   UNL     1       3.179  -4.621  -0.567  1.00  0.00    -0.463 OA
BRANCH  68  69
ATOM     69  C   UNL     1       2.640  -5.393  -1.532  1.00  0.00     0.310 C 
ATOM     70  O   UNL     1       2.412  -6.582  -1.410  1.00  0.00    -0.252 OA
BRANCH  69  71
ATOM     71  C   UNL     1       2.334  -4.574  -2.787  1.00  0.00     0.115 C 
ATOM     72  C   UNL     1       0.911  -5.045  -3.259  1.00  0.00     0.004 C 
ATOM     73  C   UNL     1       2.366  -3.032  -2.594  1.00  0.00     0.096 C 
ATOM     74  C   UNL     1      -0.190  -4.532  -2.296  1.00  0.00     0.005 C 
ATOM     75  C   UNL     1       0.633  -4.477  -4.652  1.00  0.00     0.005 C 
ATOM     76  C   UNL     1       0.940  -2.478  -3.130  1.00  0.00     0.002 C 
ATOM     77  C   UNL     1      -0.206  -3.007  -2.267  1.00  0.00     0.005 C 
ATOM     78  C   UNL     1       0.634  -2.954  -4.581  1.00  0.00     0.005 C 
BRANCH  73  79
ATOM     79  C   UNL     1       3.465  -2.220  -3.308  1.00  0.00     0.229 C 
ATOM     80  O   UNL     1       2.969  -1.372  -4.063  1.00  0.00    -0.274 OA
ATOM     81  N   UNL     1       4.821  -2.076  -3.257  1.00  0.00    -0.317 N 
ATOM     82  H   UNL     1       5.225  -1.845  -4.125  1.00  0.00     0.170 HD
BRANCH  81  83
ATOM     83  C   UNL     1       5.743  -2.190  -2.229  1.00  0.00     0.108 A 
ATOM     84  S   UNL     1       5.773  -3.693  -1.460  1.00  0.00    -0.122 S 
ATOM     85  C   UNL     1       6.818  -1.362  -1.807  1.00  0.00     0.078 A 
ATOM     86  C   UNL     1       6.821  -3.138  -0.270  1.00  0.00     0.011 A 
ATOM     87  C   UNL     1       7.335  -1.892  -0.555  1.00  0.00    -0.019 A 
ATOM     88  C   UNL     1       7.161  -3.944   0.936  1.00  0.00     0.047 C 
ATOM     89  C   UNL     1       8.302  -1.233   0.379  1.00  0.00     0.037 C 
ATOM     90  C   UNL     1       7.585  -2.995   2.062  1.00  0.00     0.006 C 
ATOM     91  C   UNL     1       8.715  -2.088   1.579  1.00  0.00     0.005 C 
BRANCH  85  92
ATOM     92  C   UNL     1       7.356  -0.128  -2.468  1.00  0.00     0.257 C 
ATOM     93  O   UNL     1       7.417  -0.033  -3.691  1.00  0.00    -0.269 OA
ATOM     94  N   UNL     1       7.821   0.923  -1.636  1.00  0.00    -0.339 N 
ATOM     95  C   UNL     1       7.086   2.185  -1.597  1.00  0.00     0.120 C 
ATOM     96  C   UNL     1       9.260   1.191  -1.591  1.00  0.00     0.120 C 
ATOM     97  C   UNL     1       7.307   2.897  -0.266  1.00  0.00     0.022 C 
ATOM     98  C   UNL     1       9.635   1.882  -0.269  1.00  0.00     0.022 C 
ATOM     99  C   UNL     1       8.791   3.129   0.011  1.00  0.00     0.004 C 
ENDBRANCH  85  92
ENDBRANCH  81  83
ENDBRANCH  73  79
ENDBRANCH  69  71
ENDBRANCH  68  69
ENDBRANCH  67  68
ENDBRANCH  66  67
ENDBRANCH  65  66
ENDBRANCH   1  65
TORSDOF 20
