REMARK SMILES O=C(OCCOCCOCCOC(=O)c1ccc(-c2c3nc(c(-c4c(F)cccc4F)c4ccc([nH]4)c(-c4c(F)cccc4F)c4nc(c(-c5c(F)cccc5F)c5ccc2[nH]5)C=C4)C=C3)cc1)C1=Cc2cc(S(F)(F)(F)(F)F)ccc2O[C@H]1C(F)(F)F
REMARK SMILES IDX 8 1 7 2 6 3 5 4 4 5 3 6 2 7 1 8 69 9 70 10 84 11 71 12 83 13
REMARK SMILES IDX 72 14 82 15 73 16 81 17 80 18 85 19 86 20 87 21 88 22 74 23
REMARK SMILES IDX 75 24 76 25 77 26 78 27 79 28 9 29 10 30 11 31 12 32 13 33
REMARK SMILES IDX 14 34 15 35 16 36 68 37 17 38 67 39 18 40 19 41 20 42 61 43
REMARK SMILES IDX 21 44 66 45 60 46 62 47 22 48 65 49 59 50 58 51 23 53 49 54
REMARK SMILES IDX 32 55 48 56 33 57 36 58 47 59 63 60 34 61 35 62 46 64 64 65
REMARK SMILES IDX 37 66 24 67 25 68 30 69 26 70 27 71 29 72 31 73 28 74 50 75
REMARK SMILES IDX 51 76 56 77 52 78 53 79 55 80 57 81 54 82 38 83 39 84 44 85
REMARK SMILES IDX 40 86 41 87 43 88 45 89 42 90
REMARK H PARENT 62 52 36 63
REMARK Flexibility Score: inf
ROOT
ATOM      1  C   UNL     1       2.583   0.295  -2.483  1.00  0.00     0.188 C 
ENDROOT
BRANCH   1   2
ATOM      2  C   UNL     1       3.090   0.950  -1.208  1.00  0.00     0.188 C 
BRANCH   2   3
ATOM      3  O   UNL     1       4.510   0.950  -1.208  1.00  0.00    -0.376 OA
BRANCH   3   4
ATOM      4  C   UNL     1       4.983  -0.387  -1.273  1.00  0.00     0.202 C 
BRANCH   4   5
ATOM      5  C   UNL     1       4.476  -1.163  -0.069  1.00  0.00     0.261 C 
BRANCH   5   6
ATOM      6  O   UNL     1       3.057  -1.163  -0.069  1.00  0.00    -0.460 OA
BRANCH   6   7
ATOM      7  C   UNL     1       2.346   0.065  -0.009  1.00  0.00     0.338 C 
ATOM      8  O   UNL     1       1.076   0.065  -0.009  1.00  0.00    -0.246 OA
BRANCH   7   9
ATOM      9  C   UNL     1       3.107   1.380   0.056  1.00  0.00     0.087 C 
ATOM     10  C   UNL     1       4.467   1.380   0.056  1.00  0.00     0.027 C 
ATOM     11  C   UNL     1       2.346   2.695   0.120  1.00  0.00     0.316 C 
ATOM     12  C   UNL     1       5.227   0.065  -0.009  1.00  0.00     0.019 A 
ATOM     13  O   UNL     1       3.633  -0.675  -1.609  1.00  0.00    -0.475 OA
ATOM     14  C   UNL     1       6.306  -0.150   0.833  1.00  0.00     0.036 A 
ATOM     15  C   UNL     1       4.836  -0.860  -0.877  1.00  0.00     0.128 A 
ATOM     16  C   UNL     1       7.095  -1.270   0.479  1.00  0.00     0.107 A 
ATOM     17  C   UNL     1       5.584  -1.996  -1.074  1.00  0.00     0.048 A 
ATOM     18  C   UNL     1       6.696  -2.244  -0.319  1.00  0.00     0.028 A 
BRANCH  11  19
ATOM     19  C   UNL     1       0.852   2.417   0.106  1.00  0.00     0.430 C 
ATOM     20  F   UNL     1       0.407   2.467  -1.146  1.00  0.00    -0.167 F 
ATOM     21  F   UNL     1       0.536   1.242   0.642  1.00  0.00    -0.167 F 
ATOM     22  F   UNL     1       0.292   3.393   0.816  1.00  0.00    -0.167 F 
ENDBRANCH  11  19
BRANCH  16  23
ATOM     23  S   UNL     1       8.765  -1.376   1.169  1.00  0.00     0.310 S 
ATOM     24  F   UNL     1       8.218  -1.359   2.657  1.00  0.00    -0.094 F 
ATOM     25  F   UNL     1       8.805   0.198   1.238  1.00  0.00    -0.094 F 
ATOM     26  F   UNL     1      10.199  -1.467   1.762  1.00  0.00    -0.094 F 
ATOM     27  F   UNL     1       8.652  -2.950   1.222  1.00  0.00    -0.094 F 
ATOM     28  F   UNL     1       7.266  -1.300   0.672  1.00  0.00    -0.094 F 
ENDBRANCH  16  23
ENDBRANCH   7   9
ENDBRANCH   6   7
ENDBRANCH   5   6
ENDBRANCH   4   5
ENDBRANCH   3   4
ENDBRANCH   2   3
ENDBRANCH   1   2
BRANCH   1  29
ATOM     29  O   UNL     1       3.057  -1.042  -2.548  1.00  0.00    -0.376 OA
BRANCH  29  30
ATOM     30  C   UNL     1       4.476  -1.042  -2.548  1.00  0.00     0.202 C 
BRANCH  30  31
ATOM     31  C   UNL     1       4.983  -0.266  -3.753  1.00  0.00     0.261 C 
BRANCH  31  32
ATOM     32  O   UNL     1       4.510   1.072  -3.687  1.00  0.00    -0.460 OA
BRANCH  32  33
ATOM     33  C   UNL     1       3.114   1.331  -3.674  1.00  0.00     0.338 C 
ATOM     34  O   UNL     1       2.288   0.366  -3.722  1.00  0.00    -0.246 OA
BRANCH  33  35
ATOM     35  C   UNL     1       2.607   2.762  -3.604  1.00  0.00     0.060 A 
ATOM     36  C   UNL     1       1.582   3.093  -2.734  1.00  0.00     0.016 A 
ATOM     37  C   UNL     1       3.171   3.677  -4.384  1.00  0.00     0.016 A 
ATOM     38  C   UNL     1       1.021   4.371  -2.968  1.00  0.00     0.010 A 
ATOM     39  C   UNL     1       2.651   4.947  -4.462  1.00  0.00     0.010 A 
ATOM     40  C   UNL     1       1.600   5.325  -3.673  1.00  0.00    -0.014 A 
BRANCH  40  41
ATOM     41  C   UNL     1       1.125   6.768  -3.611  1.00  0.00     0.031 A 
ATOM     42  C   UNL     1       0.684   7.367  -4.792  1.00  0.00     0.074 A 
ATOM     43  C   UNL     1       1.156   7.407  -2.383  1.00  0.00     0.049 A 
ATOM     44  N   UNL     1       0.199   8.600  -4.947  1.00  0.00    -0.248 NA
ATOM     45  C   UNL     1       0.682   6.702  -6.103  1.00  0.00     0.031 C 
ATOM     46  C   UNL     1       1.591   6.807  -1.186  1.00  0.00     0.029 A 
ATOM     47  N   UNL     1       0.785   8.702  -2.095  1.00  0.00    -0.354 N 
ATOM     48  C   UNL     1      -0.137   8.807  -6.222  1.00  0.00     0.074 A 
ATOM     49  C   UNL     1       0.175   7.591  -6.985  1.00  0.00     0.031 C 
ATOM     50  C   UNL     1       1.496   7.729  -0.193  1.00  0.00     0.029 A 
ATOM     51  C   UNL     1       0.998   8.921  -0.752  1.00  0.00     0.049 A 
ATOM     52  H   UNL     1       0.429   9.357  -2.738  1.00  0.00     0.167 HD
ATOM     53  C   UNL     1      -0.692   9.961  -6.777  1.00  0.00     0.037 A 
ATOM     54  C   UNL     1       0.779  10.088  -0.037  1.00  0.00     0.037 A 
ATOM     55  C   UNL     1      -0.952  11.114  -6.054  1.00  0.00     0.049 A 
ATOM     56  C   UNL     1       0.278  11.262  -0.605  1.00  0.00     0.074 A 
ATOM     57  C   UNL     1      -1.518  12.283  -6.597  1.00  0.00     0.029 A 
ATOM     58  N   UNL     1      -0.716  11.341  -4.716  1.00  0.00    -0.354 N 
ATOM     59  N   UNL     1      -0.094  11.456  -1.871  1.00  0.00    -0.248 NA
ATOM     60  C   UNL     1       0.072  12.514   0.135  1.00  0.00     0.031 C 
ATOM     61  C   UNL     1      -1.614  13.206  -5.603  1.00  0.00     0.029 A 
ATOM     62  C   UNL     1      -1.108  12.629  -4.423  1.00  0.00     0.049 A 
ATOM     63  H   UNL     1      -0.333  10.695  -4.080  1.00  0.00     0.167 HD
ATOM     64  C   UNL     1      -0.540  12.703  -2.034  1.00  0.00     0.074 A 
ATOM     65  C   UNL     1      -0.433  13.404  -0.748  1.00  0.00     0.031 C 
ATOM     66  C   UNL     1      -1.036  13.283  -3.203  1.00  0.00     0.037 A 
BRANCH  53  67
ATOM     67  C   UNL     1      -1.030   9.952  -8.259  1.00  0.00     0.057 A 
ATOM     68  C   UNL     1      -1.939   9.026  -8.743  1.00  0.00     0.134 A 
ATOM     69  C   UNL     1      -0.449  10.832  -9.066  1.00  0.00     0.134 A 
ATOM     70  F   UNL     1      -2.728   8.302  -7.953  1.00  0.00    -0.206 F 
ATOM     71  C   UNL     1      -1.953   8.919 -10.154  1.00  0.00     0.040 A 
ATOM     72  C   UNL     1      -0.615  10.751 -10.427  1.00  0.00     0.040 A 
ATOM     73  F   UNL     1       0.302  11.802  -8.550  1.00  0.00    -0.206 F 
ATOM     74  C   UNL     1      -1.453   9.821 -10.978  1.00  0.00     0.006 A 
ENDBRANCH  53  67
BRANCH  54  75
ATOM     75  C   UNL     1       1.102  10.091   1.448  1.00  0.00     0.057 A 
ATOM     76  C   UNL     1       0.095  10.355   2.362  1.00  0.00     0.134 A 
ATOM     77  C   UNL     1       2.344   9.841   1.845  1.00  0.00     0.134 A 
ATOM     78  F   UNL     1      -1.195  10.361   2.038  1.00  0.00    -0.206 F 
ATOM     79  C   UNL     1       0.563  10.619   3.671  1.00  0.00     0.040 A 
ATOM     80  C   UNL     1       2.700   9.988   3.164  1.00  0.00     0.040 A 
ATOM     81  F   UNL     1       3.252   9.444   0.958  1.00  0.00    -0.206 F 
ATOM     82  C   UNL     1       1.767  10.305   4.112  1.00  0.00     0.006 A 
ENDBRANCH  54  75
BRANCH  66  83
ATOM     83  C   UNL     1      -1.527  14.720  -3.134  1.00  0.00     0.057 A 
ATOM     84  C   UNL     1      -0.658  15.733  -2.764  1.00  0.00     0.134 A 
ATOM     85  C   UNL     1      -2.793  14.976  -3.441  1.00  0.00     0.134 A 
ATOM     86  F   UNL     1       0.660  15.569  -2.695  1.00  0.00    -0.206 F 
ATOM     87  C   UNL     1      -1.300  16.959  -2.468  1.00  0.00     0.040 A 
ATOM     88  C   UNL     1      -3.318  16.232  -3.253  1.00  0.00     0.040 A 
ATOM     89  F   UNL     1      -3.560  14.008  -3.936  1.00  0.00    -0.206 F 
ATOM     90  C   UNL     1      -2.531  17.267  -2.833  1.00  0.00     0.006 A 
ENDBRANCH  66  83
ENDBRANCH  40  41
ENDBRANCH  33  35
ENDBRANCH  32  33
ENDBRANCH  31  32
ENDBRANCH  30  31
ENDBRANCH  29  30
ENDBRANCH   1  29
TORSDOF 19
