REMARK SMILES CC(C)C[C@@H](NC(=O)Cn1nc(O)ccc1=O)C(=O)OCCOCCOCCOC(=O)c1ccc(-c2c3nc(c(-c4c(F)cccc4F)c4ccc([nH]4)c(-c4c(F)cccc4F)c4nc(c(-c5c(F)cccc5F)c5ccc2[nH]5)C=C4)C=C3)cc1
REMARK SMILES IDX 24 1 23 2 22 3 21 4 20 5 18 6 19 7 5 8 4 9 2 10 1 11 3 12
REMARK SMILES IDX 6 13 7 14 8 16 9 17 10 18 11 19 16 20 12 21 15 22 17 23
REMARK SMILES IDX 14 24 13 25 25 27 26 28 27 29 28 30 29 31 30 32 31 33 32 34
REMARK SMILES IDX 33 35 85 36 34 37 84 38 35 39 36 40 37 41 78 42 38 43 83 44
REMARK SMILES IDX 77 45 79 46 39 47 82 48 76 49 75 50 40 52 66 53 49 54 65 55
REMARK SMILES IDX 50 56 53 57 64 58 80 59 51 60 52 61 63 63 81 64 54 65 41 66
REMARK SMILES IDX 42 67 47 68 43 69 44 70 46 71 48 72 45 73 67 74 68 75 73 76
REMARK SMILES IDX 69 77 70 78 72 79 74 80 71 81 55 82 56 83 61 84 57 85 58 86
REMARK SMILES IDX 60 87 62 88 59 89
REMARK H PARENT 6 15 13 26 79 51 53 62
REMARK Flexibility Score: inf
ROOT
ATOM      1  C   UNL     1      -4.289   0.353   0.384  1.00  0.00     0.188 C 
ENDROOT
BRANCH   1   2
ATOM      2  O   UNL     1      -5.544   0.965   0.110  1.00  0.00    -0.376 OA
BRANCH   2   3
ATOM      3  C   UNL     1      -6.020   0.671  -1.204  1.00  0.00     0.202 C 
BRANCH   3   4
ATOM      4  C   UNL     1      -5.252   1.418  -2.310  1.00  0.00     0.261 C 
BRANCH   4   5
ATOM      5  O   UNL     1      -3.955   0.838  -2.602  1.00  0.00    -0.462 OA
BRANCH   5   6
ATOM      6  C   UNL     1      -2.850   1.458  -2.121  1.00  0.00     0.328 C 
ATOM      7  O   UNL     1      -2.871   2.470  -1.428  1.00  0.00    -0.250 OA
BRANCH   6   8
ATOM      8  C   UNL     1      -1.551   0.657  -2.369  1.00  0.00     0.192 C 
BRANCH   8   9
ATOM      9  C   UNL     1      -1.335  -0.486  -1.353  1.00  0.00     0.040 C 
BRANCH   9  10
ATOM     10  C   UNL     1       0.150  -0.849  -1.114  1.00  0.00    -0.015 C 
ATOM     11  C   UNL     1       0.850   0.196  -0.236  1.00  0.00     0.007 C 
ATOM     12  C   UNL     1       0.266  -2.219  -0.438  1.00  0.00     0.007 C 
ENDBRANCH   9  10
ENDBRANCH   8   9
BRANCH   8  13
ATOM     13  N   UNL     1      -1.199   0.266  -3.741  1.00  0.00    -0.341 N 
ATOM     14  C   UNL     1      -1.668  -0.623  -4.654  1.00  0.00     0.242 C 
ATOM     15  H   UNL     1      -0.430   0.776  -4.084  1.00  0.00     0.164 HD
ATOM     16  O   UNL     1      -0.907  -0.864  -5.600  1.00  0.00    -0.273 OA
BRANCH  14  17
ATOM     17  C   UNL     1      -3.057  -1.244  -4.607  1.00  0.00     0.248 C 
BRANCH  17  18
ATOM     18  N   UNL     1      -3.256  -2.424  -3.778  1.00  0.00    -0.217 N 
ATOM     19  N   UNL     1      -2.311  -3.432  -3.881  1.00  0.00    -0.131 NA
ATOM     20  C   UNL     1      -4.492  -2.603  -3.159  1.00  0.00     0.267 A 
ATOM     21  C   UNL     1      -2.615  -4.545  -3.318  1.00  0.00     0.229 A 
ATOM     22  C   UNL     1      -4.711  -3.900  -2.476  1.00  0.00     0.079 A 
ATOM     23  O   UNL     1      -5.411  -1.790  -3.178  1.00  0.00    -0.268 OA
ATOM     24  C   UNL     1      -3.811  -4.881  -2.567  1.00  0.00     0.075 A 
BRANCH  21  25
ATOM     25  O   UNL     1      -1.775  -5.580  -3.407  1.00  0.00    -0.492 OA
ATOM     26  H   UNL     1      -0.965  -5.488  -3.870  1.00  0.00     0.295 HD
ENDBRANCH  21  25
ENDBRANCH  17  18
ENDBRANCH  14  17
ENDBRANCH   8  13
ENDBRANCH   6   8
ENDBRANCH   5   6
ENDBRANCH   4   5
ENDBRANCH   3   4
ENDBRANCH   2   3
ENDBRANCH   1   2
BRANCH   1  27
ATOM     27  C   UNL     1      -4.401  -0.679   1.477  1.00  0.00     0.188 C 
BRANCH  27  28
ATOM     28  O   UNL     1      -4.628  -1.989   0.952  1.00  0.00    -0.376 OA
BRANCH  28  29
ATOM     29  C   UNL     1      -5.632  -2.716   1.663  1.00  0.00     0.202 C 
BRANCH  29  30
ATOM     30  C   UNL     1      -5.279  -3.113   3.110  1.00  0.00     0.261 C 
BRANCH  30  31
ATOM     31  O   UNL     1      -5.015  -1.958   3.932  1.00  0.00    -0.460 OA
BRANCH  31  32
ATOM     32  C   UNL     1      -3.714  -1.755   4.279  1.00  0.00     0.338 C 
ATOM     33  O   UNL     1      -2.808  -2.557   4.191  1.00  0.00    -0.246 OA
BRANCH  32  34
ATOM     34  C   UNL     1      -3.498  -0.300   4.546  1.00  0.00     0.060 A 
ATOM     35  C   UNL     1      -4.527   0.542   4.977  1.00  0.00     0.016 A 
ATOM     36  C   UNL     1      -2.239   0.246   4.242  1.00  0.00     0.016 A 
ATOM     37  C   UNL     1      -4.284   1.909   5.143  1.00  0.00     0.010 A 
ATOM     38  C   UNL     1      -1.995   1.614   4.408  1.00  0.00     0.010 A 
ATOM     39  C   UNL     1      -3.009   2.450   4.894  1.00  0.00    -0.014 A 
BRANCH  39  40
ATOM     40  C   UNL     1      -2.689   3.803   5.413  1.00  0.00     0.031 A 
ATOM     41  C   UNL     1      -2.653   5.032   4.558  1.00  0.00     0.074 A 
ATOM     42  C   UNL     1      -2.442   3.896   6.734  1.00  0.00     0.049 A 
ATOM     43  N   UNL     1      -2.550   6.283   4.935  1.00  0.00    -0.248 NA
ATOM     44  C   UNL     1      -2.728   4.842   3.105  1.00  0.00     0.031 C 
ATOM     45  C   UNL     1      -2.388   2.758   7.656  1.00  0.00     0.029 A 
ATOM     46  N   UNL     1      -2.210   4.984   7.532  1.00  0.00    -0.354 N 
ATOM     47  C   UNL     1      -2.582   7.038   3.771  1.00  0.00     0.074 A 
ATOM     48  C   UNL     1      -2.656   6.096   2.670  1.00  0.00     0.031 C 
ATOM     49  C   UNL     1      -2.175   3.210   8.899  1.00  0.00     0.029 A 
ATOM     50  C   UNL     1      -2.067   4.664   8.859  1.00  0.00     0.049 A 
ATOM     51  H   UNL     1      -2.151   5.905   7.188  1.00  0.00     0.167 HD
ATOM     52  C   UNL     1      -2.571   8.389   3.641  1.00  0.00     0.037 A 
ATOM     53  C   UNL     1      -1.888   5.452   9.933  1.00  0.00     0.037 A 
ATOM     54  C   UNL     1      -2.462   9.320   4.740  1.00  0.00     0.049 A 
ATOM     55  C   UNL     1      -1.868   6.940   9.756  1.00  0.00     0.074 A 
ATOM     56  C   UNL     1      -2.482  10.706   4.708  1.00  0.00     0.029 A 
ATOM     57  N   UNL     1      -2.293   8.962   6.070  1.00  0.00    -0.354 N 
ATOM     58  N   UNL     1      -2.009   7.644   8.661  1.00  0.00    -0.248 NA
ATOM     59  C   UNL     1      -1.679   7.742  10.972  1.00  0.00     0.031 C 
ATOM     60  C   UNL     1      -2.284  11.184   6.009  1.00  0.00     0.029 A 
ATOM     61  C   UNL     1      -2.183  10.097   6.861  1.00  0.00     0.049 A 
ATOM     62  H   UNL     1      -2.257   8.037   6.405  1.00  0.00     0.167 HD
ATOM     63  C   UNL     1      -1.940   8.972   9.055  1.00  0.00     0.074 A 
ATOM     64  C   UNL     1      -1.776   8.974  10.494  1.00  0.00     0.031 C 
ATOM     65  C   UNL     1      -2.000  10.090   8.291  1.00  0.00     0.037 A 
BRANCH  52  66
ATOM     66  C   UNL     1      -2.700   8.954   2.254  1.00  0.00     0.057 A 
ATOM     67  C   UNL     1      -1.633   9.620   1.638  1.00  0.00     0.134 A 
ATOM     68  C   UNL     1      -3.915   8.900   1.557  1.00  0.00     0.134 A 
ATOM     69  F   UNL     1      -0.447   9.725   2.255  1.00  0.00    -0.206 F 
ATOM     70  C   UNL     1      -1.770  10.212   0.380  1.00  0.00     0.040 A 
ATOM     71  C   UNL     1      -4.058   9.469   0.290  1.00  0.00     0.040 A 
ATOM     72  F   UNL     1      -4.979   8.283   2.093  1.00  0.00    -0.206 F 
ATOM     73  C   UNL     1      -2.984  10.133  -0.300  1.00  0.00     0.006 A 
ENDBRANCH  52  66
BRANCH  53  74
ATOM     74  C   UNL     1      -1.755   4.843  11.277  1.00  0.00     0.057 A 
ATOM     75  C   UNL     1      -0.608   4.126  11.637  1.00  0.00     0.134 A 
ATOM     76  C   UNL     1      -2.770   4.967  12.231  1.00  0.00     0.134 A 
ATOM     77  F   UNL     1       0.392   3.961  10.758  1.00  0.00    -0.206 F 
ATOM     78  C   UNL     1      -0.474   3.554  12.901  1.00  0.00     0.040 A 
ATOM     79  C   UNL     1      -2.639   4.422  13.508  1.00  0.00     0.040 A 
ATOM     80  F   UNL     1      -3.886   5.652  11.944  1.00  0.00    -0.206 F 
ATOM     81  C   UNL     1      -1.488   3.710  13.845  1.00  0.00     0.006 A 
ENDBRANCH  53  74
BRANCH  65  82
ATOM     82  C   UNL     1      -1.885  11.401   9.013  1.00  0.00     0.057 A 
ATOM     83  C   UNL     1      -2.998  12.236   9.168  1.00  0.00     0.134 A 
ATOM     84  C   UNL     1      -0.674  11.827   9.575  1.00  0.00     0.134 A 
ATOM     85  F   UNL     1      -4.188  11.890   8.653  1.00  0.00    -0.206 F 
ATOM     86  C   UNL     1      -2.913  13.443   9.865  1.00  0.00     0.040 A 
ATOM     87  C   UNL     1      -0.583  13.019  10.297  1.00  0.00     0.040 A 
ATOM     88  F   UNL     1       0.425  11.064   9.480  1.00  0.00    -0.206 F 
ATOM     89  C   UNL     1      -1.705  13.832  10.441  1.00  0.00     0.006 A 
ENDBRANCH  65  82
ENDBRANCH  39  40
ENDBRANCH  32  34
ENDBRANCH  31  32
ENDBRANCH  30  31
ENDBRANCH  29  30
ENDBRANCH  28  29
ENDBRANCH  27  28
ENDBRANCH   1  27
TORSDOF 23
