REMARK SMILES O=C(OCCOCCOCCOC(=O)c1cc(Br)ccc1OCc1ccccc1F)c1ccc(-c2c3nc(c(-c4c(F)cccc4F)c4ccc([nH]4)c(-c4c(F)cccc4F)c4nc(c(-c5c(F)cccc5F)c5ccc2[nH]5)C=C4)C=C3)cc1
REMARK SMILES IDX 8 1 7 2 6 3 5 4 4 5 3 6 2 7 1 8 31 9 32 10 84 11 33 12 83 13
REMARK SMILES IDX 34 14 35 15 36 16 77 17 37 18 82 19 76 20 78 21 38 22 81 23
REMARK SMILES IDX 75 24 74 25 39 27 65 28 48 29 64 30 49 31 52 32 63 33 79 34
REMARK SMILES IDX 50 35 51 36 62 38 80 39 53 40 40 41 41 42 46 43 42 44 43 45
REMARK SMILES IDX 45 46 47 47 44 48 66 49 67 50 72 51 68 52 69 53 71 54 73 55
REMARK SMILES IDX 70 56 54 57 55 58 60 59 56 60 57 61 59 62 61 63 58 64 9 65
REMARK SMILES IDX 10 66 11 67 12 68 13 69 14 70 15 71 16 72 21 73 17 74 20 75
REMARK SMILES IDX 18 76 19 77 22 78 23 79 24 80 25 81 29 82 26 83 28 84 30 85
REMARK SMILES IDX 27 86
REMARK H PARENT 78 26 52 37
REMARK Flexibility Score: inf
ROOT
ATOM      1  C   UNL     1       3.096  -0.103  -3.491  1.00  0.00     0.188 C 
ENDROOT
BRANCH   1   2
ATOM      2  C   UNL     1       3.156  -0.664  -2.071  1.00  0.00     0.188 C 
BRANCH   2   3
ATOM      3  O   UNL     1       4.397  -0.387  -1.424  1.00  0.00    -0.376 OA
BRANCH   3   4
ATOM      4  C   UNL     1       4.996  -1.538  -0.827  1.00  0.00     0.202 C 
BRANCH   4   5
ATOM      5  C   UNL     1       4.475  -1.830   0.587  1.00  0.00     0.261 C 
BRANCH   5   6
ATOM      6  O   UNL     1       3.051  -1.633   0.691  1.00  0.00    -0.460 OA
BRANCH   6   7
ATOM      7  C   UNL     1       2.382  -0.561   1.188  1.00  0.00     0.338 C 
ATOM      8  O   UNL     1       1.155  -0.618   1.266  1.00  0.00    -0.246 OA
BRANCH   7   9
ATOM      9  C   UNL     1       3.053   0.675   1.698  1.00  0.00     0.060 A 
ATOM     10  C   UNL     1       4.286   1.154   1.258  1.00  0.00     0.016 A 
ATOM     11  C   UNL     1       2.361   1.434   2.662  1.00  0.00     0.016 A 
ATOM     12  C   UNL     1       4.887   2.258   1.852  1.00  0.00     0.010 A 
ATOM     13  C   UNL     1       2.935   2.579   3.230  1.00  0.00     0.010 A 
ATOM     14  C   UNL     1       4.230   2.957   2.864  1.00  0.00    -0.014 A 
BRANCH  14  15
ATOM     15  C   UNL     1       5.011   3.954   3.624  1.00  0.00     0.031 A 
ATOM     16  C   UNL     1       5.598   3.541   4.942  1.00  0.00     0.074 A 
ATOM     17  C   UNL     1       5.347   5.125   3.055  1.00  0.00     0.049 A 
ATOM     18  N   UNL     1       6.423   4.190   5.720  1.00  0.00    -0.248 NA
ATOM     19  C   UNL     1       5.232   2.202   5.434  1.00  0.00     0.031 C 
ATOM     20  C   UNL     1       4.923   5.565   1.727  1.00  0.00     0.029 A 
ATOM     21  N   UNL     1       6.165   6.131   3.499  1.00  0.00    -0.354 N 
ATOM     22  C   UNL     1       6.684   3.335   6.782  1.00  0.00     0.074 A 
ATOM     23  C   UNL     1       5.907   2.135   6.569  1.00  0.00     0.031 C 
ATOM     24  C   UNL     1       5.514   6.738   1.448  1.00  0.00     0.029 A 
ATOM     25  C   UNL     1       6.326   7.147   2.590  1.00  0.00     0.049 A 
ATOM     26  H   UNL     1       6.596   6.125   4.384  1.00  0.00     0.167 HD
ATOM     27  C   UNL     1       7.506   3.530   7.838  1.00  0.00     0.037 A 
ATOM     28  C   UNL     1       7.052   8.278   2.671  1.00  0.00     0.037 A 
ATOM     29  C   UNL     1       8.255   4.736   8.055  1.00  0.00     0.049 A 
ATOM     30  C   UNL     1       7.876   8.521   3.904  1.00  0.00     0.074 A 
ATOM     31  C   UNL     1       9.036   5.086   9.140  1.00  0.00     0.029 A 
ATOM     32  N   UNL     1       8.312   5.792   7.157  1.00  0.00    -0.354 N 
ATOM     33  N   UNL     1       8.061   7.735   4.938  1.00  0.00    -0.248 NA
ATOM     34  C   UNL     1       8.589   9.802   3.985  1.00  0.00     0.031 C 
ATOM     35  C   UNL     1       9.544   6.370   8.911  1.00  0.00     0.029 A 
ATOM     36  C   UNL     1       9.109   6.801   7.666  1.00  0.00     0.049 A 
ATOM     37  H   UNL     1       7.852   5.819   6.286  1.00  0.00     0.167 HD
ATOM     38  C   UNL     1       8.919   8.418   5.787  1.00  0.00     0.074 A 
ATOM     39  C   UNL     1       9.231   9.678   5.140  1.00  0.00     0.031 C 
ATOM     40  C   UNL     1       9.404   8.040   6.995  1.00  0.00     0.037 A 
BRANCH  27  41
ATOM     41  C   UNL     1       7.586   2.425   8.844  1.00  0.00     0.057 A 
ATOM     42  C   UNL     1       6.916   2.526  10.069  1.00  0.00     0.134 A 
ATOM     43  C   UNL     1       8.295   1.244   8.587  1.00  0.00     0.134 A 
ATOM     44  F   UNL     1       6.211   3.626  10.370  1.00  0.00    -0.206 F 
ATOM     45  C   UNL     1       6.946   1.490  11.003  1.00  0.00     0.040 A 
ATOM     46  C   UNL     1       8.318   0.194   9.506  1.00  0.00     0.040 A 
ATOM     47  F   UNL     1       8.932   1.074   7.418  1.00  0.00    -0.206 F 
ATOM     48  C   UNL     1       7.644   0.317  10.719  1.00  0.00     0.006 A 
ENDBRANCH  27  41
BRANCH  28  49
ATOM     49  C   UNL     1       7.025   9.256   1.556  1.00  0.00     0.057 A 
ATOM     50  C   UNL     1       5.877  10.010   1.282  1.00  0.00     0.134 A 
ATOM     51  C   UNL     1       8.135   9.449   0.728  1.00  0.00     0.134 A 
ATOM     52  F   UNL     1       4.780   9.871   2.042  1.00  0.00    -0.206 F 
ATOM     53  C   UNL     1       5.827  10.908   0.215  1.00  0.00     0.040 A 
ATOM     54  C   UNL     1       8.106  10.358  -0.332  1.00  0.00     0.040 A 
ATOM     55  F   UNL     1       9.270   8.771   0.951  1.00  0.00    -0.206 F 
ATOM     56  C   UNL     1       6.946  11.085  -0.595  1.00  0.00     0.006 A 
ENDBRANCH  28  49
BRANCH  40  57
ATOM     57  C   UNL     1      10.331   8.988   7.689  1.00  0.00     0.057 A 
ATOM     58  C   UNL     1      11.701   8.714   7.769  1.00  0.00     0.134 A 
ATOM     59  C   UNL     1       9.853  10.127   8.349  1.00  0.00     0.134 A 
ATOM     60  F   UNL     1      12.216   7.632   7.165  1.00  0.00    -0.206 F 
ATOM     61  C   UNL     1      12.565   9.534   8.494  1.00  0.00     0.040 A 
ATOM     62  C   UNL     1      10.710  10.965   9.061  1.00  0.00     0.040 A 
ATOM     63  F   UNL     1       8.550  10.444   8.300  1.00  0.00    -0.206 F 
ATOM     64  C   UNL     1      12.069  10.665   9.142  1.00  0.00     0.006 A 
ENDBRANCH  40  57
ENDBRANCH  14  15
ENDBRANCH   7   9
ENDBRANCH   6   7
ENDBRANCH   5   6
ENDBRANCH   4   5
ENDBRANCH   3   4
ENDBRANCH   2   3
ENDBRANCH   1   2
BRANCH   1  65
ATOM     65  O   UNL     1       4.271  -0.292  -4.271  1.00  0.00    -0.376 OA
BRANCH  65  66
ATOM     66  C   UNL     1       5.335   0.635  -4.016  1.00  0.00     0.202 C 
BRANCH  66  67
ATOM     67  C   UNL     1       4.982   2.111  -4.231  1.00  0.00     0.261 C 
BRANCH  67  68
ATOM     68  O   UNL     1       4.249   2.674  -3.120  1.00  0.00    -0.460 OA
BRANCH  68  69
ATOM     69  C   UNL     1       3.562   3.794  -3.458  1.00  0.00     0.342 C 
ATOM     70  O   UNL     1       3.560   4.324  -4.565  1.00  0.00    -0.246 OA
BRANCH  69  71
ATOM     71  C   UNL     1       2.929   4.457  -2.301  1.00  0.00     0.103 A 
ATOM     72  C   UNL     1       3.236   5.820  -2.155  1.00  0.00     0.035 A 
ATOM     73  C   UNL     1       1.942   3.877  -1.493  1.00  0.00     0.134 A 
ATOM     74  C   UNL     1       2.574   6.587  -1.201  1.00  0.00     0.019 A 
ATOM     75  C   UNL     1       1.334   4.645  -0.488  1.00  0.00     0.048 A 
ATOM     76  Br  UNL     1       2.925   8.440  -1.085  1.00  0.00    -0.051 Br
ATOM     77  C   UNL     1       1.635   6.003  -0.356  1.00  0.00     0.019 A 
BRANCH  73  78
ATOM     78  O   UNL     1       1.546   2.579  -1.685  1.00  0.00    -0.488 OA
BRANCH  78  79
ATOM     79  C   UNL     1       0.158   2.455  -2.062  1.00  0.00     0.268 C 
BRANCH  79  80
ATOM     80  C   UNL     1       0.059   2.378  -3.561  1.00  0.00     0.025 A 
ATOM     81  C   UNL     1       0.021   1.145  -4.222  1.00  0.00     0.010 A 
ATOM     82  C   UNL     1       0.120   3.545  -4.327  1.00  0.00     0.129 A 
ATOM     83  C   UNL     1       0.133   1.088  -5.614  1.00  0.00     0.001 A 
ATOM     84  C   UNL     1       0.238   3.496  -5.711  1.00  0.00     0.039 A 
ATOM     85  F   UNL     1       0.101   4.742  -3.724  1.00  0.00    -0.207 F 
ATOM     86  C   UNL     1       0.264   2.262  -6.356  1.00  0.00     0.003 A 
ENDBRANCH  79  80
ENDBRANCH  78  79
ENDBRANCH  73  78
ENDBRANCH  69  71
ENDBRANCH  68  69
ENDBRANCH  67  68
ENDBRANCH  66  67
ENDBRANCH  65  66
ENDBRANCH   1  65
TORSDOF 20
