REMARK SMILES Cc1ccc(Nc2c(Cl)cc(Cl)cc2Cl)c(CC(=O)OCCOCCOCCOC(=O)c2ccc(-c3c4nc(c(-c5c(F)cccc5F)c5ccc([nH]5)c(-c5c(F)cccc5F)c5nc(c(-c6c(F)cccc6F)c6ccc3[nH]6)C=C5)C=C4)cc2)c1
REMARK SMILES IDX 24 1 23 2 22 3 21 4 20 5 18 6 19 7 17 8 16 9 1 10 2 11 3 12
REMARK SMILES IDX 86 13 4 14 5 15 6 16 7 18 8 19 14 20 9 21 10 22 13 23 15 24
REMARK SMILES IDX 11 25 12 26 25 27 26 28 27 29 28 30 29 31 30 32 31 33 32 34
REMARK SMILES IDX 33 35 85 36 34 37 84 38 35 39 36 40 37 41 78 42 38 43 83 44
REMARK SMILES IDX 77 45 79 46 39 47 82 48 76 49 75 50 40 52 66 53 49 54 65 55
REMARK SMILES IDX 50 56 53 57 64 58 80 59 51 60 52 61 63 63 81 64 54 65 41 66
REMARK SMILES IDX 42 67 47 68 43 69 44 70 46 71 48 72 45 73 67 74 68 75 73 76
REMARK SMILES IDX 69 77 70 78 72 79 74 80 71 81 55 82 56 83 61 84 57 85 58 86
REMARK SMILES IDX 60 87 62 88 59 89
REMARK H PARENT 6 17 79 51 53 62
REMARK Flexibility Score: inf
ROOT
ATOM      1  C   UNL     1      -4.934   0.913  -3.733  1.00  0.00     0.188 C 
ENDROOT
BRANCH   1   2
ATOM      2  O   UNL     1      -4.512   2.004  -4.505  1.00  0.00    -0.376 OA
BRANCH   2   3
ATOM      3  C   UNL     1      -3.145   2.182  -4.812  1.00  0.00     0.202 C 
BRANCH   3   4
ATOM      4  C   UNL     1      -1.817   2.590  -3.953  1.00  0.00     0.261 C 
BRANCH   4   5
ATOM      5  O   UNL     1      -1.162   2.499  -2.241  1.00  0.00    -0.463 OA
BRANCH   5   6
ATOM      6  C   UNL     1      -1.160   3.230  -0.747  1.00  0.00     0.310 C 
ATOM      7  O   UNL     1      -1.757   4.202  -0.257  1.00  0.00    -0.252 OA
BRANCH   6   8
ATOM      8  C   UNL     1      -0.603   2.414   0.277  1.00  0.00     0.160 C 
BRANCH   8   9
ATOM      9  C   UNL     1      -0.510   1.104  -0.397  1.00  0.00    -0.013 A 
ATOM     10  C   UNL     1       3.156  -0.055  -0.024  1.00  0.00     0.044 C 
ATOM     11  C   UNL     1       1.664  -0.071  -0.001  1.00  0.00    -0.051 A 
ATOM     12  C   UNL     1       0.929  -1.042   0.619  1.00  0.00     0.005 A 
ATOM     13  C   UNL     1       0.947   0.982  -0.516  1.00  0.00     0.009 A 
ATOM     14  C   UNL     1      -0.489  -0.941   0.650  1.00  0.00     0.026 A 
ATOM     15  C   UNL     1      -1.464   0.096  -0.112  1.00  0.00     0.042 A 
BRANCH  15  16
ATOM     16  N   UNL     1      -3.365  -0.373  -0.690  1.00  0.00    -0.353 N 
ATOM     17  H   UNL     1      -3.661   0.109  -1.495  1.00  0.00     0.167 HD
BRANCH  16  18
ATOM     18  C   UNL     1      -4.636  -1.517  -0.006  1.00  0.00     0.076 A 
ATOM     19  C   UNL     1      -4.432  -2.566   1.149  1.00  0.00     0.067 A 
ATOM     20  C   UNL     1      -5.773  -1.853  -0.796  1.00  0.00     0.067 A 
ATOM     21  Cl  UNL     1      -3.279  -2.753   2.511  1.00  0.00    -0.082 Cl
ATOM     22  C   UNL     1      -5.201  -3.747   1.271  1.00  0.00     0.043 A 
ATOM     23  C   UNL     1      -6.500  -3.080  -0.596  1.00  0.00     0.043 A 
ATOM     24  Cl  UNL     1      -6.543  -0.934  -1.990  1.00  0.00    -0.082 Cl
ATOM     25  C   UNL     1      -6.184  -4.026   0.368  1.00  0.00     0.044 A 
ATOM     26  Cl  UNL     1      -6.940  -5.570   0.401  1.00  0.00    -0.084 Cl
ENDBRANCH  16  18
ENDBRANCH  15  16
ENDBRANCH   8   9
ENDBRANCH   6   8
ENDBRANCH   5   6
ENDBRANCH   4   5
ENDBRANCH   3   4
ENDBRANCH   2   3
ENDBRANCH   1   2
BRANCH   1  27
ATOM     27  C   UNL     1      -4.470  -0.472  -4.125  1.00  0.00     0.188 C 
BRANCH  27  28
ATOM     28  O   UNL     1      -3.143  -0.524  -4.584  1.00  0.00    -0.376 OA
BRANCH  28  29
ATOM     29  C   UNL     1      -2.686  -1.833  -4.890  1.00  0.00     0.202 C 
BRANCH  29  30
ATOM     30  C   UNL     1      -3.060  -3.016  -3.908  1.00  0.00     0.261 C 
BRANCH  30  31
ATOM     31  O   UNL     1      -2.283  -3.080  -2.644  1.00  0.00    -0.460 OA
BRANCH  31  32
ATOM     32  C   UNL     1      -2.852  -3.086  -1.349  1.00  0.00     0.338 C 
ATOM     33  O   UNL     1      -3.704  -3.924  -1.120  1.00  0.00    -0.246 OA
BRANCH  32  34
ATOM     34  C   UNL     1      -2.246  -1.837  -0.307  1.00  0.00     0.060 A 
ATOM     35  C   UNL     1      -2.892  -0.566   1.061  1.00  0.00     0.016 A 
ATOM     36  C   UNL     1      -1.840  -1.028  -1.866  1.00  0.00     0.016 A 
ATOM     37  C   UNL     1      -3.280   1.219   0.527  1.00  0.00     0.010 A 
ATOM     38  C   UNL     1      -2.329   0.595  -2.227  1.00  0.00     0.010 A 
ATOM     39  C   UNL     1      -3.063   1.843  -1.183  1.00  0.00    -0.014 A 
BRANCH  39  40
ATOM     40  C   UNL     1      -3.099   3.548  -2.038  1.00  0.00     0.031 A 
ATOM     41  C   UNL     1      -1.574   4.649  -2.488  1.00  0.00     0.074 A 
ATOM     42  C   UNL     1      -4.175   4.027  -2.708  1.00  0.00     0.049 A 
ATOM     43  N   UNL     1      -1.210   5.810  -1.962  1.00  0.00    -0.248 NA
ATOM     44  C   UNL     1      -0.089   4.149  -3.124  1.00  0.00     0.031 C 
ATOM     45  C   UNL     1      -4.197   5.078  -3.745  1.00  0.00     0.029 A 
ATOM     46  N   UNL     1      -5.494   3.589  -2.718  1.00  0.00    -0.354 N 
ATOM     47  C   UNL     1       0.148   6.077  -2.349  1.00  0.00     0.074 A 
ATOM     48  C   UNL     1       0.818   4.851  -2.481  1.00  0.00     0.031 C 
ATOM     49  C   UNL     1      -5.475   5.431  -3.999  1.00  0.00     0.029 A 
ATOM     50  C   UNL     1      -6.298   4.694  -3.058  1.00  0.00     0.049 A 
ATOM     51  H   UNL     1      -5.808   2.676  -2.524  1.00  0.00     0.167 HD
ATOM     52  C   UNL     1       0.491   7.098  -3.201  1.00  0.00     0.037 A 
ATOM     53  C   UNL     1      -7.062   5.204  -2.057  1.00  0.00     0.037 A 
ATOM     54  C   UNL     1      -0.750   7.732  -3.579  1.00  0.00     0.049 A 
ATOM     55  C   UNL     1      -6.401   6.488  -1.603  1.00  0.00     0.074 A 
ATOM     56  C   UNL     1      -1.577   7.647  -4.684  1.00  0.00     0.029 A 
ATOM     57  N   UNL     1      -1.544   8.149  -2.531  1.00  0.00    -0.354 N 
ATOM     58  N   UNL     1      -5.129   6.764  -1.775  1.00  0.00    -0.248 NA
ATOM     59  C   UNL     1      -7.162   7.641  -1.143  1.00  0.00     0.031 C 
ATOM     60  C   UNL     1      -2.894   8.018  -4.254  1.00  0.00     0.029 A 
ATOM     61  C   UNL     1      -2.861   8.279  -2.891  1.00  0.00     0.049 A 
ATOM     62  H   UNL     1      -1.203   8.332  -1.626  1.00  0.00     0.167 HD
ATOM     63  C   UNL     1      -4.923   8.099  -1.595  1.00  0.00     0.074 A 
ATOM     64  C   UNL     1      -6.219   8.597  -1.169  1.00  0.00     0.031 C 
ATOM     65  C   UNL     1      -3.763   8.769  -1.862  1.00  0.00     0.037 A 
BRANCH  52  66
ATOM     66  C   UNL     1       1.840   7.240  -3.940  1.00  0.00     0.057 A 
ATOM     67  C   UNL     1       1.933   8.057  -5.081  1.00  0.00     0.134 A 
ATOM     68  C   UNL     1       3.084   6.660  -3.569  1.00  0.00     0.134 A 
ATOM     69  F   UNL     1       0.868   8.720  -5.548  1.00  0.00    -0.206 F 
ATOM     70  C   UNL     1       3.128   8.263  -5.797  1.00  0.00     0.040 A 
ATOM     71  C   UNL     1       4.274   6.808  -4.313  1.00  0.00     0.040 A 
ATOM     72  F   UNL     1       3.238   5.961  -2.436  1.00  0.00    -0.206 F 
ATOM     73  C   UNL     1       4.303   7.629  -5.426  1.00  0.00     0.006 A 
ENDBRANCH  52  66
BRANCH  53  74
ATOM     74  C   UNL     1      -7.649   4.053  -1.288  1.00  0.00     0.057 A 
ATOM     75  C   UNL     1      -8.495   3.173  -2.019  1.00  0.00     0.134 A 
ATOM     76  C   UNL     1      -7.043   3.516  -0.145  1.00  0.00     0.134 A 
ATOM     77  F   UNL     1      -9.024   3.565  -3.191  1.00  0.00    -0.206 F 
ATOM     78  C   UNL     1      -8.679   1.833  -1.665  1.00  0.00     0.040 A 
ATOM     79  C   UNL     1      -7.229   2.173   0.223  1.00  0.00     0.040 A 
ATOM     80  F   UNL     1      -6.156   4.233   0.557  1.00  0.00    -0.206 F 
ATOM     81  C   UNL     1      -8.062   1.341  -0.522  1.00  0.00     0.006 A 
ENDBRANCH  53  74
BRANCH  65  82
ATOM     82  C   UNL     1      -3.352  10.008  -1.090  1.00  0.00     0.057 A 
ATOM     83  C   UNL     1      -3.935  10.376   0.129  1.00  0.00     0.134 A 
ATOM     84  C   UNL     1      -2.218  10.779  -1.455  1.00  0.00     0.134 A 
ATOM     85  F   UNL     1      -4.885   9.639   0.720  1.00  0.00    -0.206 F 
ATOM     86  C   UNL     1      -3.533  11.507   0.838  1.00  0.00     0.040 A 
ATOM     87  C   UNL     1      -1.721  11.820  -0.677  1.00  0.00     0.040 A 
ATOM     88  F   UNL     1      -1.508  10.553  -2.570  1.00  0.00    -0.206 F 
ATOM     89  C   UNL     1      -2.415  12.226   0.444  1.00  0.00     0.006 A 
ENDBRANCH  65  82
ENDBRANCH  39  40
ENDBRANCH  32  34
ENDBRANCH  31  32
ENDBRANCH  30  31
ENDBRANCH  29  30
ENDBRANCH  28  29
ENDBRANCH  27  28
ENDBRANCH   1  27
TORSDOF 20
