REMARK SMILES O=C(OCCOCCOCCOC(=O)[C@H]1CSCN1C(=O)c1occc1-c1ccccc1)c1ccc(-c2c3nc(c(-c4c(F)cccc4F)c4ccc([nH]4)c(-c4c(F)cccc4F)c4nc(c(-c5c(F)cccc5F)c5ccc2[nH]5)C=C4)C=C3)cc1
REMARK SMILES IDX 8 1 7 2 6 3 5 4 4 5 3 6 2 7 1 8 33 9 34 10 86 11 35 12 85 13
REMARK SMILES IDX 36 14 37 15 38 16 79 17 39 18 84 19 78 20 80 21 40 22 83 23
REMARK SMILES IDX 77 24 76 25 41 27 67 28 50 29 66 30 51 31 54 32 65 33 81 34
REMARK SMILES IDX 52 35 53 36 64 38 82 39 55 40 42 41 43 42 48 43 44 44 45 45
REMARK SMILES IDX 47 46 49 47 46 48 68 49 69 50 74 51 70 52 71 53 73 54 75 55
REMARK SMILES IDX 72 56 56 57 57 58 62 59 58 60 59 61 61 62 63 63 60 64 9 65
REMARK SMILES IDX 10 66 11 67 12 68 13 69 14 70 15 71 16 72 19 73 17 74 18 75
REMARK SMILES IDX 20 76 21 77 22 78 23 79 26 80 24 81 25 82 27 83 28 84 32 85
REMARK SMILES IDX 29 86 31 87 30 88
REMARK H PARENT 80 26 54 37
REMARK Flexibility Score: inf
ROOT
ATOM      1  C   UNL     1       2.094  -2.801   0.093  1.00  0.00     0.188 C 
ENDROOT
BRANCH   1   2
ATOM      2  C   UNL     1       3.058  -1.718   0.593  1.00  0.00     0.188 C 
BRANCH   2   3
ATOM      3  O   UNL     1       4.437  -1.919   0.270  1.00  0.00    -0.376 OA
BRANCH   3   4
ATOM      4  C   UNL     1       5.286  -1.977   1.421  1.00  0.00     0.202 C 
BRANCH   4   5
ATOM      5  C   UNL     1       5.795  -0.615   1.900  1.00  0.00     0.261 C 
BRANCH   5   6
ATOM      6  O   UNL     1       4.737   0.340   2.033  1.00  0.00    -0.460 OA
BRANCH   6   7
ATOM      7  C   UNL     1       4.258   1.215   1.123  1.00  0.00     0.338 C 
ATOM      8  O   UNL     1       3.311   1.922   1.478  1.00  0.00    -0.246 OA
BRANCH   7   9
ATOM      9  C   UNL     1       4.764   1.396  -0.284  1.00  0.00     0.060 A 
ATOM     10  C   UNL     1       5.691   0.611  -0.982  1.00  0.00     0.016 A 
ATOM     11  C   UNL     1       4.185   2.464  -0.986  1.00  0.00     0.016 A 
ATOM     12  C   UNL     1       6.074   0.906  -2.304  1.00  0.00     0.010 A 
ATOM     13  C   UNL     1       4.521   2.726  -2.313  1.00  0.00     0.010 A 
ATOM     14  C   UNL     1       5.490   1.968  -2.986  1.00  0.00    -0.014 A 
BRANCH  14  15
ATOM     15  C   UNL     1       5.939   2.408  -4.337  1.00  0.00     0.031 A 
ATOM     16  C   UNL     1       6.458   3.815  -4.469  1.00  0.00     0.074 A 
ATOM     17  C   UNL     1       5.792   1.651  -5.442  1.00  0.00     0.049 A 
ATOM     18  N   UNL     1       6.674   4.534  -5.539  1.00  0.00    -0.248 NA
ATOM     19  C   UNL     1       6.697   4.532  -3.205  1.00  0.00     0.031 C 
ATOM     20  C   UNL     1       5.276   0.284  -5.485  1.00  0.00     0.029 A 
ATOM     21  N   UNL     1       6.014   1.958  -6.765  1.00  0.00    -0.354 N 
ATOM     22  C   UNL     1       7.020   5.793  -5.069  1.00  0.00     0.074 A 
ATOM     23  C   UNL     1       6.870   5.769  -3.632  1.00  0.00     0.031 C 
ATOM     24  C   UNL     1       5.152  -0.105  -6.766  1.00  0.00     0.029 A 
ATOM     25  C   UNL     1       5.599   0.978  -7.636  1.00  0.00     0.049 A 
ATOM     26  H   UNL     1       6.430   2.800  -7.060  1.00  0.00     0.167 HD
ATOM     27  C   UNL     1       7.490   6.860  -5.757  1.00  0.00     0.037 A 
ATOM     28  C   UNL     1       5.582   0.960  -8.983  1.00  0.00     0.037 A 
ATOM     29  C   UNL     1       7.750   6.844  -7.166  1.00  0.00     0.049 A 
ATOM     30  C   UNL     1       6.160   2.126  -9.740  1.00  0.00     0.074 A 
ATOM     31  C   UNL     1       8.357   7.810  -7.947  1.00  0.00     0.029 A 
ATOM     32  N   UNL     1       7.438   5.783  -8.003  1.00  0.00    -0.354 N 
ATOM     33  N   UNL     1       6.584   3.278  -9.280  1.00  0.00    -0.248 NA
ATOM     34  C   UNL     1       6.304   1.972 -11.195  1.00  0.00     0.031 C 
ATOM     35  C   UNL     1       8.406   7.334  -9.262  1.00  0.00     0.029 A 
ATOM     36  C   UNL     1       7.846   6.065  -9.293  1.00  0.00     0.049 A 
ATOM     37  H   UNL     1       6.992   4.952  -7.720  1.00  0.00     0.167 HD
ATOM     38  C   UNL     1       7.101   3.959 -10.375  1.00  0.00     0.074 A 
ATOM     39  C   UNL     1       6.916   3.101 -11.527  1.00  0.00     0.031 C 
ATOM     40  C   UNL     1       7.692   5.178 -10.417  1.00  0.00     0.037 A 
BRANCH  27  41
ATOM     41  C   UNL     1       7.790   8.092  -4.955  1.00  0.00     0.057 A 
ATOM     42  C   UNL     1       8.825   8.118  -4.008  1.00  0.00     0.134 A 
ATOM     43  C   UNL     1       6.983   9.229  -5.062  1.00  0.00     0.134 A 
ATOM     44  F   UNL     1       9.623   7.052  -3.844  1.00  0.00    -0.206 F 
ATOM     45  C   UNL     1       8.996   9.199  -3.143  1.00  0.00     0.040 A 
ATOM     46  C   UNL     1       7.169  10.333  -4.228  1.00  0.00     0.040 A 
ATOM     47  F   UNL     1       5.983   9.275  -5.955  1.00  0.00    -0.206 F 
ATOM     48  C   UNL     1       8.163  10.310  -3.250  1.00  0.00     0.006 A 
ENDBRANCH  27  41
BRANCH  28  49
ATOM     49  C   UNL     1       5.057  -0.225  -9.707  1.00  0.00     0.057 A 
ATOM     50  C   UNL     1       5.924  -1.156 -10.291  1.00  0.00     0.134 A 
ATOM     51  C   UNL     1       3.683  -0.449  -9.844  1.00  0.00     0.134 A 
ATOM     52  F   UNL     1       7.252  -0.985 -10.207  1.00  0.00    -0.206 F 
ATOM     53  C   UNL     1       5.445  -2.256 -11.005  1.00  0.00     0.040 A 
ATOM     54  C   UNL     1       3.189  -1.553 -10.544  1.00  0.00     0.040 A 
ATOM     55  F   UNL     1       2.800   0.402  -9.302  1.00  0.00    -0.206 F 
ATOM     56  C   UNL     1       4.072  -2.458 -11.132  1.00  0.00     0.006 A 
ENDBRANCH  28  49
BRANCH  40  57
ATOM     57  C   UNL     1       8.257   5.635 -11.726  1.00  0.00     0.057 A 
ATOM     58  C   UNL     1       7.444   6.139 -12.746  1.00  0.00     0.134 A 
ATOM     59  C   UNL     1       9.644   5.664 -11.921  1.00  0.00     0.134 A 
ATOM     60  F   UNL     1       6.109   6.126 -12.621  1.00  0.00    -0.206 F 
ATOM     61  C   UNL     1       7.993   6.662 -13.918  1.00  0.00     0.040 A 
ATOM     62  C   UNL     1      10.205   6.202 -13.079  1.00  0.00     0.040 A 
ATOM     63  F   UNL     1      10.475   5.199 -10.975  1.00  0.00    -0.206 F 
ATOM     64  C   UNL     1       9.378   6.705 -14.081  1.00  0.00     0.006 A 
ENDBRANCH  40  57
ENDBRANCH  14  15
ENDBRANCH   7   9
ENDBRANCH   6   7
ENDBRANCH   5   6
ENDBRANCH   4   5
ENDBRANCH   3   4
ENDBRANCH   2   3
ENDBRANCH   1   2
BRANCH   1  65
ATOM     65  O   UNL     1       2.460  -4.166   0.267  1.00  0.00    -0.376 OA
BRANCH  65  66
ATOM     66  C   UNL     1       3.702  -4.594  -0.275  1.00  0.00     0.202 C 
BRANCH  66  67
ATOM     67  C   UNL     1       4.014  -4.347  -1.763  1.00  0.00     0.261 C 
BRANCH  67  68
ATOM     68  O   UNL     1       3.156  -3.400  -2.418  1.00  0.00    -0.462 OA
BRANCH  68  69
ATOM     69  C   UNL     1       2.964  -3.606  -3.738  1.00  0.00     0.329 C 
ATOM     70  O   UNL     1       3.449  -4.556  -4.355  1.00  0.00    -0.250 OA
BRANCH  69  71
ATOM     71  C   UNL     1       1.984  -2.643  -4.437  1.00  0.00     0.206 C 
ATOM     72  C   UNL     1       0.773  -3.544  -4.728  1.00  0.00     0.108 C 
ATOM     73  N   UNL     1       1.425  -1.364  -3.956  1.00  0.00    -0.312 N 
ATOM     74  S   UNL     1      -0.568  -2.467  -5.271  1.00  0.00    -0.138 SA
ATOM     75  C   UNL     1       0.231  -0.977  -4.675  1.00  0.00     0.191 C 
BRANCH  73  76
ATOM     76  C   UNL     1       2.281  -0.382  -3.436  1.00  0.00     0.291 C 
ATOM     77  O   UNL     1       3.340  -0.699  -2.937  1.00  0.00    -0.265 OA
BRANCH  76  78
ATOM     78  C   UNL     1       1.891   1.014  -3.628  1.00  0.00     0.199 A 
ATOM     79  O   UNL     1       2.521   1.676  -4.654  1.00  0.00    -0.459 OA
ATOM     80  C   UNL     1       0.981   1.878  -3.037  1.00  0.00     0.033 A 
ATOM     81  C   UNL     1       2.047   2.945  -4.693  1.00  0.00     0.196 A 
ATOM     82  C   UNL     1       1.099   3.125  -3.718  1.00  0.00     0.051 A 
BRANCH  80  83
ATOM     83  C   UNL     1       0.049   1.528  -1.988  1.00  0.00    -0.014 A 
ATOM     84  C   UNL     1      -1.325   1.617  -2.243  1.00  0.00     0.009 A 
ATOM     85  C   UNL     1       0.491   1.118  -0.730  1.00  0.00     0.009 A 
ATOM     86  C   UNL     1      -2.248   1.257  -1.262  1.00  0.00     0.001 A 
ATOM     87  C   UNL     1      -0.434   0.770   0.256  1.00  0.00     0.001 A 
ATOM     88  C   UNL     1      -1.801   0.829  -0.014  1.00  0.00     0.000 A 
ENDBRANCH  80  83
ENDBRANCH  76  78
ENDBRANCH  73  76
ENDBRANCH  69  71
ENDBRANCH  68  69
ENDBRANCH  67  68
ENDBRANCH  66  67
ENDBRANCH  65  66
ENDBRANCH   1  65
TORSDOF 20
