REMARK SMILES O=C(OCCOCCOCCOC(=O)c1c(F)ccc(F)c1Br)c1ccc(-c2c3nc(c(-c4c(F)cccc4F)c4ccc([nH]4)c(-c4c(F)cccc4F)c4nc(c(-c5c(F)cccc5F)c5ccc2[nH]5)C=C4)C=C3)cc1
REMARK SMILES IDX 7 1 6 2 5 3 4 4 3 5 2 6 1 7 24 8 25 9 77 10 26 11 76 12
REMARK SMILES IDX 27 13 28 14 29 15 70 16 30 17 75 18 69 19 71 20 31 21 74 22
REMARK SMILES IDX 68 23 67 24 32 26 58 27 41 28 57 29 42 30 45 31 56 32 72 33
REMARK SMILES IDX 43 34 44 35 55 37 73 38 46 39 33 40 34 41 39 42 35 43 36 44
REMARK SMILES IDX 38 45 40 46 37 47 59 48 60 49 65 50 61 51 62 52 64 53 66 54
REMARK SMILES IDX 63 55 47 56 48 57 53 58 49 59 50 60 52 61 54 62 51 63 8 64
REMARK SMILES IDX 9 65 10 66 11 67 12 68 13 69 14 70 15 71 16 72 22 73 17 74
REMARK SMILES IDX 18 75 20 76 23 77 19 78 21 79
REMARK H PARENT 71 25 45 36
REMARK Flexibility Score: inf
ROOT
ATOM      1  C   UNL     1       3.074   1.027  -1.310  1.00  0.00     0.188 C 
ENDROOT
BRANCH   1   2
ATOM      2  O   UNL     1       4.375   0.470  -1.106  1.00  0.00    -0.376 OA
BRANCH   2   3
ATOM      3  C   UNL     1       4.550  -0.853  -1.600  1.00  0.00     0.202 C 
BRANCH   3   4
ATOM      4  C   UNL     1       4.401  -1.883  -0.488  1.00  0.00     0.261 C 
BRANCH   4   5
ATOM      5  O   UNL     1       3.076  -1.825   0.067  1.00  0.00    -0.460 OA
BRANCH   5   6
ATOM      6  C   UNL     1       2.767  -1.476   1.337  1.00  0.00     0.338 C 
ATOM      7  O   UNL     1       1.882  -2.092   1.928  1.00  0.00    -0.246 OA
BRANCH   6   8
ATOM      8  C   UNL     1       3.275  -0.212   1.964  1.00  0.00     0.060 A 
ATOM      9  C   UNL     1       2.347   0.501   2.748  1.00  0.00     0.016 A 
ATOM     10  C   UNL     1       4.593   0.249   1.931  1.00  0.00     0.016 A 
ATOM     11  C   UNL     1       2.736   1.606   3.514  1.00  0.00     0.010 A 
ATOM     12  C   UNL     1       4.988   1.356   2.696  1.00  0.00     0.010 A 
ATOM     13  C   UNL     1       4.072   2.018   3.520  1.00  0.00    -0.014 A 
BRANCH  13  14
ATOM     14  C   UNL     1       4.557   2.991   4.526  1.00  0.00     0.031 A 
ATOM     15  C   UNL     1       4.793   4.430   4.192  1.00  0.00     0.074 A 
ATOM     16  C   UNL     1       4.853   2.530   5.756  1.00  0.00     0.049 A 
ATOM     17  N   UNL     1       5.112   5.415   4.993  1.00  0.00    -0.248 NA
ATOM     18  C   UNL     1       4.670   4.815   2.779  1.00  0.00     0.031 C 
ATOM     19  C   UNL     1       4.749   1.131   6.178  1.00  0.00     0.029 A 
ATOM     20  N   UNL     1       5.323   3.180   6.867  1.00  0.00    -0.354 N 
ATOM     21  C   UNL     1       5.176   6.547   4.196  1.00  0.00     0.074 A 
ATOM     22  C   UNL     1       4.940   6.114   2.834  1.00  0.00     0.031 C 
ATOM     23  C   UNL     1       5.164   1.024   7.449  1.00  0.00     0.029 A 
ATOM     24  C   UNL     1       5.549   2.346   7.934  1.00  0.00     0.049 A 
ATOM     25  H   UNL     1       5.483   4.151   6.898  1.00  0.00     0.167 HD
ATOM     26  C   UNL     1       5.386   7.831   4.574  1.00  0.00     0.037 A 
ATOM     27  C   UNL     1       6.005   2.618   9.169  1.00  0.00     0.037 A 
ATOM     28  C   UNL     1       5.704   8.246   5.915  1.00  0.00     0.049 A 
ATOM     29  C   UNL     1       6.270   4.043   9.555  1.00  0.00     0.074 A 
ATOM     30  C   UNL     1       5.913   9.527   6.399  1.00  0.00     0.029 A 
ATOM     31  N   UNL     1       5.898   7.381   6.981  1.00  0.00    -0.354 N 
ATOM     32  N   UNL     1       6.173   5.127   8.825  1.00  0.00    -0.248 NA
ATOM     33  C   UNL     1       6.675   4.284  10.946  1.00  0.00     0.031 C 
ATOM     34  C   UNL     1       6.266   9.433   7.751  1.00  0.00     0.029 A 
ATOM     35  C   UNL     1       6.245   8.097   8.115  1.00  0.00     0.049 A 
ATOM     36  H   UNL     1       5.802   6.402   6.938  1.00  0.00     0.167 HD
ATOM     37  C   UNL     1       6.478   6.182   9.673  1.00  0.00     0.074 A 
ATOM     38  C   UNL     1       6.750   5.607  10.975  1.00  0.00     0.031 C 
ATOM     39  C   UNL     1       6.523   7.509   9.400  1.00  0.00     0.037 A 
BRANCH  26  40
ATOM     40  C   UNL     1       5.238   8.890   3.525  1.00  0.00     0.057 A 
ATOM     41  C   UNL     1       6.348   9.509   2.943  1.00  0.00     0.134 A 
ATOM     42  C   UNL     1       3.968   9.335   3.136  1.00  0.00     0.134 A 
ATOM     43  F   UNL     1       7.590   9.136   3.283  1.00  0.00    -0.206 F 
ATOM     44  C   UNL     1       6.199  10.530   2.002  1.00  0.00     0.040 A 
ATOM     45  C   UNL     1       3.806  10.348   2.189  1.00  0.00     0.040 A 
ATOM     46  F   UNL     1       2.863   8.767   3.644  1.00  0.00    -0.206 F 
ATOM     47  C   UNL     1       4.925  10.950   1.620  1.00  0.00     0.006 A 
ENDBRANCH  26  40
BRANCH  27  48
ATOM     48  C   UNL     1       6.188   1.516  10.142  1.00  0.00     0.057 A 
ATOM     49  C   UNL     1       7.253   0.615  10.026  1.00  0.00     0.134 A 
ATOM     50  C   UNL     1       5.295   1.332  11.203  1.00  0.00     0.134 A 
ATOM     51  F   UNL     1       8.136   0.737   9.023  1.00  0.00    -0.206 F 
ATOM     52  C   UNL     1       7.423  -0.433  10.931  1.00  0.00     0.040 A 
ATOM     53  C   UNL     1       5.463   0.299  12.126  1.00  0.00     0.040 A 
ATOM     54  F   UNL     1       4.265   2.174  11.371  1.00  0.00    -0.206 F 
ATOM     55  C   UNL     1       6.528  -0.589  11.988  1.00  0.00     0.006 A 
ENDBRANCH  27  48
BRANCH  39  56
ATOM     56  C   UNL     1       6.865   8.418  10.541  1.00  0.00     0.057 A 
ATOM     57  C   UNL     1       5.878   9.205  11.148  1.00  0.00     0.134 A 
ATOM     58  C   UNL     1       8.167   8.502  11.049  1.00  0.00     0.134 A 
ATOM     59  F   UNL     1       4.613   9.173  10.704  1.00  0.00    -0.206 F 
ATOM     60  C   UNL     1       6.174  10.037  12.228  1.00  0.00     0.040 A 
ATOM     61  C   UNL     1       8.471   9.314  12.143  1.00  0.00     0.040 A 
ATOM     62  F   UNL     1       9.152   7.760  10.520  1.00  0.00    -0.206 F 
ATOM     63  C   UNL     1       7.472  10.085  12.734  1.00  0.00     0.006 A 
ENDBRANCH  39  56
ENDBRANCH  13  14
ENDBRANCH   6   8
ENDBRANCH   5   6
ENDBRANCH   4   5
ENDBRANCH   3   4
ENDBRANCH   2   3
ENDBRANCH   1   2
BRANCH   1  64
ATOM     64  C   UNL     1       2.647   1.191  -2.776  1.00  0.00     0.188 C 
BRANCH  64  65
ATOM     65  O   UNL     1       3.684   1.410  -3.726  1.00  0.00    -0.376 OA
BRANCH  65  66
ATOM     66  C   UNL     1       4.653   2.413  -3.434  1.00  0.00     0.202 C 
BRANCH  66  67
ATOM     67  C   UNL     1       4.120   3.843  -3.391  1.00  0.00     0.261 C 
BRANCH  67  68
ATOM     68  O   UNL     1       3.523   4.153  -2.116  1.00  0.00    -0.460 OA
BRANCH  68  69
ATOM     69  C   UNL     1       2.257   4.630  -2.154  1.00  0.00     0.342 C 
ATOM     70  O   UNL     1       1.506   4.678  -3.111  1.00  0.00    -0.246 OA
BRANCH  69  71
ATOM     71  C   UNL     1       1.893   5.138  -0.831  1.00  0.00     0.112 A 
ATOM     72  C   UNL     1       2.561   6.277  -0.383  1.00  0.00     0.139 A 
ATOM     73  C   UNL     1       0.841   4.609  -0.079  1.00  0.00     0.071 A 
ATOM     74  F   UNL     1       3.566   6.809  -1.093  1.00  0.00    -0.206 F 
ATOM     75  C   UNL     1       2.186   6.902   0.801  1.00  0.00     0.043 A 
ATOM     76  C   UNL     1       0.487   5.233   1.122  1.00  0.00     0.138 A 
ATOM     77  Br  UNL     1      -0.120   3.062  -0.606  1.00  0.00    -0.047 Br
ATOM     78  C   UNL     1       1.148   6.376   1.563  1.00  0.00     0.043 A 
ATOM     79  F   UNL     1      -0.512   4.750   1.874  1.00  0.00    -0.206 F 
ENDBRANCH  69  71
ENDBRANCH  68  69
ENDBRANCH  67  68
ENDBRANCH  66  67
ENDBRANCH  65  66
ENDBRANCH  64  65
ENDBRANCH   1  64
TORSDOF 17
