REMARK SMILES O=C(NC[C@@H]1CC[C@H](C(=O)OCCOCCOCCOC(=O)c2ccc(-c3c4nc(c(-c5c(F)cccc5F)c5ccc([nH]5)c(-c5c(F)cccc5F)c5nc(c(-c6c(F)cccc6F)c6ccc3[nH]6)C=C5)C=C4)cc2)O1)c1ccc(CO)cc1
REMARK SMILES IDX 14 1 13 2 12 3 11 4 9 5 10 6 8 7 5 8 6 9 77 10 7 11 4 12
REMARK SMILES IDX 3 13 1 14 2 15 78 17 79 18 85 19 80 20 84 21 81 22 82 23
REMARK SMILES IDX 83 24 15 26 16 27 17 28 18 29 19 30 20 31 21 32 22 33 23 34
REMARK SMILES IDX 24 35 76 36 25 37 75 38 26 39 27 40 28 41 69 42 29 43 74 44
REMARK SMILES IDX 68 45 70 46 30 47 73 48 67 49 66 50 31 52 57 53 40 54 56 55
REMARK SMILES IDX 41 56 44 57 55 58 71 59 42 60 43 61 54 63 72 64 45 65 32 66
REMARK SMILES IDX 33 67 38 68 34 69 35 70 37 71 39 72 36 73 58 74 59 75 64 76
REMARK SMILES IDX 60 77 61 78 63 79 65 80 62 81 46 82 47 83 52 84 48 85 49 86
REMARK SMILES IDX 51 87 53 88 50 89
REMARK H PARENT 3 16 83 25 70 51 44 62
REMARK Flexibility Score: inf
ROOT
ATOM      1  O   UNL     1       1.580  -5.702  -1.134  1.00  0.00    -0.376 OA
ENDROOT
BRANCH   1   2
ATOM      2  C   UNL     1       0.949  -4.540  -0.594  1.00  0.00     0.202 C 
BRANCH   2   3
ATOM      3  C   UNL     1       1.851  -3.366  -0.174  1.00  0.00     0.261 C 
BRANCH   3   4
ATOM      4  O   UNL     1       2.654  -2.772  -1.224  1.00  0.00    -0.461 OA
BRANCH   4   5
ATOM      5  C   UNL     1       3.984  -2.654  -0.978  1.00  0.00     0.335 C 
ATOM      6  O   UNL     1       4.520  -2.993   0.076  1.00  0.00    -0.249 OA
BRANCH   5   7
ATOM      7  C   UNL     1       4.810  -2.135  -2.166  1.00  0.00     0.228 C 
ATOM      8  C   UNL     1       5.004   0.193  -2.261  1.00  0.00     0.138 C 
ATOM      9  C   UNL     1       3.956  -0.206  -3.286  1.00  0.00     0.037 C 
ATOM     10  O   UNL     1       5.574  -1.010  -1.714  1.00  0.00    -0.361 OA
ATOM     11  C   UNL     1       4.177  -1.683  -3.466  1.00  0.00     0.047 C 
BRANCH   8  12
ATOM     12  C   UNL     1       4.526   1.117  -1.124  1.00  0.00     0.148 C 
BRANCH  12  13
ATOM     13  N   UNL     1       3.120   0.978  -0.738  1.00  0.00    -0.349 N 
ATOM     14  O   UNL     1       1.253   0.365   0.322  1.00  0.00    -0.269 OA
ATOM     15  C   UNL     1       2.480   0.456   0.358  1.00  0.00     0.251 C 
ATOM     16  H   UNL     1       2.498   1.337  -1.411  1.00  0.00     0.163 HD
BRANCH  15  17
ATOM     17  C   UNL     1       3.207  -0.044   1.547  1.00  0.00     0.039 A 
ATOM     18  C   UNL     1       4.359   0.557   2.043  1.00  0.00     0.014 A 
ATOM     19  C   UNL     1       2.687  -1.160   2.213  1.00  0.00     0.014 A 
ATOM     20  C   UNL     1       5.083  -0.060   3.065  1.00  0.00     0.007 A 
ATOM     21  C   UNL     1       3.409  -1.788   3.227  1.00  0.00     0.007 A 
ATOM     22  C   UNL     1       4.636  -1.261   3.633  1.00  0.00    -0.023 A 
BRANCH  22  23
ATOM     23  C   UNL     1       5.484  -1.981   4.643  1.00  0.00     0.191 C 
BRANCH  23  24
ATOM     24  O   UNL     1       6.687  -2.433   4.034  1.00  0.00    -0.392 OA
ATOM     25  H   UNL     1       6.474  -3.042   3.310  1.00  0.00     0.211 HD
ENDBRANCH  23  24
ENDBRANCH  22  23
ENDBRANCH  15  17
ENDBRANCH  12  13
ENDBRANCH   8  12
ENDBRANCH   5   7
ENDBRANCH   4   5
ENDBRANCH   3   4
ENDBRANCH   2   3
ENDBRANCH   1   2
BRANCH   1  26
ATOM     26  C   UNL     1       2.586  -5.474  -2.110  1.00  0.00     0.188 C 
BRANCH  26  27
ATOM     27  C   UNL     1       2.145  -4.718  -3.367  1.00  0.00     0.188 C 
BRANCH  27  28
ATOM     28  O   UNL     1       1.131  -3.760  -3.153  1.00  0.00    -0.376 OA
BRANCH  28  29
ATOM     29  C   UNL     1       0.026  -3.645  -4.041  1.00  0.00     0.202 C 
BRANCH  29  30
ATOM     30  C   UNL     1      -0.710  -4.901  -4.561  1.00  0.00     0.261 C 
BRANCH  30  31
ATOM     31  O   UNL     1       0.086  -5.949  -5.145  1.00  0.00    -0.460 OA
BRANCH  31  32
ATOM     32  C   UNL     1       0.887  -5.627  -6.189  1.00  0.00     0.338 C 
ATOM     33  O   UNL     1       0.854  -4.593  -6.836  1.00  0.00    -0.246 OA
BRANCH  32  34
ATOM     34  C   UNL     1       2.022  -6.596  -6.204  1.00  0.00     0.060 A 
ATOM     35  C   UNL     1       3.328  -6.080  -6.251  1.00  0.00     0.016 A 
ATOM     36  C   UNL     1       1.827  -7.970  -6.035  1.00  0.00     0.016 A 
ATOM     37  C   UNL     1       4.433  -6.933  -6.165  1.00  0.00     0.010 A 
ATOM     38  C   UNL     1       2.935  -8.827  -5.976  1.00  0.00     0.010 A 
ATOM     39  C   UNL     1       4.244  -8.318  -6.071  1.00  0.00    -0.014 A 
BRANCH  39  40
ATOM     40  C   UNL     1       5.386  -9.244  -6.291  1.00  0.00     0.031 A 
ATOM     41  C   UNL     1       5.570  -9.817  -7.672  1.00  0.00     0.074 A 
ATOM     42  C   UNL     1       6.253  -9.571  -5.315  1.00  0.00     0.049 A 
ATOM     43  N   UNL     1       6.435 -10.699  -8.103  1.00  0.00    -0.248 NA
ATOM     44  C   UNL     1       4.644  -9.326  -8.706  1.00  0.00     0.031 C 
ATOM     45  C   UNL     1       6.229  -9.055  -3.949  1.00  0.00     0.029 A 
ATOM     46  N   UNL     1       7.322 -10.435  -5.330  1.00  0.00    -0.354 N 
ATOM     47  C   UNL     1       6.152 -10.875  -9.451  1.00  0.00     0.074 A 
ATOM     48  C   UNL     1       5.018 -10.032  -9.761  1.00  0.00     0.031 C 
ATOM     49  C   UNL     1       7.228  -9.627  -3.251  1.00  0.00     0.029 A 
ATOM     50  C   UNL     1       7.938 -10.575  -4.109  1.00  0.00     0.049 A 
ATOM     51  H   UNL     1       7.620 -10.910  -6.140  1.00  0.00     0.167 HD
ATOM     52  C   UNL     1       6.781 -11.662 -10.355  1.00  0.00     0.037 A 
ATOM     53  C   UNL     1       8.938 -11.395  -3.724  1.00  0.00     0.037 A 
ATOM     54  C   UNL     1       7.904 -12.508 -10.053  1.00  0.00     0.049 A 
ATOM     55  C   UNL     1       9.564 -12.333  -4.727  1.00  0.00     0.074 A 
ATOM     56  C   UNL     1       8.617 -13.331 -10.907  1.00  0.00     0.029 A 
ATOM     57  N   UNL     1       8.471 -12.649  -8.796  1.00  0.00    -0.354 N 
ATOM     58  N   UNL     1       9.305 -12.477  -6.004  1.00  0.00    -0.248 NA
ATOM     59  C   UNL     1      10.624 -13.226  -4.231  1.00  0.00     0.031 C 
ATOM     60  C   UNL     1       9.577 -14.015 -10.155  1.00  0.00     0.029 A 
ATOM     61  C   UNL     1       9.505 -13.570  -8.845  1.00  0.00     0.049 A 
ATOM     62  H   UNL     1       8.183 -12.166  -7.988  1.00  0.00     0.167 HD
ATOM     63  C   UNL     1      10.187 -13.447  -6.468  1.00  0.00     0.074 A 
ATOM     64  C   UNL     1      10.998 -13.849  -5.340  1.00  0.00     0.031 C 
ATOM     65  C   UNL     1      10.314 -13.959  -7.718  1.00  0.00     0.037 A 
BRANCH  52  66
ATOM     66  C   UNL     1       6.241 -11.671 -11.756  1.00  0.00     0.057 A 
ATOM     67  C   UNL     1       6.376 -10.569 -12.612  1.00  0.00     0.134 A 
ATOM     68  C   UNL     1       5.599 -12.808 -12.263  1.00  0.00     0.134 A 
ATOM     69  F   UNL     1       6.964  -9.442 -12.182  1.00  0.00    -0.206 F 
ATOM     70  C   UNL     1       5.872 -10.591 -13.913  1.00  0.00     0.040 A 
ATOM     71  C   UNL     1       5.118 -12.852 -13.572  1.00  0.00     0.040 A 
ATOM     72  F   UNL     1       5.438 -13.898 -11.498  1.00  0.00    -0.206 F 
ATOM     73  C   UNL     1       5.248 -11.739 -14.399  1.00  0.00     0.006 A 
ENDBRANCH  52  66
BRANCH  53  74
ATOM     74  C   UNL     1       9.405 -11.396  -2.311  1.00  0.00     0.057 A 
ATOM     75  C   UNL     1      10.691 -10.961  -1.969  1.00  0.00     0.134 A 
ATOM     76  C   UNL     1       8.592 -11.875  -1.276  1.00  0.00     0.134 A 
ATOM     77  F   UNL     1      11.530 -10.521  -2.919  1.00  0.00    -0.206 F 
ATOM     78  C   UNL     1      11.159 -11.018  -0.654  1.00  0.00     0.040 A 
ATOM     79  C   UNL     1       9.037 -11.911   0.048  1.00  0.00     0.040 A 
ATOM     80  F   UNL     1       7.353 -12.315  -1.535  1.00  0.00    -0.206 F 
ATOM     81  C   UNL     1      10.327 -11.490   0.360  1.00  0.00     0.006 A 
ENDBRANCH  53  74
BRANCH  65  82
ATOM     82  C   UNL     1      11.396 -14.977  -7.949  1.00  0.00     0.057 A 
ATOM     83  C   UNL     1      11.317 -16.277  -7.432  1.00  0.00     0.134 A 
ATOM     84  C   UNL     1      12.511 -14.665  -8.739  1.00  0.00     0.134 A 
ATOM     85  F   UNL     1      10.282 -16.641  -6.660  1.00  0.00    -0.206 F 
ATOM     86  C   UNL     1      12.319 -17.220  -7.672  1.00  0.00     0.040 A 
ATOM     87  C   UNL     1      13.503 -15.608  -9.011  1.00  0.00     0.040 A 
ATOM     88  F   UNL     1      12.644 -13.443  -9.277  1.00  0.00    -0.206 F 
ATOM     89  C   UNL     1      13.412 -16.889  -8.470  1.00  0.00     0.006 A 
ENDBRANCH  65  82
ENDBRANCH  39  40
ENDBRANCH  32  34
ENDBRANCH  31  32
ENDBRANCH  30  31
ENDBRANCH  29  30
ENDBRANCH  28  29
ENDBRANCH  27  28
ENDBRANCH  26  27
ENDBRANCH   1  26
TORSDOF 22
