REMARK SMILES C[NH2+][C@@]1(C(=O)OCCOCCOCCOC(=O)c2ccc(-c3c4nc(c(-c5c(F)cccc5F)c5ccc([nH]5)c(-c5c(F)cccc5F)c5nc(c(-c6c(F)cccc6F)c6ccc3[nH]6)C=C5)C=C4)cc2)CCC[C@@H]([N@@H+](C)C2CC[NH+](C)CC2)C1
REMARK SMILES IDX 10 1 9 2 8 3 7 4 6 5 4 6 5 7 3 8 72 9 85 10 73 11 75 12
REMARK SMILES IDX 74 13 2 14 1 15 76 18 77 19 78 21 79 22 84 23 80 24 83 25
REMARK SMILES IDX 81 26 82 27 11 29 12 30 13 31 14 32 15 33 16 34 17 35 18 36
REMARK SMILES IDX 19 37 71 38 20 39 70 40 21 41 22 42 23 43 64 44 24 45 69 46
REMARK SMILES IDX 63 47 65 48 25 49 68 50 62 51 61 52 26 54 52 55 35 56 51 57
REMARK SMILES IDX 36 58 39 59 50 60 66 61 37 62 38 63 49 65 67 66 40 67 27 68
REMARK SMILES IDX 28 69 33 70 29 71 30 72 32 73 34 74 31 75 53 76 54 77 59 78
REMARK SMILES IDX 55 79 56 80 58 81 60 82 57 83 41 84 42 85 47 86 43 87 44 88
REMARK SMILES IDX 46 89 48 90 45 91
REMARK H PARENT 2 16 2 17 76 20 81 28 65 53 39 64
REMARK Flexibility Score: inf
ROOT
ATOM      1  C   UNL     1      -0.679   0.306  -4.960  1.00  0.00     0.188 C 
ENDROOT
BRANCH   1   2
ATOM      2  O   UNL     1      -1.349  -0.431  -5.971  1.00  0.00    -0.376 OA
BRANCH   2   3
ATOM      3  C   UNL     1      -2.757  -0.602  -5.828  1.00  0.00     0.202 C 
BRANCH   3   4
ATOM      4  C   UNL     1      -3.258  -1.454  -4.650  1.00  0.00     0.261 C 
BRANCH   4   5
ATOM      5  O   UNL     1      -2.798  -1.046  -3.345  1.00  0.00    -0.459 OA
BRANCH   5   6
ATOM      6  C   UNL     1      -1.820  -1.831  -2.820  1.00  0.00     0.368 C 
ATOM      7  O   UNL     1      -1.343  -2.805  -3.401  1.00  0.00    -0.245 OA
BRANCH   6   8
ATOM      8  C   UNL     1      -1.298  -1.373  -1.411  1.00  0.00     0.199 C 
ATOM      9  C   UNL     1      -1.789  -2.467  -0.454  1.00  0.00     0.081 C 
ATOM     10  C   UNL     1      -1.798   0.008  -0.924  1.00  0.00     0.146 C 
ATOM     11  C   UNL     1      -3.309  -2.533  -0.396  1.00  0.00     0.013 C 
ATOM     12  C   UNL     1      -3.236   0.092  -0.352  1.00  0.00     0.190 C 
ATOM     13  C   UNL     1      -4.002  -1.215  -0.078  1.00  0.00     0.065 C 
BRANCH   8  14
ATOM     14  N   UNL     1       0.198  -1.493  -1.507  1.00  0.00    -0.334 N 
ATOM     15  C   UNL     1       1.065  -0.573  -0.806  1.00  0.00     0.331 C 
ATOM     16  H   UNL     1       0.435  -2.427  -1.173  1.00  0.00     0.347 HD
ATOM     17  H   UNL     1       0.378  -1.269  -2.486  1.00  0.00     0.347 HD
ENDBRANCH   8  14
BRANCH  12  18
ATOM     18  N   UNL     1      -3.429   1.165   0.670  1.00  0.00    -0.332 N 
ATOM     19  C   UNL     1      -4.826   1.637   0.672  1.00  0.00     0.333 C 
ATOM     20  H   UNL     1      -2.735   1.812   0.295  1.00  0.00     0.348 HD
BRANCH  18  21
ATOM     21  C   UNL     1      -2.911   1.100   2.074  1.00  0.00     0.195 C 
ATOM     22  C   UNL     1      -1.392   1.222   2.289  1.00  0.00     0.126 C 
ATOM     23  C   UNL     1      -3.476   0.068   3.071  1.00  0.00     0.126 C 
ATOM     24  C   UNL     1      -0.660  -0.106   2.444  1.00  0.00     0.268 C 
ATOM     25  C   UNL     1      -2.680  -1.232   3.160  1.00  0.00     0.268 C 
ATOM     26  N   UNL     1      -1.254  -1.013   3.428  1.00  0.00    -0.337 N 
ATOM     27  C   UNL     1      -0.547  -2.305   3.405  1.00  0.00     0.332 C 
ATOM     28  H   UNL     1      -1.162  -0.583   4.348  1.00  0.00     0.347 HD
ENDBRANCH  18  21
ENDBRANCH  12  18
ENDBRANCH   6   8
ENDBRANCH   5   6
ENDBRANCH   4   5
ENDBRANCH   3   4
ENDBRANCH   2   3
ENDBRANCH   1   2
BRANCH   1  29
ATOM     29  C   UNL     1      -1.215   1.695  -4.623  1.00  0.00     0.188 C 
BRANCH  29  30
ATOM     30  O   UNL     1      -2.604   1.761  -4.324  1.00  0.00    -0.376 OA
BRANCH  30  31
ATOM     31  C   UNL     1      -3.070   3.013  -3.803  1.00  0.00     0.202 C 
BRANCH  31  32
ATOM     32  C   UNL     1      -2.628   4.273  -4.574  1.00  0.00     0.261 C 
BRANCH  32  33
ATOM     33  O   UNL     1      -1.200   4.492  -4.570  1.00  0.00    -0.460 OA
BRANCH  33  34
ATOM     34  C   UNL     1      -0.597   4.598  -3.362  1.00  0.00     0.338 C 
ATOM     35  O   UNL     1      -1.151   4.798  -2.294  1.00  0.00    -0.246 OA
BRANCH  34  36
ATOM     36  C   UNL     1       0.824   4.175  -3.500  1.00  0.00     0.060 A 
ATOM     37  C   UNL     1       1.410   3.469  -2.439  1.00  0.00     0.016 A 
ATOM     38  C   UNL     1       1.554   4.389  -4.674  1.00  0.00     0.016 A 
ATOM     39  C   UNL     1       2.738   3.036  -2.524  1.00  0.00     0.010 A 
ATOM     40  C   UNL     1       2.884   3.958  -4.758  1.00  0.00     0.010 A 
ATOM     41  C   UNL     1       3.498   3.317  -3.667  1.00  0.00    -0.014 A 
BRANCH  41  42
ATOM     42  C   UNL     1       4.976   3.157  -3.637  1.00  0.00     0.031 A 
ATOM     43  C   UNL     1       5.813   4.375  -3.345  1.00  0.00     0.074 A 
ATOM     44  C   UNL     1       5.581   1.971  -3.834  1.00  0.00     0.049 A 
ATOM     45  N   UNL     1       7.115   4.505  -3.305  1.00  0.00    -0.248 NA
ATOM     46  C   UNL     1       5.076   5.617  -3.061  1.00  0.00     0.031 C 
ATOM     47  C   UNL     1       4.906   0.701  -4.084  1.00  0.00     0.029 A 
ATOM     48  N   UNL     1       6.919   1.654  -3.861  1.00  0.00    -0.354 N 
ATOM     49  C   UNL     1       7.351   5.838  -2.994  1.00  0.00     0.074 A 
ATOM     50  C   UNL     1       6.061   6.484  -2.892  1.00  0.00     0.031 C 
ATOM     51  C   UNL     1       5.835  -0.259  -4.250  1.00  0.00     0.029 A 
ATOM     52  C   UNL     1       7.169   0.334  -4.148  1.00  0.00     0.049 A 
ATOM     53  H   UNL     1       7.632   2.311  -3.690  1.00  0.00     0.167 HD
ATOM     54  C   UNL     1       8.531   6.470  -2.796  1.00  0.00     0.037 A 
ATOM     55  C   UNL     1       8.338  -0.315  -4.329  1.00  0.00     0.037 A 
ATOM     56  C   UNL     1       9.821   5.843  -2.899  1.00  0.00     0.049 A 
ATOM     57  C   UNL     1       9.644   0.430  -4.191  1.00  0.00     0.074 A 
ATOM     58  C   UNL     1      11.070   6.409  -2.708  1.00  0.00     0.029 A 
ATOM     59  N   UNL     1      10.029   4.514  -3.229  1.00  0.00    -0.354 N 
ATOM     60  N   UNL     1       9.855   1.685  -3.875  1.00  0.00    -0.248 NA
ATOM     61  C   UNL     1      10.877  -0.337  -4.438  1.00  0.00     0.031 C 
ATOM     62  C   UNL     1      12.037   5.433  -2.971  1.00  0.00     0.029 A 
ATOM     63  C   UNL     1      11.388   4.247  -3.272  1.00  0.00     0.049 A 
ATOM     64  H   UNL     1       9.318   3.857  -3.406  1.00  0.00     0.167 HD
ATOM     65  C   UNL     1      11.237   1.847  -3.853  1.00  0.00     0.074 A 
ATOM     66  C   UNL     1      11.816   0.562  -4.178  1.00  0.00     0.031 C 
ATOM     67  C   UNL     1      11.960   2.962  -3.585  1.00  0.00     0.037 A 
BRANCH  54  68
ATOM     68  C   UNL     1       8.476   7.933  -2.472  1.00  0.00     0.057 A 
ATOM     69  C   UNL     1       8.028   8.399  -1.229  1.00  0.00     0.134 A 
ATOM     70  C   UNL     1       8.895   8.886  -3.409  1.00  0.00     0.134 A 
ATOM     71  F   UNL     1       7.596   7.537  -0.295  1.00  0.00    -0.206 F 
ATOM     72  C   UNL     1       7.976   9.763  -0.938  1.00  0.00     0.040 A 
ATOM     73  C   UNL     1       8.872  10.251  -3.120  1.00  0.00     0.040 A 
ATOM     74  F   UNL     1       9.336   8.506  -4.617  1.00  0.00    -0.206 F 
ATOM     75  C   UNL     1       8.405  10.693  -1.883  1.00  0.00     0.006 A 
ENDBRANCH  54  68
BRANCH  55  76
ATOM     76  C   UNL     1       8.345  -1.758  -4.686  1.00  0.00     0.057 A 
ATOM     77  C   UNL     1       8.832  -2.726  -3.800  1.00  0.00     0.134 A 
ATOM     78  C   UNL     1       7.914  -2.196  -5.944  1.00  0.00     0.134 A 
ATOM     79  F   UNL     1       9.291  -2.366  -2.592  1.00  0.00    -0.206 F 
ATOM     80  C   UNL     1       8.908  -4.074  -4.157  1.00  0.00     0.040 A 
ATOM     81  C   UNL     1       7.960  -3.543  -6.306  1.00  0.00     0.040 A 
ATOM     82  F   UNL     1       7.446  -1.318  -6.843  1.00  0.00    -0.206 F 
ATOM     83  C   UNL     1       8.466  -4.486  -5.413  1.00  0.00     0.006 A 
ENDBRANCH  55  76
BRANCH  67  84
ATOM     84  C   UNL     1      13.458   2.844  -3.586  1.00  0.00     0.057 A 
ATOM     85  C   UNL     1      14.191   2.691  -4.770  1.00  0.00     0.134 A 
ATOM     86  C   UNL     1      14.181   2.938  -2.389  1.00  0.00     0.134 A 
ATOM     87  F   UNL     1      13.561   2.584  -5.950  1.00  0.00    -0.206 F 
ATOM     88  C   UNL     1      15.585   2.615  -4.761  1.00  0.00     0.040 A 
ATOM     89  C   UNL     1      15.576   2.890  -2.370  1.00  0.00     0.040 A 
ATOM     90  F   UNL     1      13.544   3.098  -1.219  1.00  0.00    -0.206 F 
ATOM     91  C   UNL     1      16.282   2.723  -3.559  1.00  0.00     0.006 A 
ENDBRANCH  67  84
ENDBRANCH  41  42
ENDBRANCH  34  36
ENDBRANCH  33  34
ENDBRANCH  32  33
ENDBRANCH  31  32
ENDBRANCH  30  31
ENDBRANCH  29  30
ENDBRANCH   1  29
TORSDOF 20
