REMARK SMILES Cc1nc2sc3c(c2c2nc(CCC(=O)OCCOCCOCCOC(=O)c4ccc(-c5c6nc(c(-c7c(F)cccc7F)c7ccc([nH]7)c(-c7c(F)cccc7F)c7nc(c(-c8c(F)cccc8F)c8ccc5[nH]8)C=C7)C=C6)cc4)nn12)[C@@H](C)CCC3
REMARK SMILES IDX 20 1 19 2 18 3 17 4 16 5 14 6 15 7 13 8 12 9 11 10 1 11 2 12
REMARK SMILES IDX 3 13 83 14 4 15 9 16 82 17 5 18 8 19 10 20 6 21 7 22 88 23
REMARK SMILES IDX 84 24 87 25 85 26 86 27 21 28 22 29 23 30 24 31 25 32 26 33
REMARK SMILES IDX 27 34 28 35 29 36 81 37 30 38 80 39 31 40 32 41 33 42 74 43
REMARK SMILES IDX 34 44 79 45 73 46 75 47 35 48 78 49 72 50 71 51 36 53 62 54
REMARK SMILES IDX 45 55 61 56 46 57 49 58 60 59 76 60 47 61 48 62 59 64 77 65
REMARK SMILES IDX 50 66 37 67 38 68 43 69 39 70 40 71 42 72 44 73 41 74 63 75
REMARK SMILES IDX 64 76 69 77 65 78 66 79 68 80 70 81 67 82 51 83 52 84 57 85
REMARK SMILES IDX 53 86 54 87 56 88 58 89 55 90
REMARK H PARENT 75 52 49 63
REMARK Flexibility Score: inf
ROOT
ATOM      1  C   UNL     1       4.269   7.486   0.258  1.00  0.00     0.188 C 
ENDROOT
BRANCH   1   2
ATOM      2  O   UNL     1       3.715   8.744  -0.105  1.00  0.00    -0.376 OA
BRANCH   2   3
ATOM      3  C   UNL     1       2.652   8.662  -1.057  1.00  0.00     0.202 C 
BRANCH   3   4
ATOM      4  C   UNL     1       2.916   7.870  -2.364  1.00  0.00     0.261 C 
BRANCH   4   5
ATOM      5  O   UNL     1       3.112   6.436  -2.174  1.00  0.00    -0.463 OA
BRANCH   5   6
ATOM      6  C   UNL     1       4.371   5.964  -2.372  1.00  0.00     0.306 C 
ATOM      7  O   UNL     1       5.270   6.635  -2.872  1.00  0.00    -0.252 OA
BRANCH   6   8
ATOM      8  C   UNL     1       4.615   4.523  -1.940  1.00  0.00     0.131 C 
BRANCH   8   9
ATOM      9  C   UNL     1       4.209   4.014  -0.556  1.00  0.00     0.091 C 
BRANCH   9  10
ATOM     10  C   UNL     1       2.808   3.526  -0.419  1.00  0.00     0.152 A 
ATOM     11  C   UNL     1       0.878  -0.162   0.035  1.00  0.00     0.090 C 
ATOM     12  C   UNL     1       0.268   1.206   0.044  1.00  0.00     0.131 A 
ATOM     13  N   UNL     1      -1.025   1.377   0.179  1.00  0.00    -0.222 NA
ATOM     14  N   UNL     1       1.157   2.280  -0.117  1.00  0.00    -0.199 N 
ATOM     15  C   UNL     1      -1.472   2.676   0.149  1.00  0.00     0.129 A 
ATOM     16  C   UNL     1       0.733   3.579  -0.114  1.00  0.00     0.168 A 
ATOM     17  N   UNL     1       2.493   2.220  -0.336  1.00  0.00    -0.150 NA
ATOM     18  S   UNL     1      -3.137   3.063   0.243  1.00  0.00    -0.120 S 
ATOM     19  C   UNL     1      -0.719   3.833   0.018  1.00  0.00     0.060 A 
ATOM     20  N   UNL     1       1.752   4.385  -0.273  1.00  0.00    -0.211 NA
ATOM     21  C   UNL     1      -2.830   4.736   0.100  1.00  0.00     0.011 A 
ATOM     22  C   UNL     1      -1.484   5.034  -0.018  1.00  0.00    -0.018 A 
ATOM     23  C   UNL     1      -3.938   5.747   0.052  1.00  0.00     0.047 C 
ATOM     24  C   UNL     1      -1.007   6.455  -0.172  1.00  0.00     0.018 C 
ATOM     25  C   UNL     1      -3.400   7.145   0.385  1.00  0.00     0.006 C 
ATOM     26  C   UNL     1       0.001   6.601  -1.297  1.00  0.00     0.013 C 
ATOM     27  C   UNL     1      -2.152   7.453  -0.437  1.00  0.00     0.008 C 
ENDBRANCH   9  10
ENDBRANCH   8   9
ENDBRANCH   6   8
ENDBRANCH   5   6
ENDBRANCH   4   5
ENDBRANCH   3   4
ENDBRANCH   2   3
ENDBRANCH   1   2
BRANCH   1  28
ATOM     28  C   UNL     1       4.228   7.199   1.738  1.00  0.00     0.188 C 
BRANCH  28  29
ATOM     29  O   UNL     1       3.217   6.230   2.074  1.00  0.00    -0.376 OA
BRANCH  29  30
ATOM     30  C   UNL     1       1.862   6.679   2.092  1.00  0.00     0.202 C 
BRANCH  30  31
ATOM     31  C   UNL     1       1.385   7.309   3.397  1.00  0.00     0.261 C 
BRANCH  31  32
ATOM     32  O   UNL     1       2.400   8.112   3.952  1.00  0.00    -0.460 OA
BRANCH  32  33
ATOM     33  C   UNL     1       3.372   7.392   4.566  1.00  0.00     0.338 C 
ATOM     34  O   UNL     1       3.380   6.215   4.851  1.00  0.00    -0.246 OA
BRANCH  33  35
ATOM     35  C   UNL     1       4.456   8.326   4.870  1.00  0.00     0.060 A 
ATOM     36  C   UNL     1       5.636   7.785   5.378  1.00  0.00     0.016 A 
ATOM     37  C   UNL     1       4.147   9.689   4.932  1.00  0.00     0.016 A 
ATOM     38  C   UNL     1       6.341   8.555   6.263  1.00  0.00     0.010 A 
ATOM     39  C   UNL     1       4.806  10.432   5.857  1.00  0.00     0.010 A 
ATOM     40  C   UNL     1       5.818   9.809   6.582  1.00  0.00    -0.014 A 
BRANCH  40  41
ATOM     41  C   UNL     1       6.424  10.575   7.636  1.00  0.00     0.031 A 
ATOM     42  C   UNL     1       7.649  11.222   7.129  1.00  0.00     0.074 A 
ATOM     43  C   UNL     1       5.792  10.711   8.819  1.00  0.00     0.049 A 
ATOM     44  N   UNL     1       8.865  10.886   7.397  1.00  0.00    -0.248 NA
ATOM     45  C   UNL     1       7.530  12.137   5.973  1.00  0.00     0.031 C 
ATOM     46  C   UNL     1       4.451  10.226   9.177  1.00  0.00     0.029 A 
ATOM     47  N   UNL     1       6.162  11.419   9.923  1.00  0.00    -0.354 N 
ATOM     48  C   UNL     1       9.638  11.791   6.680  1.00  0.00     0.074 A 
ATOM     49  C   UNL     1       8.808  12.291   5.625  1.00  0.00     0.031 C 
ATOM     50  C   UNL     1       4.030  10.847  10.302  1.00  0.00     0.029 A 
ATOM     51  C   UNL     1       5.107  11.670  10.811  1.00  0.00     0.049 A 
ATOM     52  H   UNL     1       7.084  11.726  10.082  1.00  0.00     0.167 HD
ATOM     53  C   UNL     1      10.702  12.376   7.291  1.00  0.00     0.037 A 
ATOM     54  C   UNL     1       5.146  12.572  11.827  1.00  0.00     0.037 A 
ATOM     55  C   UNL     1      11.079  11.618   8.458  1.00  0.00     0.049 A 
ATOM     56  C   UNL     1       6.584  12.825  12.095  1.00  0.00     0.074 A 
ATOM     57  C   UNL     1      11.587  10.360   8.696  1.00  0.00     0.029 A 
ATOM     58  N   UNL     1      10.467  12.043   9.610  1.00  0.00    -0.354 N 
ATOM     59  N   UNL     1       7.396  11.928  12.583  1.00  0.00    -0.248 NA
ATOM     60  C   UNL     1       7.220  13.946  11.416  1.00  0.00     0.031 C 
ATOM     61  C   UNL     1      11.066   9.965   9.962  1.00  0.00     0.029 A 
ATOM     62  C   UNL     1      10.324  11.018  10.499  1.00  0.00     0.049 A 
ATOM     63  H   UNL     1      10.169  12.966   9.773  1.00  0.00     0.167 HD
ATOM     64  C   UNL     1       8.585  12.136  11.904  1.00  0.00     0.074 A 
ATOM     65  C   UNL     1       8.464  13.469  11.318  1.00  0.00     0.031 C 
ATOM     66  C   UNL     1       9.402  11.082  11.613  1.00  0.00     0.037 A 
BRANCH  53  67
ATOM     67  C   UNL     1      11.014  13.856   7.185  1.00  0.00     0.057 A 
ATOM     68  C   UNL     1      12.194  14.331   7.780  1.00  0.00     0.134 A 
ATOM     69  C   UNL     1      10.097  14.862   6.804  1.00  0.00     0.134 A 
ATOM     70  F   UNL     1      13.127  13.478   8.229  1.00  0.00    -0.206 F 
ATOM     71  C   UNL     1      12.424  15.693   8.012  1.00  0.00     0.040 A 
ATOM     72  C   UNL     1      10.339  16.225   6.982  1.00  0.00     0.040 A 
ATOM     73  F   UNL     1       8.871  14.598   6.340  1.00  0.00    -0.206 F 
ATOM     74  C   UNL     1      11.496  16.645   7.611  1.00  0.00     0.006 A 
ENDBRANCH  53  67
BRANCH  54  75
ATOM     75  C   UNL     1       4.088  13.477  12.346  1.00  0.00     0.057 A 
ATOM     76  C   UNL     1       4.303  14.236  13.510  1.00  0.00     0.134 A 
ATOM     77  C   UNL     1       2.985  13.859  11.566  1.00  0.00     0.134 A 
ATOM     78  F   UNL     1       5.345  13.972  14.313  1.00  0.00    -0.206 F 
ATOM     79  C   UNL     1       3.509  15.342  13.844  1.00  0.00     0.040 A 
ATOM     80  C   UNL     1       2.179  14.958  11.892  1.00  0.00     0.040 A 
ATOM     81  F   UNL     1       2.704  13.242  10.410  1.00  0.00    -0.206 F 
ATOM     82  C   UNL     1       2.452  15.718  13.023  1.00  0.00     0.006 A 
ENDBRANCH  54  75
BRANCH  66  83
ATOM     83  C   UNL     1       9.237   9.815  12.400  1.00  0.00     0.057 A 
ATOM     84  C   UNL     1       8.156   8.932  12.279  1.00  0.00     0.134 A 
ATOM     85  C   UNL     1      10.336   9.384  13.153  1.00  0.00     0.134 A 
ATOM     86  F   UNL     1       7.091   9.238  11.526  1.00  0.00    -0.206 F 
ATOM     87  C   UNL     1       8.180   7.667  12.877  1.00  0.00     0.040 A 
ATOM     88  C   UNL     1      10.387   8.113  13.721  1.00  0.00     0.040 A 
ATOM     89  F   UNL     1      11.418  10.170  13.275  1.00  0.00    -0.206 F 
ATOM     90  C   UNL     1       9.306   7.248  13.583  1.00  0.00     0.006 A 
ENDBRANCH  66  83
ENDBRANCH  40  41
ENDBRANCH  33  35
ENDBRANCH  32  33
ENDBRANCH  31  32
ENDBRANCH  30  31
ENDBRANCH  29  30
ENDBRANCH  28  29
ENDBRANCH   1  28
TORSDOF 19
