REMARK SMILES O=C(OCCOCCOCCOC(=O)c1ccc(-c2c3nc(c(-c4c(F)cccc4F)c4ccc([nH]4)c(-c4c(F)cccc4F)c4nc(c(-c5c(F)cccc5F)c5ccc2[nH]5)C=C4)C=C3)cc1)C1=Cc2cc(S(F)(F)(F)(F)F)cc(Br)c2O[C@H]1C(F)(F)F
REMARK SMILES IDX 8 1 7 2 6 3 5 4 4 5 3 6 2 7 1 8 69 9 70 10 85 11 71 12 84 13
REMARK SMILES IDX 72 14 83 15 73 16 81 17 80 18 82 19 86 20 87 21 88 22 89 23
REMARK SMILES IDX 74 24 75 25 76 26 77 27 78 28 79 29 9 30 10 31 11 32 12 33
REMARK SMILES IDX 13 34 14 35 15 36 16 37 68 38 17 39 67 40 18 41 19 42 20 43
REMARK SMILES IDX 61 44 21 45 66 46 60 47 62 48 22 49 65 50 59 51 58 52 23 54
REMARK SMILES IDX 49 55 32 56 48 57 33 58 36 59 47 60 63 61 34 62 35 63 46 65
REMARK SMILES IDX 64 66 37 67 24 68 25 69 30 70 26 71 27 72 29 73 31 74 28 75
REMARK SMILES IDX 50 76 51 77 56 78 52 79 53 80 55 81 57 82 54 83 38 84 39 85
REMARK SMILES IDX 44 86 40 87 41 88 43 89 45 90 42 91
REMARK H PARENT 62 53 36 64
REMARK Flexibility Score: inf
ROOT
ATOM      1  C   UNL     1       2.499  -0.580  -2.317  1.00  0.00     0.188 C 
ENDROOT
BRANCH   1   2
ATOM      2  C   UNL     1       3.006   0.471  -1.342  1.00  0.00     0.188 C 
BRANCH   2   3
ATOM      3  O   UNL     1       4.426   0.471  -1.342  1.00  0.00    -0.376 OA
BRANCH   3   4
ATOM      4  C   UNL     1       4.899  -0.808  -0.947  1.00  0.00     0.202 C 
BRANCH   4   5
ATOM      5  C   UNL     1       4.393  -1.127   0.450  1.00  0.00     0.261 C 
BRANCH   5   6
ATOM      6  O   UNL     1       2.973  -1.127   0.450  1.00  0.00    -0.460 OA
BRANCH   6   7
ATOM      7  C   UNL     1       2.263   0.048   0.087  1.00  0.00     0.338 C 
ATOM      8  O   UNL     1       0.992   0.048   0.087  1.00  0.00    -0.246 OA
BRANCH   7   9
ATOM      9  C   UNL     1       3.023   1.306  -0.301  1.00  0.00     0.087 C 
ATOM     10  C   UNL     1       4.383   1.306  -0.301  1.00  0.00     0.027 C 
ATOM     11  C   UNL     1       2.263   2.564  -0.690  1.00  0.00     0.316 C 
ATOM     12  C   UNL     1       5.143   0.048   0.087  1.00  0.00     0.020 A 
ATOM     13  O   UNL     1       3.571  -1.271  -1.112  1.00  0.00    -0.474 OA
ATOM     14  C   UNL     1       6.237   0.187   0.925  1.00  0.00     0.036 A 
ATOM     15  C   UNL     1       4.787  -1.139  -0.389  1.00  0.00     0.142 A 
ATOM     16  C   UNL     1       7.072  -0.955   0.972  1.00  0.00     0.109 A 
ATOM     17  C   UNL     1       5.583  -2.241  -0.189  1.00  0.00     0.062 A 
ATOM     18  C   UNL     1       6.711  -2.163   0.579  1.00  0.00     0.044 A 
ATOM     19  Br  UNL     1       5.094  -3.948  -1.018  1.00  0.00    -0.047 Br
BRANCH  11  20
ATOM     20  C   UNL     1       0.768   2.298  -0.608  1.00  0.00     0.430 C 
ATOM     21  F   UNL     1       0.228   3.275  -1.331  1.00  0.00    -0.167 F 
ATOM     22  F   UNL     1       0.404   1.122  -1.110  1.00  0.00    -0.167 F 
ATOM     23  F   UNL     1       0.347   2.393   0.650  1.00  0.00    -0.167 F 
ENDBRANCH  11  20
BRANCH  16  24
ATOM     24  S   UNL     1       8.750  -0.745   1.616  1.00  0.00     0.310 S 
ATOM     25  F   UNL     1       8.241  -0.775   3.118  1.00  0.00    -0.094 F 
ATOM     26  F   UNL     1       8.515   0.812   1.639  1.00  0.00    -0.094 F 
ATOM     27  F   UNL     1      10.191  -0.564   2.173  1.00  0.00    -0.094 F 
ATOM     28  F   UNL     1       8.916  -2.312   1.718  1.00  0.00    -0.094 F 
ATOM     29  F   UNL     1       7.251  -0.949   1.159  1.00  0.00    -0.094 F 
ENDBRANCH  16  24
ENDBRANCH   7   9
ENDBRANCH   6   7
ENDBRANCH   5   6
ENDBRANCH   4   5
ENDBRANCH   3   4
ENDBRANCH   2   3
ENDBRANCH   1   2
BRANCH   1  30
ATOM     30  O   UNL     1       2.973  -1.859  -1.921  1.00  0.00    -0.376 OA
BRANCH  30  31
ATOM     31  C   UNL     1       4.393  -1.859  -1.921  1.00  0.00     0.202 C 
BRANCH  31  32
ATOM     32  C   UNL     1       4.899  -1.541  -3.319  1.00  0.00     0.261 C 
BRANCH  32  33
ATOM     33  O   UNL     1       4.426  -0.262  -3.714  1.00  0.00    -0.460 OA
BRANCH  33  34
ATOM     34  C   UNL     1       3.030  -0.014  -3.790  1.00  0.00     0.338 C 
ATOM     35  O   UNL     1       2.204  -0.937  -3.505  1.00  0.00    -0.246 OA
BRANCH  34  36
ATOM     36  C   UNL     1       2.523   1.355  -4.213  1.00  0.00     0.060 A 
ATOM     37  C   UNL     1       1.513   1.902  -3.439  1.00  0.00     0.016 A 
ATOM     38  C   UNL     1       3.033   2.015  -5.247  1.00  0.00     0.016 A 
ATOM     39  C   UNL     1       0.903   3.042  -4.014  1.00  0.00     0.010 A 
ATOM     40  C   UNL     1       2.469   3.194  -5.671  1.00  0.00     0.010 A 
ATOM     41  C   UNL     1       1.429   3.762  -4.989  1.00  0.00    -0.014 A 
BRANCH  41  42
ATOM     42  C   UNL     1       0.907   5.147  -5.332  1.00  0.00     0.031 A 
ATOM     43  C   UNL     1       0.402   5.416  -6.605  1.00  0.00     0.074 A 
ATOM     44  C   UNL     1       1.012   6.092  -4.325  1.00  0.00     0.049 A 
ATOM     45  N   UNL     1      -0.086   6.571  -7.059  1.00  0.00    -0.248 NA
ATOM     46  C   UNL     1       0.322   4.423  -7.686  1.00  0.00     0.031 C 
ATOM     47  C   UNL     1       1.513   5.826  -3.036  1.00  0.00     0.029 A 
ATOM     48  N   UNL     1       0.663   7.423  -4.376  1.00  0.00    -0.354 N 
ATOM     49  C   UNL     1      -0.494   6.435  -8.323  1.00  0.00     0.074 A 
ATOM     50  C   UNL     1      -0.231   5.053  -8.746  1.00  0.00     0.031 C 
ATOM     51  C   UNL     1       1.478   6.983  -2.324  1.00  0.00     0.029 A 
ATOM     52  C   UNL     1       0.954   7.991  -3.155  1.00  0.00     0.049 A 
ATOM     53  H   UNL     1       0.274   7.889  -5.151  1.00  0.00     0.167 HD
ATOM     54  C   UNL     1      -1.075   7.408  -9.137  1.00  0.00     0.037 A 
ATOM     55  C   UNL     1       0.781   9.311  -2.770  1.00  0.00     0.037 A 
ATOM     56  C   UNL     1      -1.288   8.717  -8.738  1.00  0.00     0.049 A 
ATOM     57  C   UNL     1       0.253  10.299  -3.605  1.00  0.00     0.074 A 
ATOM     58  C   UNL     1      -1.880   9.709  -9.544  1.00  0.00     0.029 A 
ATOM     59  N   UNL     1      -0.975   9.291  -7.525  1.00  0.00    -0.354 N 
ATOM     60  N   UNL     1      -0.191  10.153  -4.854  1.00  0.00    -0.248 NA
ATOM     61  C   UNL     1       0.095  11.707  -3.219  1.00  0.00     0.031 C 
ATOM     62  C   UNL     1      -1.915  10.866  -8.831  1.00  0.00     0.029 A 
ATOM     63  C   UNL     1      -1.344  10.617  -7.568  1.00  0.00     0.049 A 
ATOM     64  H   UNL     1      -0.559   8.832  -6.760  1.00  0.00     0.167 HD
ATOM     65  C   UNL     1      -0.640  11.319  -5.322  1.00  0.00     0.074 A 
ATOM     66  C   UNL     1      -0.456  12.337  -4.279  1.00  0.00     0.031 C 
ATOM     67  C   UNL     1      -1.200  11.574  -6.575  1.00  0.00     0.037 A 
BRANCH  54  68
ATOM     68  C   UNL     1      -1.498   7.008 -10.542  1.00  0.00     0.057 A 
ATOM     69  C   UNL     1      -2.499   6.070 -10.732  1.00  0.00     0.134 A 
ATOM     70  C   UNL     1      -0.946   7.644 -11.568  1.00  0.00     0.134 A 
ATOM     71  F   UNL     1      -3.250   5.600  -9.740  1.00  0.00    -0.206 F 
ATOM     72  C   UNL     1      -2.651   5.658 -12.077  1.00  0.00     0.040 A 
ATOM     73  C   UNL     1      -1.243   7.278 -12.859  1.00  0.00     0.040 A 
ATOM     74  F   UNL     1      -0.097   8.643 -11.345  1.00  0.00    -0.206 F 
ATOM     75  C   UNL     1      -2.180   6.317 -13.120  1.00  0.00     0.006 A 
ENDBRANCH  54  68
BRANCH  55  76
ATOM     76  C   UNL     1       1.188   9.706  -1.360  1.00  0.00     0.057 A 
ATOM     77  C   UNL     1       0.267  10.311  -0.522  1.00  0.00     0.134 A 
ATOM     78  C   UNL     1       2.453   9.543  -0.990  1.00  0.00     0.134 A 
ATOM     79  F   UNL     1      -1.045  10.271  -0.737  1.00  0.00    -0.206 F 
ATOM     80  C   UNL     1       0.848  10.976   0.584  1.00  0.00     0.040 A 
ATOM     81  C   UNL     1       2.920  10.106   0.173  1.00  0.00     0.040 A 
ATOM     82  F   UNL     1       3.275   8.826  -1.752  1.00  0.00    -0.206 F 
ATOM     83  C   UNL     1       2.077  10.770   1.021  1.00  0.00     0.006 A 
ENDBRANCH  55  76
BRANCH  67  84
ATOM     84  C   UNL     1      -1.680  12.986  -6.869  1.00  0.00     0.057 A 
ATOM     85  C   UNL     1      -0.747  14.008  -6.821  1.00  0.00     0.134 A 
ATOM     86  C   UNL     1      -2.951  13.226  -7.170  1.00  0.00     0.134 A 
ATOM     87  F   UNL     1       0.565  13.791  -6.776  1.00  0.00    -0.206 F 
ATOM     88  C   UNL     1      -1.315  15.304  -6.824  1.00  0.00     0.040 A 
ATOM     89  C   UNL     1      -3.409  14.516  -7.291  1.00  0.00     0.040 A 
ATOM     90  F   UNL     1      -3.788  12.210  -7.355  1.00  0.00    -0.206 F 
ATOM     91  C   UNL     1      -2.552  15.578  -7.196  1.00  0.00     0.006 A 
ENDBRANCH  67  84
ENDBRANCH  41  42
ENDBRANCH  34  36
ENDBRANCH  33  34
ENDBRANCH  32  33
ENDBRANCH  31  32
ENDBRANCH  30  31
ENDBRANCH   1  30
TORSDOF 19
