REMARK SMILES O=C(OCCOCCOCCOC(=O)c1csc(C[NH2+][C@H]2CCSc3ccc(F)cc32)c1)c1ccc(-c2c3nc(c(-c4c(F)cccc4F)c4ccc([nH]4)c(-c4c(F)cccc4F)c4nc(c(-c5c(F)cccc5F)c5ccc2[nH]5)C=C4)C=C3)cc1
REMARK SMILES IDX 8 1 7 2 6 3 5 4 4 5 3 6 2 7 1 8 33 9 34 10 86 11 35 12 85 13
REMARK SMILES IDX 36 14 37 15 38 16 79 17 39 18 84 19 78 20 80 21 40 22 83 23
REMARK SMILES IDX 77 24 76 25 41 27 67 28 50 29 66 30 51 31 54 32 65 33 81 34
REMARK SMILES IDX 52 35 53 36 64 38 82 39 55 40 42 41 43 42 48 43 44 44 45 45
REMARK SMILES IDX 47 46 49 47 46 48 68 49 69 50 74 51 70 52 71 53 73 54 75 55
REMARK SMILES IDX 72 56 56 57 57 58 62 59 58 60 59 61 61 62 63 63 60 64 9 65
REMARK SMILES IDX 10 66 11 67 12 68 13 69 14 70 15 71 16 72 32 73 17 74 18 75
REMARK SMILES IDX 19 76 20 77 21 80 22 81 31 82 23 83 25 84 30 85 24 86 26 87
REMARK SMILES IDX 28 88 27 89 29 90
REMARK H PARENT 80 26 54 37 20 78 20 79
REMARK Flexibility Score: inf
ROOT
ATOM      1  C   UNL     1      -0.377  -1.108 -14.106  1.00  0.00     0.188 C 
ENDROOT
BRANCH   1   2
ATOM      2  C   UNL     1      -1.898  -0.937 -14.176  1.00  0.00     0.188 C 
BRANCH   2   3
ATOM      3  O   UNL     1      -2.562  -2.204 -14.314  1.00  0.00    -0.376 OA
BRANCH   3   4
ATOM      4  C   UNL     1      -3.728  -2.144 -15.144  1.00  0.00     0.202 C 
BRANCH   4   5
ATOM      5  C   UNL     1      -5.022  -1.803 -14.398  1.00  0.00     0.261 C 
BRANCH   5   6
ATOM      6  O   UNL     1      -4.808  -0.898 -13.306  1.00  0.00    -0.460 OA
BRANCH   6   7
ATOM      7  C   UNL     1      -4.522  -1.174 -12.011  1.00  0.00     0.338 C 
ATOM      8  O   UNL     1      -4.440  -0.220 -11.235  1.00  0.00    -0.246 OA
BRANCH   7   9
ATOM      9  C   UNL     1      -4.286  -2.545 -11.438  1.00  0.00     0.060 A 
ATOM     10  C   UNL     1      -4.178  -2.625 -10.033  1.00  0.00     0.016 A 
ATOM     11  C   UNL     1      -4.144  -3.735 -12.155  1.00  0.00     0.016 A 
ATOM     12  C   UNL     1      -3.975  -3.846  -9.378  1.00  0.00     0.010 A 
ATOM     13  C   UNL     1      -3.968  -4.960 -11.509  1.00  0.00     0.010 A 
ATOM     14  C   UNL     1      -3.885  -5.026 -10.118  1.00  0.00    -0.014 A 
BRANCH  14  15
ATOM     15  C   UNL     1      -3.852  -6.356  -9.477  1.00  0.00     0.031 A 
ATOM     16  C   UNL     1      -2.628  -7.216  -9.513  1.00  0.00     0.074 A 
ATOM     17  C   UNL     1      -5.015  -6.856  -9.025  1.00  0.00     0.049 A 
ATOM     18  N   UNL     1      -2.438  -8.406  -9.003  1.00  0.00    -0.248 NA
ATOM     19  C   UNL     1      -1.472  -6.684 -10.243  1.00  0.00     0.031 C 
ATOM     20  C   UNL     1      -6.302  -6.161  -9.067  1.00  0.00     0.029 A 
ATOM     21  N   UNL     1      -5.312  -8.090  -8.515  1.00  0.00    -0.354 N 
ATOM     22  C   UNL     1      -1.118  -8.728  -9.284  1.00  0.00     0.074 A 
ATOM     23  C   UNL     1      -0.585  -7.657 -10.095  1.00  0.00     0.031 C 
ATOM     24  C   UNL     1      -7.263  -7.001  -8.655  1.00  0.00     0.029 A 
ATOM     25  C   UNL     1      -6.655  -8.284  -8.321  1.00  0.00     0.049 A 
ATOM     26  H   UNL     1      -4.631  -8.770  -8.309  1.00  0.00     0.167 HD
ATOM     27  C   UNL     1      -0.409  -9.809  -8.880  1.00  0.00     0.037 A 
ATOM     28  C   UNL     1      -7.324  -9.385  -7.936  1.00  0.00     0.037 A 
ATOM     29  C   UNL     1      -0.984 -10.919  -8.170  1.00  0.00     0.049 A 
ATOM     30  C   UNL     1      -6.553 -10.619  -7.580  1.00  0.00     0.074 A 
ATOM     31  C   UNL     1      -0.360 -12.033  -7.639  1.00  0.00     0.029 A 
ATOM     32  N   UNL     1      -2.344 -11.075  -7.946  1.00  0.00    -0.354 N 
ATOM     33  N   UNL     1      -5.261 -10.830  -7.646  1.00  0.00    -0.248 NA
ATOM     34  C   UNL     1      -7.328 -11.758  -7.075  1.00  0.00     0.031 C 
ATOM     35  C   UNL     1      -1.353 -12.896  -7.156  1.00  0.00     0.029 A 
ATOM     36  C   UNL     1      -2.590 -12.300  -7.353  1.00  0.00     0.049 A 
ATOM     37  H   UNL     1      -3.033 -10.410  -8.175  1.00  0.00     0.167 HD
ATOM     38  C   UNL     1      -5.061 -12.119  -7.175  1.00  0.00     0.074 A 
ATOM     39  C   UNL     1      -6.369 -12.638  -6.819  1.00  0.00     0.031 C 
ATOM     40  C   UNL     1      -3.901 -12.809  -7.040  1.00  0.00     0.037 A 
BRANCH  27  41
ATOM     41  C   UNL     1       1.057  -9.819  -9.191  1.00  0.00     0.057 A 
ATOM     42  C   UNL     1       1.595 -10.680 -10.154  1.00  0.00     0.134 A 
ATOM     43  C   UNL     1       1.945  -8.969  -8.516  1.00  0.00     0.134 A 
ATOM     44  F   UNL     1       0.804 -11.523 -10.834  1.00  0.00    -0.206 F 
ATOM     45  C   UNL     1       2.962 -10.687 -10.442  1.00  0.00     0.040 A 
ATOM     46  C   UNL     1       3.310  -8.953  -8.809  1.00  0.00     0.040 A 
ATOM     47  F   UNL     1       1.494  -8.123  -7.577  1.00  0.00    -0.206 F 
ATOM     48  C   UNL     1       3.822  -9.816  -9.775  1.00  0.00     0.006 A 
ENDBRANCH  27  41
BRANCH  28  49
ATOM     49  C   UNL     1      -8.800  -9.332  -7.860  1.00  0.00     0.057 A 
ATOM     50  C   UNL     1      -9.586  -9.324  -9.020  1.00  0.00     0.134 A 
ATOM     51  C   UNL     1      -9.453  -9.208  -6.631  1.00  0.00     0.134 A 
ATOM     52  F   UNL     1      -9.012  -9.420 -10.228  1.00  0.00    -0.206 F 
ATOM     53  C   UNL     1     -10.972  -9.178  -8.959  1.00  0.00     0.040 A 
ATOM     54  C   UNL     1     -10.840  -9.078  -6.555  1.00  0.00     0.040 A 
ATOM     55  F   UNL     1      -8.749  -9.214  -5.490  1.00  0.00    -0.206 F 
ATOM     56  C   UNL     1     -11.602  -9.055  -7.722  1.00  0.00     0.006 A 
ENDBRANCH  28  49
BRANCH  40  57
ATOM     57  C   UNL     1      -4.006 -14.205  -6.511  1.00  0.00     0.057 A 
ATOM     58  C   UNL     1      -3.606 -14.511  -5.205  1.00  0.00     0.134 A 
ATOM     59  C   UNL     1      -4.487 -15.251  -7.308  1.00  0.00     0.134 A 
ATOM     60  F   UNL     1      -3.133 -13.553  -4.394  1.00  0.00    -0.206 F 
ATOM     61  C   UNL     1      -3.678 -15.813  -4.710  1.00  0.00     0.040 A 
ATOM     62  C   UNL     1      -4.584 -16.553  -6.817  1.00  0.00     0.040 A 
ATOM     63  F   UNL     1      -4.901 -15.016  -8.562  1.00  0.00    -0.206 F 
ATOM     64  C   UNL     1      -4.173 -16.838  -5.515  1.00  0.00     0.006 A 
ENDBRANCH  40  57
ENDBRANCH  14  15
ENDBRANCH   7   9
ENDBRANCH   6   7
ENDBRANCH   5   6
ENDBRANCH   4   5
ENDBRANCH   3   4
ENDBRANCH   2   3
ENDBRANCH   1   2
BRANCH   1  65
ATOM     65  O   UNL     1       0.265  -1.469 -15.334  1.00  0.00    -0.376 OA
BRANCH  65  66
ATOM     66  C   UNL     1      -0.190  -2.657 -15.971  1.00  0.00     0.202 C 
BRANCH  66  67
ATOM     67  C   UNL     1       0.236  -3.985 -15.333  1.00  0.00     0.261 C 
BRANCH  67  68
ATOM     68  O   UNL     1       0.205  -3.988 -13.895  1.00  0.00    -0.460 OA
BRANCH  68  69
ATOM     69  C   UNL     1       1.353  -4.429 -13.300  1.00  0.00     0.339 C 
ATOM     70  O   UNL     1       2.335  -4.832 -13.913  1.00  0.00    -0.246 OA
BRANCH  69  71
ATOM     71  C   UNL     1       1.315  -4.425 -11.835  1.00  0.00     0.071 A 
ATOM     72  C   UNL     1       2.202  -5.210 -11.119  1.00  0.00     0.081 A 
ATOM     73  C   UNL     1       0.486  -3.666 -10.932  1.00  0.00     0.037 A 
ATOM     74  S   UNL     1       2.067  -5.025  -9.434  1.00  0.00    -0.142 S 
ATOM     75  C   UNL     1       0.831  -3.849  -9.599  1.00  0.00     0.060 A 
BRANCH  75  76
ATOM     76  C   UNL     1       0.374  -3.107  -8.374  1.00  0.00     0.308 C 
BRANCH  76  77
ATOM     77  N   UNL     1      -0.696  -3.788  -7.641  1.00  0.00    -0.336 N 
ATOM     78  H   UNL     1      -0.490  -4.786  -7.621  1.00  0.00     0.347 HD
ATOM     79  H   UNL     1      -1.570  -3.586  -8.127  1.00  0.00     0.347 HD
BRANCH  77  80
ATOM     80  C   UNL     1      -0.848  -3.308  -6.242  1.00  0.00     0.215 C 
ATOM     81  C   UNL     1      -0.845  -1.766  -6.162  1.00  0.00     0.081 C 
ATOM     82  C   UNL     1      -2.046  -3.966  -5.550  1.00  0.00     0.026 A 
ATOM     83  C   UNL     1      -1.093  -1.257  -4.757  1.00  0.00     0.081 C 
ATOM     84  C   UNL     1      -2.939  -3.269  -4.707  1.00  0.00     0.017 A 
ATOM     85  C   UNL     1      -2.222  -5.362  -5.677  1.00  0.00     0.050 A 
ATOM     86  S   UNL     1      -2.823  -1.527  -4.338  1.00  0.00    -0.125 SA
ATOM     87  C   UNL     1      -3.996  -3.946  -4.071  1.00  0.00     0.018 A 
ATOM     88  C   UNL     1      -3.264  -6.016  -5.022  1.00  0.00     0.123 A 
ATOM     89  C   UNL     1      -4.158  -5.319  -4.227  1.00  0.00     0.040 A 
ATOM     90  F   UNL     1      -3.395  -7.343  -5.144  1.00  0.00    -0.207 F 
ENDBRANCH  77  80
ENDBRANCH  76  77
ENDBRANCH  75  76
ENDBRANCH  69  71
ENDBRANCH  68  69
ENDBRANCH  67  68
ENDBRANCH  66  67
ENDBRANCH  65  66
ENDBRANCH   1  65
TORSDOF 20
