REMARK SMILES CCCc1nnc(SCC(=O)OCCOCCOCCOC(=O)c2ccc(-c3c4nc(c(-c5c(F)cccc5F)c5ccc([nH]5)c(-c5c(F)cccc5F)c5nc(c(-c6c(F)cccc6F)c6ccc3[nH]6)C=C5)C=C4)cc2)n1C[C@H]1CCCO1
REMARK SMILES IDX 16 1 15 2 14 3 13 4 12 5 10 6 11 7 9 8 8 9 7 10 4 11 5 12
REMARK SMILES IDX 78 13 6 14 3 15 2 16 1 17 79 18 80 19 81 20 84 21 82 22
REMARK SMILES IDX 83 23 17 24 18 25 19 26 20 27 21 28 22 29 23 30 24 31 25 32
REMARK SMILES IDX 77 33 26 34 76 35 27 36 28 37 29 38 70 39 30 40 75 41 69 42
REMARK SMILES IDX 71 43 31 44 74 45 68 46 67 47 32 49 58 50 41 51 57 52 42 53
REMARK SMILES IDX 45 54 56 55 72 56 43 57 44 58 55 60 73 61 46 62 33 63 34 64
REMARK SMILES IDX 39 65 35 66 36 67 38 68 40 69 37 70 59 71 60 72 65 73 61 74
REMARK SMILES IDX 62 75 64 76 66 77 63 78 47 79 48 80 53 81 49 82 50 83 52 84
REMARK SMILES IDX 54 85 51 86
REMARK H PARENT 71 48 45 59
REMARK Flexibility Score: inf
ROOT
ATOM      1  C   UNL     1       4.647   8.449   0.058  1.00  0.00     0.188 C 
ENDROOT
BRANCH   1   2
ATOM      2  O   UNL     1       5.997   8.820   0.279  1.00  0.00    -0.376 OA
BRANCH   2   3
ATOM      3  C   UNL     1       6.599   9.719  -0.653  1.00  0.00     0.202 C 
BRANCH   3   4
ATOM      4  C   UNL     1       6.476   9.374  -2.151  1.00  0.00     0.261 C 
BRANCH   4   5
ATOM      5  O   UNL     1       5.127   9.439  -2.688  1.00  0.00    -0.463 OA
BRANCH   5   6
ATOM      6  C   UNL     1       4.731   8.418  -3.490  1.00  0.00     0.316 C 
ATOM      7  O   UNL     1       5.488   7.513  -3.843  1.00  0.00    -0.251 OA
BRANCH   6   8
ATOM      8  C   UNL     1       3.247   8.321  -3.824  1.00  0.00     0.200 C 
BRANCH   8   9
ATOM      9  S   UNL     1       2.142   9.686  -3.499  1.00  0.00    -0.074 SA
BRANCH   9  10
ATOM     10  C   UNL     1       0.657   9.056  -2.804  1.00  0.00     0.191 A 
ATOM     11  C   UNL     1      -0.671   8.703  -1.095  1.00  0.00     0.133 A 
ATOM     12  N   UNL     1      -1.332   9.418  -1.981  1.00  0.00    -0.134 NA
ATOM     13  N   UNL     1       0.476   8.214  -1.720  1.00  0.00    -0.303 N 
ATOM     14  N   UNL     1      -0.495   9.648  -3.045  1.00  0.00    -0.123 NA
BRANCH  11  15
ATOM     15  C   UNL     1      -1.069   8.522   0.344  1.00  0.00     0.077 C 
BRANCH  15  16
ATOM     16  C   UNL     1      -1.403   9.842   1.071  1.00  0.00     0.005 C 
ATOM     17  C   UNL     1      -2.852   9.952   1.525  1.00  0.00     0.004 C 
ENDBRANCH  15  16
ENDBRANCH  11  15
BRANCH  13  18
ATOM     18  C   UNL     1       1.318   7.150  -1.236  1.00  0.00     0.158 C 
BRANCH  18  19
ATOM     19  C   UNL     1       1.171   5.720  -1.800  1.00  0.00     0.138 C 
ATOM     20  C   UNL     1       1.085   5.497  -3.303  1.00  0.00     0.036 C 
ATOM     21  O   UNL     1       2.340   5.001  -1.342  1.00  0.00    -0.376 OA
ATOM     22  C   UNL     1       2.405   4.888  -3.717  1.00  0.00     0.031 C 
ATOM     23  C   UNL     1       2.996   4.354  -2.437  1.00  0.00     0.160 C 
ENDBRANCH  18  19
ENDBRANCH  13  18
ENDBRANCH   9  10
ENDBRANCH   8   9
ENDBRANCH   6   8
ENDBRANCH   5   6
ENDBRANCH   4   5
ENDBRANCH   3   4
ENDBRANCH   2   3
ENDBRANCH   1   2
BRANCH   1  24
ATOM     24  C   UNL     1       3.648   9.553  -0.318  1.00  0.00     0.188 C 
BRANCH  24  25
ATOM     25  O   UNL     1       4.156  10.870  -0.321  1.00  0.00    -0.376 OA
BRANCH  25  26
ATOM     26  C   UNL     1       3.466  11.812   0.475  1.00  0.00     0.202 C 
BRANCH  26  27
ATOM     27  C   UNL     1       3.782  11.680   1.966  1.00  0.00     0.261 C 
BRANCH  27  28
ATOM     28  O   UNL     1       3.801  10.338   2.465  1.00  0.00    -0.460 OA
BRANCH  28  29
ATOM     29  C   UNL     1       2.597   9.754   2.456  1.00  0.00     0.338 C 
ATOM     30  O   UNL     1       1.571  10.207   1.940  1.00  0.00    -0.246 OA
BRANCH  29  31
ATOM     31  C   UNL     1       2.629   8.513   3.274  1.00  0.00     0.060 A 
ATOM     32  C   UNL     1       1.574   7.664   2.918  1.00  0.00     0.016 A 
ATOM     33  C   UNL     1       2.734   8.952   4.592  1.00  0.00     0.016 A 
ATOM     34  C   UNL     1       0.378   7.826   3.587  1.00  0.00     0.010 A 
ATOM     35  C   UNL     1       1.549   9.154   5.262  1.00  0.00     0.010 A 
ATOM     36  C   UNL     1       0.356   8.685   4.687  1.00  0.00    -0.014 A 
BRANCH  36  37
ATOM     37  C   UNL     1      -0.892   8.872   5.417  1.00  0.00     0.031 A 
ATOM     38  C   UNL     1      -1.326   7.611   6.103  1.00  0.00     0.074 A 
ATOM     39  C   UNL     1      -1.339  10.135   5.607  1.00  0.00     0.049 A 
ATOM     40  N   UNL     1      -2.511   7.198   6.417  1.00  0.00    -0.248 NA
ATOM     41  C   UNL     1      -0.265   6.608   6.389  1.00  0.00     0.031 C 
ATOM     42  C   UNL     1      -0.752  11.362   5.041  1.00  0.00     0.029 A 
ATOM     43  N   UNL     1      -2.268  10.632   6.474  1.00  0.00    -0.354 N 
ATOM     44  C   UNL     1      -2.305   6.008   7.119  1.00  0.00     0.074 A 
ATOM     45  C   UNL     1      -0.951   5.598   6.904  1.00  0.00     0.031 C 
ATOM     46  C   UNL     1      -1.138  12.423   5.780  1.00  0.00     0.029 A 
ATOM     47  C   UNL     1      -2.025  11.959   6.830  1.00  0.00     0.049 A 
ATOM     48  H   UNL     1      -3.030  10.109   6.813  1.00  0.00     0.167 HD
ATOM     49  C   UNL     1      -3.142   5.605   8.105  1.00  0.00     0.037 A 
ATOM     50  C   UNL     1      -2.390  12.588   7.979  1.00  0.00     0.037 A 
ATOM     51  C   UNL     1      -4.480   6.059   7.884  1.00  0.00     0.049 A 
ATOM     52  C   UNL     1      -3.358  11.712   8.683  1.00  0.00     0.074 A 
ATOM     53  C   UNL     1      -5.400   5.855   6.876  1.00  0.00     0.029 A 
ATOM     54  N   UNL     1      -4.930   7.134   8.604  1.00  0.00    -0.354 N 
ATOM     55  N   UNL     1      -4.574  11.475   8.282  1.00  0.00    -0.248 NA
ATOM     56  C   UNL     1      -2.816  10.747   9.630  1.00  0.00     0.031 C 
ATOM     57  C   UNL     1      -6.115   7.079   6.770  1.00  0.00     0.029 A 
ATOM     58  C   UNL     1      -5.621   7.947   7.744  1.00  0.00     0.049 A 
ATOM     59  H   UNL     1      -4.784   7.293   9.565  1.00  0.00     0.167 HD
ATOM     60  C   UNL     1      -4.792  10.138   8.583  1.00  0.00     0.074 A 
ATOM     61  C   UNL     1      -3.713   9.768   9.493  1.00  0.00     0.031 C 
ATOM     62  C   UNL     1      -5.661   9.387   7.848  1.00  0.00     0.037 A 
BRANCH  49  63
ATOM     63  C   UNL     1      -2.615   5.128   9.433  1.00  0.00     0.057 A 
ATOM     64  C   UNL     1      -3.481   4.501  10.338  1.00  0.00     0.134 A 
ATOM     65  C   UNL     1      -1.353   5.492   9.959  1.00  0.00     0.134 A 
ATOM     66  F   UNL     1      -4.719   4.144   9.966  1.00  0.00    -0.206 F 
ATOM     67  C   UNL     1      -3.129   4.285  11.676  1.00  0.00     0.040 A 
ATOM     68  C   UNL     1      -0.971   5.230  11.275  1.00  0.00     0.040 A 
ATOM     69  F   UNL     1      -0.460   6.206   9.261  1.00  0.00    -0.206 F 
ATOM     70  C   UNL     1      -1.872   4.648  12.148  1.00  0.00     0.006 A 
ENDBRANCH  49  63
BRANCH  50  71
ATOM     71  C   UNL     1      -1.705  13.710   8.676  1.00  0.00     0.057 A 
ATOM     72  C   UNL     1      -2.365  14.477   9.649  1.00  0.00     0.134 A 
ATOM     73  C   UNL     1      -0.317  13.926   8.574  1.00  0.00     0.134 A 
ATOM     74  F   UNL     1      -3.676  14.310   9.872  1.00  0.00    -0.206 F 
ATOM     75  C   UNL     1      -1.689  15.402  10.461  1.00  0.00     0.040 A 
ATOM     76  C   UNL     1       0.365  14.858   9.363  1.00  0.00     0.040 A 
ATOM     77  F   UNL     1       0.446  13.178   7.765  1.00  0.00    -0.206 F 
ATOM     78  C   UNL     1      -0.319  15.595  10.319  1.00  0.00     0.006 A 
ENDBRANCH  50  71
BRANCH  62  79
ATOM     79  C   UNL     1      -6.553  10.108   6.876  1.00  0.00     0.057 A 
ATOM     80  C   UNL     1      -6.080  10.817   5.761  1.00  0.00     0.134 A 
ATOM     81  C   UNL     1      -7.938   9.947   6.983  1.00  0.00     0.134 A 
ATOM     82  F   UNL     1      -4.768  10.931   5.519  1.00  0.00    -0.206 F 
ATOM     83  C   UNL     1      -6.947  11.379   4.822  1.00  0.00     0.040 A 
ATOM     84  C   UNL     1      -8.814  10.471   6.031  1.00  0.00     0.040 A 
ATOM     85  F   UNL     1      -8.460   9.228   7.989  1.00  0.00    -0.206 F 
ATOM     86  C   UNL     1      -8.320  11.200   4.951  1.00  0.00     0.006 A 
ENDBRANCH  62  79
ENDBRANCH  36  37
ENDBRANCH  29  31
ENDBRANCH  28  29
ENDBRANCH  27  28
ENDBRANCH  26  27
ENDBRANCH  25  26
ENDBRANCH  24  25
ENDBRANCH   1  24
TORSDOF 23
