REMARK SMILES Cc1ccc(-c2cn3c(n2)sc2cc(C(=O)OCCOCCOCCOC(=O)c4ccc(-c5c6nc(c(-c7c(F)cccc7F)c7ccc([nH]7)c(-c7c(F)cccc7F)c7nc(c(-c8c(F)cccc8F)c8ccc5[nH]8)C=C7)C=C6)cc4)ccc23)cc1
REMARK SMILES IDX 22 1 21 2 20 3 19 4 18 5 17 6 15 7 16 8 14 9 6 10 7 11 10 12
REMARK SMILES IDX 8 13 9 14 85 15 11 16 12 17 84 18 13 19 83 20 5 21 1 22 2 23
REMARK SMILES IDX 3 24 87 25 4 26 86 27 23 28 24 29 25 30 26 31 27 32 28 33
REMARK SMILES IDX 29 34 30 35 82 36 31 37 81 38 32 39 33 40 34 41 75 42 35 43
REMARK SMILES IDX 80 44 74 45 76 46 36 47 79 48 73 49 72 50 37 52 63 53 46 54
REMARK SMILES IDX 62 55 47 56 50 57 61 58 77 59 48 60 49 61 60 63 78 64 51 65
REMARK SMILES IDX 38 66 39 67 44 68 40 69 41 70 43 71 45 72 42 73 64 74 65 75
REMARK SMILES IDX 70 76 66 77 67 78 69 79 71 80 68 81 52 82 53 83 58 84 54 85
REMARK SMILES IDX 55 86 57 87 59 88 56 89
REMARK H PARENT 76 51 50 62
REMARK Flexibility Score: inf
ROOT
ATOM      1  C   UNL     1      -6.906   2.325   9.701  1.00  0.00     0.188 C 
ENDROOT
BRANCH   1   2
ATOM      2  C   UNL     1      -5.508   1.896   9.322  1.00  0.00     0.188 C 
BRANCH   2   3
ATOM      3  O   UNL     1      -4.987   2.984   8.553  1.00  0.00    -0.376 OA
BRANCH   3   4
ATOM      4  C   UNL     1      -4.623   2.849   7.168  1.00  0.00     0.202 C 
BRANCH   4   5
ATOM      5  C   UNL     1      -5.608   3.057   5.798  1.00  0.00     0.261 C 
BRANCH   5   6
ATOM      6  O   UNL     1      -6.067   2.099   4.550  1.00  0.00    -0.460 OA
BRANCH   6   7
ATOM      7  C   UNL     1      -5.906   0.807   4.105  1.00  0.00     0.338 C 
ATOM      8  O   UNL     1      -5.128  -0.008   4.561  1.00  0.00    -0.246 OA
BRANCH   7   9
ATOM      9  C   UNL     1      -6.634   0.140   2.997  1.00  0.00     0.061 A 
ATOM     10  C   UNL     1      -3.509  -1.043  -1.215  1.00  0.00     0.090 A 
ATOM     11  C   UNL     1      -4.386  -1.946  -0.624  1.00  0.00     0.123 A 
ATOM     12  N   UNL     1      -4.195   0.047  -1.735  1.00  0.00    -0.219 NA
ATOM     13  N   UNL     1      -5.542  -1.215  -0.501  1.00  0.00    -0.290 N 
ATOM     14  C   UNL     1      -5.409  -0.093  -1.272  1.00  0.00     0.195 A 
ATOM     15  C   UNL     1      -6.431  -1.104   0.583  1.00  0.00     0.065 A 
ATOM     16  S   UNL     1      -6.571   1.144  -0.874  1.00  0.00    -0.096 S 
ATOM     17  C   UNL     1      -6.870   0.242   0.661  1.00  0.00     0.056 A 
ATOM     18  C   UNL     1      -6.378  -1.946   1.671  1.00  0.00     0.029 A 
ATOM     19  C   UNL     1      -6.974   0.886   1.887  1.00  0.00     0.037 A 
ATOM     20  C   UNL     1      -6.479  -1.303   2.900  1.00  0.00     0.018 A 
BRANCH  10  21
ATOM     21  C   UNL     1      -2.052  -1.057  -1.120  1.00  0.00     0.002 A 
ATOM     22  C   UNL     1       2.215  -0.653  -0.500  1.00  0.00     0.044 C 
ATOM     23  C   UNL     1       0.740  -0.804  -0.726  1.00  0.00    -0.051 A 
ATOM     24  C   UNL     1       0.029  -1.853  -0.133  1.00  0.00     0.004 A 
ATOM     25  C   UNL     1       0.055   0.097  -1.545  1.00  0.00     0.004 A 
ATOM     26  C   UNL     1      -1.354  -1.975  -0.322  1.00  0.00     0.010 A 
ATOM     27  C   UNL     1      -1.326  -0.023  -1.728  1.00  0.00     0.010 A 
ENDBRANCH  10  21
ENDBRANCH   7   9
ENDBRANCH   6   7
ENDBRANCH   5   6
ENDBRANCH   4   5
ENDBRANCH   3   4
ENDBRANCH   2   3
ENDBRANCH   1   2
BRANCH   1  28
ATOM     28  O   UNL     1      -7.506   2.740   8.476  1.00  0.00    -0.376 OA
BRANCH  28  29
ATOM     29  C   UNL     1      -8.732   3.421   8.623  1.00  0.00     0.202 C 
BRANCH  29  30
ATOM     30  C   UNL     1      -9.853   2.448   9.004  1.00  0.00     0.261 C 
BRANCH  30  31
ATOM     31  O   UNL     1      -9.839   1.311   8.101  1.00  0.00    -0.460 OA
BRANCH  31  32
ATOM     32  C   UNL     1      -9.484   0.083   8.631  1.00  0.00     0.338 C 
ATOM     33  O   UNL     1      -9.838  -0.342   9.686  1.00  0.00    -0.246 OA
BRANCH  32  34
ATOM     34  C   UNL     1      -8.350  -0.506   7.809  1.00  0.00     0.060 A 
ATOM     35  C   UNL     1      -7.538  -1.566   8.245  1.00  0.00     0.016 A 
ATOM     36  C   UNL     1      -7.826   0.273   6.828  1.00  0.00     0.016 A 
ATOM     37  C   UNL     1      -6.151  -1.692   7.824  1.00  0.00     0.010 A 
ATOM     38  C   UNL     1      -6.437   0.232   6.704  1.00  0.00     0.010 A 
ATOM     39  C   UNL     1      -5.497  -0.708   7.093  1.00  0.00    -0.014 A 
BRANCH  39  40
ATOM     40  C   UNL     1      -3.952  -0.404   6.936  1.00  0.00     0.031 A 
ATOM     41  C   UNL     1      -3.110  -0.008   5.656  1.00  0.00     0.074 A 
ATOM     42  C   UNL     1      -3.168  -0.455   8.030  1.00  0.00     0.049 A 
ATOM     43  N   UNL     1      -2.366  -0.798   4.913  1.00  0.00    -0.248 NA
ATOM     44  C   UNL     1      -3.042   1.374   5.110  1.00  0.00     0.031 C 
ATOM     45  C   UNL     1      -1.720  -0.268   8.080  1.00  0.00     0.029 A 
ATOM     46  N   UNL     1      -3.500  -0.973   9.280  1.00  0.00    -0.354 N 
ATOM     47  C   UNL     1      -1.800   0.001   3.898  1.00  0.00     0.074 A 
ATOM     48  C   UNL     1      -2.478   1.251   3.920  1.00  0.00     0.031 C 
ATOM     49  C   UNL     1      -1.255  -1.024   9.089  1.00  0.00     0.029 A 
ATOM     50  C   UNL     1      -2.389  -1.747   9.652  1.00  0.00     0.049 A 
ATOM     51  H   UNL     1      -4.330  -0.828   9.790  1.00  0.00     0.167 HD
ATOM     52  C   UNL     1      -0.537  -0.094   3.380  1.00  0.00     0.037 A 
ATOM     53  C   UNL     1      -2.520  -3.096   9.778  1.00  0.00     0.037 A 
ATOM     54  C   UNL     1       0.268  -0.904   4.257  1.00  0.00     0.049 A 
ATOM     55  C   UNL     1      -1.604  -3.850   8.843  1.00  0.00     0.074 A 
ATOM     56  C   UNL     1       1.097  -0.534   5.303  1.00  0.00     0.029 A 
ATOM     57  N   UNL     1      -0.018  -2.244   4.416  1.00  0.00    -0.354 N 
ATOM     58  N   UNL     1      -1.043  -3.334   7.782  1.00  0.00    -0.248 NA
ATOM     59  C   UNL     1      -1.258  -5.254   9.034  1.00  0.00     0.031 C 
ATOM     60  C   UNL     1       1.240  -1.651   6.152  1.00  0.00     0.029 A 
ATOM     61  C   UNL     1       0.532  -2.700   5.595  1.00  0.00     0.049 A 
ATOM     62  H   UNL     1      -0.537  -2.792   3.784  1.00  0.00     0.167 HD
ATOM     63  C   UNL     1      -0.309  -4.303   7.147  1.00  0.00     0.074 A 
ATOM     64  C   UNL     1      -0.457  -5.479   7.980  1.00  0.00     0.031 C 
ATOM     65  C   UNL     1       0.363  -4.081   5.981  1.00  0.00     0.037 A 
BRANCH  52  66
ATOM     66  C   UNL     1       0.010   0.974   2.425  1.00  0.00     0.057 A 
ATOM     67  C   UNL     1       1.328   1.456   2.485  1.00  0.00     0.134 A 
ATOM     68  C   UNL     1      -0.786   1.595   1.435  1.00  0.00     0.134 A 
ATOM     69  F   UNL     1       2.244   0.899   3.287  1.00  0.00    -0.206 F 
ATOM     70  C   UNL     1       1.778   2.548   1.722  1.00  0.00     0.040 A 
ATOM     71  C   UNL     1      -0.361   2.708   0.688  1.00  0.00     0.040 A 
ATOM     72  F   UNL     1      -2.038   1.170   1.196  1.00  0.00    -0.206 F 
ATOM     73  C   UNL     1       0.926   3.200   0.842  1.00  0.00     0.006 A 
ENDBRANCH  52  66
BRANCH  53  74
ATOM     74  C   UNL     1      -3.865  -3.556  10.261  1.00  0.00     0.057 A 
ATOM     75  C   UNL     1      -4.444  -2.907  11.377  1.00  0.00     0.134 A 
ATOM     76  C   UNL     1      -4.711  -4.400   9.535  1.00  0.00     0.134 A 
ATOM     77  F   UNL     1      -3.703  -2.089  12.143  1.00  0.00    -0.206 F 
ATOM     78  C   UNL     1      -5.809  -2.983  11.671  1.00  0.00     0.040 A 
ATOM     79  C   UNL     1      -6.082  -4.508   9.840  1.00  0.00     0.040 A 
ATOM     80  F   UNL     1      -4.279  -5.013   8.424  1.00  0.00    -0.206 F 
ATOM     81  C   UNL     1      -6.638  -3.774  10.889  1.00  0.00     0.006 A 
ENDBRANCH  53  74
BRANCH  65  82
ATOM     82  C   UNL     1       0.989  -5.141   5.120  1.00  0.00     0.057 A 
ATOM     83  C   UNL     1       0.448  -6.422   4.965  1.00  0.00     0.134 A 
ATOM     84  C   UNL     1       2.082  -4.833   4.280  1.00  0.00     0.134 A 
ATOM     85  F   UNL     1      -0.662  -6.795   5.617  1.00  0.00    -0.206 F 
ATOM     86  C   UNL     1       0.998  -7.361   4.085  1.00  0.00     0.040 A 
ATOM     87  C   UNL     1       2.604  -5.743   3.359  1.00  0.00     0.040 A 
ATOM     88  F   UNL     1       2.668  -3.626   4.299  1.00  0.00    -0.206 F 
ATOM     89  C   UNL     1       2.073  -7.020   3.272  1.00  0.00     0.006 A 
ENDBRANCH  65  82
ENDBRANCH  39  40
ENDBRANCH  32  34
ENDBRANCH  31  32
ENDBRANCH  30  31
ENDBRANCH  29  30
ENDBRANCH  28  29
ENDBRANCH   1  28
TORSDOF 18
