REMARK SMILES NC(=O)c1cc(NC(=O)/C=C\C(=O)OCCOCCOCCOC(=O)c2ccc(-c3c4nc(c(-c5c(F)cccc5F)c5ccc([nH]5)c(-c5c(F)cccc5F)c5nc(c(-c6c(F)cccc6F)c6ccc3[nH]6)C=C5)C=C4)cc2)ccc1N1CCOCC1
REMARK SMILES IDX 18 1 17 2 16 3 15 4 14 5 12 6 13 7 11 8 10 9 8 10 7 11 9 13
REMARK SMILES IDX 6 14 4 15 5 16 82 17 81 18 80 19 2 20 1 21 3 24 83 25 84 26
REMARK SMILES IDX 88 27 85 28 87 29 86 30 19 31 20 32 21 33 22 34 23 35 24 36
REMARK SMILES IDX 25 37 26 38 27 39 79 40 28 41 78 42 29 43 30 44 31 45 72 46
REMARK SMILES IDX 32 47 77 48 71 49 73 50 33 51 76 52 70 53 69 54 34 56 60 57
REMARK SMILES IDX 43 58 59 59 44 60 47 61 58 62 74 63 45 64 46 65 57 67 75 68
REMARK SMILES IDX 48 69 35 70 36 71 41 72 37 73 38 74 40 75 42 76 39 77 61 78
REMARK SMILES IDX 62 79 67 80 63 81 64 82 66 83 68 84 65 85 49 86 50 87 55 88
REMARK SMILES IDX 51 89 52 90 54 91 56 92 53 93
REMARK H PARENT 7 12 1 22 1 23 73 55 47 66
REMARK Flexibility Score: inf
ROOT
ATOM      1  C   UNL     1       3.487  -0.566  -3.258  1.00  0.00     0.188 C 
ENDROOT
BRANCH   1   2
ATOM      2  O   UNL     1       4.259  -1.746  -3.339  1.00  0.00    -0.376 OA
BRANCH   2   3
ATOM      3  C   UNL     1       3.541  -2.966  -3.318  1.00  0.00     0.202 C 
BRANCH   3   4
ATOM      4  C   UNL     1       2.602  -3.314  -4.474  1.00  0.00     0.261 C 
BRANCH   4   5
ATOM      5  O   UNL     1       1.274  -2.756  -4.655  1.00  0.00    -0.460 OA
BRANCH   5   6
ATOM      6  C   UNL     1       0.562  -1.986  -3.828  1.00  0.00     0.331 C 
ATOM      7  O   UNL     1       0.919  -1.451  -2.785  1.00  0.00    -0.247 OA
BRANCH   6   8
ATOM      8  C   UNL     1      -0.782  -1.739  -4.362  1.00  0.00     0.099 C 
ATOM      9  C   UNL     1      -1.595  -2.712  -4.794  1.00  0.00     0.079 C 
BRANCH   9  10
ATOM     10  C   UNL     1      -1.262  -4.150  -4.900  1.00  0.00     0.248 C 
ATOM     11  N   UNL     1      -0.692  -4.876  -3.889  1.00  0.00    -0.322 N 
ATOM     12  H   UNL     1      -0.497  -5.809  -4.136  1.00  0.00     0.170 HD
ATOM     13  O   UNL     1      -1.472  -4.698  -5.985  1.00  0.00    -0.270 OA
BRANCH  11  14
ATOM     14  C   UNL     1      -0.328  -4.557  -2.564  1.00  0.00     0.042 A 
ATOM     15  C   UNL     1      -0.255  -3.000  -0.704  1.00  0.00     0.064 A 
ATOM     16  C   UNL     1      -0.945  -3.577  -1.795  1.00  0.00     0.042 A 
ATOM     17  C   UNL     1       1.031  -3.455  -0.317  1.00  0.00     0.050 A 
ATOM     18  C   UNL     1       1.509  -4.601  -0.971  1.00  0.00     0.029 A 
ATOM     19  C   UNL     1       0.835  -5.155  -2.072  1.00  0.00     0.028 A 
BRANCH  15  20
ATOM     20  C   UNL     1      -0.870  -1.743  -0.185  1.00  0.00     0.250 C 
ATOM     21  N   UNL     1      -0.033  -0.678  -0.009  1.00  0.00    -0.366 N 
ATOM     22  H   UNL     1      -0.388   0.175   0.331  1.00  0.00     0.159 HD
ATOM     23  H   UNL     1       0.924  -0.763  -0.223  1.00  0.00     0.159 HD
ATOM     24  O   UNL     1      -2.076  -1.645  -0.004  1.00  0.00    -0.269 OA
ENDBRANCH  15  20
BRANCH  17  25
ATOM     25  N   UNL     1       1.808  -2.791   0.624  1.00  0.00    -0.366 N 
ATOM     26  C   UNL     1       1.377  -2.867   2.027  1.00  0.00     0.145 C 
ATOM     27  C   UNL     1       3.249  -2.533   0.457  1.00  0.00     0.145 C 
ATOM     28  C   UNL     1       1.852  -1.610   2.773  1.00  0.00     0.181 C 
ATOM     29  C   UNL     1       3.659  -1.303   1.290  1.00  0.00     0.181 C 
ATOM     30  O   UNL     1       3.276  -1.442   2.666  1.00  0.00    -0.378 OA
ENDBRANCH  17  25
ENDBRANCH  11  14
ENDBRANCH   9  10
ENDBRANCH   6   8
ENDBRANCH   5   6
ENDBRANCH   4   5
ENDBRANCH   3   4
ENDBRANCH   2   3
ENDBRANCH   1   2
BRANCH   1  31
ATOM     31  C   UNL     1       2.893  -0.113  -4.608  1.00  0.00     0.188 C 
BRANCH  31  32
ATOM     32  O   UNL     1       3.451  -0.610  -5.814  1.00  0.00    -0.376 OA
BRANCH  32  33
ATOM     33  C   UNL     1       4.864  -0.693  -5.902  1.00  0.00     0.202 C 
BRANCH  33  34
ATOM     34  C   UNL     1       5.714   0.555  -5.587  1.00  0.00     0.261 C 
BRANCH  34  35
ATOM     35  O   UNL     1       5.342   1.315  -4.416  1.00  0.00    -0.460 OA
BRANCH  35  36
ATOM     36  C   UNL     1       4.651   2.467  -4.631  1.00  0.00     0.338 C 
ATOM     37  O   UNL     1       4.412   2.978  -5.712  1.00  0.00    -0.246 OA
BRANCH  36  38
ATOM     38  C   UNL     1       3.983   2.918  -3.374  1.00  0.00     0.060 A 
ATOM     39  C   UNL     1       2.583   3.072  -3.370  1.00  0.00     0.016 A 
ATOM     40  C   UNL     1       4.712   3.228  -2.227  1.00  0.00     0.016 A 
ATOM     41  C   UNL     1       1.917   3.576  -2.251  1.00  0.00     0.010 A 
ATOM     42  C   UNL     1       4.051   3.784  -1.121  1.00  0.00     0.010 A 
ATOM     43  C   UNL     1       2.659   4.008  -1.149  1.00  0.00    -0.014 A 
BRANCH  43  44
ATOM     44  C   UNL     1       2.041   4.962  -0.191  1.00  0.00     0.031 A 
ATOM     45  C   UNL     1       2.261   6.434  -0.435  1.00  0.00     0.074 A 
ATOM     46  C   UNL     1       1.293   4.564   0.852  1.00  0.00     0.049 A 
ATOM     47  N   UNL     1       1.919   7.465   0.294  1.00  0.00    -0.248 NA
ATOM     48  C   UNL     1       2.976   6.785  -1.674  1.00  0.00     0.031 C 
ATOM     49  C   UNL     1       0.950   3.181   1.173  1.00  0.00     0.029 A 
ATOM     50  N   UNL     1       0.700   5.301   1.849  1.00  0.00    -0.354 N 
ATOM     51  C   UNL     1       2.402   8.579  -0.382  1.00  0.00     0.074 A 
ATOM     52  C   UNL     1       3.078   8.099  -1.566  1.00  0.00     0.031 C 
ATOM     53  C   UNL     1       0.230   3.166   2.309  1.00  0.00     0.029 A 
ATOM     54  C   UNL     1       0.093   4.534   2.813  1.00  0.00     0.049 A 
ATOM     55  H   UNL     1       0.708   6.285   1.869  1.00  0.00     0.167 HD
ATOM     56  C   UNL     1       2.295   9.887  -0.049  1.00  0.00     0.037 A 
ATOM     57  C   UNL     1      -0.472   4.894   3.984  1.00  0.00     0.037 A 
ATOM     58  C   UNL     1       1.620  10.367   1.127  1.00  0.00     0.049 A 
ATOM     59  C   UNL     1      -0.525   6.351   4.372  1.00  0.00     0.074 A 
ATOM     60  C   UNL     1       1.429  11.675   1.537  1.00  0.00     0.029 A 
ATOM     61  N   UNL     1       1.036   9.556   2.089  1.00  0.00    -0.354 N 
ATOM     62  N   UNL     1      -0.085   7.401   3.719  1.00  0.00    -0.248 NA
ATOM     63  C   UNL     1      -1.156   6.674   5.661  1.00  0.00     0.031 C 
ATOM     64  C   UNL     1       0.790  11.653   2.781  1.00  0.00     0.029 A 
ATOM     65  C   UNL     1       0.518  10.335   3.111  1.00  0.00     0.049 A 
ATOM     66  H   UNL     1       0.997   8.573   2.051  1.00  0.00     0.167 HD
ATOM     67  C   UNL     1      -0.409   8.505   4.502  1.00  0.00     0.074 A 
ATOM     68  C   UNL     1      -1.095   7.998   5.672  1.00  0.00     0.031 C 
ATOM     69  C   UNL     1      -0.162   9.819   4.273  1.00  0.00     0.037 A 
BRANCH  56  70
ATOM     70  C   UNL     1       2.969  10.885  -0.946  1.00  0.00     0.057 A 
ATOM     71  C   UNL     1       2.514  11.156  -2.243  1.00  0.00     0.134 A 
ATOM     72  C   UNL     1       4.092  11.593  -0.497  1.00  0.00     0.134 A 
ATOM     73  F   UNL     1       1.456  10.500  -2.744  1.00  0.00    -0.206 F 
ATOM     74  C   UNL     1       3.170  12.069  -3.071  1.00  0.00     0.040 A 
ATOM     75  C   UNL     1       4.736  12.532  -1.303  1.00  0.00     0.040 A 
ATOM     76  F   UNL     1       4.581  11.385   0.736  1.00  0.00    -0.206 F 
ATOM     77  C   UNL     1       4.280  12.765  -2.599  1.00  0.00     0.006 A 
ENDBRANCH  56  70
BRANCH  57  78
ATOM     78  C   UNL     1      -1.008   3.851   4.898  1.00  0.00     0.057 A 
ATOM     79  C   UNL     1      -2.379   3.737   5.154  1.00  0.00     0.134 A 
ATOM     80  C   UNL     1      -0.155   2.954   5.554  1.00  0.00     0.134 A 
ATOM     81  F   UNL     1      -3.245   4.587   4.583  1.00  0.00    -0.206 F 
ATOM     82  C   UNL     1      -2.882   2.778   6.036  1.00  0.00     0.040 A 
ATOM     83  C   UNL     1      -0.647   1.972   6.416  1.00  0.00     0.040 A 
ATOM     84  F   UNL     1       1.170   3.012   5.358  1.00  0.00    -0.206 F 
ATOM     85  C   UNL     1      -2.015   1.886   6.664  1.00  0.00     0.006 A 
ENDBRANCH  57  78
BRANCH  69  86
ATOM     86  C   UNL     1      -0.666  10.810   5.287  1.00  0.00     0.057 A 
ATOM     87  C   UNL     1      -0.102  10.923   6.564  1.00  0.00     0.134 A 
ATOM     88  C   UNL     1      -1.705  11.694   4.962  1.00  0.00     0.134 A 
ATOM     89  F   UNL     1       0.891  10.104   6.944  1.00  0.00    -0.206 F 
ATOM     90  C   UNL     1      -0.570  11.857   7.490  1.00  0.00     0.040 A 
ATOM     91  C   UNL     1      -2.160  12.653   5.868  1.00  0.00     0.040 A 
ATOM     92  F   UNL     1      -2.283  11.652   3.752  1.00  0.00    -0.206 F 
ATOM     93  C   UNL     1      -1.598  12.731   7.140  1.00  0.00     0.006 A 
ENDBRANCH  69  86
ENDBRANCH  43  44
ENDBRANCH  36  38
ENDBRANCH  35  36
ENDBRANCH  34  35
ENDBRANCH  33  34
ENDBRANCH  32  33
ENDBRANCH  31  32
ENDBRANCH   1  31
TORSDOF 21
