REMARK SMILES O=C(OCCOCCOCCOC(=O)[C@H]1CCCCN1C(=O)CSCc1ccccc1)c1ccc(-c2c3nc(c(-c4c(F)cccc4F)c4ccc([nH]4)c(-c4c(F)cccc4F)c4nc(c(-c5c(F)cccc5F)c5ccc2[nH]5)C=C4)C=C3)cc1
REMARK SMILES IDX 9 1 8 2 7 3 6 4 5 5 4 6 3 7 2 8 1 9 32 10 33 11 85 12 34 13
REMARK SMILES IDX 84 14 35 15 36 16 37 17 78 18 38 19 83 20 77 21 79 22 39 23
REMARK SMILES IDX 82 24 76 25 75 26 40 28 66 29 49 30 65 31 50 32 53 33 64 34
REMARK SMILES IDX 80 35 51 36 52 37 63 39 81 40 54 41 41 42 42 43 47 44 43 45
REMARK SMILES IDX 44 46 46 47 48 48 45 49 67 50 68 51 73 52 69 53 70 54 72 55
REMARK SMILES IDX 74 56 71 57 55 58 56 59 61 60 57 61 58 62 60 63 62 64 59 65
REMARK SMILES IDX 10 66 11 67 12 68 13 69 14 70 15 71 16 72 20 73 17 74 19 75
REMARK SMILES IDX 18 76 21 77 22 78 23 79 24 80 25 81 26 82 27 83 31 84 28 85
REMARK SMILES IDX 30 86 29 87
REMARK H PARENT 79 27 53 38
REMARK Flexibility Score: inf
ROOT
ATOM      1  O   UNL     1      -1.980   5.192   0.700  1.00  0.00    -0.376 OA
ENDROOT
BRANCH   1   2
ATOM      2  C   UNL     1      -0.988   6.098   1.180  1.00  0.00     0.188 C 
BRANCH   2   3
ATOM      3  C   UNL     1      -1.225   6.672   2.578  1.00  0.00     0.188 C 
BRANCH   3   4
ATOM      4  O   UNL     1      -0.905   5.716   3.601  1.00  0.00    -0.376 OA
BRANCH   4   5
ATOM      5  C   UNL     1      -1.867   5.677   4.653  1.00  0.00     0.202 C 
BRANCH   5   6
ATOM      6  C   UNL     1      -1.896   6.897   5.582  1.00  0.00     0.261 C 
BRANCH   6   7
ATOM      7  O   UNL     1      -1.020   7.978   5.223  1.00  0.00    -0.460 OA
BRANCH   7   8
ATOM      8  C   UNL     1       0.326   8.087   5.240  1.00  0.00     0.338 C 
ATOM      9  O   UNL     1       0.821   9.107   4.761  1.00  0.00    -0.246 OA
BRANCH   8  10
ATOM     10  C   UNL     1       1.262   7.061   5.804  1.00  0.00     0.060 A 
ATOM     11  C   UNL     1       0.894   5.884   6.457  1.00  0.00     0.016 A 
ATOM     12  C   UNL     1       2.640   7.335   5.688  1.00  0.00     0.016 A 
ATOM     13  C   UNL     1       1.846   4.999   6.968  1.00  0.00     0.010 A 
ATOM     14  C   UNL     1       3.603   6.450   6.191  1.00  0.00     0.010 A 
ATOM     15  C   UNL     1       3.205   5.270   6.839  1.00  0.00    -0.014 A 
BRANCH  15  16
ATOM     16  C   UNL     1       4.191   4.413   7.530  1.00  0.00     0.031 A 
ATOM     17  C   UNL     1       4.781   4.946   8.797  1.00  0.00     0.074 A 
ATOM     18  C   UNL     1       4.436   3.136   7.173  1.00  0.00     0.049 A 
ATOM     19  N   UNL     1       5.624   4.372   9.610  1.00  0.00    -0.248 NA
ATOM     20  C   UNL     1       4.267   6.245   9.270  1.00  0.00     0.031 C 
ATOM     21  C   UNL     1       3.682   2.364   6.191  1.00  0.00     0.029 A 
ATOM     22  N   UNL     1       5.391   2.250   7.603  1.00  0.00    -0.354 N 
ATOM     23  C   UNL     1       5.630   5.167  10.743  1.00  0.00     0.074 A 
ATOM     24  C   UNL     1       4.827   6.335  10.464  1.00  0.00     0.031 C 
ATOM     25  C   UNL     1       4.263   1.163   6.015  1.00  0.00     0.029 A 
ATOM     26  C   UNL     1       5.442   1.089   6.860  1.00  0.00     0.049 A 
ATOM     27  H   UNL     1       5.984   2.426   8.369  1.00  0.00     0.167 HD
ATOM     28  C   UNL     1       6.186   4.888  11.941  1.00  0.00     0.037 A 
ATOM     29  C   UNL     1       6.370   0.112   6.853  1.00  0.00     0.037 A 
ATOM     30  C   UNL     1       7.040   3.759  12.171  1.00  0.00     0.049 A 
ATOM     31  C   UNL     1       7.452   0.196   7.877  1.00  0.00     0.074 A 
ATOM     32  C   UNL     1       7.704   3.388  13.323  1.00  0.00     0.029 A 
ATOM     33  N   UNL     1       7.383   2.835  11.192  1.00  0.00    -0.354 N 
ATOM     34  N   UNL     1       7.517   0.985   8.919  1.00  0.00    -0.248 NA
ATOM     35  C   UNL     1       8.560  -0.757   7.759  1.00  0.00     0.031 C 
ATOM     36  C   UNL     1       8.510   2.282  13.018  1.00  0.00     0.029 A 
ATOM     37  C   UNL     1       8.302   1.932  11.693  1.00  0.00     0.049 A 
ATOM     38  H   UNL     1       7.023   2.825  10.275  1.00  0.00     0.167 HD
ATOM     39  C   UNL     1       8.580   0.521   9.668  1.00  0.00     0.074 A 
ATOM     40  C   UNL     1       9.211  -0.531   8.892  1.00  0.00     0.031 C 
ATOM     41  C   UNL     1       8.917   0.873  10.931  1.00  0.00     0.037 A 
BRANCH  28  42
ATOM     42  C   UNL     1       5.873   5.845  13.046  1.00  0.00     0.057 A 
ATOM     43  C   UNL     1       4.595   5.898  13.625  1.00  0.00     0.134 A 
ATOM     44  C   UNL     1       6.820   6.777  13.475  1.00  0.00     0.134 A 
ATOM     45  F   UNL     1       3.630   5.053  13.226  1.00  0.00    -0.206 F 
ATOM     46  C   UNL     1       4.264   6.867  14.572  1.00  0.00     0.040 A 
ATOM     47  C   UNL     1       6.506   7.740  14.435  1.00  0.00     0.040 A 
ATOM     48  F   UNL     1       8.051   6.790  12.943  1.00  0.00    -0.206 F 
ATOM     49  C   UNL     1       5.223   7.792  14.979  1.00  0.00     0.006 A 
ENDBRANCH  28  42
BRANCH  29  50
ATOM     50  C   UNL     1       6.370  -0.996   5.866  1.00  0.00     0.057 A 
ATOM     51  C   UNL     1       5.881  -2.269   6.164  1.00  0.00     0.134 A 
ATOM     52  C   UNL     1       6.988  -0.832   4.623  1.00  0.00     0.134 A 
ATOM     53  F   UNL     1       5.382  -2.532   7.380  1.00  0.00    -0.206 F 
ATOM     54  C   UNL     1       5.952  -3.316   5.237  1.00  0.00     0.040 A 
ATOM     55  C   UNL     1       7.022  -1.849   3.668  1.00  0.00     0.040 A 
ATOM     56  F   UNL     1       7.657   0.295   4.359  1.00  0.00    -0.206 F 
ATOM     57  C   UNL     1       6.498  -3.100   3.973  1.00  0.00     0.006 A 
ENDBRANCH  29  50
BRANCH  41  58
ATOM     58  C   UNL     1       9.886  -0.025  11.623  1.00  0.00     0.057 A 
ATOM     59  C   UNL     1      11.253  -0.039  11.335  1.00  0.00     0.134 A 
ATOM     60  C   UNL     1       9.412  -0.914  12.598  1.00  0.00     0.134 A 
ATOM     61  F   UNL     1      11.757   0.761  10.384  1.00  0.00    -0.206 F 
ATOM     62  C   UNL     1      12.115  -0.924  11.982  1.00  0.00     0.040 A 
ATOM     63  C   UNL     1      10.267  -1.778  13.274  1.00  0.00     0.040 A 
ATOM     64  F   UNL     1       8.106  -0.952  12.909  1.00  0.00    -0.206 F 
ATOM     65  C   UNL     1      11.624  -1.789  12.961  1.00  0.00     0.006 A 
ENDBRANCH  41  58
ENDBRANCH  15  16
ENDBRANCH   8  10
ENDBRANCH   7   8
ENDBRANCH   6   7
ENDBRANCH   5   6
ENDBRANCH   4   5
ENDBRANCH   3   4
ENDBRANCH   2   3
ENDBRANCH   1   2
BRANCH   1  66
ATOM     66  C   UNL     1      -2.185   3.998   1.440  1.00  0.00     0.202 C 
BRANCH  66  67
ATOM     67  C   UNL     1      -1.163   2.863   1.287  1.00  0.00     0.261 C 
BRANCH  67  68
ATOM     68  O   UNL     1       0.216   3.212   1.467  1.00  0.00    -0.462 OA
BRANCH  68  69
ATOM     69  C   UNL     1       0.915   3.483   0.327  1.00  0.00     0.328 C 
ATOM     70  O   UNL     1       0.393   3.647  -0.768  1.00  0.00    -0.250 OA
BRANCH  69  71
ATOM     71  C   UNL     1       2.425   3.702   0.569  1.00  0.00     0.195 C 
ATOM     72  C   UNL     1       2.781   5.179   0.841  1.00  0.00     0.037 C 
ATOM     73  N   UNL     1       3.066   2.855   1.591  1.00  0.00    -0.328 N 
ATOM     74  C   UNL     1       2.652   5.606   2.308  1.00  0.00     0.005 C 
ATOM     75  C   UNL     1       2.758   3.195   2.966  1.00  0.00     0.120 C 
ATOM     76  C   UNL     1       3.264   4.591   3.257  1.00  0.00     0.022 C 
BRANCH  73  77
ATOM     77  C   UNL     1       4.133   2.043   1.217  1.00  0.00     0.233 C 
ATOM     78  O   UNL     1       4.464   1.899   0.037  1.00  0.00    -0.274 OA
BRANCH  77  79
ATOM     79  C   UNL     1       4.914   1.310   2.296  1.00  0.00     0.170 C 
BRANCH  79  80
ATOM     80  S   UNL     1       6.040   2.413   3.216  1.00  0.00    -0.147 SA
BRANCH  80  81
ATOM     81  C   UNL     1       7.155   3.020   1.922  1.00  0.00     0.105 C 
BRANCH  81  82
ATOM     82  C   UNL     1       8.377   2.163   1.700  1.00  0.00    -0.038 A 
ATOM     83  C   UNL     1       8.280   0.845   1.236  1.00  0.00     0.004 A 
ATOM     84  C   UNL     1       9.659   2.693   1.916  1.00  0.00     0.004 A 
ATOM     85  C   UNL     1       9.416   0.056   1.056  1.00  0.00     0.000 A 
ATOM     86  C   UNL     1      10.800   1.915   1.701  1.00  0.00     0.000 A 
ATOM     87  C   UNL     1      10.677   0.592   1.287  1.00  0.00     0.000 A 
ENDBRANCH  81  82
ENDBRANCH  80  81
ENDBRANCH  79  80
ENDBRANCH  77  79
ENDBRANCH  73  77
ENDBRANCH  69  71
ENDBRANCH  68  69
ENDBRANCH  67  68
ENDBRANCH  66  67
ENDBRANCH   1  66
TORSDOF 22
