REMARK SMILES C[C@@H](NC(=O)[C@H]1CC=CC[C@@H]1C(=O)OCCOCCOCCOC(=O)c1ccc(-c2c3nc(c(-c4c(F)cccc4F)c4ccc([nH]4)c(-c4c(F)cccc4F)c4nc(c(-c5c(F)cccc5F)c5ccc2[nH]5)C=C4)C=C3)cc1)c1ccc(-n2ccnc2)cc1
REMARK SMILES IDX 18 1 17 2 16 3 15 4 14 5 12 6 13 7 11 8 6 9 7 10 8 11 10 12
REMARK SMILES IDX 9 13 4 14 3 15 5 17 2 18 1 19 80 20 81 21 90 22 82 23 89 24
REMARK SMILES IDX 83 25 84 26 85 27 88 28 86 29 87 30 19 31 20 32 21 33 22 34
REMARK SMILES IDX 23 35 24 36 25 37 26 38 27 39 79 40 28 41 78 42 29 43 30 44
REMARK SMILES IDX 31 45 72 46 32 47 77 48 71 49 73 50 33 51 76 52 70 53 69 54
REMARK SMILES IDX 34 56 60 57 43 58 59 59 44 60 47 61 58 62 74 63 45 64 46 65
REMARK SMILES IDX 57 67 75 68 48 69 35 70 36 71 41 72 37 73 38 74 40 75 42 76
REMARK SMILES IDX 39 77 61 78 62 79 67 80 63 81 64 82 66 83 68 84 65 85 49 86
REMARK SMILES IDX 50 87 55 88 51 89 52 90 54 91 56 92 53 93
REMARK H PARENT 3 16 73 55 47 66
REMARK Flexibility Score: inf
ROOT
ATOM      1  C   UNL     1      -4.830   3.344  -2.474  1.00  0.00     0.188 C 
ENDROOT
BRANCH   1   2
ATOM      2  O   UNL     1      -6.018   3.209  -3.212  1.00  0.00    -0.376 OA
BRANCH   2   3
ATOM      3  C   UNL     1      -6.374   1.898  -3.585  1.00  0.00     0.202 C 
BRANCH   3   4
ATOM      4  C   UNL     1      -5.349   1.066  -4.396  1.00  0.00     0.261 C 
BRANCH   4   5
ATOM      5  O   UNL     1      -3.925   1.222  -4.080  1.00  0.00    -0.463 OA
BRANCH   5   6
ATOM      6  C   UNL     1      -3.217   2.100  -4.836  1.00  0.00     0.310 C 
ATOM      7  O   UNL     1      -3.709   2.579  -5.857  1.00  0.00    -0.252 OA
BRANCH   6   8
ATOM      8  C   UNL     1      -1.740   2.438  -4.393  1.00  0.00     0.115 C 
ATOM      9  C   UNL     1      -1.115   2.243  -2.939  1.00  0.00     0.097 C 
ATOM     10  C   UNL     1      -1.148   3.495  -2.031  1.00  0.00     0.041 C 
ATOM     11  C   UNL     1      -1.185   4.824  -2.687  1.00  0.00    -0.030 C 
ATOM     12  C   UNL     1      -1.429   3.854  -4.967  1.00  0.00     0.043 C 
ATOM     13  C   UNL     1      -1.327   4.986  -3.998  1.00  0.00    -0.030 C 
BRANCH   9  14
ATOM     14  C   UNL     1       0.368   1.847  -2.977  1.00  0.00     0.224 C 
ATOM     15  N   UNL     1       1.050   1.354  -1.901  1.00  0.00    -0.349 N 
ATOM     16  H   UNL     1       1.961   1.103  -2.176  1.00  0.00     0.164 HD
ATOM     17  O   UNL     1       1.033   1.994  -4.008  1.00  0.00    -0.275 OA
BRANCH  15  18
ATOM     18  C   UNL     1       0.872   1.071  -0.453  1.00  0.00     0.109 C 
ATOM     19  C   UNL     1       1.651  -0.206  -0.105  1.00  0.00     0.036 C 
BRANCH  18  20
ATOM     20  C   UNL     1      -0.528   1.030   0.121  1.00  0.00    -0.026 A 
ATOM     21  C   UNL     1      -0.996   2.148   0.821  1.00  0.00     0.008 A 
ATOM     22  C   UNL     1      -1.374  -0.086   0.046  1.00  0.00     0.008 A 
ATOM     23  C   UNL     1      -2.320   2.227   1.248  1.00  0.00     0.027 A 
ATOM     24  C   UNL     1      -2.693  -0.026   0.528  1.00  0.00     0.027 A 
ATOM     25  C   UNL     1      -3.196   1.177   1.039  1.00  0.00     0.046 A 
BRANCH  25  26
ATOM     26  N   UNL     1      -4.624   1.341   1.128  1.00  0.00    -0.306 N 
ATOM     27  C   UNL     1      -5.686  -0.022   1.751  1.00  0.00     0.113 A 
ATOM     28  C   UNL     1      -5.750   2.597   0.299  1.00  0.00     0.204 A 
ATOM     29  C   UNL     1      -7.328   0.324   1.345  1.00  0.00     0.131 A 
ATOM     30  N   UNL     1      -7.346   2.019   0.461  1.00  0.00    -0.245 NA
ENDBRANCH  25  26
ENDBRANCH  18  20
ENDBRANCH  15  18
ENDBRANCH   9  14
ENDBRANCH   6   8
ENDBRANCH   5   6
ENDBRANCH   4   5
ENDBRANCH   3   4
ENDBRANCH   2   3
ENDBRANCH   1   2
BRANCH   1  31
ATOM     31  C   UNL     1      -4.269   2.168  -1.629  1.00  0.00     0.188 C 
BRANCH  31  32
ATOM     32  O   UNL     1      -4.980   0.995  -1.211  1.00  0.00    -0.376 OA
BRANCH  32  33
ATOM     33  C   UNL     1      -6.064   0.804  -0.055  1.00  0.00     0.202 C 
BRANCH  33  34
ATOM     34  C   UNL     1      -6.296   1.881   1.940  1.00  0.00     0.261 C 
BRANCH  34  35
ATOM     35  O   UNL     1      -6.062   3.562   2.130  1.00  0.00    -0.460 OA
BRANCH  35  36
ATOM     36  C   UNL     1      -4.892   4.068   2.590  1.00  0.00     0.338 C 
ATOM     37  O   UNL     1      -4.138   3.488   3.354  1.00  0.00    -0.246 OA
BRANCH  36  38
ATOM     38  C   UNL     1      -4.478   5.340   1.895  1.00  0.00     0.060 A 
ATOM     39  C   UNL     1      -3.594   5.356   0.793  1.00  0.00     0.016 A 
ATOM     40  C   UNL     1      -4.774   6.549   2.504  1.00  0.00     0.016 A 
ATOM     41  C   UNL     1      -2.953   6.531   0.368  1.00  0.00     0.010 A 
ATOM     42  C   UNL     1      -4.168   7.733   2.049  1.00  0.00     0.010 A 
ATOM     43  C   UNL     1      -3.219   7.735   1.008  1.00  0.00    -0.014 A 
BRANCH  43  44
ATOM     44  C   UNL     1      -2.457   8.983   0.709  1.00  0.00     0.031 A 
ATOM     45  C   UNL     1      -1.640   9.605   1.809  1.00  0.00     0.074 A 
ATOM     46  C   UNL     1      -2.530   9.601  -0.486  1.00  0.00     0.049 A 
ATOM     47  N   UNL     1      -1.177  10.822   1.924  1.00  0.00    -0.248 NA
ATOM     48  C   UNL     1      -1.330   8.729   2.950  1.00  0.00     0.031 C 
ATOM     49  C   UNL     1      -3.167   9.065  -1.687  1.00  0.00     0.029 A 
ATOM     50  N   UNL     1      -2.093  10.848  -0.868  1.00  0.00    -0.354 N 
ATOM     51  C   UNL     1      -0.587  10.881   3.181  1.00  0.00     0.074 A 
ATOM     52  C   UNL     1      -0.761   9.579   3.790  1.00  0.00     0.031 C 
ATOM     53  C   UNL     1      -3.110   9.988  -2.662  1.00  0.00     0.029 A 
ATOM     54  C   UNL     1      -2.506  11.206  -2.131  1.00  0.00     0.049 A 
ATOM     55  H   UNL     1      -1.540  11.428  -0.295  1.00  0.00     0.167 HD
ATOM     56  C   UNL     1       0.024  11.934   3.777  1.00  0.00     0.037 A 
ATOM     57  C   UNL     1      -2.462  12.395  -2.764  1.00  0.00     0.037 A 
ATOM     58  C   UNL     1       0.186  13.222   3.151  1.00  0.00     0.049 A 
ATOM     59  C   UNL     1      -1.885  13.588  -2.046  1.00  0.00     0.074 A 
ATOM     60  C   UNL     1       0.796  14.356   3.656  1.00  0.00     0.029 A 
ATOM     61  N   UNL     1      -0.281  13.549   1.885  1.00  0.00    -0.354 N 
ATOM     62  N   UNL     1      -1.363  13.659  -0.845  1.00  0.00    -0.248 NA
ATOM     63  C   UNL     1      -1.899  14.867  -2.770  1.00  0.00     0.031 C 
ATOM     64  C   UNL     1       0.615  15.393   2.736  1.00  0.00     0.029 A 
ATOM     65  C   UNL     1      -0.013  14.880   1.612  1.00  0.00     0.049 A 
ATOM     66  H   UNL     1      -0.735  12.927   1.272  1.00  0.00     0.167 HD
ATOM     67  C   UNL     1      -0.947  14.976  -0.686  1.00  0.00     0.074 A 
ATOM     68  C   UNL     1      -1.272  15.665  -1.918  1.00  0.00     0.031 C 
ATOM     69  C   UNL     1      -0.341  15.557   0.380  1.00  0.00     0.037 A 
BRANCH  56  70
ATOM     70  C   UNL     1       0.477  11.756   5.201  1.00  0.00     0.057 A 
ATOM     71  C   UNL     1       1.483  10.853   5.571  1.00  0.00     0.134 A 
ATOM     72  C   UNL     1      -0.131  12.491   6.230  1.00  0.00     0.134 A 
ATOM     73  F   UNL     1       2.106  10.110   4.643  1.00  0.00    -0.206 F 
ATOM     74  C   UNL     1       1.822  10.642   6.909  1.00  0.00     0.040 A 
ATOM     75  C   UNL     1       0.232  12.322   7.567  1.00  0.00     0.040 A 
ATOM     76  F   UNL     1      -1.093  13.384   5.955  1.00  0.00    -0.206 F 
ATOM     77  C   UNL     1       1.197  11.380   7.912  1.00  0.00     0.006 A 
ENDBRANCH  56  70
BRANCH  57  78
ATOM     78  C   UNL     1      -2.994  12.527  -4.147  1.00  0.00     0.057 A 
ATOM     79  C   UNL     1      -2.138  12.803  -5.220  1.00  0.00     0.134 A 
ATOM     80  C   UNL     1      -4.358  12.385  -4.436  1.00  0.00     0.134 A 
ATOM     81  F   UNL     1      -0.825  12.977  -5.006  1.00  0.00    -0.206 F 
ATOM     82  C   UNL     1      -2.616  12.944  -6.524  1.00  0.00     0.040 A 
ATOM     83  C   UNL     1      -4.846  12.490  -5.741  1.00  0.00     0.040 A 
ATOM     84  F   UNL     1      -5.236  12.123  -3.457  1.00  0.00    -0.206 F 
ATOM     85  C   UNL     1      -3.973  12.777  -6.788  1.00  0.00     0.006 A 
ENDBRANCH  57  78
BRANCH  69  86
ATOM     86  C   UNL     1       0.070  16.998   0.244  1.00  0.00     0.057 A 
ATOM     87  C   UNL     1      -0.860  18.041   0.158  1.00  0.00     0.134 A 
ATOM     88  C   UNL     1       1.429  17.346   0.244  1.00  0.00     0.134 A 
ATOM     89  F   UNL     1      -2.176  17.781   0.146  1.00  0.00    -0.206 F 
ATOM     90  C   UNL     1      -0.455  19.372   0.040  1.00  0.00     0.040 A 
ATOM     91  C   UNL     1       1.845  18.676   0.171  1.00  0.00     0.040 A 
ATOM     92  F   UNL     1       2.376  16.401   0.339  1.00  0.00    -0.206 F 
ATOM     93  C   UNL     1       0.901  19.693   0.056  1.00  0.00     0.006 A 
ENDBRANCH  69  86
ENDBRANCH  43  44
ENDBRANCH  36  38
ENDBRANCH  35  36
ENDBRANCH  34  35
ENDBRANCH  33  34
ENDBRANCH  32  33
ENDBRANCH  31  32
ENDBRANCH   1  31
TORSDOF 21
