REMARK SMILES CC[NH+](CC)[C@@H](C(=O)OCCOCCOCCOC(=O)c1ccc(-c2c3nc(c(-c4c(F)cccc4F)c4ccc([nH]4)c(-c4c(F)cccc4F)c4nc(c(-c5c(F)cccc5F)c5ccc2[nH]5)C=C4)C=C3)cc1)c1ccc(C2CC2)cc1
REMARK SMILES IDX 13 1 12 2 11 3 10 4 9 5 7 6 8 7 6 8 3 9 2 11 1 12 4 13 5 14
REMARK SMILES IDX 75 15 76 16 83 17 77 18 82 19 78 20 79 21 80 22 81 23 14 24
REMARK SMILES IDX 15 25 16 26 17 27 18 28 19 29 20 30 21 31 22 32 74 33 23 34
REMARK SMILES IDX 73 35 24 36 25 37 26 38 67 39 27 40 72 41 66 42 68 43 28 44
REMARK SMILES IDX 71 45 65 46 64 47 29 49 55 50 38 51 54 52 39 53 42 54 53 55
REMARK SMILES IDX 69 56 40 57 41 58 52 60 70 61 43 62 30 63 31 64 36 65 32 66
REMARK SMILES IDX 33 67 35 68 37 69 34 70 56 71 57 72 62 73 58 74 59 75 61 76
REMARK SMILES IDX 63 77 60 78 44 79 45 80 50 81 46 82 47 83 49 84 51 85 48 86
REMARK H PARENT 3 10 68 48 42 59
REMARK Flexibility Score: inf
ROOT
ATOM      1  C   UNL     1       3.543   0.195  -3.561  1.00  0.00     0.188 C 
ENDROOT
BRANCH   1   2
ATOM      2  O   UNL     1       4.293  -0.358  -4.634  1.00  0.00    -0.376 OA
BRANCH   2   3
ATOM      3  C   UNL     1       3.863  -1.643  -5.088  1.00  0.00     0.202 C 
BRANCH   3   4
ATOM      4  C   UNL     1       3.940  -2.789  -4.066  1.00  0.00     0.261 C 
BRANCH   4   5
ATOM      5  O   UNL     1       3.068  -2.654  -2.913  1.00  0.00    -0.459 OA
BRANCH   5   6
ATOM      6  C   UNL     1       3.667  -2.807  -1.696  1.00  0.00     0.369 C 
ATOM      7  O   UNL     1       4.885  -2.941  -1.569  1.00  0.00    -0.245 OA
BRANCH   6   8
ATOM      8  C   UNL     1       2.735  -2.820  -0.462  1.00  0.00     0.326 C 
BRANCH   8   9
ATOM      9  N   UNL     1       1.267  -2.930  -0.659  1.00  0.00    -0.320 N 
ATOM     10  H   UNL     1       1.100  -2.997   0.345  1.00  0.00     0.349 HD
BRANCH   9  11
ATOM     11  C   UNL     1       0.429  -1.760  -0.888  1.00  0.00     0.259 C 
ATOM     12  C   UNL     1       0.167  -0.904   0.351  1.00  0.00     0.071 C 
ENDBRANCH   9  11
BRANCH   9  13
ATOM     13  C   UNL     1       0.766  -4.171  -1.247  1.00  0.00     0.259 C 
ATOM     14  C   UNL     1       0.509  -4.171  -2.752  1.00  0.00     0.071 C 
ENDBRANCH   9  13
ENDBRANCH   8   9
BRANCH   8  15
ATOM     15  C   UNL     1       3.130  -1.800   0.615  1.00  0.00     0.021 A 
ATOM     16  C   UNL     1       2.942  -2.124   1.967  1.00  0.00     0.011 A 
ATOM     17  C   UNL     1       3.596  -0.511   0.319  1.00  0.00     0.011 A 
ATOM     18  C   UNL     1       3.144  -1.170   2.971  1.00  0.00     0.004 A 
ATOM     19  C   UNL     1       3.798   0.438   1.331  1.00  0.00     0.004 A 
ATOM     20  C   UNL     1       3.538   0.143   2.675  1.00  0.00    -0.045 A 
BRANCH  20  21
ATOM     21  C   UNL     1       3.652   1.166   3.783  1.00  0.00     0.019 C 
ATOM     22  C   UNL     1       3.454   2.641   3.545  1.00  0.00     0.009 C 
ATOM     23  C   UNL     1       2.384   1.863   4.239  1.00  0.00     0.009 C 
ENDBRANCH  20  21
ENDBRANCH   8  15
ENDBRANCH   6   8
ENDBRANCH   5   6
ENDBRANCH   4   5
ENDBRANCH   3   4
ENDBRANCH   2   3
ENDBRANCH   1   2
BRANCH   1  24
ATOM     24  C   UNL     1       2.101   0.573  -3.888  1.00  0.00     0.188 C 
BRANCH  24  25
ATOM     25  O   UNL     1       1.367  -0.476  -4.502  1.00  0.00    -0.376 OA
BRANCH  25  26
ATOM     26  C   UNL     1       0.001  -0.226  -4.831  1.00  0.00     0.202 C 
BRANCH  26  27
ATOM     27  C   UNL     1      -0.334   1.157  -5.419  1.00  0.00     0.261 C 
BRANCH  27  28
ATOM     28  O   UNL     1      -0.053   2.266  -4.540  1.00  0.00    -0.460 OA
BRANCH  28  29
ATOM     29  C   UNL     1      -0.607   2.229  -3.307  1.00  0.00     0.338 C 
ATOM     30  O   UNL     1      -1.496   1.485  -2.931  1.00  0.00    -0.246 OA
BRANCH  29  31
ATOM     31  C   UNL     1       0.200   3.082  -2.397  1.00  0.00     0.060 A 
ATOM     32  C   UNL     1       0.379   2.637  -1.082  1.00  0.00     0.016 A 
ATOM     33  C   UNL     1       0.799   4.275  -2.815  1.00  0.00     0.016 A 
ATOM     34  C   UNL     1       1.089   3.410  -0.165  1.00  0.00     0.010 A 
ATOM     35  C   UNL     1       1.500   5.063  -1.891  1.00  0.00     0.010 A 
ATOM     36  C   UNL     1       1.601   4.657  -0.550  1.00  0.00    -0.014 A 
BRANCH  36  37
ATOM     37  C   UNL     1       1.955   5.625   0.520  1.00  0.00     0.031 A 
ATOM     38  C   UNL     1       0.862   6.535   1.019  1.00  0.00     0.074 A 
ATOM     39  C   UNL     1       3.161   5.631   1.114  1.00  0.00     0.049 A 
ATOM     40  N   UNL     1       0.872   7.388   2.011  1.00  0.00    -0.248 NA
ATOM     41  C   UNL     1      -0.415   6.479   0.288  1.00  0.00     0.031 C 
ATOM     42  C   UNL     1       4.291   4.784   0.745  1.00  0.00     0.029 A 
ATOM     43  N   UNL     1       3.608   6.333   2.208  1.00  0.00    -0.354 N 
ATOM     44  C   UNL     1      -0.375   8.000   1.992  1.00  0.00     0.074 A 
ATOM     45  C   UNL     1      -1.121   7.416   0.900  1.00  0.00     0.031 C 
ATOM     46  C   UNL     1       5.268   4.943   1.657  1.00  0.00     0.029 A 
ATOM     47  C   UNL     1       4.843   5.925   2.656  1.00  0.00     0.049 A 
ATOM     48  H   UNL     1       3.094   7.059   2.631  1.00  0.00     0.167 HD
ATOM     49  C   UNL     1      -0.853   8.977   2.797  1.00  0.00     0.037 A 
ATOM     50  C   UNL     1       5.521   6.275   3.768  1.00  0.00     0.037 A 
ATOM     51  C   UNL     1      -0.121   9.552   3.892  1.00  0.00     0.049 A 
ATOM     52  C   UNL     1       4.944   7.327   4.687  1.00  0.00     0.074 A 
ATOM     53  C   UNL     1      -0.497  10.579   4.739  1.00  0.00     0.029 A 
ATOM     54  N   UNL     1       1.139   9.138   4.297  1.00  0.00    -0.354 N 
ATOM     55  N   UNL     1       3.774   7.920   4.646  1.00  0.00    -0.248 NA
ATOM     56  C   UNL     1       5.800   7.775   5.797  1.00  0.00     0.031 C 
ATOM     57  C   UNL     1       0.555  10.817   5.630  1.00  0.00     0.029 A 
ATOM     58  C   UNL     1       1.562   9.900   5.373  1.00  0.00     0.049 A 
ATOM     59  H   UNL     1       1.656   8.411   3.881  1.00  0.00     0.167 HD
ATOM     60  C   UNL     1       3.761   8.813   5.713  1.00  0.00     0.074 A 
ATOM     61  C   UNL     1       5.012   8.639   6.420  1.00  0.00     0.031 C 
ATOM     62  C   UNL     1       2.814   9.720   6.060  1.00  0.00     0.037 A 
BRANCH  49  63
ATOM     63  C   UNL     1      -2.204   9.536   2.461  1.00  0.00     0.057 A 
ATOM     64  C   UNL     1      -3.388   8.819   2.674  1.00  0.00     0.134 A 
ATOM     65  C   UNL     1      -2.314  10.813   1.897  1.00  0.00     0.134 A 
ATOM     66  F   UNL     1      -3.350   7.578   3.184  1.00  0.00    -0.206 F 
ATOM     67  C   UNL     1      -4.631   9.341   2.311  1.00  0.00     0.040 A 
ATOM     68  C   UNL     1      -3.552  11.358   1.557  1.00  0.00     0.040 A 
ATOM     69  F   UNL     1      -1.218  11.551   1.663  1.00  0.00    -0.206 F 
ATOM     70  C   UNL     1      -4.715  10.617   1.756  1.00  0.00     0.006 A 
ENDBRANCH  49  63
BRANCH  50  71
ATOM     71  C   UNL     1       6.808   5.614   4.123  1.00  0.00     0.057 A 
ATOM     72  C   UNL     1       6.923   4.856   5.298  1.00  0.00     0.134 A 
ATOM     73  C   UNL     1       7.962   5.765   3.348  1.00  0.00     0.134 A 
ATOM     74  F   UNL     1       5.860   4.691   6.101  1.00  0.00    -0.206 F 
ATOM     75  C   UNL     1       8.138   4.300   5.701  1.00  0.00     0.040 A 
ATOM     76  C   UNL     1       9.178   5.185   3.721  1.00  0.00     0.040 A 
ATOM     77  F   UNL     1       7.929   6.481   2.215  1.00  0.00    -0.206 F 
ATOM     78  C   UNL     1       9.271   4.460   4.907  1.00  0.00     0.006 A 
ENDBRANCH  50  71
BRANCH  62  79
ATOM     79  C   UNL     1       3.103  10.605   7.241  1.00  0.00     0.057 A 
ATOM     80  C   UNL     1       4.087  11.602   7.188  1.00  0.00     0.134 A 
ATOM     81  C   UNL     1       2.365  10.492   8.426  1.00  0.00     0.134 A 
ATOM     82  F   UNL     1       4.833  11.763   6.084  1.00  0.00    -0.206 F 
ATOM     83  C   UNL     1       4.349  12.431   8.280  1.00  0.00     0.040 A 
ATOM     84  C   UNL     1       2.598  11.335   9.515  1.00  0.00     0.040 A 
ATOM     85  F   UNL     1       1.396   9.571   8.541  1.00  0.00    -0.206 F 
ATOM     86  C   UNL     1       3.599  12.301   9.447  1.00  0.00     0.006 A 
ENDBRANCH  62  79
ENDBRANCH  36  37
ENDBRANCH  29  31
ENDBRANCH  28  29
ENDBRANCH  27  28
ENDBRANCH  26  27
ENDBRANCH  25  26
ENDBRANCH  24  25
ENDBRANCH   1  24
TORSDOF 22
