REMARK SMILES O=C(OCCOCCOCCOC(=O)[C@H]1[C@@H](C(=O)Nc2ccccc2-c2ccccc2)[C@@H]2C=C[C@H]1O2)c1ccc(-c2c3nc(c(-c4c(F)cccc4F)c4ccc([nH]4)c(-c4c(F)cccc4F)c4nc(c(-c5c(F)cccc5F)c5ccc2[nH]5)C=C4)C=C3)cc1
REMARK SMILES IDX 8 1 7 2 6 3 5 4 4 5 3 6 2 7 1 8 37 9 38 10 90 11 39 12 89 13
REMARK SMILES IDX 40 14 41 15 42 16 83 17 43 18 88 19 82 20 84 21 44 22 87 23
REMARK SMILES IDX 81 24 80 25 45 27 71 28 54 29 70 30 55 31 58 32 69 33 85 34
REMARK SMILES IDX 56 35 57 36 68 38 86 39 59 40 46 41 47 42 52 43 48 44 49 45
REMARK SMILES IDX 51 46 53 47 50 48 72 49 73 50 78 51 74 52 75 53 77 54 79 55
REMARK SMILES IDX 76 56 60 57 61 58 66 59 62 60 63 61 65 62 67 63 64 64 9 65
REMARK SMILES IDX 10 66 11 67 12 68 13 69 14 70 15 71 16 72 35 73 32 74 34 75
REMARK SMILES IDX 36 76 33 77 17 78 18 79 19 80 20 82 21 83 25 84 22 85 24 86
REMARK SMILES IDX 23 87 26 88 27 89 31 90 28 91 30 92 29 93
REMARK H PARENT 84 26 58 37 19 81
REMARK Flexibility Score: inf
ROOT
ATOM      1  C   UNL     1       6.327   1.647   4.440  1.00  0.00     0.188 C 
ENDROOT
BRANCH   1   2
ATOM      2  C   UNL     1       6.940   1.858   3.050  1.00  0.00     0.188 C 
BRANCH   2   3
ATOM      3  O   UNL     1       6.151   1.258   2.016  1.00  0.00    -0.376 OA
BRANCH   3   4
ATOM      4  C   UNL     1       6.931   0.553   1.044  1.00  0.00     0.202 C 
BRANCH   4   5
ATOM      5  C   UNL     1       7.534   1.446  -0.051  1.00  0.00     0.261 C 
BRANCH   5   6
ATOM      6  O   UNL     1       7.672   2.815   0.365  1.00  0.00    -0.460 OA
BRANCH   6   7
ATOM      7  C   UNL     1       6.810   3.837   0.148  1.00  0.00     0.338 C 
ATOM      8  O   UNL     1       7.117   4.965   0.529  1.00  0.00    -0.246 OA
BRANCH   7   9
ATOM      9  C   UNL     1       5.508   3.680  -0.567  1.00  0.00     0.060 A 
ATOM     10  C   UNL     1       4.710   2.538  -0.519  1.00  0.00     0.016 A 
ATOM     11  C   UNL     1       5.004   4.808  -1.241  1.00  0.00     0.016 A 
ATOM     12  C   UNL     1       3.510   2.464  -1.219  1.00  0.00     0.010 A 
ATOM     13  C   UNL     1       3.763   4.767  -1.884  1.00  0.00     0.010 A 
ATOM     14  C   UNL     1       3.032   3.574  -1.915  1.00  0.00    -0.014 A 
BRANCH  14  15
ATOM     15  C   UNL     1       1.847   3.409  -2.784  1.00  0.00     0.031 A 
ATOM     16  C   UNL     1       2.060   3.359  -4.269  1.00  0.00     0.074 A 
ATOM     17  C   UNL     1       0.632   3.182  -2.252  1.00  0.00     0.049 A 
ATOM     18  N   UNL     1       1.185   3.227  -5.229  1.00  0.00    -0.248 NA
ATOM     19  C   UNL     1       3.455   3.457  -4.735  1.00  0.00     0.031 C 
ATOM     20  C   UNL     1       0.341   3.103  -0.821  1.00  0.00     0.029 A 
ATOM     21  N   UNL     1      -0.578   2.946  -2.846  1.00  0.00    -0.354 N 
ATOM     22  C   UNL     1       1.919   3.238  -6.408  1.00  0.00     0.074 A 
ATOM     23  C   UNL     1       3.307   3.417  -6.049  1.00  0.00     0.031 C 
ATOM     24  C   UNL     1      -0.961   2.824  -0.644  1.00  0.00     0.029 A 
ATOM     25  C   UNL     1      -1.602   2.744  -1.950  1.00  0.00     0.049 A 
ATOM     26  H   UNL     1      -0.704   2.923  -3.822  1.00  0.00     0.167 HD
ATOM     27  C   UNL     1       1.471   3.106  -7.677  1.00  0.00     0.037 A 
ATOM     28  C   UNL     1      -2.912   2.537  -2.176  1.00  0.00     0.037 A 
ATOM     29  C   UNL     1       0.085   2.933  -8.014  1.00  0.00     0.049 A 
ATOM     30  C   UNL     1      -3.397   2.502  -3.595  1.00  0.00     0.074 A 
ATOM     31  C   UNL     1      -0.499   2.841  -9.264  1.00  0.00     0.029 A 
ATOM     32  N   UNL     1      -0.939   2.826  -7.082  1.00  0.00    -0.354 N 
ATOM     33  N   UNL     1      -2.706   2.587  -4.706  1.00  0.00    -0.248 NA
ATOM     34  C   UNL     1      -4.845   2.359  -3.790  1.00  0.00     0.031 C 
ATOM     35  C   UNL     1      -1.882   2.722  -9.087  1.00  0.00     0.029 A 
ATOM     36  C   UNL     1      -2.154   2.690  -7.728  1.00  0.00     0.049 A 
ATOM     37  H   UNL     1      -0.817   2.845  -6.105  1.00  0.00     0.167 HD
ATOM     38  C   UNL     1      -3.631   2.497  -5.734  1.00  0.00     0.074 A 
ATOM     39  C   UNL     1      -4.932   2.336  -5.112  1.00  0.00     0.031 C 
ATOM     40  C   UNL     1      -3.429   2.543  -7.073  1.00  0.00     0.037 A 
BRANCH  27  41
ATOM     41  C   UNL     1       2.491   3.204  -8.772  1.00  0.00     0.057 A 
ATOM     42  C   UNL     1       3.428   2.190  -9.011  1.00  0.00     0.134 A 
ATOM     43  C   UNL     1       2.559   4.349  -9.575  1.00  0.00     0.134 A 
ATOM     44  F   UNL     1       3.437   1.080  -8.257  1.00  0.00    -0.206 F 
ATOM     45  C   UNL     1       4.414   2.324  -9.991  1.00  0.00     0.040 A 
ATOM     46  C   UNL     1       3.525   4.484 -10.573  1.00  0.00     0.040 A 
ATOM     47  F   UNL     1       1.697   5.360  -9.393  1.00  0.00    -0.206 F 
ATOM     48  C   UNL     1       4.462   3.474 -10.777  1.00  0.00     0.006 A 
ENDBRANCH  27  41
BRANCH  28  49
ATOM     49  C   UNL     1      -3.869   2.413  -1.051  1.00  0.00     0.057 A 
ATOM     50  C   UNL     1      -4.447   1.187  -0.706  1.00  0.00     0.134 A 
ATOM     51  C   UNL     1      -4.274   3.542  -0.332  1.00  0.00     0.134 A 
ATOM     52  F   UNL     1      -4.136   0.078  -1.392  1.00  0.00    -0.206 F 
ATOM     53  C   UNL     1      -5.389   1.088   0.321  1.00  0.00     0.040 A 
ATOM     54  C   UNL     1      -5.208   3.456   0.702  1.00  0.00     0.040 A 
ATOM     55  F   UNL     1      -3.762   4.747  -0.624  1.00  0.00    -0.206 F 
ATOM     56  C   UNL     1      -5.766   2.225   1.034  1.00  0.00     0.006 A 
ENDBRANCH  28  49
BRANCH  40  57
ATOM     57  C   UNL     1      -4.640   2.397  -7.939  1.00  0.00     0.057 A 
ATOM     58  C   UNL     1      -5.570   3.433  -8.087  1.00  0.00     0.134 A 
ATOM     59  C   UNL     1      -4.861   1.213  -8.653  1.00  0.00     0.134 A 
ATOM     60  F   UNL     1      -5.419   4.583  -7.412  1.00  0.00    -0.206 F 
ATOM     61  C   UNL     1      -6.692   3.289  -8.902  1.00  0.00     0.040 A 
ATOM     62  C   UNL     1      -5.966   1.067  -9.491  1.00  0.00     0.040 A 
ATOM     63  F   UNL     1      -4.003   0.187  -8.555  1.00  0.00    -0.206 F 
ATOM     64  C   UNL     1      -6.888   2.105  -9.612  1.00  0.00     0.006 A 
ENDBRANCH  40  57
ENDBRANCH  14  15
ENDBRANCH   7   9
ENDBRANCH   6   7
ENDBRANCH   5   6
ENDBRANCH   4   5
ENDBRANCH   3   4
ENDBRANCH   2   3
ENDBRANCH   1   2
BRANCH   1  65
ATOM     65  O   UNL     1       6.291   0.296   4.891  1.00  0.00    -0.376 OA
BRANCH  65  66
ATOM     66  C   UNL     1       5.437  -0.605   4.182  1.00  0.00     0.202 C 
BRANCH  66  67
ATOM     67  C   UNL     1       3.938  -0.275   4.167  1.00  0.00     0.261 C 
BRANCH  67  68
ATOM     68  O   UNL     1       3.626   0.831   3.292  1.00  0.00    -0.463 OA
BRANCH  68  69
ATOM     69  C   UNL     1       2.896   1.843   3.849  1.00  0.00     0.312 C 
ATOM     70  O   UNL     1       2.500   1.840   5.000  1.00  0.00    -0.252 OA
BRANCH  69  71
ATOM     71  C   UNL     1       2.725   2.988   2.860  1.00  0.00     0.147 C 
ATOM     72  C   UNL     1       1.383   3.792   3.002  1.00  0.00     0.129 C 
ATOM     73  C   UNL     1       3.771   4.064   3.185  1.00  0.00     0.157 C 
ATOM     74  C   UNL     1       1.921   5.129   3.507  1.00  0.00     0.155 C 
ATOM     75  C   UNL     1       3.758   5.177   2.183  1.00  0.00     0.004 C 
ATOM     76  O   UNL     1       3.090   4.738   4.266  1.00  0.00    -0.365 OA
ATOM     77  C   UNL     1       2.606   5.830   2.366  1.00  0.00     0.004 C 
BRANCH  72  78
ATOM     78  C   UNL     1       0.309   2.960   3.686  1.00  0.00     0.231 C 
ATOM     79  O   UNL     1      -0.134   1.983   3.059  1.00  0.00    -0.274 OA
ATOM     80  N   UNL     1      -0.090   3.083   4.976  1.00  0.00    -0.325 N 
ATOM     81  H   UNL     1      -0.584   2.306   5.324  1.00  0.00     0.169 HD
BRANCH  80  82
ATOM     82  C   UNL     1       0.079   4.122   5.898  1.00  0.00     0.049 A 
ATOM     83  C   UNL     1       0.756   3.757   7.070  1.00  0.00     0.027 A 
ATOM     84  C   UNL     1      -0.406   5.444   5.706  1.00  0.00     0.005 A 
ATOM     85  C   UNL     1       1.097   4.718   8.012  1.00  0.00     0.002 A 
ATOM     86  C   UNL     1      -0.062   6.387   6.696  1.00  0.00     0.011 A 
ATOM     87  C   UNL     1       0.702   6.036   7.817  1.00  0.00     0.001 A 
BRANCH  84  88
ATOM     88  C   UNL     1      -1.146   5.867   4.479  1.00  0.00    -0.016 A 
ATOM     89  C   UNL     1      -0.812   7.062   3.806  1.00  0.00     0.009 A 
ATOM     90  C   UNL     1      -2.052   5.011   3.841  1.00  0.00     0.009 A 
ATOM     91  C   UNL     1      -1.221   7.297   2.489  1.00  0.00     0.001 A 
ATOM     92  C   UNL     1      -2.438   5.231   2.519  1.00  0.00     0.001 A 
ATOM     93  C   UNL     1      -2.002   6.357   1.831  1.00  0.00     0.000 A 
ENDBRANCH  84  88
ENDBRANCH  80  82
ENDBRANCH  72  78
ENDBRANCH  69  71
ENDBRANCH  68  69
ENDBRANCH  67  68
ENDBRANCH  66  67
ENDBRANCH  65  66
ENDBRANCH   1  65
TORSDOF 20
