REMARK SMILES O=C(OCCOCCOCCOC(=O)c1cc(Cl)ncc1-c1cccc(C(F)(F)F)c1)c1ccc(-c2c3nc(c(-c4c(F)cccc4F)c4ccc([nH]4)c(-c4c(F)cccc4F)c4nc(c(-c5c(F)cccc5F)c5ccc2[nH]5)C=C4)C=C3)cc1
REMARK SMILES IDX 7 1 6 2 5 3 4 4 3 5 2 6 1 7 32 8 33 9 85 10 34 11 84 12
REMARK SMILES IDX 35 13 36 14 37 15 78 16 38 17 83 18 77 19 79 20 39 21 82 22
REMARK SMILES IDX 76 23 75 24 40 26 66 27 49 28 65 29 50 30 53 31 64 32 80 33
REMARK SMILES IDX 51 34 52 35 63 37 81 38 54 39 41 40 42 41 47 42 43 43 44 44
REMARK SMILES IDX 46 45 48 46 45 47 67 48 68 49 73 50 69 51 70 52 72 53 74 54
REMARK SMILES IDX 71 55 55 56 56 57 61 58 57 59 58 60 60 61 62 62 59 63 8 64
REMARK SMILES IDX 9 65 10 66 11 67 12 68 13 69 14 70 15 71 16 72 21 73 17 74
REMARK SMILES IDX 20 75 18 76 19 77 22 78 23 79 31 80 24 81 26 82 25 83 27 84
REMARK SMILES IDX 28 85 29 86 30 87
REMARK H PARENT 79 25 53 36
REMARK Flexibility Score: inf
ROOT
ATOM      1  C   UNL     1       3.606   1.851   0.250  1.00  0.00     0.188 C 
ENDROOT
BRANCH   1   2
ATOM      2  O   UNL     1       5.025   1.892   0.062  1.00  0.00    -0.376 OA
BRANCH   2   3
ATOM      3  C   UNL     1       5.514   1.818  -1.275  1.00  0.00     0.202 C 
BRANCH   3   4
ATOM      4  C   UNL     1       5.675   0.403  -1.834  1.00  0.00     0.261 C 
BRANCH   4   5
ATOM      5  O   UNL     1       4.425  -0.300  -1.889  1.00  0.00    -0.460 OA
BRANCH   5   6
ATOM      6  C   UNL     1       3.935  -1.268  -1.082  1.00  0.00     0.338 C 
ATOM      7  O   UNL     1       2.972  -1.915  -1.492  1.00  0.00    -0.246 OA
BRANCH   6   8
ATOM      8  C   UNL     1       4.379  -1.518   0.334  1.00  0.00     0.060 A 
ATOM      9  C   UNL     1       5.501  -0.988   0.969  1.00  0.00     0.016 A 
ATOM     10  C   UNL     1       3.540  -2.348   1.105  1.00  0.00     0.016 A 
ATOM     11  C   UNL     1       5.814  -1.333   2.283  1.00  0.00     0.010 A 
ATOM     12  C   UNL     1       3.802  -2.637   2.446  1.00  0.00     0.010 A 
ATOM     13  C   UNL     1       4.984  -2.181   3.020  1.00  0.00    -0.014 A 
BRANCH  13  14
ATOM     14  C   UNL     1       5.511  -2.715   4.293  1.00  0.00     0.031 A 
ATOM     15  C   UNL     1       6.085  -4.102   4.294  1.00  0.00     0.074 A 
ATOM     16  C   UNL     1       5.669  -1.896   5.347  1.00  0.00     0.049 A 
ATOM     17  N   UNL     1       6.908  -4.651   5.147  1.00  0.00    -0.248 NA
ATOM     18  C   UNL     1       5.716  -4.976   3.167  1.00  0.00     0.031 C 
ATOM     19  C   UNL     1       5.166  -0.525   5.433  1.00  0.00     0.029 A 
ATOM     20  N   UNL     1       6.353  -2.079   6.521  1.00  0.00    -0.354 N 
ATOM     21  C   UNL     1       7.204  -5.902   4.624  1.00  0.00     0.074 A 
ATOM     22  C   UNL     1       6.414  -6.068   3.427  1.00  0.00     0.031 C 
ATOM     23  C   UNL     1       5.595   0.025   6.581  1.00  0.00     0.029 A 
ATOM     24  C   UNL     1       6.392  -0.956   7.310  1.00  0.00     0.049 A 
ATOM     25  H   UNL     1       6.775  -2.931   6.773  1.00  0.00     0.167 HD
ATOM     26  C   UNL     1       8.088  -6.818   5.079  1.00  0.00     0.037 A 
ATOM     27  C   UNL     1       7.026  -0.738   8.477  1.00  0.00     0.037 A 
ATOM     28  C   UNL     1       8.821  -6.675   6.303  1.00  0.00     0.049 A 
ATOM     29  C   UNL     1       7.923  -1.814   9.018  1.00  0.00     0.074 A 
ATOM     30  C   UNL     1       9.681  -7.570   6.909  1.00  0.00     0.029 A 
ATOM     31  N   UNL     1       8.758  -5.555   7.120  1.00  0.00    -0.354 N 
ATOM     32  N   UNL     1       8.231  -2.975   8.490  1.00  0.00    -0.248 NA
ATOM     33  C   UNL     1       8.582  -1.542  10.302  1.00  0.00     0.031 C 
ATOM     34  C   UNL     1      10.113  -7.004   8.115  1.00  0.00     0.029 A 
ATOM     35  C   UNL     1       9.551  -5.742   8.237  1.00  0.00     0.049 A 
ATOM     36  H   UNL     1       8.228  -4.747   6.932  1.00  0.00     0.167 HD
ATOM     37  C   UNL     1       9.128  -3.566   9.368  1.00  0.00     0.074 A 
ATOM     38  C   UNL     1       9.335  -2.622  10.449  1.00  0.00     0.031 C 
ATOM     39  C   UNL     1       9.727  -4.780   9.294  1.00  0.00     0.037 A 
BRANCH  26  40
ATOM     40  C   UNL     1       8.274  -8.041   4.236  1.00  0.00     0.057 A 
ATOM     41  C   UNL     1       8.982  -7.988   3.027  1.00  0.00     0.134 A 
ATOM     42  C   UNL     1       7.701  -9.264   4.599  1.00  0.00     0.134 A 
ATOM     43  F   UNL     1       9.527  -6.835   2.608  1.00  0.00    -0.206 F 
ATOM     44  C   UNL     1       9.092  -9.104   2.196  1.00  0.00     0.040 A 
ATOM     45  C   UNL     1       7.820 -10.392   3.785  1.00  0.00     0.040 A 
ATOM     46  F   UNL     1       7.000  -9.376   5.737  1.00  0.00    -0.206 F 
ATOM     47  C   UNL     1       8.510 -10.312   2.577  1.00  0.00     0.006 A 
ENDBRANCH  26  40
BRANCH  27  48
ATOM     48  C   UNL     1       6.850   0.546   9.200  1.00  0.00     0.057 A 
ATOM     49  C   UNL     1       7.884   1.482   9.310  1.00  0.00     0.134 A 
ATOM     50  C   UNL     1       5.638   0.849   9.832  1.00  0.00     0.134 A 
ATOM     51  F   UNL     1       9.076   1.240   8.745  1.00  0.00    -0.206 F 
ATOM     52  C   UNL     1       7.726   2.664  10.037  1.00  0.00     0.040 A 
ATOM     53  C   UNL     1       5.458   2.038  10.542  1.00  0.00     0.040 A 
ATOM     54  F   UNL     1       4.611  -0.011   9.772  1.00  0.00    -0.206 F 
ATOM     55  C   UNL     1       6.508   2.946  10.653  1.00  0.00     0.006 A 
ENDBRANCH  27  48
BRANCH  39  56
ATOM     56  C   UNL     1      10.655  -5.143  10.411  1.00  0.00     0.057 A 
ATOM     57  C   UNL     1      10.172  -5.501  11.675  1.00  0.00     0.134 A 
ATOM     58  C   UNL     1      12.039  -5.172  10.207  1.00  0.00     0.134 A 
ATOM     59  F   UNL     1       8.855  -5.479  11.931  1.00  0.00    -0.206 F 
ATOM     60  C   UNL     1      11.038  -5.857  12.708  1.00  0.00     0.040 A 
ATOM     61  C   UNL     1      12.914  -5.548  11.226  1.00  0.00     0.040 A 
ATOM     62  F   UNL     1      12.560  -4.846   9.015  1.00  0.00    -0.206 F 
ATOM     63  C   UNL     1      12.413  -5.887  12.482  1.00  0.00     0.006 A 
ENDBRANCH  39  56
ENDBRANCH  13  14
ENDBRANCH   6   8
ENDBRANCH   5   6
ENDBRANCH   4   5
ENDBRANCH   3   4
ENDBRANCH   2   3
ENDBRANCH   1   2
BRANCH   1  64
ATOM     64  C   UNL     1       2.754   2.883  -0.502  1.00  0.00     0.188 C 
BRANCH  64  65
ATOM     65  O   UNL     1       2.777   4.244  -0.088  1.00  0.00    -0.376 OA
BRANCH  65  66
ATOM     66  C   UNL     1       3.973   4.772   0.457  1.00  0.00     0.202 C 
BRANCH  66  67
ATOM     67  C   UNL     1       3.788   5.075   1.944  1.00  0.00     0.261 C 
BRANCH  67  68
ATOM     68  O   UNL     1       3.401   3.918   2.711  1.00  0.00    -0.460 OA
BRANCH  68  69
ATOM     69  C   UNL     1       2.067   3.720   2.882  1.00  0.00     0.339 C 
ATOM     70  O   UNL     1       1.145   4.376   2.422  1.00  0.00    -0.246 OA
BRANCH  69  71
ATOM     71  C   UNL     1       1.892   2.634   3.865  1.00  0.00     0.072 A 
ATOM     72  C   UNL     1       2.481   2.868   5.115  1.00  0.00     0.057 A 
ATOM     73  C   UNL     1       1.117   1.481   3.637  1.00  0.00     0.015 A 
ATOM     74  C   UNL     1       2.281   1.936   6.106  1.00  0.00     0.129 A 
ATOM     75  C   UNL     1       1.051   0.591   4.715  1.00  0.00     0.122 A 
ATOM     76  Cl  UNL     1       2.825   2.226   7.704  1.00  0.00    -0.062 Cl
ATOM     77  N   UNL     1       1.609   0.789   5.932  1.00  0.00    -0.244 NA
BRANCH  73  78
ATOM     78  C   UNL     1       0.281   1.198   2.455  1.00  0.00    -0.015 A 
ATOM     79  C   UNL     1      -0.849   1.991   2.202  1.00  0.00     0.009 A 
ATOM     80  C   UNL     1       0.453   0.036   1.674  1.00  0.00     0.021 A 
ATOM     81  C   UNL     1      -1.780   1.643   1.223  1.00  0.00     0.001 A 
ATOM     82  C   UNL     1      -0.491  -0.338   0.693  1.00  0.00     0.056 A 
ATOM     83  C   UNL     1      -1.604   0.485   0.475  1.00  0.00     0.013 A 
BRANCH  82  84
ATOM     84  C   UNL     1      -0.370  -1.613  -0.111  1.00  0.00     0.416 C 
ATOM     85  F   UNL     1      -1.546  -2.303  -0.164  1.00  0.00    -0.166 F 
ATOM     86  F   UNL     1      -0.017  -1.384  -1.402  1.00  0.00    -0.166 F 
ATOM     87  F   UNL     1       0.533  -2.488   0.400  1.00  0.00    -0.166 F 
ENDBRANCH  82  84
ENDBRANCH  73  78
ENDBRANCH  69  71
ENDBRANCH  68  69
ENDBRANCH  67  68
ENDBRANCH  66  67
ENDBRANCH  65  66
ENDBRANCH  64  65
ENDBRANCH   1  64
TORSDOF 19
