REMARK SMILES CC(C)(C)[N@H+](CCC(=O)OCCOCCOCCOC(=O)c1ccc(-c2c3nc(c(-c4c(F)cccc4F)c4ccc([nH]4)c(-c4c(F)cccc4F)c4nc(c(-c5c(F)cccc5F)c5ccc2[nH]5)C=C4)C=C3)cc1)Cc1ccccc1C1CC1
REMARK SMILES IDX 13 1 12 2 11 3 10 4 8 5 9 6 7 7 6 8 5 9 2 11 1 12 3 13 4 14
REMARK SMILES IDX 76 15 77 16 78 17 82 18 79 19 81 20 80 21 83 22 84 23 85 24
REMARK SMILES IDX 14 25 15 26 16 27 17 28 18 29 19 30 20 31 21 32 22 33 23 34
REMARK SMILES IDX 75 35 24 36 74 37 25 38 26 39 27 40 68 41 28 42 73 43 67 44
REMARK SMILES IDX 69 45 29 46 72 47 66 48 65 49 30 51 56 52 39 53 55 54 40 55
REMARK SMILES IDX 43 56 54 57 70 58 41 59 42 60 53 62 71 63 44 64 31 65 32 66
REMARK SMILES IDX 37 67 33 68 34 69 36 70 38 71 35 72 57 73 58 74 63 75 59 76
REMARK SMILES IDX 60 77 62 78 64 79 61 80 45 81 46 82 51 83 47 84 48 85 50 86
REMARK SMILES IDX 52 87 49 88
REMARK H PARENT 5 10 69 50 43 61
REMARK Flexibility Score: inf
ROOT
ATOM      1  O   UNL     1       2.907   3.805   6.859  1.00  0.00    -0.376 OA
ENDROOT
BRANCH   1   2
ATOM      2  C   UNL     1       1.955   4.407   5.982  1.00  0.00     0.202 C 
BRANCH   2   3
ATOM      3  C   UNL     1       2.459   4.670   4.564  1.00  0.00     0.261 C 
BRANCH   3   4
ATOM      4  O   UNL     1       2.479   3.456   3.775  1.00  0.00    -0.463 OA
BRANCH   4   5
ATOM      5  C   UNL     1       3.493   3.303   2.892  1.00  0.00     0.311 C 
ATOM      6  O   UNL     1       4.417   4.102   2.770  1.00  0.00    -0.252 OA
BRANCH   5   7
ATOM      7  C   UNL     1       3.474   2.004   2.094  1.00  0.00     0.184 C 
BRANCH   7   8
ATOM      8  C   UNL     1       2.272   1.039   2.043  1.00  0.00     0.274 C 
BRANCH   8   9
ATOM      9  N   UNL     1       1.078   1.509   1.341  1.00  0.00    -0.327 N 
ATOM     10  H   UNL     1       1.538   2.187   0.734  1.00  0.00     0.348 HD
BRANCH   9  11
ATOM     11  C   UNL     1       0.560   0.859   0.110  1.00  0.00     0.089 C 
ATOM     12  C   UNL     1       1.265  -0.458  -0.285  1.00  0.00     0.078 C 
ATOM     13  C   UNL     1       0.777   1.857  -1.046  1.00  0.00     0.078 C 
ATOM     14  C   UNL     1      -0.956   0.524   0.144  1.00  0.00     0.078 C 
ENDBRANCH   9  11
BRANCH   9  15
ATOM     15  C   UNL     1       0.132   2.244   2.194  1.00  0.00     0.299 C 
BRANCH  15  16
ATOM     16  C   UNL     1       0.047   3.742   1.972  1.00  0.00     0.010 A 
ATOM     17  C   UNL     1       1.080   4.392   1.251  1.00  0.00     0.010 A 
ATOM     18  C   UNL     1      -0.945   4.524   2.611  1.00  0.00    -0.036 A 
ATOM     19  C   UNL     1       1.234   5.772   1.246  1.00  0.00     0.001 A 
ATOM     20  C   UNL     1      -0.750   5.930   2.583  1.00  0.00     0.004 A 
ATOM     21  C   UNL     1       0.325   6.546   1.937  1.00  0.00     0.000 A 
BRANCH  18  22
ATOM     22  C   UNL     1      -2.229   4.057   3.291  1.00  0.00     0.020 C 
ATOM     23  C   UNL     1      -2.686   2.681   3.694  1.00  0.00     0.009 C 
ATOM     24  C   UNL     1      -2.166   3.619   4.737  1.00  0.00     0.009 C 
ENDBRANCH  18  22
ENDBRANCH  15  16
ENDBRANCH   9  15
ENDBRANCH   8   9
ENDBRANCH   7   8
ENDBRANCH   5   7
ENDBRANCH   4   5
ENDBRANCH   3   4
ENDBRANCH   2   3
ENDBRANCH   1   2
BRANCH   1  25
ATOM     25  C   UNL     1       3.603   2.662   6.370  1.00  0.00     0.188 C 
BRANCH  25  26
ATOM     26  C   UNL     1       2.737   1.507   5.837  1.00  0.00     0.188 C 
BRANCH  26  27
ATOM     27  O   UNL     1       1.378   1.613   6.209  1.00  0.00    -0.376 OA
BRANCH  27  28
ATOM     28  C   UNL     1       0.903   0.697   7.179  1.00  0.00     0.202 C 
BRANCH  28  29
ATOM     29  C   UNL     1       1.626   0.627   8.536  1.00  0.00     0.261 C 
BRANCH  29  30
ATOM     30  O   UNL     1       3.062   0.545   8.501  1.00  0.00    -0.460 OA
BRANCH  30  31
ATOM     31  C   UNL     1       3.646  -0.596   8.050  1.00  0.00     0.338 C 
ATOM     32  O   UNL     1       3.095  -1.624   7.745  1.00  0.00    -0.246 OA
BRANCH  31  33
ATOM     33  C   UNL     1       5.056  -0.233   7.711  1.00  0.00     0.060 A 
ATOM     34  C   UNL     1       5.547  -0.556   6.435  1.00  0.00     0.016 A 
ATOM     35  C   UNL     1       5.834   0.539   8.581  1.00  0.00     0.016 A 
ATOM     36  C   UNL     1       6.817  -0.126   6.037  1.00  0.00     0.010 A 
ATOM     37  C   UNL     1       7.111   0.953   8.191  1.00  0.00     0.010 A 
ATOM     38  C   UNL     1       7.623   0.592   6.931  1.00  0.00    -0.014 A 
BRANCH  38  39
ATOM     39  C   UNL     1       9.087   0.681   6.702  1.00  0.00     0.031 A 
ATOM     40  C   UNL     1       9.929  -0.417   7.299  1.00  0.00     0.074 A 
ATOM     41  C   UNL     1       9.670   1.682   6.019  1.00  0.00     0.049 A 
ATOM     42  N   UNL     1      11.229  -0.545   7.345  1.00  0.00    -0.248 NA
ATOM     43  C   UNL     1       9.191  -1.518   7.943  1.00  0.00     0.031 C 
ATOM     44  C   UNL     1       8.976   2.780   5.352  1.00  0.00     0.029 A 
ATOM     45  N   UNL     1      11.001   1.936   5.790  1.00  0.00    -0.354 N 
ATOM     46  C   UNL     1      11.460  -1.731   8.032  1.00  0.00     0.074 A 
ATOM     47  C   UNL     1      10.174  -2.270   8.407  1.00  0.00     0.031 C 
ATOM     48  C   UNL     1       9.890   3.601   4.800  1.00  0.00     0.029 A 
ATOM     49  C   UNL     1      11.232   3.104   5.104  1.00  0.00     0.049 A 
ATOM     50  H   UNL     1      11.723   1.337   6.090  1.00  0.00     0.167 HD
ATOM     51  C   UNL     1      12.639  -2.325   8.324  1.00  0.00     0.037 A 
ATOM     52  C   UNL     1      12.396   3.707   4.783  1.00  0.00     0.037 A 
ATOM     53  C   UNL     1      13.921  -1.789   7.963  1.00  0.00     0.049 A 
ATOM     54  C   UNL     1      13.702   3.068   5.192  1.00  0.00     0.074 A 
ATOM     55  C   UNL     1      15.175  -2.320   8.204  1.00  0.00     0.029 A 
ATOM     56  N   UNL     1      14.110  -0.591   7.293  1.00  0.00    -0.354 N 
ATOM     57  N   UNL     1      13.913   1.935   5.819  1.00  0.00    -0.248 NA
ATOM     58  C   UNL     1      14.934   3.797   4.850  1.00  0.00     0.031 C 
ATOM     59  C   UNL     1      16.127  -1.417   7.721  1.00  0.00     0.029 A 
ATOM     60  C   UNL     1      15.463  -0.352   7.132  1.00  0.00     0.049 A 
ATOM     61  H   UNL     1      13.389   0.001   6.978  1.00  0.00     0.167 HD
ATOM     62  C   UNL     1      15.295   1.800   5.914  1.00  0.00     0.074 A 
ATOM     63  C   UNL     1      15.873   2.963   5.275  1.00  0.00     0.031 C 
ATOM     64  C   UNL     1      16.020   0.803   6.478  1.00  0.00     0.037 A 
BRANCH  51  65
ATOM     65  C   UNL     1      12.583  -3.603   9.105  1.00  0.00     0.057 A 
ATOM     66  C   UNL     1      12.122  -4.798   8.537  1.00  0.00     0.134 A 
ATOM     67  C   UNL     1      12.988  -3.635  10.444  1.00  0.00     0.134 A 
ATOM     68  F   UNL     1      11.693  -4.826   7.266  1.00  0.00    -0.206 F 
ATOM     69  C   UNL     1      12.043  -5.975   9.283  1.00  0.00     0.040 A 
ATOM     70  C   UNL     1      12.940  -4.811  11.192  1.00  0.00     0.040 A 
ATOM     71  F   UNL     1      13.433  -2.522  11.049  1.00  0.00    -0.206 F 
ATOM     72  C   UNL     1      12.460  -5.984  10.613  1.00  0.00     0.006 A 
ENDBRANCH  51  65
BRANCH  52  73
ATOM     73  C   UNL     1      12.400   5.001   4.049  1.00  0.00     0.057 A 
ATOM     74  C   UNL     1      12.885   5.089   2.738  1.00  0.00     0.134 A 
ATOM     75  C   UNL     1      11.972   6.188   4.656  1.00  0.00     0.134 A 
ATOM     76  F   UNL     1      13.342   3.994   2.113  1.00  0.00    -0.206 F 
ATOM     77  C   UNL     1      12.961   6.311   2.065  1.00  0.00     0.040 A 
ATOM     78  C   UNL     1      12.019   7.412   3.986  1.00  0.00     0.040 A 
ATOM     79  F   UNL     1      11.508   6.176   5.914  1.00  0.00    -0.206 F 
ATOM     80  C   UNL     1      12.523   7.477   2.688  1.00  0.00     0.006 A 
ENDBRANCH  52  73
BRANCH  64  81
ATOM     81  C   UNL     1      17.516   0.893   6.389  1.00  0.00     0.057 A 
ATOM     82  C   UNL     1      18.253   1.804   7.156  1.00  0.00     0.134 A 
ATOM     83  C   UNL     1      18.232   0.011   5.569  1.00  0.00     0.134 A 
ATOM     84  F   UNL     1      17.628   2.682   7.955  1.00  0.00    -0.206 F 
ATOM     85  C   UNL     1      19.647   1.847   7.096  1.00  0.00     0.040 A 
ATOM     86  C   UNL     1      19.627   0.025   5.521  1.00  0.00     0.040 A 
ATOM     87  F   UNL     1      17.589  -0.897   4.819  1.00  0.00    -0.206 F 
ATOM     88  C   UNL     1      20.338   0.950   6.283  1.00  0.00     0.006 A 
ENDBRANCH  64  81
ENDBRANCH  38  39
ENDBRANCH  31  33
ENDBRANCH  30  31
ENDBRANCH  29  30
ENDBRANCH  28  29
ENDBRANCH  27  28
ENDBRANCH  26  27
ENDBRANCH  25  26
ENDBRANCH   1  25
TORSDOF 23
