REMARK SMILES CC1=C2C(CSc3c(Cl)cccc3Cl)=CC(=O)N=C2S[C@H]1C(=O)OCCOCCOCCOC(=O)c1ccc(-c2c3nc(c(-c4c(F)cccc4F)c4ccc([nH]4)c(-c4c(F)cccc4F)c4nc(c(-c5c(F)cccc5F)c5ccc2[nH]5)C=C4)C=C3)cc1
REMARK SMILES IDX 28 1 27 2 26 3 25 4 24 5 22 6 23 7 21 8 1 9 2 10 3 11 4 12
REMARK SMILES IDX 19 13 20 14 15 15 18 16 16 17 17 18 5 19 6 20 7 21 8 22
REMARK SMILES IDX 13 23 9 24 10 25 12 26 14 27 11 28 29 29 30 30 31 31 32 32
REMARK SMILES IDX 33 33 34 34 35 35 36 36 37 37 89 38 38 39 88 40 39 41 40 42
REMARK SMILES IDX 41 43 82 44 42 45 87 46 81 47 83 48 43 49 86 50 80 51 79 52
REMARK SMILES IDX 44 54 70 55 53 56 69 57 54 58 57 59 68 60 84 61 55 62 56 63
REMARK SMILES IDX 67 65 85 66 58 67 45 68 46 69 51 70 47 71 48 72 50 73 52 74
REMARK SMILES IDX 49 75 71 76 72 77 77 78 73 79 74 80 76 81 78 82 75 83 59 84
REMARK SMILES IDX 60 85 65 86 61 87 62 88 64 89 66 90 63 91
REMARK H PARENT 83 53 57 64
REMARK Flexibility Score: inf
ROOT
ATOM      1  C   UNL     1       1.740  -3.738  -2.046  1.00  0.00     0.188 C 
ENDROOT
BRANCH   1   2
ATOM      2  O   UNL     1       1.831  -4.675  -3.107  1.00  0.00    -0.376 OA
BRANCH   2   3
ATOM      3  C   UNL     1       1.316  -4.293  -4.380  1.00  0.00     0.202 C 
BRANCH   3   4
ATOM      4  C   UNL     1      -0.122  -3.768  -4.410  1.00  0.00     0.261 C 
BRANCH   4   5
ATOM      5  O   UNL     1      -0.252  -2.418  -3.910  1.00  0.00    -0.462 OA
BRANCH   5   6
ATOM      6  C   UNL     1      -1.206  -2.183  -2.963  1.00  0.00     0.323 C 
ATOM      7  O   UNL     1      -1.772  -3.063  -2.321  1.00  0.00    -0.251 OA
BRANCH   6   8
ATOM      8  C   UNL     1      -1.468  -0.684  -2.713  1.00  0.00     0.189 C 
ATOM      9  C   UNL     1      -0.449  -0.298  -0.415  1.00  0.00     0.042 C 
ATOM     10  C   UNL     1      -0.398   0.014  -1.882  1.00  0.00    -0.039 C 
ATOM     11  C   UNL     1       0.467   0.794  -2.565  1.00  0.00     0.012 C 
ATOM     12  C   UNL     1       1.614   1.632  -2.234  1.00  0.00    -0.022 C 
ATOM     13  C   UNL     1       0.119   0.785  -4.014  1.00  0.00     0.109 C 
ATOM     14  S   UNL     1      -1.504   0.228  -4.283  1.00  0.00    -0.086 SA
ATOM     15  C   UNL     1       2.402   1.976  -3.275  1.00  0.00     0.079 C 
ATOM     16  N   UNL     1       0.875   1.139  -4.987  1.00  0.00    -0.202 NA
ATOM     17  C   UNL     1       2.154   1.518  -4.674  1.00  0.00     0.271 C 
ATOM     18  O   UNL     1       3.067   1.580  -5.490  1.00  0.00    -0.267 OA
BRANCH  12  19
ATOM     19  C   UNL     1       1.779   2.214  -0.849  1.00  0.00     0.111 C 
BRANCH  19  20
ATOM     20  S   UNL     1       3.414   2.910  -0.417  1.00  0.00    -0.118 SA
BRANCH  20  21
ATOM     21  C   UNL     1       4.411   1.487   0.093  1.00  0.00     0.045 A 
ATOM     22  C   UNL     1       4.108   0.695   1.222  1.00  0.00     0.056 A 
ATOM     23  C   UNL     1       5.654   1.244  -0.542  1.00  0.00     0.056 A 
ATOM     24  Cl  UNL     1       2.690   0.906   2.192  1.00  0.00    -0.083 Cl
ATOM     25  C   UNL     1       4.992  -0.299   1.670  1.00  0.00     0.022 A 
ATOM     26  C   UNL     1       6.527   0.244  -0.087  1.00  0.00     0.022 A 
ATOM     27  Cl  UNL     1       6.213   2.169  -1.899  1.00  0.00    -0.083 Cl
ATOM     28  C   UNL     1       6.197  -0.528   1.018  1.00  0.00     0.003 A 
ENDBRANCH  20  21
ENDBRANCH  19  20
ENDBRANCH  12  19
ENDBRANCH   6   8
ENDBRANCH   5   6
ENDBRANCH   4   5
ENDBRANCH   3   4
ENDBRANCH   2   3
ENDBRANCH   1   2
BRANCH   1  29
ATOM     29  C   UNL     1       2.332  -2.332  -2.262  1.00  0.00     0.188 C 
BRANCH  29  30
ATOM     30  O   UNL     1       2.963  -2.103  -3.508  1.00  0.00    -0.376 OA
BRANCH  30  31
ATOM     31  C   UNL     1       4.391  -2.095  -3.473  1.00  0.00     0.202 C 
BRANCH  31  32
ATOM     32  C   UNL     1       5.024  -3.418  -3.031  1.00  0.00     0.261 C 
BRANCH  32  33
ATOM     33  O   UNL     1       4.645  -3.740  -1.676  1.00  0.00    -0.460 OA
BRANCH  33  34
ATOM     34  C   UNL     1       5.565  -3.617  -0.701  1.00  0.00     0.338 C 
ATOM     35  O   UNL     1       6.731  -3.286  -0.821  1.00  0.00    -0.246 OA
BRANCH  34  36
ATOM     36  C   UNL     1       4.939  -3.976   0.595  1.00  0.00     0.060 A 
ATOM     37  C   UNL     1       3.776  -3.343   1.051  1.00  0.00     0.016 A 
ATOM     38  C   UNL     1       5.588  -4.896   1.417  1.00  0.00     0.016 A 
ATOM     39  C   UNL     1       3.282  -3.594   2.333  1.00  0.00     0.010 A 
ATOM     40  C   UNL     1       5.078  -5.171   2.690  1.00  0.00     0.010 A 
ATOM     41  C   UNL     1       3.941  -4.498   3.171  1.00  0.00    -0.014 A 
BRANCH  41  42
ATOM     42  C   UNL     1       3.518  -4.667   4.585  1.00  0.00     0.031 A 
ATOM     43  C   UNL     1       4.405  -4.155   5.686  1.00  0.00     0.074 A 
ATOM     44  C   UNL     1       2.354  -5.268   4.894  1.00  0.00     0.049 A 
ATOM     45  N   UNL     1       4.321  -4.345   6.978  1.00  0.00    -0.248 NA
ATOM     46  C   UNL     1       5.541  -3.314   5.273  1.00  0.00     0.031 C 
ATOM     47  C   UNL     1       1.365  -5.749   3.931  1.00  0.00     0.029 A 
ATOM     48  N   UNL     1       1.819  -5.591   6.117  1.00  0.00    -0.354 N 
ATOM     49  C   UNL     1       5.411  -3.683   7.529  1.00  0.00     0.074 A 
ATOM     50  C   UNL     1       6.142  -3.086   6.432  1.00  0.00     0.031 C 
ATOM     51  C   UNL     1       0.347  -6.317   4.599  1.00  0.00     0.029 A 
ATOM     52  C   UNL     1       0.643  -6.295   6.030  1.00  0.00     0.049 A 
ATOM     53  H   UNL     1       2.237  -5.343   6.973  1.00  0.00     0.167 HD
ATOM     54  C   UNL     1       5.772  -3.587   8.831  1.00  0.00     0.037 A 
ATOM     55  C   UNL     1      -0.089  -6.896   6.988  1.00  0.00     0.037 A 
ATOM     56  C   UNL     1       5.035  -4.165   9.925  1.00  0.00     0.049 A 
ATOM     57  C   UNL     1       0.368  -6.836   8.420  1.00  0.00     0.074 A 
ATOM     58  C   UNL     1       5.321  -4.116  11.279  1.00  0.00     0.029 A 
ATOM     59  N   UNL     1       3.865  -4.896   9.791  1.00  0.00    -0.354 N 
ATOM     60  N   UNL     1       1.420  -6.242   8.930  1.00  0.00    -0.248 NA
ATOM     61  C   UNL     1      -0.460  -7.541   9.409  1.00  0.00     0.031 C 
ATOM     62  C   UNL     1       4.346  -4.853  11.960  1.00  0.00     0.029 A 
ATOM     63  C   UNL     1       3.426  -5.318  11.036  1.00  0.00     0.049 A 
ATOM     64  H   UNL     1       3.412  -5.086   8.938  1.00  0.00     0.167 HD
ATOM     65  C   UNL     1       1.368  -6.483  10.297  1.00  0.00     0.074 A 
ATOM     66  C   UNL     1       0.173  -7.264  10.540  1.00  0.00     0.031 C 
ATOM     67  C   UNL     1       2.234  -6.094  11.265  1.00  0.00     0.037 A 
BRANCH  54  68
ATOM     68  C   UNL     1       7.048  -2.863   9.143  1.00  0.00     0.057 A 
ATOM     69  C   UNL     1       7.154  -1.469   9.059  1.00  0.00     0.134 A 
ATOM     70  C   UNL     1       8.179  -3.574   9.567  1.00  0.00     0.134 A 
ATOM     71  F   UNL     1       6.114  -0.733   8.641  1.00  0.00    -0.206 F 
ATOM     72  C   UNL     1       8.344  -0.809   9.372  1.00  0.00     0.040 A 
ATOM     73  C   UNL     1       9.366  -2.923   9.905  1.00  0.00     0.040 A 
ATOM     74  F   UNL     1       8.143  -4.911   9.669  1.00  0.00    -0.206 F 
ATOM     75  C   UNL     1       9.452  -1.537   9.803  1.00  0.00     0.006 A 
ENDBRANCH  54  68
BRANCH  55  76
ATOM     76  C   UNL     1      -1.314  -7.648   6.620  1.00  0.00     0.057 A 
ATOM     77  C   UNL     1      -2.584  -7.188   6.984  1.00  0.00     0.134 A 
ATOM     78  C   UNL     1      -1.242  -8.852   5.908  1.00  0.00     0.134 A 
ATOM     79  F   UNL     1      -2.715  -6.056   7.690  1.00  0.00    -0.206 F 
ATOM     80  C   UNL     1      -3.739  -7.903   6.662  1.00  0.00     0.040 A 
ATOM     81  C   UNL     1      -2.390  -9.563   5.557  1.00  0.00     0.040 A 
ATOM     82  F   UNL     1      -0.053  -9.347   5.533  1.00  0.00    -0.206 F 
ATOM     83  C   UNL     1      -3.643  -9.091   5.940  1.00  0.00     0.006 A 
ENDBRANCH  55  76
BRANCH  67  84
ATOM     84  C   UNL     1       1.898  -6.475  12.678  1.00  0.00     0.057 A 
ATOM     85  C   UNL     1       2.014  -7.793  13.137  1.00  0.00     0.134 A 
ATOM     86  C   UNL     1       1.468  -5.507  13.594  1.00  0.00     0.134 A 
ATOM     87  F   UNL     1       2.407  -8.771  12.307  1.00  0.00    -0.206 F 
ATOM     88  C   UNL     1       1.685  -8.140  14.450  1.00  0.00     0.040 A 
ATOM     89  C   UNL     1       1.161  -5.836  14.915  1.00  0.00     0.040 A 
ATOM     90  F   UNL     1       1.345  -4.224  13.222  1.00  0.00    -0.206 F 
ATOM     91  C   UNL     1       1.261  -7.158  15.344  1.00  0.00     0.006 A 
ENDBRANCH  67  84
ENDBRANCH  41  42
ENDBRANCH  34  36
ENDBRANCH  33  34
ENDBRANCH  32  33
ENDBRANCH  31  32
ENDBRANCH  30  31
ENDBRANCH  29  30
ENDBRANCH   1  29
TORSDOF 20
