REMARK SMILES O=C(OCCOCCOCCOC(=O)[C@@H]1[C@@H](C(=O)Nc2cccc([N+](=O)[O-])c2)[C@@H]2C=C[C@H]1O2)c1ccc(-c2c3nc(c(-c4c(F)cccc4F)c4ccc([nH]4)c(-c4c(F)cccc4F)c4nc(c(-c5c(F)cccc5F)c5ccc2[nH]5)C=C4)C=C3)cc1
REMARK SMILES IDX 8 1 7 2 6 3 5 4 4 5 3 6 2 7 1 8 34 9 35 10 87 11 36 12 86 13
REMARK SMILES IDX 37 14 38 15 39 16 80 17 40 18 85 19 79 20 81 21 41 22 84 23
REMARK SMILES IDX 78 24 77 25 42 27 68 28 51 29 67 30 52 31 55 32 66 33 82 34
REMARK SMILES IDX 53 35 54 36 65 38 83 39 56 40 43 41 44 42 49 43 45 44 46 45
REMARK SMILES IDX 48 46 50 47 47 48 69 49 70 50 75 51 71 52 72 53 74 54 76 55
REMARK SMILES IDX 73 56 57 57 58 58 63 59 59 60 60 61 62 62 64 63 61 64 9 65
REMARK SMILES IDX 10 66 11 67 12 68 13 69 14 70 15 71 16 72 32 73 29 74 31 75
REMARK SMILES IDX 33 76 30 77 17 78 18 79 19 80 20 82 21 83 28 84 22 85 24 86
REMARK SMILES IDX 23 87 25 88 26 89 27 90
REMARK H PARENT 81 26 55 37 19 81
REMARK Flexibility Score: inf
ROOT
ATOM      1  C   UNL     1       2.467  -1.380   2.410  1.00  0.00     0.188 C 
ENDROOT
BRANCH   1   2
ATOM      2  C   UNL     1       2.695  -0.758   1.030  1.00  0.00     0.188 C 
BRANCH   2   3
ATOM      3  O   UNL     1       3.996  -0.861   0.463  1.00  0.00    -0.376 OA
BRANCH   3   4
ATOM      4  C   UNL     1       4.983   0.006   0.998  1.00  0.00     0.202 C 
BRANCH   4   5
ATOM      5  C   UNL     1       4.850   1.507   0.722  1.00  0.00     0.261 C 
BRANCH   5   6
ATOM      6  O   UNL     1       3.657   1.995   0.082  1.00  0.00    -0.460 OA
BRANCH   6   7
ATOM      7  C   UNL     1       3.046   1.727  -1.089  1.00  0.00     0.338 C 
ATOM      8  O   UNL     1       1.924   2.200  -1.271  1.00  0.00    -0.246 OA
BRANCH   7   9
ATOM      9  C   UNL     1       3.622   0.881  -2.176  1.00  0.00     0.060 A 
ATOM     10  C   UNL     1       4.937   0.426  -2.231  1.00  0.00     0.016 A 
ATOM     11  C   UNL     1       2.763   0.551  -3.248  1.00  0.00     0.016 A 
ATOM     12  C   UNL     1       5.365  -0.388  -3.283  1.00  0.00     0.010 A 
ATOM     13  C   UNL     1       3.204  -0.205  -4.341  1.00  0.00     0.010 A 
ATOM     14  C   UNL     1       4.513  -0.681  -4.362  1.00  0.00    -0.014 A 
BRANCH  14  15
ATOM     15  C   UNL     1       5.120  -1.298  -5.565  1.00  0.00     0.031 A 
ATOM     16  C   UNL     1       6.042  -0.448  -6.368  1.00  0.00     0.074 A 
ATOM     17  C   UNL     1       4.910  -2.579  -5.912  1.00  0.00     0.049 A 
ATOM     18  N   UNL     1       6.798  -0.782  -7.374  1.00  0.00    -0.248 NA
ATOM     19  C   UNL     1       6.073   0.984  -6.024  1.00  0.00     0.031 C 
ATOM     20  C   UNL     1       3.901  -3.424  -5.312  1.00  0.00     0.029 A 
ATOM     21  N   UNL     1       5.544  -3.415  -6.799  1.00  0.00    -0.354 N 
ATOM     22  C   UNL     1       7.338   0.406  -7.830  1.00  0.00     0.074 A 
ATOM     23  C   UNL     1       6.890   1.460  -6.948  1.00  0.00     0.031 C 
ATOM     24  C   UNL     1       4.089  -4.694  -5.703  1.00  0.00     0.029 A 
ATOM     25  C   UNL     1       5.178  -4.740  -6.658  1.00  0.00     0.049 A 
ATOM     26  H   UNL     1       6.194  -3.101  -7.468  1.00  0.00     0.167 HD
ATOM     27  C   UNL     1       8.072   0.598  -8.947  1.00  0.00     0.037 A 
ATOM     28  C   UNL     1       5.662  -5.856  -7.241  1.00  0.00     0.037 A 
ATOM     29  C   UNL     1       8.420  -0.462  -9.851  1.00  0.00     0.049 A 
ATOM     30  C   UNL     1       6.605  -5.637  -8.389  1.00  0.00     0.074 A 
ATOM     31  C   UNL     1       9.114  -0.386 -11.042  1.00  0.00     0.029 A 
ATOM     32  N   UNL     1       8.066  -1.796  -9.672  1.00  0.00    -0.354 N 
ATOM     33  N   UNL     1       7.135  -4.512  -8.807  1.00  0.00    -0.248 NA
ATOM     34  C   UNL     1       6.930  -6.804  -9.217  1.00  0.00     0.031 C 
ATOM     35  C   UNL     1       9.145  -1.667 -11.604  1.00  0.00     0.029 A 
ATOM     36  C   UNL     1       8.525  -2.553 -10.735  1.00  0.00     0.049 A 
ATOM     37  H   UNL     1       7.565  -2.149  -8.902  1.00  0.00     0.167 HD
ATOM     38  C   UNL     1       7.786  -4.817  -9.989  1.00  0.00     0.074 A 
ATOM     39  C   UNL     1       7.670  -6.253 -10.168  1.00  0.00     0.031 C 
ATOM     40  C   UNL     1       8.375  -3.980 -10.876  1.00  0.00     0.037 A 
BRANCH  27  41
ATOM     41  C   UNL     1       8.396   2.020  -9.284  1.00  0.00     0.057 A 
ATOM     42  C   UNL     1       9.305   2.777  -8.535  1.00  0.00     0.134 A 
ATOM     43  C   UNL     1       7.706   2.668 -10.316  1.00  0.00     0.134 A 
ATOM     44  F   UNL     1       9.957   2.227  -7.499  1.00  0.00    -0.206 F 
ATOM     45  C   UNL     1       9.495   4.138  -8.783  1.00  0.00     0.040 A 
ATOM     46  C   UNL     1       7.908   4.020 -10.591  1.00  0.00     0.040 A 
ATOM     47  F   UNL     1       6.801   2.005 -11.053  1.00  0.00    -0.206 F 
ATOM     48  C   UNL     1       8.797   4.761  -9.816  1.00  0.00     0.006 A 
ENDBRANCH  27  41
BRANCH  28  49
ATOM     49  C   UNL     1       5.233  -7.233  -6.842  1.00  0.00     0.057 A 
ATOM     50  C   UNL     1       6.169  -8.188  -6.411  1.00  0.00     0.134 A 
ATOM     51  C   UNL     1       3.898  -7.655  -6.900  1.00  0.00     0.134 A 
ATOM     52  F   UNL     1       7.474  -7.881  -6.362  1.00  0.00    -0.206 F 
ATOM     53  C   UNL     1       5.797  -9.492  -6.061  1.00  0.00     0.040 A 
ATOM     54  C   UNL     1       3.505  -8.937  -6.504  1.00  0.00     0.040 A 
ATOM     55  F   UNL     1       2.944  -6.827  -7.351  1.00  0.00    -0.206 F 
ATOM     56  C   UNL     1       4.457  -9.864  -6.092  1.00  0.00     0.006 A 
ENDBRANCH  28  49
BRANCH  40  57
ATOM     57  C   UNL     1       8.924  -4.611 -12.115  1.00  0.00     0.057 A 
ATOM     58  C   UNL     1       8.087  -5.064 -13.143  1.00  0.00     0.134 A 
ATOM     59  C   UNL     1      10.306  -4.726 -12.296  1.00  0.00     0.134 A 
ATOM     60  F   UNL     1       6.753  -4.995 -13.016  1.00  0.00    -0.206 F 
ATOM     61  C   UNL     1       8.609  -5.625 -14.306  1.00  0.00     0.040 A 
ATOM     62  C   UNL     1      10.840  -5.260 -13.466  1.00  0.00     0.040 A 
ATOM     63  F   UNL     1      11.154  -4.305 -11.346  1.00  0.00    -0.206 F 
ATOM     64  C   UNL     1       9.991  -5.716 -14.473  1.00  0.00     0.006 A 
ENDBRANCH  40  57
ENDBRANCH  14  15
ENDBRANCH   7   9
ENDBRANCH   6   7
ENDBRANCH   5   6
ENDBRANCH   4   5
ENDBRANCH   3   4
ENDBRANCH   2   3
ENDBRANCH   1   2
BRANCH   1  65
ATOM     65  O   UNL     1       3.592  -1.592   3.232  1.00  0.00    -0.376 OA
BRANCH  65  66
ATOM     66  C   UNL     1       4.498  -2.648   2.949  1.00  0.00     0.202 C 
BRANCH  66  67
ATOM     67  C   UNL     1       4.171  -3.905   2.131  1.00  0.00     0.261 C 
BRANCH  67  68
ATOM     68  O   UNL     1       3.749  -3.798   0.766  1.00  0.00    -0.463 OA
BRANCH  68  69
ATOM     69  C   UNL     1       2.472  -4.183   0.496  1.00  0.00     0.312 C 
ATOM     70  O   UNL     1       1.542  -4.081   1.270  1.00  0.00    -0.252 OA
BRANCH  69  71
ATOM     71  C   UNL     1       2.283  -4.870  -0.828  1.00  0.00     0.147 C 
ATOM     72  C   UNL     1       3.359  -5.940  -1.161  1.00  0.00     0.129 C 
ATOM     73  C   UNL     1       2.366  -3.906  -1.999  1.00  0.00     0.157 C 
ATOM     74  C   UNL     1       3.917  -5.363  -2.467  1.00  0.00     0.155 C 
ATOM     75  C   UNL     1       3.655  -3.161  -1.985  1.00  0.00     0.004 C 
ATOM     76  O   UNL     1       2.667  -4.864  -3.038  1.00  0.00    -0.365 OA
ATOM     77  C   UNL     1       4.618  -4.056  -2.234  1.00  0.00     0.004 C 
BRANCH  72  78
ATOM     78  C   UNL     1       2.762  -7.318  -1.455  1.00  0.00     0.231 C 
ATOM     79  O   UNL     1       2.837  -7.854  -2.564  1.00  0.00    -0.274 OA
ATOM     80  N   UNL     1       2.205  -8.069  -0.450  1.00  0.00    -0.325 N 
ATOM     81  H   UNL     1       1.642  -8.830  -0.720  1.00  0.00     0.169 HD
BRANCH  80  82
ATOM     82  C   UNL     1       2.363  -7.855   0.919  1.00  0.00     0.048 A 
ATOM     83  C   UNL     1       3.351  -8.572   1.596  1.00  0.00     0.026 A 
ATOM     84  C   UNL     1       1.544  -6.963   1.605  1.00  0.00     0.111 A 
ATOM     85  C   UNL     1       3.613  -8.299   2.939  1.00  0.00     0.009 A 
ATOM     86  C   UNL     1       1.825  -6.684   2.947  1.00  0.00     0.271 A 
ATOM     87  C   UNL     1       2.873  -7.328   3.613  1.00  0.00     0.086 A 
BRANCH  86  88
ATOM     88  N   UNL     1       1.074  -5.635   3.642  1.00  0.00     0.062 N 
ATOM     89  O   UNL     1       1.701  -4.943   4.459  1.00  0.00    -0.258 OA
ATOM     90  O   UNL     1      -0.130  -5.523   3.381  1.00  0.00    -0.258 OA
ENDBRANCH  86  88
ENDBRANCH  80  82
ENDBRANCH  72  78
ENDBRANCH  69  71
ENDBRANCH  68  69
ENDBRANCH  67  68
ENDBRANCH  66  67
ENDBRANCH  65  66
ENDBRANCH   1  65
TORSDOF 20
