REMARK SMILES C[C@@H](Sc1nc2ccccc2c(=O)n1N)C(=O)OCCOCCOCCOC(=O)c1ccc(-c2c3nc(c(-c4c(F)cccc4F)c4ccc([nH]4)c(-c4c(F)cccc4F)c4nc(c(-c5c(F)cccc5F)c5ccc2[nH]5)C=C4)C=C3)cc1
REMARK SMILES IDX 22 1 21 2 20 3 19 4 18 5 16 6 17 7 2 8 1 9 3 10 4 11 5 12
REMARK SMILES IDX 14 13 6 14 12 15 7 16 11 17 13 18 8 19 10 20 9 21 15 22
REMARK SMILES IDX 23 25 24 26 25 27 26 28 27 29 28 30 29 31 30 32 31 33 83 34
REMARK SMILES IDX 32 35 82 36 33 37 34 38 35 39 76 40 36 41 81 42 75 43 77 44
REMARK SMILES IDX 37 45 80 46 74 47 73 48 38 50 64 51 47 52 63 53 48 54 51 55
REMARK SMILES IDX 62 56 78 57 49 58 50 59 61 61 79 62 52 63 39 64 40 65 45 66
REMARK SMILES IDX 41 67 42 68 44 69 46 70 43 71 65 72 66 73 71 74 67 75 68 76
REMARK SMILES IDX 70 77 72 78 69 79 53 80 54 81 59 82 55 83 56 84 58 85 60 86
REMARK SMILES IDX 57 87
REMARK H PARENT 15 23 15 24 77 49 51 60
REMARK Flexibility Score: inf
ROOT
ATOM      1  C   UNL     1      -2.391   1.382  -1.348  1.00  0.00     0.188 C 
ENDROOT
BRANCH   1   2
ATOM      2  O   UNL     1      -3.729   0.926  -1.486  1.00  0.00    -0.376 OA
BRANCH   2   3
ATOM      3  C   UNL     1      -4.082  -0.357  -0.979  1.00  0.00     0.202 C 
BRANCH   3   4
ATOM      4  C   UNL     1      -3.228  -1.587  -1.341  1.00  0.00     0.261 C 
BRANCH   4   5
ATOM      5  O   UNL     1      -1.823  -1.493  -1.024  1.00  0.00    -0.462 OA
BRANCH   5   6
ATOM      6  C   UNL     1      -0.967  -1.474  -2.079  1.00  0.00     0.319 C 
ATOM      7  O   UNL     1      -1.337  -1.503  -3.251  1.00  0.00    -0.251 OA
BRANCH   6   8
ATOM      8  C   UNL     1       0.516  -1.333  -1.694  1.00  0.00     0.161 C 
ATOM      9  C   UNL     1       0.881  -1.264  -0.209  1.00  0.00     0.032 C 
BRANCH   8  10
ATOM     10  S   UNL     1       1.374  -2.711  -2.535  1.00  0.00    -0.071 SA
BRANCH  10  11
ATOM     11  C   UNL     1       3.045  -2.311  -2.245  1.00  0.00     0.191 A 
ATOM     12  N   UNL     1       3.691  -3.107  -1.458  1.00  0.00    -0.222 NA
ATOM     13  N   UNL     1       3.625  -1.240  -2.917  1.00  0.00    -0.202 N 
ATOM     14  C   UNL     1       5.067  -2.918  -1.312  1.00  0.00     0.079 A 
ATOM     15  C   UNL     1       5.003  -1.018  -2.870  1.00  0.00     0.280 A 
ATOM     16  C   UNL     1       5.767  -3.790  -0.476  1.00  0.00     0.029 A 
ATOM     17  C   UNL     1       5.774  -1.948  -2.024  1.00  0.00     0.068 A 
ATOM     18  O   UNL     1       5.567  -0.123  -3.500  1.00  0.00    -0.267 OA
ATOM     19  C   UNL     1       7.158  -3.720  -0.387  1.00  0.00     0.002 A 
ATOM     20  C   UNL     1       7.168  -1.874  -1.946  1.00  0.00     0.016 A 
ATOM     21  C   UNL     1       7.859  -2.772  -1.132  1.00  0.00     0.001 A 
BRANCH  13  22
ATOM     22  N   UNL     1       2.849  -0.316  -3.693  1.00  0.00    -0.334 N 
ATOM     23  H   UNL     1       1.873  -0.426  -3.759  1.00  0.00     0.178 HD
ATOM     24  H   UNL     1       3.292   0.430  -4.159  1.00  0.00     0.178 HD
ENDBRANCH  13  22
ENDBRANCH  10  11
ENDBRANCH   8  10
ENDBRANCH   6   8
ENDBRANCH   5   6
ENDBRANCH   4   5
ENDBRANCH   3   4
ENDBRANCH   2   3
ENDBRANCH   1   2
BRANCH   1  25
ATOM     25  C   UNL     1      -1.675   1.214   0.001  1.00  0.00     0.188 C 
BRANCH  25  26
ATOM     26  O   UNL     1      -2.353   0.410   0.932  1.00  0.00    -0.376 OA
BRANCH  26  27
ATOM     27  C   UNL     1      -2.756   0.960   2.175  1.00  0.00     0.202 C 
BRANCH  27  28
ATOM     28  C   UNL     1      -3.470   2.324   2.260  1.00  0.00     0.261 C 
BRANCH  28  29
ATOM     29  O   UNL     1      -3.048   3.354   1.357  1.00  0.00    -0.460 OA
BRANCH  29  30
ATOM     30  C   UNL     1      -1.894   4.002   1.639  1.00  0.00     0.338 C 
ATOM     31  O   UNL     1      -1.154   3.811   2.592  1.00  0.00    -0.246 OA
BRANCH  30  32
ATOM     32  C   UNL     1      -1.552   4.805   0.444  1.00  0.00     0.060 A 
ATOM     33  C   UNL     1      -0.376   4.520  -0.269  1.00  0.00     0.016 A 
ATOM     34  C   UNL     1      -2.425   5.798  -0.001  1.00  0.00     0.016 A 
ATOM     35  C   UNL     1      -0.065   5.234  -1.429  1.00  0.00     0.010 A 
ATOM     36  C   UNL     1      -2.098   6.531  -1.142  1.00  0.00     0.010 A 
ATOM     37  C   UNL     1      -0.908   6.269  -1.847  1.00  0.00    -0.014 A 
BRANCH  37  38
ATOM     38  C   UNL     1      -0.476   7.241  -2.879  1.00  0.00     0.031 A 
ATOM     39  C   UNL     1       0.075   8.556  -2.409  1.00  0.00     0.074 A 
ATOM     40  C   UNL     1      -0.643   7.009  -4.191  1.00  0.00     0.049 A 
ATOM     41  N   UNL     1       0.304   9.654  -3.079  1.00  0.00    -0.248 NA
ATOM     42  C   UNL     1       0.388   8.643  -0.974  1.00  0.00     0.031 C 
ATOM     43  C   UNL     1      -1.120   5.761  -4.778  1.00  0.00     0.029 A 
ATOM     44  N   UNL     1      -0.465   7.848  -5.265  1.00  0.00    -0.354 N 
ATOM     45  C   UNL     1       0.753  10.575  -2.142  1.00  0.00     0.074 A 
ATOM     46  C   UNL     1       0.746   9.911  -0.856  1.00  0.00     0.031 C 
ATOM     47  C   UNL     1      -1.240   5.928  -6.107  1.00  0.00     0.029 A 
ATOM     48  C   UNL     1      -0.897   7.309  -6.451  1.00  0.00     0.049 A 
ATOM     49  H   UNL     1      -0.068   8.746  -5.191  1.00  0.00     0.167 HD
ATOM     50  C   UNL     1       1.128  11.861  -2.336  1.00  0.00     0.037 A 
ATOM     51  C   UNL     1      -1.048   7.880  -7.663  1.00  0.00     0.037 A 
ATOM     52  C   UNL     1       1.121  12.515  -3.617  1.00  0.00     0.049 A 
ATOM     53  C   UNL     1      -0.694   9.333  -7.852  1.00  0.00     0.074 A 
ATOM     54  C   UNL     1       1.509  13.806  -3.927  1.00  0.00     0.029 A 
ATOM     55  N   UNL     1       0.685  11.932  -4.798  1.00  0.00    -0.354 N 
ATOM     56  N   UNL     1      -0.255  10.200  -6.971  1.00  0.00    -0.248 NA
ATOM     57  C   UNL     1      -0.858   9.889  -9.204  1.00  0.00     0.031 C 
ATOM     58  C   UNL     1       1.244  14.026  -5.282  1.00  0.00     0.029 A 
ATOM     59  C   UNL     1       0.763  12.848  -5.834  1.00  0.00     0.049 A 
ATOM     60  H   UNL     1       0.367  11.004  -4.887  1.00  0.00     0.167 HD
ATOM     61  C   UNL     1      -0.057  11.389  -7.665  1.00  0.00     0.074 A 
ATOM     62  C   UNL     1      -0.428  11.133  -9.042  1.00  0.00     0.031 C 
ATOM     63  C   UNL     1       0.401  12.580  -7.204  1.00  0.00     0.037 A 
BRANCH  50  64
ATOM     64  C   UNL     1       1.515  12.650  -1.118  1.00  0.00     0.057 A 
ATOM     65  C   UNL     1       2.668  12.364  -0.374  1.00  0.00     0.134 A 
ATOM     66  C   UNL     1       0.706  13.703  -0.672  1.00  0.00     0.134 A 
ATOM     67  F   UNL     1       3.480  11.358  -0.735  1.00  0.00    -0.206 F 
ATOM     68  C   UNL     1       2.976  13.065   0.794  1.00  0.00     0.040 A 
ATOM     69  C   UNL     1       1.022  14.434   0.474  1.00  0.00     0.040 A 
ATOM     70  F   UNL     1      -0.410  14.035  -1.337  1.00  0.00    -0.206 F 
ATOM     71  C   UNL     1       2.153  14.106   1.218  1.00  0.00     0.006 A 
ENDBRANCH  50  64
BRANCH  51  72
ATOM     72  C   UNL     1      -1.589   7.075  -8.787  1.00  0.00     0.057 A 
ATOM     73  C   UNL     1      -0.777   6.685  -9.857  1.00  0.00     0.134 A 
ATOM     74  C   UNL     1      -2.925   6.655  -8.805  1.00  0.00     0.134 A 
ATOM     75  F   UNL     1       0.504   7.078  -9.910  1.00  0.00    -0.206 F 
ATOM     76  C   UNL     1      -1.273   5.907 -10.905  1.00  0.00     0.040 A 
ATOM     77  C   UNL     1      -3.428   5.855  -9.832  1.00  0.00     0.040 A 
ATOM     78  F   UNL     1      -3.756   6.997  -7.809  1.00  0.00    -0.206 F 
ATOM     79  C   UNL     1      -2.600   5.481 -10.889  1.00  0.00     0.006 A 
ENDBRANCH  51  72
BRANCH  63  80
ATOM     80  C   UNL     1       0.589  13.693  -8.197  1.00  0.00     0.057 A 
ATOM     81  C   UNL     1      -0.490  14.379  -8.768  1.00  0.00     0.134 A 
ATOM     82  C   UNL     1       1.879  14.136  -8.523  1.00  0.00     0.134 A 
ATOM     83  F   UNL     1      -1.751  14.002  -8.507  1.00  0.00    -0.206 F 
ATOM     84  C   UNL     1      -0.292  15.457  -9.634  1.00  0.00     0.040 A 
ATOM     85  C   UNL     1       2.089  15.229  -9.364  1.00  0.00     0.040 A 
ATOM     86  F   UNL     1       2.958  13.530  -8.003  1.00  0.00    -0.206 F 
ATOM     87  C   UNL     1       1.000  15.892  -9.925  1.00  0.00     0.006 A 
ENDBRANCH  63  80
ENDBRANCH  37  38
ENDBRANCH  30  32
ENDBRANCH  29  30
ENDBRANCH  28  29
ENDBRANCH  27  28
ENDBRANCH  26  27
ENDBRANCH  25  26
ENDBRANCH   1  25
TORSDOF 20
