REMARK SMILES Cc1ccc(S(=O)(=O)n2cc(C(=O)C(=O)N[C@H](Cc3c[nH]c4ccccc34)C(=O)NCC(=O)OCCOCCOCCOC(=O)c3ccc(-c4c5nc(c(-c6c(F)cccc6F)c6ccc([nH]6)c(-c6c(F)cccc6F)c6nc(c(-c7c(F)cccc7F)c7ccc4[nH]7)C=C6)C=C5)cc3)c3ccccc32)cc1
REMARK SMILES IDX 36 1 35 2 34 3 32 4 33 5 31 6 30 7 28 8 29 9 17 11 16 12
REMARK SMILES IDX 14 13 15 14 12 16 13 17 11 18 9 19 10 20 105 21 100 22
REMARK SMILES IDX 104 23 101 24 103 25 102 26 6 27 7 28 8 29 5 30 1 31 2 32
REMARK SMILES IDX 3 33 107 34 4 35 106 36 18 37 19 38 20 39 27 40 21 41 22 42
REMARK SMILES IDX 26 43 23 45 25 46 24 47 37 48 38 49 39 50 40 51 41 52 42 53
REMARK SMILES IDX 43 54 44 55 45 56 46 57 47 58 99 59 48 60 98 61 49 62 50 63
REMARK SMILES IDX 51 64 92 65 52 66 97 67 91 68 93 69 53 70 96 71 90 72 89 73
REMARK SMILES IDX 54 75 80 76 63 77 79 78 64 79 67 80 78 81 94 82 65 83 66 84
REMARK SMILES IDX 77 86 95 87 68 88 55 89 56 90 61 91 57 92 58 93 60 94 62 95
REMARK SMILES IDX 59 96 81 97 82 98 87 99 83 100 84 101 86 102 88 103 85 104
REMARK SMILES IDX 69 105 70 106 75 107 71 108 72 109 74 110 76 111 73 112
REMARK H PARENT 30 10 16 15 21 44 93 74 67 85
REMARK Flexibility Score: inf
ROOT
ATOM      1  C   UNL     1     -12.736   8.035  -4.281  1.00  0.00     0.202 C 
ENDROOT
BRANCH   1   2
ATOM      2  C   UNL     1     -12.901   6.603  -3.762  1.00  0.00     0.261 C 
BRANCH   2   3
ATOM      3  O   UNL     1     -13.841   6.328  -2.672  1.00  0.00    -0.462 OA
BRANCH   3   4
ATOM      4  C   UNL     1     -14.569   5.151  -2.658  1.00  0.00     0.325 C 
ATOM      5  O   UNL     1     -15.228   4.760  -3.611  1.00  0.00    -0.250 OA
BRANCH   4   6
ATOM      6  C   UNL     1     -14.440   4.352  -1.265  1.00  0.00     0.238 C 
BRANCH   6   7
ATOM      7  N   UNL     1     -14.559   2.871  -1.037  1.00  0.00    -0.343 N 
ATOM      8  C   UNL     1     -13.802   1.872  -0.443  1.00  0.00     0.243 C 
ATOM      9  O   UNL     1     -14.399   0.780  -0.390  1.00  0.00    -0.273 OA
ATOM     10  H   UNL     1     -15.399   2.515  -1.407  1.00  0.00     0.164 HD
BRANCH   8  11
ATOM     11  C   UNL     1     -12.214   1.834  -0.032  1.00  0.00     0.176 C 
BRANCH  11  12
ATOM     12  N   UNL     1     -11.679   2.881   0.941  1.00  0.00    -0.337 N 
ATOM     13  C   UNL     1     -12.063   4.189   1.278  1.00  0.00     0.293 C 
ATOM     14  O   UNL     1     -13.259   4.455   1.369  1.00  0.00    -0.265 OA
ATOM     15  H   UNL     1     -10.891   2.570   1.444  1.00  0.00     0.164 HD
BRANCH  13  16
ATOM     16  C   UNL     1     -10.932   5.222   1.832  1.00  0.00     0.252 C 
ATOM     17  O   UNL     1     -10.514   4.632   2.850  1.00  0.00    -0.283 OA
BRANCH  16  18
ATOM     18  C   UNL     1     -10.431   6.837   1.422  1.00  0.00     0.054 A 
ATOM     19  N   UNL     1     -10.768   9.093   1.948  1.00  0.00    -0.240 N 
ATOM     20  C   UNL     1     -11.151   7.804   2.027  1.00  0.00     0.117 A 
ATOM     21  C   UNL     1      -9.767   9.122   0.982  1.00  0.00     0.065 A 
ATOM     22  C   UNL     1      -9.502   7.784   0.600  1.00  0.00     0.012 A 
ATOM     23  C   UNL     1      -9.148  10.245   0.370  1.00  0.00     0.028 A 
ATOM     24  C   UNL     1      -8.543   7.720  -0.485  1.00  0.00     0.011 A 
ATOM     25  C   UNL     1      -8.256  10.094  -0.672  1.00  0.00     0.002 A 
ATOM     26  C   UNL     1      -7.950   8.832  -1.100  1.00  0.00     0.001 A 
BRANCH  19  27
ATOM     27  S   UNL     1     -11.447  10.631   2.379  1.00  0.00     0.268 S 
ATOM     28  O   UNL     1     -12.053  11.013   1.103  1.00  0.00    -0.201 OA
ATOM     29  O   UNL     1     -10.246  11.333   2.833  1.00  0.00    -0.201 OA
BRANCH  27  30
ATOM     30  C   UNL     1     -12.616  11.305   3.550  1.00  0.00     0.088 A 
ATOM     31  C   UNL     1     -15.038  13.898   6.101  1.00  0.00     0.044 C 
ATOM     32  C   UNL     1     -14.240  12.981   5.220  1.00  0.00    -0.051 A 
ATOM     33  C   UNL     1     -13.649  13.497   4.076  1.00  0.00     0.005 A 
ATOM     34  C   UNL     1     -13.990  11.640   5.542  1.00  0.00     0.005 A 
ATOM     35  C   UNL     1     -12.877  12.670   3.259  1.00  0.00     0.022 A 
ATOM     36  C   UNL     1     -13.147  10.825   4.739  1.00  0.00     0.022 A 
ENDBRANCH  27  30
ENDBRANCH  19  27
ENDBRANCH  16  18
ENDBRANCH  13  16
ENDBRANCH  11  12
BRANCH  11  37
ATOM     37  C   UNL     1     -11.359   1.453  -1.365  1.00  0.00     0.072 C 
BRANCH  37  38
ATOM     38  C   UNL     1      -9.878   1.193  -1.917  1.00  0.00    -0.020 A 
ATOM     39  C   UNL     1      -8.993   2.191  -2.341  1.00  0.00     0.087 A 
ATOM     40  C   UNL     1      -9.243   0.003  -2.458  1.00  0.00     0.003 A 
ATOM     41  N   UNL     1      -8.014   1.729  -3.154  1.00  0.00    -0.361 N 
ATOM     42  C   UNL     1      -8.182   0.395  -3.300  1.00  0.00     0.046 A 
ATOM     43  C   UNL     1      -9.492  -1.376  -2.387  1.00  0.00     0.010 A 
ATOM     44  H   UNL     1      -7.302   2.270  -3.567  1.00  0.00     0.166 HD
ATOM     45  C   UNL     1      -7.455  -0.453  -4.135  1.00  0.00     0.026 A 
ATOM     46  C   UNL     1      -8.717  -2.260  -3.163  1.00  0.00     0.001 A 
ATOM     47  C   UNL     1      -7.743  -1.803  -4.050  1.00  0.00     0.002 A 
ENDBRANCH  37  38
ENDBRANCH  11  37
ENDBRANCH   8  11
ENDBRANCH   6   7
ENDBRANCH   4   6
ENDBRANCH   3   4
ENDBRANCH   2   3
ENDBRANCH   1   2
BRANCH   1  48
ATOM     48  O   UNL     1     -13.946   8.498  -4.830  1.00  0.00    -0.376 OA
BRANCH  48  49
ATOM     49  C   UNL     1     -14.154   8.142  -6.192  1.00  0.00     0.188 C 
BRANCH  49  50
ATOM     50  C   UNL     1     -13.850   6.699  -6.624  1.00  0.00     0.188 C 
BRANCH  50  51
ATOM     51  O   UNL     1     -12.436   6.445  -6.634  1.00  0.00    -0.376 OA
BRANCH  51  52
ATOM     52  C   UNL     1     -11.848   6.185  -7.906  1.00  0.00     0.202 C 
BRANCH  52  53
ATOM     53  C   UNL     1     -12.311   4.862  -8.525  1.00  0.00     0.261 C 
BRANCH  53  54
ATOM     54  O   UNL     1     -11.737   3.802  -7.741  1.00  0.00    -0.460 OA
BRANCH  54  55
ATOM     55  C   UNL     1     -12.559   3.357  -6.760  1.00  0.00     0.338 C 
ATOM     56  O   UNL     1     -13.740   3.107  -6.894  1.00  0.00    -0.246 OA
BRANCH  55  57
ATOM     57  C   UNL     1     -11.860   3.477  -5.441  1.00  0.00     0.060 A 
ATOM     58  C   UNL     1     -12.606   3.181  -4.338  1.00  0.00     0.016 A 
ATOM     59  C   UNL     1     -10.615   4.099  -5.217  1.00  0.00     0.016 A 
ATOM     60  C   UNL     1     -12.161   3.673  -3.098  1.00  0.00     0.010 A 
ATOM     61  C   UNL     1     -10.209   4.598  -3.922  1.00  0.00     0.010 A 
ATOM     62  C   UNL     1     -11.012   4.449  -2.786  1.00  0.00    -0.014 A 
BRANCH  62  63
ATOM     63  C   UNL     1     -10.800   5.090  -1.323  1.00  0.00     0.031 A 
ATOM     64  C   UNL     1      -9.542   4.564  -0.288  1.00  0.00     0.074 A 
ATOM     65  C   UNL     1     -11.649   6.170  -0.944  1.00  0.00     0.049 A 
ATOM     66  N   UNL     1      -8.808   5.383   0.422  1.00  0.00    -0.248 NA
ATOM     67  C   UNL     1      -9.158   3.224   0.220  1.00  0.00     0.031 C 
ATOM     68  C   UNL     1     -11.561   7.579  -1.410  1.00  0.00     0.029 A 
ATOM     69  N   UNL     1     -12.704   6.366   0.012  1.00  0.00    -0.354 N 
ATOM     70  C   UNL     1      -8.074   4.823   1.436  1.00  0.00     0.074 A 
ATOM     71  C   UNL     1      -8.325   3.422   1.249  1.00  0.00     0.031 C 
ATOM     72  C   UNL     1     -12.506   8.378  -0.832  1.00  0.00     0.029 A 
ATOM     73  C   UNL     1     -13.261   7.634   0.169  1.00  0.00     0.049 A 
ATOM     74  H   UNL     1     -13.030   5.611   0.552  1.00  0.00     0.167 HD
ATOM     75  C   UNL     1      -7.559   5.391   2.583  1.00  0.00     0.037 A 
ATOM     76  C   UNL     1     -14.268   8.079   1.011  1.00  0.00     0.037 A 
ATOM     77  C   UNL     1      -8.300   6.487   3.377  1.00  0.00     0.049 A 
ATOM     78  C   UNL     1     -14.141   7.852   2.593  1.00  0.00     0.074 A 
ATOM     79  C   UNL     1      -8.118   7.835   3.682  1.00  0.00     0.029 A 
ATOM     80  N   UNL     1      -9.482   6.221   4.142  1.00  0.00    -0.354 N 
ATOM     81  N   UNL     1     -13.141   8.331   3.321  1.00  0.00    -0.248 NA
ATOM     82  C   UNL     1     -15.019   7.122   3.513  1.00  0.00     0.031 C 
ATOM     83  C   UNL     1      -9.265   8.356   4.436  1.00  0.00     0.029 A 
ATOM     84  C   UNL     1     -10.248   7.372   4.545  1.00  0.00     0.049 A 
ATOM     85  H   UNL     1      -9.755   5.305   4.378  1.00  0.00     0.167 HD
ATOM     86  C   UNL     1     -12.912   7.524   4.464  1.00  0.00     0.074 A 
ATOM     87  C   UNL     1     -14.263   6.979   4.632  1.00  0.00     0.031 C 
ATOM     88  C   UNL     1     -11.688   7.243   5.134  1.00  0.00     0.037 A 
BRANCH  75  89
ATOM     89  C   UNL     1      -6.038   5.078   2.680  1.00  0.00     0.057 A 
ATOM     90  C   UNL     1      -5.182   5.842   3.485  1.00  0.00     0.134 A 
ATOM     91  C   UNL     1      -5.344   4.093   1.907  1.00  0.00     0.134 A 
ATOM     92  F   UNL     1      -5.644   6.835   4.253  1.00  0.00    -0.206 F 
ATOM     93  C   UNL     1      -3.786   5.647   3.523  1.00  0.00     0.040 A 
ATOM     94  C   UNL     1      -3.963   3.867   1.967  1.00  0.00     0.040 A 
ATOM     95  F   UNL     1      -5.945   3.303   1.007  1.00  0.00    -0.206 F 
ATOM     96  C   UNL     1      -3.172   4.652   2.775  1.00  0.00     0.006 A 
ENDBRANCH  75  89
BRANCH  76  97
ATOM     97  C   UNL     1     -15.557   8.007   0.226  1.00  0.00     0.057 A 
ATOM     98  C   UNL     1     -15.755   8.870  -0.872  1.00  0.00     0.134 A 
ATOM     99  C   UNL     1     -16.388   6.879   0.264  1.00  0.00     0.134 A 
ATOM    100  F   UNL     1     -15.044  10.003  -0.974  1.00  0.00    -0.206 F 
ATOM    101  C   UNL     1     -16.602   8.545  -1.941  1.00  0.00     0.040 A 
ATOM    102  C   UNL     1     -17.261   6.554  -0.788  1.00  0.00     0.040 A 
ATOM    103  F   UNL     1     -16.256   5.970   1.239  1.00  0.00    -0.206 F 
ATOM    104  C   UNL     1     -17.332   7.363  -1.918  1.00  0.00     0.006 A 
ENDBRANCH  76  97
BRANCH  88 105
ATOM    105  C   UNL     1     -11.699   6.923   6.629  1.00  0.00     0.057 A 
ATOM    106  C   UNL     1     -12.649   7.465   7.512  1.00  0.00     0.134 A 
ATOM    107  C   UNL     1     -10.575   6.338   7.255  1.00  0.00     0.134 A 
ATOM    108  F   UNL     1     -13.734   8.112   7.064  1.00  0.00    -0.206 F 
ATOM    109  C   UNL     1     -12.486   7.432   8.904  1.00  0.00     0.040 A 
ATOM    110  C   UNL     1     -10.365   6.373   8.635  1.00  0.00     0.040 A 
ATOM    111  F   UNL     1      -9.611   5.725   6.558  1.00  0.00    -0.206 F 
ATOM    112  C   UNL     1     -11.325   6.920   9.467  1.00  0.00     0.006 A 
ENDBRANCH  88 105
ENDBRANCH  62  63
ENDBRANCH  55  57
ENDBRANCH  54  55
ENDBRANCH  53  54
ENDBRANCH  52  53
ENDBRANCH  51  52
ENDBRANCH  50  51
ENDBRANCH  49  50
ENDBRANCH  48  49
ENDBRANCH   1  48
TORSDOF 26
