REMARK SMILES C[C@H](NC(=O)OCc1ccccc1)C(=O)NCC(=O)N1CCC[C@H]1C(=O)OCCOCCOCCOC(=O)c1ccc(-c2c3nc(c(-c4c(F)cccc4F)c4ccc([nH]4)c(-c4c(F)cccc4F)c4nc(c(-c5c(F)cccc5F)c5ccc2[nH]5)C=C4)C=C3)cc1
REMARK SMILES IDX 28 1 27 2 25 3 26 4 24 5 20 6 21 7 22 8 23 9 18 10 19 11
REMARK SMILES IDX 17 12 16 13 14 14 15 15 2 17 1 18 3 19 4 20 5 22 6 23 7 24
REMARK SMILES IDX 8 25 9 26 13 27 10 28 12 29 11 30 29 31 30 32 31 33 32 34
REMARK SMILES IDX 33 35 34 36 35 37 36 38 37 39 38 40 39 41 40 42 92 43 41 44
REMARK SMILES IDX 91 45 42 46 43 47 44 48 85 49 45 50 90 51 84 52 86 53 46 54
REMARK SMILES IDX 89 55 83 56 82 57 47 59 73 60 56 61 72 62 57 63 60 64 71 65
REMARK SMILES IDX 87 66 58 67 59 68 70 70 88 71 61 72 48 73 49 74 54 75 50 76
REMARK SMILES IDX 51 77 53 78 55 79 52 80 74 81 75 82 80 83 76 84 77 85 79 86
REMARK SMILES IDX 81 87 78 88 62 89 63 90 68 91 64 92 65 93 67 94 69 95 66 96
REMARK H PARENT 16 16 3 21 86 58 60 69
REMARK Flexibility Score: inf
ROOT
ATOM      1  C   UNL     1      -1.892  -6.255  -3.184  1.00  0.00     0.261 C 
ENDROOT
BRANCH   1   2
ATOM      2  O   UNL     1      -1.329  -5.311  -2.242  1.00  0.00    -0.462 OA
BRANCH   2   3
ATOM      3  C   UNL     1      -0.307  -4.521  -2.691  1.00  0.00     0.328 C 
ATOM      4  O   UNL     1       0.139  -4.575  -3.832  1.00  0.00    -0.250 OA
BRANCH   3   5
ATOM      5  C   UNL     1       0.227  -3.524  -1.621  1.00  0.00     0.195 C 
ATOM      6  N   UNL     1      -0.451  -2.220  -1.372  1.00  0.00    -0.327 N 
ATOM      7  C   UNL     1      -0.695  -2.044   0.057  1.00  0.00     0.120 C 
ATOM      8  C   UNL     1       0.307  -2.968   0.720  1.00  0.00     0.024 C 
ATOM      9  C   UNL     1       0.345  -4.159  -0.226  1.00  0.00     0.039 C 
BRANCH   6  10
ATOM     10  C   UNL     1      -0.557  -1.303  -2.394  1.00  0.00     0.242 C 
ATOM     11  O   UNL     1      -0.399  -1.668  -3.563  1.00  0.00    -0.273 OA
BRANCH  10  12
ATOM     12  C   UNL     1      -0.665   0.216  -2.138  1.00  0.00     0.216 C 
BRANCH  12  13
ATOM     13  N   UNL     1      -1.347   0.741  -0.964  1.00  0.00    -0.345 N 
ATOM     14  C   UNL     1      -0.909   1.539   0.051  1.00  0.00     0.242 C 
ATOM     15  O   UNL     1      -1.764   1.993   0.815  1.00  0.00    -0.273 OA
ATOM     16  H   UNL     1      -2.292   0.472  -0.890  1.00  0.00     0.164 HD
BRANCH  14  17
ATOM     17  C   UNL     1       0.559   1.965   0.154  1.00  0.00     0.171 C 
ATOM     18  C   UNL     1       0.812   3.105  -0.830  1.00  0.00     0.042 C 
BRANCH  17  19
ATOM     19  N   UNL     1       1.444   0.828  -0.060  1.00  0.00    -0.310 N 
ATOM     20  C   UNL     1       2.780   0.805   0.146  1.00  0.00     0.408 C 
ATOM     21  H   UNL     1       1.030  -0.004  -0.386  1.00  0.00     0.167 HD
ATOM     22  O   UNL     1       3.442  -0.188  -0.130  1.00  0.00    -0.225 OA
BRANCH  20  23
ATOM     23  O   UNL     1       3.235   1.959   0.674  1.00  0.00    -0.445 OA
BRANCH  23  24
ATOM     24  C   UNL     1       4.646   2.019   0.883  1.00  0.00     0.270 C 
BRANCH  24  25
ATOM     25  C   UNL     1       5.103   1.248   2.096  1.00  0.00    -0.011 A 
ATOM     26  C   UNL     1       4.228   0.885   3.132  1.00  0.00     0.007 A 
ATOM     27  C   UNL     1       6.455   0.896   2.198  1.00  0.00     0.007 A 
ATOM     28  C   UNL     1       4.690   0.149   4.223  1.00  0.00     0.000 A 
ATOM     29  C   UNL     1       6.918   0.171   3.295  1.00  0.00     0.000 A 
ATOM     30  C   UNL     1       6.034  -0.209   4.303  1.00  0.00     0.000 A 
ENDBRANCH  24  25
ENDBRANCH  23  24
ENDBRANCH  20  23
ENDBRANCH  17  19
ENDBRANCH  14  17
ENDBRANCH  12  13
ENDBRANCH  10  12
ENDBRANCH   6  10
ENDBRANCH   3   5
ENDBRANCH   2   3
ENDBRANCH   1   2
BRANCH   1  31
ATOM     31  C   UNL     1      -3.413  -6.153  -3.388  1.00  0.00     0.202 C 
BRANCH  31  32
ATOM     32  O   UNL     1      -3.945  -4.926  -3.883  1.00  0.00    -0.376 OA
BRANCH  32  33
ATOM     33  C   UNL     1      -3.555  -3.717  -3.241  1.00  0.00     0.188 C 
BRANCH  33  34
ATOM     34  C   UNL     1      -3.581  -3.681  -1.704  1.00  0.00     0.188 C 
BRANCH  34  35
ATOM     35  O   UNL     1      -4.121  -4.846  -1.123  1.00  0.00    -0.376 OA
BRANCH  35  36
ATOM     36  C   UNL     1      -5.127  -4.691  -0.145  1.00  0.00     0.202 C 
BRANCH  36  37
ATOM     37  C   UNL     1      -6.467  -4.112  -0.630  1.00  0.00     0.261 C 
BRANCH  37  38
ATOM     38  O   UNL     1      -6.398  -2.953  -1.481  1.00  0.00    -0.460 OA
BRANCH  38  39
ATOM     39  C   UNL     1      -6.146  -1.769  -0.880  1.00  0.00     0.338 C 
ATOM     40  O   UNL     1      -5.950  -1.576   0.306  1.00  0.00    -0.246 OA
BRANCH  39  41
ATOM     41  C   UNL     1      -5.878  -0.767  -1.938  1.00  0.00     0.060 A 
ATOM     42  C   UNL     1      -4.581  -0.254  -2.039  1.00  0.00     0.016 A 
ATOM     43  C   UNL     1      -6.872  -0.319  -2.804  1.00  0.00     0.016 A 
ATOM     44  C   UNL     1      -4.276   0.726  -2.982  1.00  0.00     0.010 A 
ATOM     45  C   UNL     1      -6.568   0.679  -3.743  1.00  0.00     0.010 A 
ATOM     46  C   UNL     1      -5.273   1.225  -3.822  1.00  0.00    -0.014 A 
BRANCH  46  47
ATOM     47  C   UNL     1      -5.015   2.464  -4.600  1.00  0.00     0.031 A 
ATOM     48  C   UNL     1      -5.549   3.759  -4.054  1.00  0.00     0.074 A 
ATOM     49  C   UNL     1      -4.268   2.482  -5.718  1.00  0.00     0.049 A 
ATOM     50  N   UNL     1      -5.615   4.940  -4.612  1.00  0.00    -0.248 NA
ATOM     51  C   UNL     1      -6.074   3.707  -2.681  1.00  0.00     0.031 C 
ATOM     52  C   UNL     1      -3.542   1.345  -6.279  1.00  0.00     0.029 A 
ATOM     53  N   UNL     1      -4.002   3.514  -6.587  1.00  0.00    -0.354 N 
ATOM     54  C   UNL     1      -6.229   5.761  -3.675  1.00  0.00     0.074 A 
ATOM     55  C   UNL     1      -6.518   4.942  -2.518  1.00  0.00     0.031 C 
ATOM     56  C   UNL     1      -2.928   1.738  -7.410  1.00  0.00     0.029 A 
ATOM     57  C   UNL     1      -3.270   3.133  -7.686  1.00  0.00     0.049 A 
ATOM     58  H   UNL     1      -4.307   4.438  -6.437  1.00  0.00     0.167 HD
ATOM     59  C   UNL     1      -6.535   7.077  -3.772  1.00  0.00     0.037 A 
ATOM     60  C   UNL     1      -2.957   3.819  -8.804  1.00  0.00     0.037 A 
ATOM     61  C   UNL     1      -6.240   7.889  -4.922  1.00  0.00     0.049 A 
ATOM     62  C   UNL     1      -3.444   5.237  -8.968  1.00  0.00     0.074 A 
ATOM     63  C   UNL     1      -6.537   9.223  -5.135  1.00  0.00     0.029 A 
ATOM     64  N   UNL     1      -5.583   7.439  -6.058  1.00  0.00    -0.354 N 
ATOM     65  N   UNL     1      -4.095   5.995  -8.118  1.00  0.00    -0.248 NA
ATOM     66  C   UNL     1      -3.167   5.891 -10.257  1.00  0.00     0.031 C 
ATOM     67  C   UNL     1      -6.114   9.564  -6.425  1.00  0.00     0.029 A 
ATOM     68  C   UNL     1      -5.490   8.462  -6.987  1.00  0.00     0.049 A 
ATOM     69  H   UNL     1      -5.234   6.527  -6.185  1.00  0.00     0.167 HD
ATOM     70  C   UNL     1      -4.263   7.223  -8.749  1.00  0.00     0.074 A 
ATOM     71  C   UNL     1      -3.654   7.108 -10.057  1.00  0.00     0.031 C 
ATOM     72  C   UNL     1      -4.860   8.347  -8.279  1.00  0.00     0.037 A 
BRANCH  59  73
ATOM     73  C   UNL     1      -7.300   7.681  -2.631  1.00  0.00     0.057 A 
ATOM     74  C   UNL     1      -6.734   7.873  -1.363  1.00  0.00     0.134 A 
ATOM     75  C   UNL     1      -8.644   8.039  -2.798  1.00  0.00     0.134 A 
ATOM     76  F   UNL     1      -5.457   7.533  -1.129  1.00  0.00    -0.206 F 
ATOM     77  C   UNL     1      -7.492   8.351  -0.292  1.00  0.00     0.040 A 
ATOM     78  C   UNL     1      -9.401   8.553  -1.744  1.00  0.00     0.040 A 
ATOM     79  F   UNL     1      -9.248   7.887  -3.986  1.00  0.00    -0.206 F 
ATOM     80  C   UNL     1      -8.829   8.695  -0.482  1.00  0.00     0.006 A 
ENDBRANCH  59  73
BRANCH  60  81
ATOM     81  C   UNL     1      -2.169   3.169  -9.884  1.00  0.00     0.057 A 
ATOM     82  C   UNL     1      -0.875   3.604 -10.194  1.00  0.00     0.134 A 
ATOM     83  C   UNL     1      -2.694   2.120 -10.649  1.00  0.00     0.134 A 
ATOM     84  F   UNL     1      -0.328   4.628  -9.522  1.00  0.00    -0.206 F 
ATOM     85  C   UNL     1      -0.135   3.025 -11.227  1.00  0.00     0.040 A 
ATOM     86  C   UNL     1      -1.956   1.513 -11.666  1.00  0.00     0.040 A 
ATOM     87  F   UNL     1      -3.934   1.665 -10.413  1.00  0.00    -0.206 F 
ATOM     88  C   UNL     1      -0.673   1.970 -11.961  1.00  0.00     0.006 A 
ENDBRANCH  60  81
BRANCH  72  89
ATOM     89  C   UNL     1      -4.826   9.577  -9.144  1.00  0.00     0.057 A 
ATOM     90  C   UNL     1      -5.604   9.703 -10.300  1.00  0.00     0.134 A 
ATOM     91  C   UNL     1      -4.053  10.683  -8.763  1.00  0.00     0.134 A 
ATOM     92  F   UNL     1      -6.358   8.680 -10.729  1.00  0.00    -0.206 F 
ATOM     93  C   UNL     1      -5.605  10.880 -11.054  1.00  0.00     0.040 A 
ATOM     94  C   UNL     1      -4.069  11.874  -9.491  1.00  0.00     0.040 A 
ATOM     95  F   UNL     1      -3.291  10.634  -7.660  1.00  0.00    -0.206 F 
ATOM     96  C   UNL     1      -4.844  11.973 -10.643  1.00  0.00     0.006 A 
ENDBRANCH  72  89
ENDBRANCH  46  47
ENDBRANCH  39  41
ENDBRANCH  38  39
ENDBRANCH  37  38
ENDBRANCH  36  37
ENDBRANCH  35  36
ENDBRANCH  34  35
ENDBRANCH  33  34
ENDBRANCH  32  33
ENDBRANCH  31  32
ENDBRANCH   1  31
TORSDOF 25
