REMARK SMILES CC(C)Oc1ccc(-c2ccc(/C(=C\c3ccc(S(C)(=O)=O)cc3)C(=O)OCCOCCOCCOC(=O)c3ccc(-c4c5nc(c(-c6c(F)cccc6F)c6ccc([nH]6)c(-c6c(F)cccc6F)c6nc(c(-c7c(F)cccc7F)c7ccc4[nH]7)C=C6)C=C5)cc3)cc2)cc1
REMARK SMILES IDX 31 1 30 2 29 3 28 4 27 5 25 6 26 7 13 8 14 9 12 10 9 11
REMARK SMILES IDX 10 12 94 13 11 14 93 15 8 16 5 17 6 18 96 19 7 20 95 21 4 22
REMARK SMILES IDX 2 23 1 24 3 25 15 26 16 27 24 28 17 29 23 30 18 31 19 32
REMARK SMILES IDX 20 33 21 34 22 35 32 36 33 37 34 38 35 39 36 40 37 41 38 42
REMARK SMILES IDX 39 43 40 44 92 45 41 46 91 47 42 48 43 49 44 50 85 51 45 52
REMARK SMILES IDX 90 53 84 54 86 55 46 56 89 57 83 58 82 59 47 61 73 62 56 63
REMARK SMILES IDX 72 64 57 65 60 66 71 67 87 68 58 69 59 70 70 72 88 73 61 74
REMARK SMILES IDX 48 75 49 76 54 77 50 78 51 79 53 80 55 81 52 82 74 83 75 84
REMARK SMILES IDX 80 85 76 86 77 87 79 88 81 89 78 90 62 91 63 92 68 93 64 94
REMARK SMILES IDX 65 95 67 96 69 97 66 98
REMARK H PARENT 86 60 60 71
REMARK Flexibility Score: inf
ROOT
ATOM      1  C   UNL     1      -6.341   6.805   5.429  1.00  0.00     0.188 C 
ENDROOT
BRANCH   1   2
ATOM      2  O   UNL     1      -7.128   7.958   5.266  1.00  0.00    -0.376 OA
BRANCH   2   3
ATOM      3  C   UNL     1      -8.539   7.890   5.393  1.00  0.00     0.202 C 
BRANCH   3   4
ATOM      4  C   UNL     1      -9.365   6.615   5.669  1.00  0.00     0.261 C 
BRANCH   4   5
ATOM      5  O   UNL     1      -8.671   5.464   6.155  1.00  0.00    -0.460 OA
BRANCH   5   6
ATOM      6  C   UNL     1      -8.591   4.395   5.311  1.00  0.00     0.338 C 
ATOM      7  O   UNL     1      -9.072   4.344   4.189  1.00  0.00    -0.246 OA
BRANCH   6   8
ATOM      8  C   UNL     1      -7.696   3.325   5.882  1.00  0.00     0.067 C 
ATOM      9  C   UNL     1      -7.854   3.093   7.212  1.00  0.00     0.024 C 
BRANCH   8  10
ATOM     10  C   UNL     1      -6.711   2.640   4.980  1.00  0.00    -0.011 A 
ATOM     11  C   UNL     1      -4.607   1.444   3.423  1.00  0.00    -0.018 A 
ATOM     12  C   UNL     1      -5.246   0.752   4.457  1.00  0.00     0.009 A 
ATOM     13  C   UNL     1      -5.075   2.733   3.148  1.00  0.00     0.009 A 
ATOM     14  C   UNL     1      -6.308   1.317   5.175  1.00  0.00     0.009 A 
ATOM     15  C   UNL     1      -6.103   3.319   3.911  1.00  0.00     0.009 A 
BRANCH  11  16
ATOM     16  C   UNL     1      -3.558   0.790   2.615  1.00  0.00    -0.018 A 
ATOM     17  C   UNL     1      -1.629  -0.505   0.986  1.00  0.00     0.119 A 
ATOM     18  C   UNL     1      -2.760  -1.188   1.422  1.00  0.00     0.047 A 
ATOM     19  C   UNL     1      -1.457   0.825   1.354  1.00  0.00     0.047 A 
ATOM     20  C   UNL     1      -3.707  -0.551   2.226  1.00  0.00     0.012 A 
ATOM     21  C   UNL     1      -2.407   1.461   2.172  1.00  0.00     0.012 A 
BRANCH  17  22
ATOM     22  O   UNL     1      -0.851  -1.174   0.090  1.00  0.00    -0.491 OA
BRANCH  22  23
ATOM     23  C   UNL     1       0.563  -1.276   0.299  1.00  0.00     0.167 C 
ATOM     24  C   UNL     1       1.331  -0.022  -0.100  1.00  0.00     0.052 C 
ATOM     25  C   UNL     1       0.952  -1.815   1.673  1.00  0.00     0.052 C 
ENDBRANCH  22  23
ENDBRANCH  17  22
ENDBRANCH  11  16
ENDBRANCH   8  10
BRANCH   9  26
ATOM     26  C   UNL     1      -7.210   2.048   8.025  1.00  0.00    -0.025 A 
ATOM     27  C   UNL     1      -8.040   1.025   8.508  1.00  0.00     0.009 A 
ATOM     28  C   UNL     1      -5.820   1.942   8.185  1.00  0.00     0.009 A 
ATOM     29  C   UNL     1      -7.489  -0.150   9.015  1.00  0.00     0.021 A 
ATOM     30  C   UNL     1      -5.261   0.758   8.682  1.00  0.00     0.021 A 
ATOM     31  C   UNL     1      -6.101  -0.292   9.063  1.00  0.00     0.067 A 
BRANCH  31  32
ATOM     32  S   UNL     1      -5.428  -1.896   9.435  1.00  0.00     0.175 S 
ATOM     33  C   UNL     1      -5.638  -2.057  11.185  1.00  0.00     0.163 C 
ATOM     34  O   UNL     1      -6.285  -2.871   8.786  1.00  0.00    -0.224 OA
ATOM     35  O   UNL     1      -4.005  -1.857   9.155  1.00  0.00    -0.224 OA
ENDBRANCH  31  32
ENDBRANCH   9  26
ENDBRANCH   6   8
ENDBRANCH   5   6
ENDBRANCH   4   5
ENDBRANCH   3   4
ENDBRANCH   2   3
ENDBRANCH   1   2
BRANCH   1  36
ATOM     36  C   UNL     1      -6.009   6.372   6.870  1.00  0.00     0.188 C 
BRANCH  36  37
ATOM     37  O   UNL     1      -6.563   7.067   7.968  1.00  0.00    -0.376 OA
BRANCH  37  38
ATOM     38  C   UNL     1      -6.385   8.472   8.057  1.00  0.00     0.202 C 
BRANCH  38  39
ATOM     39  C   UNL     1      -5.055   9.165   7.701  1.00  0.00     0.261 C 
BRANCH  39  40
ATOM     40  O   UNL     1      -4.339   8.659   6.564  1.00  0.00    -0.460 OA
BRANCH  40  41
ATOM     41  C   UNL     1      -3.191   7.991   6.840  1.00  0.00     0.338 C 
ATOM     42  O   UNL     1      -2.705   7.771   7.939  1.00  0.00    -0.246 OA
BRANCH  41  43
ATOM     43  C   UNL     1      -2.667   7.392   5.598  1.00  0.00     0.060 A 
ATOM     44  C   UNL     1      -2.682   5.997   5.455  1.00  0.00     0.016 A 
ATOM     45  C   UNL     1      -2.127   8.199   4.597  1.00  0.00     0.016 A 
ATOM     46  C   UNL     1      -2.157   5.404   4.306  1.00  0.00     0.010 A 
ATOM     47  C   UNL     1      -1.575   7.601   3.459  1.00  0.00     0.010 A 
ATOM     48  C   UNL     1      -1.573   6.202   3.315  1.00  0.00    -0.014 A 
BRANCH  48  49
ATOM     49  C   UNL     1      -0.839   5.577   2.188  1.00  0.00     0.031 A 
ATOM     50  C   UNL     1       0.654   5.447   2.276  1.00  0.00     0.074 A 
ATOM     51  C   UNL     1      -1.489   5.134   1.099  1.00  0.00     0.049 A 
ATOM     52  N   UNL     1       1.504   5.019   1.378  1.00  0.00    -0.248 NA
ATOM     53  C   UNL     1       1.272   5.865   3.544  1.00  0.00     0.031 C 
ATOM     54  C   UNL     1      -2.937   5.166   0.912  1.00  0.00     0.029 A 
ATOM     55  N   UNL     1      -1.010   4.568  -0.057  1.00  0.00    -0.354 N 
ATOM     56  C   UNL     1       2.758   5.139   1.961  1.00  0.00     0.074 A 
ATOM     57  C   UNL     1       2.559   5.688   3.285  1.00  0.00     0.031 C 
ATOM     58  C   UNL     1      -3.232   4.632  -0.286  1.00  0.00     0.029 A 
ATOM     59  C   UNL     1      -1.991   4.281  -0.975  1.00  0.00     0.049 A 
ATOM     60  H   UNL     1      -0.056   4.385  -0.213  1.00  0.00     0.167 HD
ATOM     61  C   UNL     1       3.967   4.827   1.436  1.00  0.00     0.037 A 
ATOM     62  C   UNL     1      -1.894   3.826  -2.240  1.00  0.00     0.037 A 
ATOM     63  C   UNL     1       4.163   4.292   0.115  1.00  0.00     0.049 A 
ATOM     64  C   UNL     1      -0.532   3.559  -2.828  1.00  0.00     0.074 A 
ATOM     65  C   UNL     1       5.349   3.932  -0.501  1.00  0.00     0.029 A 
ATOM     66  N   UNL     1       3.150   4.056  -0.802  1.00  0.00    -0.354 N 
ATOM     67  N   UNL     1       0.648   3.657  -2.264  1.00  0.00    -0.248 NA
ATOM     68  C   UNL     1      -0.487   3.137  -4.236  1.00  0.00     0.031 C 
ATOM     69  C   UNL     1       5.060   3.535  -1.810  1.00  0.00     0.029 A 
ATOM     70  C   UNL     1       3.687   3.586  -1.989  1.00  0.00     0.049 A 
ATOM     71  H   UNL     1       2.191   4.201  -0.634  1.00  0.00     0.167 HD
ATOM     72  C   UNL     1       1.569   3.288  -3.238  1.00  0.00     0.074 A 
ATOM     73  C   UNL     1       0.811   2.947  -4.423  1.00  0.00     0.031 C 
ATOM     74  C   UNL     1       2.922   3.242  -3.160  1.00  0.00     0.037 A 
BRANCH  61  75
ATOM     75  C   UNL     1       5.178   5.100   2.281  1.00  0.00     0.057 A 
ATOM     76  C   UNL     1       5.475   4.343   3.421  1.00  0.00     0.134 A 
ATOM     77  C   UNL     1       6.074   6.118   1.929  1.00  0.00     0.134 A 
ATOM     78  F   UNL     1       4.651   3.362   3.820  1.00  0.00    -0.206 F 
ATOM     79  C   UNL     1       6.606   4.605   4.196  1.00  0.00     0.040 A 
ATOM     80  C   UNL     1       7.223   6.370   2.679  1.00  0.00     0.040 A 
ATOM     81  F   UNL     1       5.852   6.878   0.846  1.00  0.00    -0.206 F 
ATOM     82  C   UNL     1       7.488   5.617   3.821  1.00  0.00     0.006 A 
ENDBRANCH  61  75
BRANCH  62  83
ATOM     83  C   UNL     1      -3.118   3.634  -3.063  1.00  0.00     0.057 A 
ATOM     84  C   UNL     1      -3.510   2.361  -3.494  1.00  0.00     0.134 A 
ATOM     85  C   UNL     1      -3.904   4.720  -3.469  1.00  0.00     0.134 A 
ATOM     86  F   UNL     1      -2.779   1.285  -3.171  1.00  0.00    -0.206 F 
ATOM     87  C   UNL     1      -4.629   2.177  -4.309  1.00  0.00     0.040 A 
ATOM     88  C   UNL     1      -5.042   4.547  -4.259  1.00  0.00     0.040 A 
ATOM     89  F   UNL     1      -3.580   5.968  -3.098  1.00  0.00    -0.206 F 
ATOM     90  C   UNL     1      -5.402   3.272  -4.688  1.00  0.00     0.006 A 
ENDBRANCH  62  83
BRANCH  74  91
ATOM     91  C   UNL     1       3.674   2.771  -4.374  1.00  0.00     0.057 A 
ATOM     92  C   UNL     1       3.787   3.556  -5.529  1.00  0.00     0.134 A 
ATOM     93  C   UNL     1       4.342   1.539  -4.363  1.00  0.00     0.134 A 
ATOM     94  F   UNL     1       3.164   4.741  -5.610  1.00  0.00    -0.206 F 
ATOM     95  C   UNL     1       4.521   3.124  -6.636  1.00  0.00     0.040 A 
ATOM     96  C   UNL     1       5.103   1.110  -5.451  1.00  0.00     0.040 A 
ATOM     97  F   UNL     1       4.284   0.743  -3.285  1.00  0.00    -0.206 F 
ATOM     98  C   UNL     1       5.189   1.901  -6.594  1.00  0.00     0.006 A 
ENDBRANCH  74  91
ENDBRANCH  48  49
ENDBRANCH  41  43
ENDBRANCH  40  41
ENDBRANCH  39  40
ENDBRANCH  38  39
ENDBRANCH  37  38
ENDBRANCH  36  37
ENDBRANCH   1  36
TORSDOF 23
