REMARK SMILES O=C(CSc1ccc2ccccc2c1)OCCOCCOCCOC(=O)c1ccc(-c2c3nc(c(-c4c(F)cccc4F)c4ccc([nH]4)c(-c4c(F)cccc4F)c4nc(c(-c5c(F)cccc5F)c5ccc2[nH]5)C=C4)C=C3)cc1
REMARK SMILES IDX 19 1 18 2 17 3 16 4 15 5 2 6 1 7 3 8 4 9 5 10 6 11 14 12
REMARK SMILES IDX 7 13 13 14 8 15 12 16 9 17 11 18 10 19 20 20 21 21 22 22
REMARK SMILES IDX 23 23 24 24 25 25 26 26 27 27 28 28 80 29 29 30 79 31 30 32
REMARK SMILES IDX 31 33 32 34 73 35 33 36 78 37 72 38 74 39 34 40 77 41 71 42
REMARK SMILES IDX 70 43 35 45 61 46 44 47 60 48 45 49 48 50 59 51 75 52 46 53
REMARK SMILES IDX 47 54 58 56 76 57 49 58 36 59 37 60 42 61 38 62 39 63 41 64
REMARK SMILES IDX 43 65 40 66 62 67 63 68 68 69 64 70 65 71 67 72 69 73 66 74
REMARK SMILES IDX 50 75 51 76 56 77 52 78 53 79 55 80 57 81 54 82
REMARK H PARENT 74 44 48 55
REMARK Flexibility Score: inf
ROOT
ATOM      1  C   UNL     1       2.846  -0.045  -1.799  1.00  0.00     0.188 C 
ENDROOT
BRANCH   1   2
ATOM      2  O   UNL     1       4.261  -0.108  -1.781  1.00  0.00    -0.376 OA
BRANCH   2   3
ATOM      3  C   UNL     1       4.942  -0.009  -0.540  1.00  0.00     0.202 C 
BRANCH   3   4
ATOM      4  C   UNL     1       4.517  -1.000   0.546  1.00  0.00     0.261 C 
BRANCH   4   5
ATOM      5  O   UNL     1       3.178  -0.891   1.092  1.00  0.00    -0.463 OA
BRANCH   5   6
ATOM      6  C   UNL     1       2.447   0.208   1.376  1.00  0.00     0.316 C 
ATOM      7  O   UNL     1       1.221   0.112   1.438  1.00  0.00    -0.251 OA
BRANCH   6   8
ATOM      8  C   UNL     1       3.116   1.542   1.578  1.00  0.00     0.197 C 
BRANCH   8   9
ATOM      9  S   UNL     1       4.393   1.504   2.872  1.00  0.00    -0.114 SA
BRANCH   9  10
ATOM     10  C   UNL     1       3.303   1.062   4.210  1.00  0.00     0.008 A 
ATOM     11  C   UNL     1       2.527   2.049   4.816  1.00  0.00     0.016 A 
ATOM     12  C   UNL     1       3.100  -0.284   4.526  1.00  0.00     0.023 A 
ATOM     13  C   UNL     1       1.518   1.690   5.708  1.00  0.00     0.010 A 
ATOM     14  C   UNL     1       2.073  -0.660   5.401  1.00  0.00    -0.017 A 
ATOM     15  C   UNL     1       1.269   0.340   5.996  1.00  0.00    -0.018 A 
ATOM     16  C   UNL     1       1.804  -2.011   5.667  1.00  0.00     0.009 A 
ATOM     17  C   UNL     1       0.221  -0.040   6.847  1.00  0.00     0.009 A 
ATOM     18  C   UNL     1       0.753  -2.372   6.511  1.00  0.00     0.001 A 
ATOM     19  C   UNL     1      -0.035  -1.387   7.101  1.00  0.00     0.001 A 
ENDBRANCH   9  10
ENDBRANCH   8   9
ENDBRANCH   6   8
ENDBRANCH   5   6
ENDBRANCH   4   5
ENDBRANCH   3   4
ENDBRANCH   2   3
ENDBRANCH   1   2
BRANCH   1  20
ATOM     20  C   UNL     1       2.233  -0.612  -3.089  1.00  0.00     0.188 C 
BRANCH  20  21
ATOM     21  O   UNL     1       2.968  -1.622  -3.769  1.00  0.00    -0.376 OA
BRANCH  21  22
ATOM     22  C   UNL     1       4.259  -1.273  -4.272  1.00  0.00     0.202 C 
BRANCH  22  23
ATOM     23  C   UNL     1       4.363  -0.039  -5.183  1.00  0.00     0.261 C 
BRANCH  23  24
ATOM     24  O   UNL     1       4.012   1.212  -4.548  1.00  0.00    -0.460 OA
BRANCH  24  25
ATOM     25  C   UNL     1       3.016   1.904  -5.156  1.00  0.00     0.338 C 
ATOM     26  O   UNL     1       2.396   1.585  -6.157  1.00  0.00    -0.246 OA
BRANCH  25  27
ATOM     27  C   UNL     1       2.654   3.108  -4.386  1.00  0.00     0.060 A 
ATOM     28  C   UNL     1       1.391   3.167  -3.781  1.00  0.00     0.016 A 
ATOM     29  C   UNL     1       3.464   4.243  -4.440  1.00  0.00     0.016 A 
ATOM     30  C   UNL     1       0.918   4.376  -3.263  1.00  0.00     0.010 A 
ATOM     31  C   UNL     1       2.983   5.456  -3.931  1.00  0.00     0.010 A 
ATOM     32  C   UNL     1       1.693   5.539  -3.375  1.00  0.00    -0.014 A 
BRANCH  32  33
ATOM     33  C   UNL     1       1.103   6.865  -3.056  1.00  0.00     0.031 A 
ATOM     34  C   UNL     1       0.545   7.710  -4.171  1.00  0.00     0.074 A 
ATOM     35  C   UNL     1       1.059   7.321  -1.792  1.00  0.00     0.049 A 
ATOM     36  N   UNL     1       0.045   8.919  -4.127  1.00  0.00    -0.248 NA
ATOM     37  C   UNL     1       0.553   7.110  -5.515  1.00  0.00     0.031 C 
ATOM     38  C   UNL     1       1.527   6.594  -0.614  1.00  0.00     0.029 A 
ATOM     39  N   UNL     1       0.607   8.518  -1.294  1.00  0.00    -0.354 N 
ATOM     40  C   UNL     1      -0.318   9.227  -5.433  1.00  0.00     0.074 A 
ATOM     41  C   UNL     1       0.042   8.087  -6.250  1.00  0.00     0.031 C 
ATOM     42  C   UNL     1       1.354   7.369   0.471  1.00  0.00     0.029 A 
ATOM     43  C   UNL     1       0.791   8.655   0.060  1.00  0.00     0.049 A 
ATOM     44  H   UNL     1       0.191   9.213  -1.854  1.00  0.00     0.167 HD
ATOM     45  C   UNL     1      -0.904  10.352  -5.909  1.00  0.00     0.037 A 
ATOM     46  C   UNL     1       0.556   9.705   0.871  1.00  0.00     0.037 A 
ATOM     47  C   UNL     1      -1.263  11.491  -5.106  1.00  0.00     0.049 A 
ATOM     48  C   UNL     1      -0.024  10.975   0.305  1.00  0.00     0.074 A 
ATOM     49  C   UNL     1      -1.876  12.667  -5.503  1.00  0.00     0.029 A 
ATOM     50  N   UNL     1      -1.033  11.600  -3.744  1.00  0.00    -0.354 N 
ATOM     51  N   UNL     1      -0.385  11.244  -0.926  1.00  0.00    -0.248 NA
ATOM     52  C   UNL     1      -0.229  12.088   1.245  1.00  0.00     0.031 C 
ATOM     53  C   UNL     1      -1.979  13.506  -4.388  1.00  0.00     0.029 A 
ATOM     54  C   UNL     1      -1.470  12.834  -3.289  1.00  0.00     0.049 A 
ATOM     55  H   UNL     1      -0.621  10.905  -3.183  1.00  0.00     0.167 HD
ATOM     56  C   UNL     1      -0.884  12.541  -0.902  1.00  0.00     0.074 A 
ATOM     57  C   UNL     1      -0.788  13.003   0.466  1.00  0.00     0.031 C 
ATOM     58  C   UNL     1      -1.379  13.282  -1.924  1.00  0.00     0.037 A 
BRANCH  45  59
ATOM     59  C   UNL     1      -1.179  10.415  -7.382  1.00  0.00     0.057 A 
ATOM     60  C   UNL     1      -2.218   9.683  -7.970  1.00  0.00     0.134 A 
ATOM     61  C   UNL     1      -0.421  11.248  -8.214  1.00  0.00     0.134 A 
ATOM     62  F   UNL     1      -2.973   8.859  -7.228  1.00  0.00    -0.206 F 
ATOM     63  C   UNL     1      -2.483   9.764  -9.338  1.00  0.00     0.040 A 
ATOM     64  C   UNL     1      -0.690  11.354  -9.580  1.00  0.00     0.040 A 
ATOM     65  F   UNL     1       0.585  11.979  -7.712  1.00  0.00    -0.206 F 
ATOM     66  C   UNL     1      -1.721  10.607 -10.146  1.00  0.00     0.006 A 
ENDBRANCH  45  59
BRANCH  46  67
ATOM     67  C   UNL     1       0.886   9.617   2.315  1.00  0.00     0.057 A 
ATOM     68  C   UNL     1      -0.120   9.582   3.288  1.00  0.00     0.134 A 
ATOM     69  C   UNL     1       2.214   9.606   2.758  1.00  0.00     0.134 A 
ATOM     70  F   UNL     1      -1.411   9.619   2.925  1.00  0.00    -0.206 F 
ATOM     71  C   UNL     1       0.182   9.556   4.650  1.00  0.00     0.040 A 
ATOM     72  C   UNL     1       2.530   9.557   4.116  1.00  0.00     0.040 A 
ATOM     73  F   UNL     1       3.222   9.641   1.875  1.00  0.00    -0.206 F 
ATOM     74  C   UNL     1       1.512   9.540   5.067  1.00  0.00     0.006 A 
ENDBRANCH  46  67
BRANCH  58  75
ATOM     75  C   UNL     1      -1.889  14.656  -1.598  1.00  0.00     0.057 A 
ATOM     76  C   UNL     1      -1.023  15.718  -1.312  1.00  0.00     0.134 A 
ATOM     77  C   UNL     1      -3.263  14.928  -1.612  1.00  0.00     0.134 A 
ATOM     78  F   UNL     1       0.304  15.521  -1.270  1.00  0.00    -0.206 F 
ATOM     79  C   UNL     1      -1.506  16.998  -1.030  1.00  0.00     0.040 A 
ATOM     80  C   UNL     1      -3.757  16.208  -1.355  1.00  0.00     0.040 A 
ATOM     81  F   UNL     1      -4.147  13.957  -1.887  1.00  0.00    -0.206 F 
ATOM     82  C   UNL     1      -2.877  17.246  -1.058  1.00  0.00     0.006 A 
ENDBRANCH  58  75
ENDBRANCH  32  33
ENDBRANCH  25  27
ENDBRANCH  24  25
ENDBRANCH  23  24
ENDBRANCH  22  23
ENDBRANCH  21  22
ENDBRANCH  20  21
ENDBRANCH   1  20
TORSDOF 19
