REMARK SMILES O=C(CCNC(=O)C1CCCC1)OCCOCCOCCOC(=O)c1ccc(-c2c3nc(c(-c4c(F)cccc4F)c4ccc([nH]4)c(-c4c(F)cccc4F)c4nc(c(-c5c(F)cccc5F)c5ccc2[nH]5)C=C4)C=C3)cc1
REMARK SMILES IDX 17 1 16 2 15 3 14 4 13 5 2 6 1 7 3 8 4 9 5 10 6 11 7 13 8 14
REMARK SMILES IDX 9 15 12 16 10 17 11 18 18 19 19 20 20 21 21 22 22 23 23 24
REMARK SMILES IDX 24 25 25 26 26 27 78 28 27 29 77 30 28 31 29 32 30 33 71 34
REMARK SMILES IDX 31 35 76 36 70 37 72 38 32 39 75 40 69 41 68 42 33 44 59 45
REMARK SMILES IDX 42 46 58 47 43 48 46 49 57 50 73 51 44 52 45 53 56 55 74 56
REMARK SMILES IDX 47 57 34 58 35 59 40 60 36 61 37 62 39 63 41 64 38 65 60 66
REMARK SMILES IDX 61 67 66 68 62 69 63 70 65 71 67 72 64 73 48 74 49 75 54 76
REMARK SMILES IDX 50 77 51 78 53 79 55 80 52 81
REMARK H PARENT 5 12 72 43 46 54
REMARK Flexibility Score: inf
ROOT
ATOM      1  C   UNL     1       2.562  -0.822  -1.623  1.00  0.00     0.188 C 
ENDROOT
BRANCH   1   2
ATOM      2  O   UNL     1       3.960  -0.618  -1.679  1.00  0.00    -0.376 OA
BRANCH   2   3
ATOM      3  C   UNL     1       4.724  -0.609  -0.476  1.00  0.00     0.202 C 
BRANCH   3   4
ATOM      4  C   UNL     1       4.191  -1.280   0.789  1.00  0.00     0.261 C 
BRANCH   4   5
ATOM      5  O   UNL     1       3.013  -0.758   1.476  1.00  0.00    -0.463 OA
BRANCH   5   6
ATOM      6  C   UNL     1       2.411   0.438   1.580  1.00  0.00     0.307 C 
ATOM      7  O   UNL     1       1.351   0.530   2.198  1.00  0.00    -0.252 OA
BRANCH   6   8
ATOM      8  C   UNL     1       3.018   1.665   0.973  1.00  0.00     0.144 C 
BRANCH   8   9
ATOM      9  C   UNL     1       4.005   2.334   1.917  1.00  0.00     0.127 C 
BRANCH   9  10
ATOM     10  N   UNL     1       5.186   1.526   2.160  1.00  0.00    -0.355 N 
ATOM     11  C   UNL     1       6.441   1.566   1.648  1.00  0.00     0.223 C 
ATOM     12  H   UNL     1       5.050   0.812   2.824  1.00  0.00     0.163 HD
ATOM     13  O   UNL     1       7.181   0.618   1.928  1.00  0.00    -0.275 OA
BRANCH  11  14
ATOM     14  C   UNL     1       6.950   2.694   0.767  1.00  0.00     0.078 C 
ATOM     15  C   UNL     1       6.239   2.913  -0.562  1.00  0.00     0.013 C 
ATOM     16  C   UNL     1       6.971   4.060   1.455  1.00  0.00     0.013 C 
ATOM     17  C   UNL     1       6.655   4.323  -0.949  1.00  0.00     0.001 C 
ATOM     18  C   UNL     1       6.658   5.087   0.367  1.00  0.00     0.001 C 
ENDBRANCH  11  14
ENDBRANCH   9  10
ENDBRANCH   8   9
ENDBRANCH   6   8
ENDBRANCH   5   6
ENDBRANCH   4   5
ENDBRANCH   3   4
ENDBRANCH   2   3
ENDBRANCH   1   2
BRANCH   1  19
ATOM     19  C   UNL     1       2.077  -2.059  -2.389  1.00  0.00     0.188 C 
BRANCH  19  20
ATOM     20  O   UNL     1       2.917  -3.204  -2.372  1.00  0.00    -0.376 OA
BRANCH  20  21
ATOM     21  C   UNL     1       4.181  -3.110  -3.036  1.00  0.00     0.202 C 
BRANCH  21  22
ATOM     22  C   UNL     1       4.213  -2.568  -4.474  1.00  0.00     0.261 C 
BRANCH  22  23
ATOM     23  O   UNL     1       3.876  -1.165  -4.574  1.00  0.00    -0.460 OA
BRANCH  23  24
ATOM     24  C   UNL     1       2.898  -0.857  -5.449  1.00  0.00     0.338 C 
ATOM     25  O   UNL     1       2.277  -1.631  -6.179  1.00  0.00    -0.246 OA
BRANCH  24  26
ATOM     26  C   UNL     1       2.536   0.565  -5.356  1.00  0.00     0.060 A 
ATOM     27  C   UNL     1       1.297   0.915  -4.799  1.00  0.00     0.016 A 
ATOM     28  C   UNL     1       3.338   1.535  -5.961  1.00  0.00     0.016 A 
ATOM     29  C   UNL     1       0.852   2.238  -4.861  1.00  0.00     0.010 A 
ATOM     30  C   UNL     1       2.879   2.855  -6.035  1.00  0.00     0.010 A 
ATOM     31  C   UNL     1       1.623   3.210  -5.510  1.00  0.00    -0.014 A 
BRANCH  31  32
ATOM     32  C   UNL     1       1.075   4.569  -5.748  1.00  0.00     0.031 A 
ATOM     33  C   UNL     1       0.435   4.887  -7.072  1.00  0.00     0.074 A 
ATOM     34  C   UNL     1       1.154   5.519  -4.799  1.00  0.00     0.049 A 
ATOM     35  N   UNL     1      -0.029   6.027  -7.517  1.00  0.00    -0.248 NA
ATOM     36  C   UNL     1       0.299   3.770  -8.021  1.00  0.00     0.031 C 
ATOM     37  C   UNL     1       1.713   5.334  -3.462  1.00  0.00     0.029 A 
ATOM     38  N   UNL     1       0.776   6.839  -4.827  1.00  0.00    -0.354 N 
ATOM     39  C   UNL     1      -0.505   5.769  -8.796  1.00  0.00     0.074 A 
ATOM     40  C   UNL     1      -0.260   4.368  -9.064  1.00  0.00     0.031 C 
ATOM     41  C   UNL     1       1.665   6.506  -2.804  1.00  0.00     0.029 A 
ATOM     42  C   UNL     1       1.103   7.529  -3.685  1.00  0.00     0.049 A 
ATOM     43  H   UNL     1       0.315   7.252  -5.593  1.00  0.00     0.167 HD
ATOM     44  C   UNL     1      -1.095   6.622  -9.668  1.00  0.00     0.037 A 
ATOM     45  C   UNL     1       0.992   8.840  -3.397  1.00  0.00     0.037 A 
ATOM     46  C   UNL     1      -1.343   8.016  -9.408  1.00  0.00     0.049 A 
ATOM     47  C   UNL     1       0.406   9.783  -4.417  1.00  0.00     0.074 A 
ATOM     48  C   UNL     1      -1.967   8.946 -10.222  1.00  0.00     0.029 A 
ATOM     49  N   UNL     1      -0.969   8.682  -8.252  1.00  0.00    -0.354 N 
ATOM     50  N   UNL     1      -0.071   9.521  -5.609  1.00  0.00    -0.248 NA
ATOM     51  C   UNL     1       0.350  11.207  -4.050  1.00  0.00     0.031 C 
ATOM     52  C   UNL     1      -1.928  10.187  -9.578  1.00  0.00     0.029 A 
ATOM     53  C   UNL     1      -1.320  10.019  -8.345  1.00  0.00     0.049 A 
ATOM     54  H   UNL     1      -0.521   8.267  -7.480  1.00  0.00     0.167 HD
ATOM     55  C   UNL     1      -0.505  10.738  -6.122  1.00  0.00     0.074 A 
ATOM     56  C   UNL     1      -0.248  11.737  -5.107  1.00  0.00     0.031 C 
ATOM     57  C   UNL     1      -1.064  11.005  -7.327  1.00  0.00     0.037 A 
BRANCH  44  58
ATOM     58  C   UNL     1      -1.503   6.079 -11.005  1.00  0.00     0.057 A 
ATOM     59  C   UNL     1      -2.630   5.262 -11.156  1.00  0.00     0.134 A 
ATOM     60  C   UNL     1      -0.797   6.433 -12.161  1.00  0.00     0.134 A 
ATOM     61  F   UNL     1      -3.341   4.880 -10.085  1.00  0.00    -0.206 F 
ATOM     62  C   UNL     1      -3.035   4.808 -12.413  1.00  0.00     0.040 A 
ATOM     63  C   UNL     1      -1.204   6.002 -13.425  1.00  0.00     0.040 A 
ATOM     64  F   UNL     1       0.288   7.218 -12.083  1.00  0.00    -0.206 F 
ATOM     65  C   UNL     1      -2.326   5.186 -13.552  1.00  0.00     0.006 A 
ENDBRANCH  44  58
BRANCH  45  66
ATOM     66  C   UNL     1       1.480   9.364  -2.096  1.00  0.00     0.057 A 
ATOM     67  C   UNL     1       0.594   9.863  -1.135  1.00  0.00     0.134 A 
ATOM     68  C   UNL     1       2.849   9.425  -1.806  1.00  0.00     0.134 A 
ATOM     69  F   UNL     1      -0.727   9.858  -1.368  1.00  0.00    -0.206 F 
ATOM     70  C   UNL     1       1.051  10.427   0.057  1.00  0.00     0.040 A 
ATOM     71  C   UNL     1       3.318   9.963  -0.607  1.00  0.00     0.040 A 
ATOM     72  F   UNL     1       3.750   8.963  -2.686  1.00  0.00    -0.206 F 
ATOM     73  C   UNL     1       2.418  10.475   0.325  1.00  0.00     0.006 A 
ENDBRANCH  45  66
BRANCH  57  74
ATOM     74  C   UNL     1      -1.461  12.425  -7.606  1.00  0.00     0.057 A 
ATOM     75  C   UNL     1      -0.510  13.417  -7.874  1.00  0.00     0.134 A 
ATOM     76  C   UNL     1      -2.812  12.795  -7.646  1.00  0.00     0.134 A 
ATOM     77  F   UNL     1       0.800  13.131  -7.838  1.00  0.00    -0.206 F 
ATOM     78  C   UNL     1      -0.887  14.732  -8.153  1.00  0.00     0.040 A 
ATOM     79  C   UNL     1      -3.202  14.101  -7.948  1.00  0.00     0.040 A 
ATOM     80  F   UNL     1      -3.774  11.891  -7.408  1.00  0.00    -0.206 F 
ATOM     81  C   UNL     1      -2.238  15.075  -8.197  1.00  0.00     0.006 A 
ENDBRANCH  57  74
ENDBRANCH  31  32
ENDBRANCH  24  26
ENDBRANCH  23  24
ENDBRANCH  22  23
ENDBRANCH  21  22
ENDBRANCH  20  21
ENDBRANCH  19  20
ENDBRANCH   1  19
TORSDOF 20
