REMARK SMILES CC(=O)Nc1cnc(N2CC=C(c3ccccc3C)CC2)c(C(=O)OCCOCCOCCOC(=O)c2ccc(-c3c4nc(c(-c5c(F)cccc5F)c5ccc([nH]5)c(-c5c(F)cccc5F)c5nc(c(-c6c(F)cccc6F)c6ccc3[nH]6)C=C5)C=C4)cc2)c1
REMARK SMILES IDX 29 1 28 2 27 3 26 4 25 5 23 6 24 7 22 8 5 9 6 10 91 11 7 12
REMARK SMILES IDX 8 13 4 14 1 15 2 16 3 17 9 19 10 20 21 21 11 22 20 23 12 24
REMARK SMILES IDX 13 25 14 26 18 27 15 28 17 29 19 30 16 31 30 32 31 33 32 34
REMARK SMILES IDX 33 35 34 36 35 37 36 38 37 39 38 40 90 41 39 42 89 43 40 44
REMARK SMILES IDX 41 45 42 46 83 47 43 48 88 49 82 50 84 51 44 52 87 53 81 54
REMARK SMILES IDX 80 55 45 57 71 58 54 59 70 60 55 61 58 62 69 63 85 64 56 65
REMARK SMILES IDX 57 66 68 68 86 69 59 70 46 71 47 72 52 73 48 74 49 75 51 76
REMARK SMILES IDX 53 77 50 78 72 79 73 80 78 81 74 82 75 83 77 84 79 85 76 86
REMARK SMILES IDX 60 87 61 88 66 89 62 90 63 91 65 92 67 93 64 94
REMARK H PARENT 4 18 84 56 58 67
REMARK Flexibility Score: inf
ROOT
ATOM      1  C   UNL     1       9.051   1.208   0.958  1.00  0.00     0.188 C 
ENDROOT
BRANCH   1   2
ATOM      2  O   UNL     1       8.019   0.212   1.044  1.00  0.00    -0.376 OA
BRANCH   2   3
ATOM      3  C   UNL     1       7.223  -0.308  -0.027  1.00  0.00     0.202 C 
BRANCH   3   4
ATOM      4  C   UNL     1       5.533  -0.212  -0.344  1.00  0.00     0.261 C 
BRANCH   4   5
ATOM      5  O   UNL     1       4.332   1.100  -0.320  1.00  0.00    -0.460 OA
BRANCH   5   6
ATOM      6  C   UNL     1       3.640   2.042   0.568  1.00  0.00     0.342 C 
ATOM      7  O   UNL     1       3.553   2.038   1.794  1.00  0.00    -0.246 OA
BRANCH   6   8
ATOM      8  C   UNL     1       2.717   3.048   0.053  1.00  0.00     0.104 A 
ATOM      9  C   UNL     1       0.542   3.106  -0.943  1.00  0.00     0.060 A 
ATOM     10  C   UNL     1       0.414   4.393  -0.443  1.00  0.00     0.139 A 
ATOM     11  C   UNL     1       1.739   2.453  -0.739  1.00  0.00     0.047 A 
ATOM     12  N   UNL     1       1.333   5.001   0.344  1.00  0.00    -0.236 NA
ATOM     13  C   UNL     1       2.466   4.325   0.668  1.00  0.00     0.143 A 
BRANCH   9  14
ATOM     14  N   UNL     1      -0.495   2.496  -1.653  1.00  0.00    -0.325 N 
ATOM     15  C   UNL     1      -0.522   0.344  -0.409  1.00  0.00     0.114 C 
ATOM     16  C   UNL     1      -0.864   1.174  -1.628  1.00  0.00     0.221 C 
ATOM     17  O   UNL     1      -1.540   0.712  -2.547  1.00  0.00    -0.275 OA
ATOM     18  H   UNL     1      -1.024   3.083  -2.241  1.00  0.00     0.169 HD
ENDBRANCH   9  14
BRANCH  13  19
ATOM     19  N   UNL     1       3.327   5.030   1.526  1.00  0.00    -0.352 N 
ATOM     20  C   UNL     1       2.821   5.418   2.861  1.00  0.00     0.146 C 
ATOM     21  C   UNL     1       4.225   5.948   0.839  1.00  0.00     0.123 C 
ATOM     22  C   UNL     1       3.606   6.557   3.523  1.00  0.00    -0.002 C 
ATOM     23  C   UNL     1       4.244   7.394   1.362  1.00  0.00     0.057 C 
ATOM     24  C   UNL     1       4.289   7.519   2.864  1.00  0.00    -0.041 C 
BRANCH  24  25
ATOM     25  C   UNL     1       5.116   8.618   3.513  1.00  0.00    -0.020 A 
ATOM     26  C   UNL     1       5.732   8.374   4.764  1.00  0.00     0.008 A 
ATOM     27  C   UNL     1       5.421   9.869   2.914  1.00  0.00    -0.044 A 
ATOM     28  C   UNL     1       6.675   9.246   5.338  1.00  0.00     0.001 A 
ATOM     29  C   UNL     1       6.378  10.738   3.501  1.00  0.00     0.004 A 
ATOM     30  C   UNL     1       4.780  10.378   1.651  1.00  0.00     0.045 C 
ATOM     31  C   UNL     1       7.012  10.424   4.696  1.00  0.00     0.000 A 
ENDBRANCH  24  25
ENDBRANCH  13  19
ENDBRANCH   6   8
ENDBRANCH   5   6
ENDBRANCH   4   5
ENDBRANCH   3   4
ENDBRANCH   2   3
ENDBRANCH   1   2
BRANCH   1  32
ATOM     32  C   UNL     1       9.743   1.622  -0.339  1.00  0.00     0.188 C 
BRANCH  32  33
ATOM     33  O   UNL     1       8.886   1.469  -1.448  1.00  0.00    -0.376 OA
BRANCH  33  34
ATOM     34  C   UNL     1       9.506   1.643  -2.711  1.00  0.00     0.202 C 
BRANCH  34  35
ATOM     35  C   UNL     1       9.734   3.121  -3.067  1.00  0.00     0.261 C 
BRANCH  35  36
ATOM     36  O   UNL     1       8.519   3.886  -2.905  1.00  0.00    -0.460 OA
BRANCH  36  37
ATOM     37  C   UNL     1       8.474   4.747  -1.837  1.00  0.00     0.338 C 
ATOM     38  O   UNL     1       9.298   5.622  -1.607  1.00  0.00    -0.246 OA
BRANCH  37  39
ATOM     39  C   UNL     1       7.419   4.301  -0.878  1.00  0.00     0.060 A 
ATOM     40  C   UNL     1       7.456   4.460   0.515  1.00  0.00     0.016 A 
ATOM     41  C   UNL     1       6.563   3.371  -1.345  1.00  0.00     0.016 A 
ATOM     42  C   UNL     1       6.774   3.538   1.424  1.00  0.00     0.010 A 
ATOM     43  C   UNL     1       6.216   2.378  -0.434  1.00  0.00     0.010 A 
ATOM     44  C   UNL     1       6.197   2.336   1.014  1.00  0.00    -0.014 A 
BRANCH  44  45
ATOM     45  C   UNL     1       5.740   1.036   2.120  1.00  0.00     0.031 A 
ATOM     46  C   UNL     1       4.397  -0.142   2.194  1.00  0.00     0.074 A 
ATOM     47  C   UNL     1       6.491   0.905   3.246  1.00  0.00     0.049 A 
ATOM     48  N   UNL     1       3.996  -0.753   3.303  1.00  0.00    -0.248 NA
ATOM     49  C   UNL     1       3.369  -0.573   1.150  1.00  0.00     0.031 C 
ATOM     50  C   UNL     1       6.512  -0.226   4.175  1.00  0.00     0.029 A 
ATOM     51  N   UNL     1       7.374   1.819   3.841  1.00  0.00    -0.354 N 
ATOM     52  C   UNL     1       2.950  -1.645   3.014  1.00  0.00     0.074 A 
ATOM     53  C   UNL     1       2.459  -1.299   1.757  1.00  0.00     0.031 C 
ATOM     54  C   UNL     1       7.057   0.167   5.333  1.00  0.00     0.029 A 
ATOM     55  C   UNL     1       7.327   1.582   5.228  1.00  0.00     0.049 A 
ATOM     56  H   UNL     1       7.921   2.495   3.378  1.00  0.00     0.167 HD
ATOM     57  C   UNL     1       2.603  -2.724   3.762  1.00  0.00     0.037 A 
ATOM     58  C   UNL     1       6.959   2.542   6.117  1.00  0.00     0.037 A 
ATOM     59  C   UNL     1       3.076  -2.510   5.104  1.00  0.00     0.049 A 
ATOM     60  C   UNL     1       5.764   2.174   6.966  1.00  0.00     0.074 A 
ATOM     61  C   UNL     1       4.167  -2.959   5.815  1.00  0.00     0.029 A 
ATOM     62  N   UNL     1       2.559  -1.422   5.792  1.00  0.00    -0.354 N 
ATOM     63  N   UNL     1       5.123   1.041   6.880  1.00  0.00    -0.248 NA
ATOM     64  C   UNL     1       5.160   3.068   7.953  1.00  0.00     0.031 C 
ATOM     65  C   UNL     1       4.384  -2.037   6.875  1.00  0.00     0.029 A 
ATOM     66  C   UNL     1       3.385  -1.078   6.839  1.00  0.00     0.049 A 
ATOM     67  H   UNL     1       1.719  -0.961   5.564  1.00  0.00     0.167 HD
ATOM     68  C   UNL     1       4.000   1.083   7.665  1.00  0.00     0.074 A 
ATOM     69  C   UNL     1       4.104   2.345   8.368  1.00  0.00     0.031 C 
ATOM     70  C   UNL     1       3.056   0.096   7.635  1.00  0.00     0.037 A 
BRANCH  57  71
ATOM     71  C   UNL     1       2.022  -4.044   3.198  1.00  0.00     0.057 A 
ATOM     72  C   UNL     1       2.001  -5.187   4.023  1.00  0.00     0.134 A 
ATOM     73  C   UNL     1       1.629  -4.337   1.861  1.00  0.00     0.134 A 
ATOM     74  F   UNL     1       2.292  -5.106   5.328  1.00  0.00    -0.206 F 
ATOM     75  C   UNL     1       1.710  -6.486   3.554  1.00  0.00     0.040 A 
ATOM     76  C   UNL     1       1.315  -5.625   1.388  1.00  0.00     0.040 A 
ATOM     77  F   UNL     1       1.538  -3.427   0.890  1.00  0.00    -0.206 F 
ATOM     78  C   UNL     1       1.382  -6.714   2.227  1.00  0.00     0.006 A 
ENDBRANCH  57  71
BRANCH  58  79
ATOM     79  C   UNL     1       7.382   3.903   5.698  1.00  0.00     0.057 A 
ATOM     80  C   UNL     1       8.752   4.221   5.741  1.00  0.00     0.134 A 
ATOM     81  C   UNL     1       6.584   4.679   4.863  1.00  0.00     0.134 A 
ATOM     82  F   UNL     1       9.581   3.502   6.512  1.00  0.00    -0.206 F 
ATOM     83  C   UNL     1       9.322   5.198   4.915  1.00  0.00     0.040 A 
ATOM     84  C   UNL     1       7.156   5.637   4.013  1.00  0.00     0.040 A 
ATOM     85  F   UNL     1       5.279   4.410   4.733  1.00  0.00    -0.206 F 
ATOM     86  C   UNL     1       8.523   5.889   4.017  1.00  0.00     0.006 A 
ENDBRANCH  58  79
BRANCH  70  87
ATOM     87  C   UNL     1       1.720   0.121   8.337  1.00  0.00     0.057 A 
ATOM     88  C   UNL     1       0.952   1.273   8.550  1.00  0.00     0.134 A 
ATOM     89  C   UNL     1       1.091  -1.097   8.684  1.00  0.00     0.134 A 
ATOM     90  F   UNL     1       1.382   2.484   8.172  1.00  0.00    -0.206 F 
ATOM     91  C   UNL     1      -0.332   1.220   9.115  1.00  0.00     0.040 A 
ATOM     92  C   UNL     1      -0.208  -1.165   9.192  1.00  0.00     0.040 A 
ATOM     93  F   UNL     1       1.709  -2.277   8.515  1.00  0.00    -0.206 F 
ATOM     94  C   UNL     1      -0.920  -0.001   9.425  1.00  0.00     0.006 A 
ENDBRANCH  70  87
ENDBRANCH  44  45
ENDBRANCH  37  39
ENDBRANCH  36  37
ENDBRANCH  35  36
ENDBRANCH  34  35
ENDBRANCH  33  34
ENDBRANCH  32  33
ENDBRANCH   1  32
TORSDOF 20
