REMARK SMILES Cc1cc(C)cc(N(C)S(=O)(=O)c2ccc(F)c(C(=O)OCCOCCOCCOC(=O)c3ccc(-c4c5nc(c(-c6c(F)cccc6F)c6ccc([nH]6)c(-c6c(F)cccc6F)c6nc(c(-c7c(F)cccc7F)c7ccc4[nH]7)C=C6)C=C5)cc3)c2)c1
REMARK SMILES IDX 25 1 24 2 23 3 22 4 21 5 19 6 20 7 18 8 13 9 14 10 87 11
REMARK SMILES IDX 15 12 16 13 17 14 10 15 11 16 12 17 8 18 9 19 7 20 1 21 2 22
REMARK SMILES IDX 3 23 88 24 4 25 5 26 6 27 26 28 27 29 28 30 29 31 30 32
REMARK SMILES IDX 31 33 32 34 33 35 34 36 86 37 35 38 85 39 36 40 37 41 38 42
REMARK SMILES IDX 79 43 39 44 84 45 78 46 80 47 40 48 83 49 77 50 76 51 41 53
REMARK SMILES IDX 67 54 50 55 66 56 51 57 54 58 65 59 81 60 52 61 53 62 64 64
REMARK SMILES IDX 82 65 55 66 42 67 43 68 48 69 44 70 45 71 47 72 49 73 46 74
REMARK SMILES IDX 68 75 69 76 74 77 70 78 71 79 73 80 75 81 72 82 56 83 57 84
REMARK SMILES IDX 62 85 58 86 59 87 61 88 63 89 60 90
REMARK H PARENT 80 52 54 63
REMARK Flexibility Score: inf
ROOT
ATOM      1  C   UNL     1      -3.052  -7.616   1.235  1.00  0.00     0.188 C 
ENDROOT
BRANCH   1   2
ATOM      2  O   UNL     1      -4.293  -8.206   0.899  1.00  0.00    -0.376 OA
BRANCH   2   3
ATOM      3  C   UNL     1      -4.325  -9.440   0.195  1.00  0.00     0.202 C 
BRANCH   3   4
ATOM      4  C   UNL     1      -3.365  -9.738  -0.969  1.00  0.00     0.261 C 
BRANCH   4   5
ATOM      5  O   UNL     1      -1.989  -9.415  -0.722  1.00  0.00    -0.460 OA
BRANCH   5   6
ATOM      6  C   UNL     1      -1.418  -8.539  -1.587  1.00  0.00     0.341 C 
ATOM      7  O   UNL     1      -1.945  -8.019  -2.557  1.00  0.00    -0.246 OA
BRANCH   6   8
ATOM      8  C   UNL     1      -0.141  -8.052  -1.034  1.00  0.00     0.097 A 
ATOM      9  C   UNL     1       1.177  -6.131  -0.339  1.00  0.00     0.089 A 
ATOM     10  C   UNL     1       2.126  -7.009   0.211  1.00  0.00     0.025 A 
ATOM     11  C   UNL     1       0.073  -6.662  -1.013  1.00  0.00     0.041 A 
ATOM     12  C   UNL     1       1.952  -8.395   0.110  1.00  0.00     0.041 A 
ATOM     13  C   UNL     1       0.810  -8.912  -0.497  1.00  0.00     0.137 A 
ATOM     14  F   UNL     1       0.663 -10.241  -0.573  1.00  0.00    -0.206 F 
BRANCH   9  15
ATOM     15  S   UNL     1       1.569  -4.377  -0.402  1.00  0.00     0.264 S 
ATOM     16  O   UNL     1       1.710  -4.077  -1.811  1.00  0.00    -0.201 OA
ATOM     17  O   UNL     1       2.689  -4.222   0.510  1.00  0.00    -0.201 OA
BRANCH  15  18
ATOM     18  N   UNL     1       0.257  -3.413   0.235  1.00  0.00    -0.269 N 
ATOM     19  C   UNL     1      -1.098  -3.871  -0.159  1.00  0.00     0.164 C 
BRANCH  18  20
ATOM     20  C   UNL     1       0.494  -1.941   0.086  1.00  0.00     0.052 A 
ATOM     21  C   UNL     1       3.356   0.634   0.185  1.00  0.00     0.044 C 
ATOM     22  C   UNL     1       1.988   0.028   0.105  1.00  0.00    -0.049 A 
ATOM     23  C   UNL     1       0.906   0.874  -0.083  1.00  0.00     0.007 A 
ATOM     24  C   UNL     1       1.770  -1.360   0.218  1.00  0.00     0.030 A 
ATOM     25  C   UNL     1      -0.369   0.342  -0.186  1.00  0.00    -0.049 A 
ATOM     26  C   UNL     1      -1.509   1.272  -0.399  1.00  0.00     0.044 C 
ATOM     27  C   UNL     1      -0.573  -1.043  -0.069  1.00  0.00     0.030 A 
ENDBRANCH  18  20
ENDBRANCH  15  18
ENDBRANCH   9  15
ENDBRANCH   6   8
ENDBRANCH   5   6
ENDBRANCH   4   5
ENDBRANCH   3   4
ENDBRANCH   2   3
ENDBRANCH   1   2
BRANCH   1  28
ATOM     28  C   UNL     1      -2.019  -8.387   2.082  1.00  0.00     0.188 C 
BRANCH  28  29
ATOM     29  O   UNL     1      -2.233  -9.758   2.299  1.00  0.00    -0.376 OA
BRANCH  29  30
ATOM     30  C   UNL     1      -3.115 -10.210   3.312  1.00  0.00     0.202 C 
BRANCH  30  31
ATOM     31  C   UNL     1      -3.848  -9.331   4.345  1.00  0.00     0.261 C 
BRANCH  31  32
ATOM     32  O   UNL     1      -3.904  -7.921   4.125  1.00  0.00    -0.460 OA
BRANCH  32  33
ATOM     33  C   UNL     1      -3.082  -7.177   4.900  1.00  0.00     0.338 C 
ATOM     34  O   UNL     1      -2.252  -7.580   5.708  1.00  0.00    -0.246 OA
BRANCH  33  35
ATOM     35  C   UNL     1      -3.218  -5.764   4.518  1.00  0.00     0.060 A 
ATOM     36  C   UNL     1      -2.135  -5.104   3.920  1.00  0.00     0.016 A 
ATOM     37  C   UNL     1      -4.403  -5.082   4.797  1.00  0.00     0.016 A 
ATOM     38  C   UNL     1      -2.232  -3.745   3.610  1.00  0.00     0.010 A 
ATOM     39  C   UNL     1      -4.490  -3.720   4.506  1.00  0.00     0.010 A 
ATOM     40  C   UNL     1      -3.400  -3.040   3.934  1.00  0.00    -0.014 A 
BRANCH  40  41
ATOM     41  C   UNL     1      -3.442  -1.558   3.845  1.00  0.00     0.031 A 
ATOM     42  C   UNL     1      -3.070  -0.767   5.067  1.00  0.00     0.074 A 
ATOM     43  C   UNL     1      -3.869  -0.944   2.726  1.00  0.00     0.049 A 
ATOM     44  N   UNL     1      -3.050   0.527   5.241  1.00  0.00    -0.248 NA
ATOM     45  C   UNL     1      -2.690  -1.541   6.262  1.00  0.00     0.031 C 
ATOM     46  C   UNL     1      -4.245  -1.633   1.495  1.00  0.00     0.029 A 
ATOM     47  N   UNL     1      -4.058   0.387   2.434  1.00  0.00    -0.354 N 
ATOM     48  C   UNL     1      -2.693   0.722   6.570  1.00  0.00     0.074 A 
ATOM     49  C   UNL     1      -2.506  -0.584   7.160  1.00  0.00     0.031 C 
ATOM     50  C   UNL     1      -4.585  -0.719   0.570  1.00  0.00     0.029 A 
ATOM     51  C   UNL     1      -4.488   0.625   1.145  1.00  0.00     0.049 A 
ATOM     52  H   UNL     1      -3.901   1.107   3.087  1.00  0.00     0.167 HD
ATOM     53  C   UNL     1      -2.549   1.891   7.235  1.00  0.00     0.037 A 
ATOM     54  C   UNL     1      -4.721   1.794   0.500  1.00  0.00     0.037 A 
ATOM     55  C   UNL     1      -2.725   3.182   6.624  1.00  0.00     0.049 A 
ATOM     56  C   UNL     1      -4.474   3.080   1.264  1.00  0.00     0.074 A 
ATOM     57  C   UNL     1      -2.592   4.431   7.202  1.00  0.00     0.029 A 
ATOM     58  N   UNL     1      -3.074   3.385   5.297  1.00  0.00    -0.354 N 
ATOM     59  N   UNL     1      -4.002   3.247   2.479  1.00  0.00    -0.248 NA
ATOM     60  C   UNL     1      -4.758   4.340   0.561  1.00  0.00     0.031 C 
ATOM     61  C   UNL     1      -2.918   5.389   6.240  1.00  0.00     0.029 A 
ATOM     62  C   UNL     1      -3.195   4.740   5.046  1.00  0.00     0.049 A 
ATOM     63  H   UNL     1      -3.214   2.671   4.633  1.00  0.00     0.167 HD
ATOM     64  C   UNL     1      -3.902   4.622   2.667  1.00  0.00     0.074 A 
ATOM     65  C   UNL     1      -4.298   5.239   1.419  1.00  0.00     0.031 C 
ATOM     66  C   UNL     1      -3.549   5.321   3.776  1.00  0.00     0.037 A 
BRANCH  53  67
ATOM     67  C   UNL     1      -2.225   1.838   8.699  1.00  0.00     0.057 A 
ATOM     68  C   UNL     1      -3.174   2.245   9.648  1.00  0.00     0.134 A 
ATOM     69  C   UNL     1      -0.965   1.456   9.172  1.00  0.00     0.134 A 
ATOM     70  F   UNL     1      -4.402   2.625   9.263  1.00  0.00    -0.206 F 
ATOM     71  C   UNL     1      -2.874   2.292  11.010  1.00  0.00     0.040 A 
ATOM     72  C   UNL     1      -0.661   1.472  10.536  1.00  0.00     0.040 A 
ATOM     73  F   UNL     1      -0.016   1.040   8.320  1.00  0.00    -0.206 F 
ATOM     74  C   UNL     1      -1.614   1.903  11.457  1.00  0.00     0.006 A 
ENDBRANCH  53  67
BRANCH  54  75
ATOM     75  C   UNL     1      -5.015   1.810  -0.976  1.00  0.00     0.057 A 
ATOM     76  C   UNL     1      -6.073   1.093  -1.548  1.00  0.00     0.134 A 
ATOM     77  C   UNL     1      -4.168   2.476  -1.880  1.00  0.00     0.134 A 
ATOM     78  F   UNL     1      -6.963   0.461  -0.769  1.00  0.00    -0.206 F 
ATOM     79  C   UNL     1      -6.215   0.960  -2.935  1.00  0.00     0.040 A 
ATOM     80  C   UNL     1      -4.304   2.368  -3.265  1.00  0.00     0.040 A 
ATOM     81  F   UNL     1      -3.169   3.250  -1.432  1.00  0.00    -0.206 F 
ATOM     82  C   UNL     1      -5.319   1.585  -3.798  1.00  0.00     0.006 A 
ENDBRANCH  54  75
BRANCH  66  83
ATOM     83  C   UNL     1      -3.576   6.823   3.697  1.00  0.00     0.057 A 
ATOM     84  C   UNL     1      -2.402   7.576   3.838  1.00  0.00     0.134 A 
ATOM     85  C   UNL     1      -4.783   7.526   3.587  1.00  0.00     0.134 A 
ATOM     86  F   UNL     1      -1.213   6.969   3.971  1.00  0.00    -0.206 F 
ATOM     87  C   UNL     1      -2.431   8.971   3.884  1.00  0.00     0.040 A 
ATOM     88  C   UNL     1      -4.820   8.921   3.595  1.00  0.00     0.040 A 
ATOM     89  F   UNL     1      -5.944   6.867   3.450  1.00  0.00    -0.206 F 
ATOM     90  C   UNL     1      -3.643   9.647   3.757  1.00  0.00     0.006 A 
ENDBRANCH  66  83
ENDBRANCH  40  41
ENDBRANCH  33  35
ENDBRANCH  32  33
ENDBRANCH  31  32
ENDBRANCH  30  31
ENDBRANCH  29  30
ENDBRANCH  28  29
ENDBRANCH   1  28
TORSDOF 20
