REMARK SMILES Cc1cc(C(=O)N2CCC[C@@H]2C)sc1/C=C/C(=O)OCCOCCOCCOC(=O)c1ccc(-c2c3nc(c(-c4c(F)cccc4F)c4ccc([nH]4)c(-c4c(F)cccc4F)c4nc(c(-c5c(F)cccc5F)c5ccc2[nH]5)C=C4)C=C3)cc1
REMARK SMILES IDX 23 1 22 2 21 3 20 4 19 5 17 6 18 7 16 8 15 9 14 10 1 11 2 12
REMARK SMILES IDX 3 13 4 14 13 15 5 16 6 17 7 18 8 19 11 20 9 21 10 22 12 23
REMARK SMILES IDX 24 24 25 25 26 26 27 27 28 28 29 29 30 30 31 31 32 32 84 33
REMARK SMILES IDX 33 34 83 35 34 36 35 37 36 38 77 39 37 40 82 41 76 42 78 43
REMARK SMILES IDX 38 44 81 45 75 46 74 47 39 49 65 50 48 51 64 52 49 53 52 54
REMARK SMILES IDX 63 55 79 56 50 57 51 58 62 60 80 61 53 62 40 63 41 64 46 65
REMARK SMILES IDX 42 66 43 67 45 68 47 69 44 70 66 71 67 72 72 73 68 74 69 75
REMARK SMILES IDX 71 76 73 77 70 78 54 79 55 80 60 81 56 82 57 83 59 84 61 85
REMARK SMILES IDX 58 86
REMARK H PARENT 78 48 52 59
REMARK Flexibility Score: inf
ROOT
ATOM      1  C   UNL     1      -0.987  -6.034   1.290  1.00  0.00     0.188 C 
ENDROOT
BRANCH   1   2
ATOM      2  O   UNL     1      -0.648  -7.335   0.820  1.00  0.00    -0.376 OA
BRANCH   2   3
ATOM      3  C   UNL     1       0.611  -7.553   0.195  1.00  0.00     0.202 C 
BRANCH   3   4
ATOM      4  C   UNL     1       0.986  -6.704  -1.027  1.00  0.00     0.261 C 
BRANCH   4   5
ATOM      5  O   UNL     1       0.850  -5.284  -0.838  1.00  0.00    -0.460 OA
BRANCH   5   6
ATOM      6  C   UNL     1      -0.037  -4.671  -1.658  1.00  0.00     0.330 C 
ATOM      7  O   UNL     1      -0.693  -5.202  -2.542  1.00  0.00    -0.247 OA
BRANCH   6   8
ATOM      8  C   UNL     1      -0.246  -3.247  -1.319  1.00  0.00     0.095 C 
ATOM      9  C   UNL     1       0.557  -2.488  -0.555  1.00  0.00     0.027 C 
BRANCH   9  10
ATOM     10  C   UNL     1       0.288  -1.105  -0.277  1.00  0.00     0.031 A 
ATOM     11  C   UNL     1       2.682  -0.226   0.125  1.00  0.00     0.046 C 
ATOM     12  C   UNL     1       1.193  -0.092   0.040  1.00  0.00    -0.032 A 
ATOM     13  C   UNL     1       0.537   1.180   0.185  1.00  0.00     0.029 A 
ATOM     14  C   UNL     1      -0.825   1.134  -0.034  1.00  0.00     0.093 A 
ATOM     15  S   UNL     1      -1.323  -0.473  -0.294  1.00  0.00    -0.130 S 
BRANCH  14  16
ATOM     16  C   UNL     1      -1.695   2.286  -0.259  1.00  0.00     0.264 C 
ATOM     17  O   UNL     1      -1.228   3.351  -0.674  1.00  0.00    -0.268 OA
BRANCH  16  18
ATOM     18  N   UNL     1      -3.068   2.169  -0.113  1.00  0.00    -0.335 N 
ATOM     19  C   UNL     1      -3.953   2.929  -0.967  1.00  0.00     0.120 C 
ATOM     20  C   UNL     1      -3.824   1.517   0.958  1.00  0.00     0.082 C 
ATOM     21  C   UNL     1      -5.224   2.103  -0.947  1.00  0.00     0.024 C 
ATOM     22  C   UNL     1      -5.292   1.595   0.491  1.00  0.00     0.026 C 
ATOM     23  C   UNL     1      -3.648   2.263   2.281  1.00  0.00     0.031 C 
ENDBRANCH  16  18
ENDBRANCH  14  16
ENDBRANCH   9  10
ENDBRANCH   6   8
ENDBRANCH   5   6
ENDBRANCH   4   5
ENDBRANCH   3   4
ENDBRANCH   2   3
ENDBRANCH   1   2
BRANCH   1  24
ATOM     24  C   UNL     1       0.055  -5.202   2.068  1.00  0.00     0.188 C 
BRANCH  24  25
ATOM     25  O   UNL     1       1.282  -5.871   2.264  1.00  0.00    -0.376 OA
BRANCH  25  26
ATOM     26  C   UNL     1       1.612  -6.296   3.575  1.00  0.00     0.202 C 
BRANCH  26  27
ATOM     27  C   UNL     1       0.633  -7.165   4.384  1.00  0.00     0.261 C 
BRANCH  27  28
ATOM     28  O   UNL     1      -0.765  -6.880   4.242  1.00  0.00    -0.460 OA
BRANCH  28  29
ATOM     29  C   UNL     1      -1.280  -5.909   5.029  1.00  0.00     0.338 C 
ATOM     30  O   UNL     1      -0.683  -5.196   5.810  1.00  0.00    -0.246 OA
BRANCH  29  31
ATOM     31  C   UNL     1      -2.704  -5.748   4.665  1.00  0.00     0.060 A 
ATOM     32  C   UNL     1      -3.127  -4.537   4.102  1.00  0.00     0.016 A 
ATOM     33  C   UNL     1      -3.616  -6.783   4.886  1.00  0.00     0.016 A 
ATOM     34  C   UNL     1      -4.473  -4.352   3.780  1.00  0.00     0.010 A 
ATOM     35  C   UNL     1      -4.966  -6.589   4.580  1.00  0.00     0.010 A 
ATOM     36  C   UNL     1      -5.406  -5.364   4.050  1.00  0.00    -0.014 A 
BRANCH  36  37
ATOM     37  C   UNL     1      -6.858  -5.087   3.931  1.00  0.00     0.031 A 
ATOM     38  C   UNL     1      -7.620  -4.693   5.166  1.00  0.00     0.074 A 
ATOM     39  C   UNL     1      -7.493  -5.178   2.749  1.00  0.00     0.049 A 
ATOM     40  N   UNL     1      -8.897  -4.452   5.315  1.00  0.00    -0.248 NA
ATOM     41  C   UNL     1      -6.832  -4.554   6.401  1.00  0.00     0.031 C 
ATOM     42  C   UNL     1      -6.865  -5.519   1.475  1.00  0.00     0.029 A 
ATOM     43  N   UNL     1      -8.818  -5.001   2.437  1.00  0.00    -0.354 N 
ATOM     44  C   UNL     1      -9.066  -4.135   6.656  1.00  0.00     0.074 A 
ATOM     45  C   UNL     1      -7.768  -4.242   7.285  1.00  0.00     0.031 C 
ATOM     46  C   UNL     1      -7.809  -5.544   0.518  1.00  0.00     0.029 A 
ATOM     47  C   UNL     1      -9.110  -5.249   1.118  1.00  0.00     0.049 A 
ATOM     48  H   UNL     1      -9.495  -4.723   3.095  1.00  0.00     0.167 HD
ATOM     49  C   UNL     1     -10.200  -3.779   7.306  1.00  0.00     0.037 A 
ATOM     50  C   UNL     1     -10.295  -5.260   0.476  1.00  0.00     0.037 A 
ATOM     51  C   UNL     1     -11.495  -3.684   6.686  1.00  0.00     0.049 A 
ATOM     52  C   UNL     1     -11.555  -4.936   1.237  1.00  0.00     0.074 A 
ATOM     53  C   UNL     1     -12.701  -3.320   7.259  1.00  0.00     0.029 A 
ATOM     54  N   UNL     1     -11.753  -3.969   5.354  1.00  0.00    -0.354 N 
ATOM     55  N   UNL     1     -11.700  -4.607   2.498  1.00  0.00    -0.248 NA
ATOM     56  C   UNL     1     -12.816  -4.984   0.482  1.00  0.00     0.031 C 
ATOM     57  C   UNL     1     -13.697  -3.428   6.283  1.00  0.00     0.029 A 
ATOM     58  C   UNL     1     -13.104  -3.810   5.091  1.00  0.00     0.049 A 
ATOM     59  H   UNL     1     -11.077  -4.242   4.693  1.00  0.00     0.167 HD
ATOM     60  C   UNL     1     -13.060  -4.382   2.680  1.00  0.00     0.074 A 
ATOM     61  C   UNL     1     -13.695  -4.601   1.398  1.00  0.00     0.031 C 
ATOM     62  C   UNL     1     -13.722  -4.023   3.807  1.00  0.00     0.037 A 
BRANCH  49  63
ATOM     63  C   UNL     1     -10.088  -3.490   8.773  1.00  0.00     0.057 A 
ATOM     64  C   UNL     1      -9.467  -2.328   9.251  1.00  0.00     0.134 A 
ATOM     65  C   UNL     1     -10.625  -4.372   9.718  1.00  0.00     0.134 A 
ATOM     66  F   UNL     1      -8.917  -1.451   8.398  1.00  0.00    -0.206 F 
ATOM     67  C   UNL     1      -9.365  -2.066  10.619  1.00  0.00     0.040 A 
ATOM     68  C   UNL     1     -10.551  -4.109  11.087  1.00  0.00     0.040 A 
ATOM     69  F   UNL     1     -11.235  -5.501   9.327  1.00  0.00    -0.206 F 
ATOM     70  C   UNL     1      -9.914  -2.956  11.540  1.00  0.00     0.006 A 
ENDBRANCH  49  63
BRANCH  50  71
ATOM     71  C   UNL     1     -10.357  -5.605  -0.967  1.00  0.00     0.057 A 
ATOM     72  C   UNL     1     -10.686  -4.645  -1.930  1.00  0.00     0.134 A 
ATOM     73  C   UNL     1     -10.118  -6.911  -1.413  1.00  0.00     0.134 A 
ATOM     74  F   UNL     1     -10.953  -3.383  -1.561  1.00  0.00    -0.206 F 
ATOM     75  C   UNL     1     -10.790  -4.972  -3.283  1.00  0.00     0.040 A 
ATOM     76  C   UNL     1     -10.195  -7.247  -2.765  1.00  0.00     0.040 A 
ATOM     77  F   UNL     1      -9.803  -7.878  -0.538  1.00  0.00    -0.206 F 
ATOM     78  C   UNL     1     -10.539  -6.277  -3.704  1.00  0.00     0.006 A 
ENDBRANCH  50  71
BRANCH  62  79
ATOM     79  C   UNL     1     -15.204  -3.806   3.700  1.00  0.00     0.057 A 
ATOM     80  C   UNL     1     -16.101  -4.871   3.558  1.00  0.00     0.134 A 
ATOM     81  C   UNL     1     -15.741  -2.514   3.787  1.00  0.00     0.134 A 
ATOM     82  F   UNL     1     -15.650  -6.131   3.457  1.00  0.00    -0.206 F 
ATOM     83  C   UNL     1     -17.479  -4.659   3.486  1.00  0.00     0.040 A 
ATOM     84  C   UNL     1     -17.118  -2.292   3.742  1.00  0.00     0.040 A 
ATOM     85  F   UNL     1     -14.937  -1.450   3.934  1.00  0.00    -0.206 F 
ATOM     86  C   UNL     1     -17.991  -3.366   3.585  1.00  0.00     0.006 A 
ENDBRANCH  62  79
ENDBRANCH  36  37
ENDBRANCH  29  31
ENDBRANCH  28  29
ENDBRANCH  27  28
ENDBRANCH  26  27
ENDBRANCH  25  26
ENDBRANCH  24  25
ENDBRANCH   1  24
TORSDOF 20
