REMARK SMILES CC1(C)NC(=O)N(CCC(=O)N2CCC[C@H]2C(=O)OCCOCCOCCOC(=O)c2ccc(-c3c4nc(c(-c5c(F)cccc5F)c5ccc([nH]5)c(-c5c(F)cccc5F)c5nc(c(-c6c(F)cccc6F)c6ccc3[nH]6)C=C5)C=C4)cc2)C1=O
REMARK SMILES IDX 23 1 22 2 21 3 20 4 19 5 17 6 18 7 16 8 12 9 13 10 14 11
REMARK SMILES IDX 15 12 10 13 11 14 9 15 8 16 7 17 1 18 2 19 3 20 4 21 85 22
REMARK SMILES IDX 5 23 86 25 6 26 24 27 25 28 26 29 27 30 28 31 29 32 30 33
REMARK SMILES IDX 31 34 32 35 84 36 33 37 83 38 34 39 35 40 36 41 77 42 37 43
REMARK SMILES IDX 82 44 76 45 78 46 38 47 81 48 75 49 74 50 39 52 65 53 48 54
REMARK SMILES IDX 64 55 49 56 52 57 63 58 79 59 50 60 51 61 62 63 80 64 53 65
REMARK SMILES IDX 40 66 41 67 46 68 42 69 43 70 45 71 47 72 44 73 66 74 67 75
REMARK SMILES IDX 72 76 68 77 69 78 71 79 73 80 70 81 54 82 55 83 60 84 56 85
REMARK SMILES IDX 57 86 59 87 61 88 58 89
REMARK H PARENT 4 24 78 51 52 62
REMARK Flexibility Score: inf
ROOT
ATOM      1  C   UNL     1      -0.647  -1.749   3.806  1.00  0.00     0.188 C 
ENDROOT
BRANCH   1   2
ATOM      2  O   UNL     1      -1.771  -0.875   3.856  1.00  0.00    -0.376 OA
BRANCH   2   3
ATOM      3  C   UNL     1      -2.454  -0.668   2.625  1.00  0.00     0.202 C 
BRANCH   3   4
ATOM      4  C   UNL     1      -3.329  -1.852   2.221  1.00  0.00     0.261 C 
BRANCH   4   5
ATOM      5  O   UNL     1      -2.547  -2.981   1.782  1.00  0.00    -0.462 OA
BRANCH   5   6
ATOM      6  C   UNL     1      -2.200  -3.009   0.473  1.00  0.00     0.328 C 
ATOM      7  O   UNL     1      -2.475  -2.121  -0.328  1.00  0.00    -0.250 OA
BRANCH   6   8
ATOM      8  C   UNL     1      -1.360  -4.247   0.103  1.00  0.00     0.195 C 
ATOM      9  N   UNL     1      -1.230  -5.321   1.085  1.00  0.00    -0.329 N 
ATOM     10  C   UNL     1      -2.431  -6.140   0.945  1.00  0.00     0.120 C 
ATOM     11  C   UNL     1      -2.543  -6.280  -0.565  1.00  0.00     0.024 C 
ATOM     12  C   UNL     1      -2.015  -4.947  -1.104  1.00  0.00     0.039 C 
BRANCH   9  13
ATOM     13  C   UNL     1      -0.077  -5.959   1.478  1.00  0.00     0.225 C 
ATOM     14  O   UNL     1      -0.130  -7.180   1.713  1.00  0.00    -0.275 OA
BRANCH  13  15
ATOM     15  C   UNL     1       1.309  -5.351   1.691  1.00  0.00     0.122 C 
BRANCH  15  16
ATOM     16  C   UNL     1       1.853  -3.936   1.767  1.00  0.00     0.140 C 
BRANCH  16  17
ATOM     17  N   UNL     1       1.744  -2.983   0.691  1.00  0.00    -0.262 N 
ATOM     18  C   UNL     1       2.744   0.091  -0.726  1.00  0.00     0.045 C 
ATOM     19  C   UNL     1       1.632  -0.888  -0.401  1.00  0.00     0.115 C 
ATOM     20  C   UNL     1       0.276  -0.201  -0.311  1.00  0.00     0.045 C 
ATOM     21  N   UNL     1       1.621  -2.017  -1.302  1.00  0.00    -0.324 N 
ATOM     22  C   UNL     1       1.879  -1.634   0.913  1.00  0.00     0.255 C 
ATOM     23  C   UNL     1       1.761  -3.219  -0.646  1.00  0.00     0.325 C 
ATOM     24  H   UNL     1       1.523  -1.936  -2.278  1.00  0.00     0.166 HD
ATOM     25  O   UNL     1       2.109  -1.105   1.993  1.00  0.00    -0.272 OA
ATOM     26  O   UNL     1       1.831  -4.302  -1.208  1.00  0.00    -0.248 OA
ENDBRANCH  16  17
ENDBRANCH  15  16
ENDBRANCH  13  15
ENDBRANCH   9  13
ENDBRANCH   6   8
ENDBRANCH   5   6
ENDBRANCH   4   5
ENDBRANCH   3   4
ENDBRANCH   2   3
ENDBRANCH   1   2
BRANCH   1  27
ATOM     27  C   UNL     1      -0.917  -3.145   4.393  1.00  0.00     0.188 C 
BRANCH  27  28
ATOM     28  O   UNL     1      -1.893  -3.245   5.425  1.00  0.00    -0.376 OA
BRANCH  28  29
ATOM     29  C   UNL     1      -1.818  -2.298   6.487  1.00  0.00     0.202 C 
BRANCH  29  30
ATOM     30  C   UNL     1      -0.634  -2.485   7.431  1.00  0.00     0.261 C 
BRANCH  30  31
ATOM     31  O   UNL     1       0.623  -2.287   6.758  1.00  0.00    -0.460 OA
BRANCH  31  32
ATOM     32  C   UNL     1       1.608  -3.113   7.170  1.00  0.00     0.338 C 
ATOM     33  O   UNL     1       1.555  -3.962   8.050  1.00  0.00    -0.246 OA
BRANCH  32  34
ATOM     34  C   UNL     1       2.825  -2.892   6.382  1.00  0.00     0.060 A 
ATOM     35  C   UNL     1       3.065  -3.690   5.260  1.00  0.00     0.016 A 
ATOM     36  C   UNL     1       3.817  -2.045   6.880  1.00  0.00     0.016 A 
ATOM     37  C   UNL     1       4.320  -3.667   4.648  1.00  0.00     0.010 A 
ATOM     38  C   UNL     1       5.073  -2.026   6.268  1.00  0.00     0.010 A 
ATOM     39  C   UNL     1       5.343  -2.864   5.171  1.00  0.00    -0.014 A 
BRANCH  39  40
ATOM     40  C   UNL     1       6.742  -3.045   4.709  1.00  0.00     0.031 A 
ATOM     41  C   UNL     1       7.674  -3.883   5.540  1.00  0.00     0.074 A 
ATOM     42  C   UNL     1       7.178  -2.508   3.556  1.00  0.00     0.049 A 
ATOM     43  N   UNL     1       8.963  -4.069   5.415  1.00  0.00    -0.248 NA
ATOM     44  C   UNL     1       7.064  -4.617   6.660  1.00  0.00     0.031 C 
ATOM     45  C   UNL     1       6.360  -1.760   2.604  1.00  0.00     0.029 A 
ATOM     46  N   UNL     1       8.431  -2.518   2.994  1.00  0.00    -0.354 N 
ATOM     47  C   UNL     1       9.324  -4.913   6.458  1.00  0.00     0.074 A 
ATOM     48  C   UNL     1       8.118  -5.207   7.202  1.00  0.00     0.031 C 
ATOM     49  C   UNL     1       7.134  -1.386   1.570  1.00  0.00     0.029 A 
ATOM     50  C   UNL     1       8.510  -1.817   1.817  1.00  0.00     0.049 A 
ATOM     51  H   UNL     1       9.199  -2.983   3.398  1.00  0.00     0.167 HD
ATOM     52  C   UNL     1      10.550  -5.392   6.776  1.00  0.00     0.037 A 
ATOM     53  C   UNL     1       9.579  -1.528   1.049  1.00  0.00     0.037 A 
ATOM     54  C   UNL     1      11.750  -5.114   6.033  1.00  0.00     0.049 A 
ATOM     55  C   UNL     1      10.951  -1.984   1.476  1.00  0.00     0.074 A 
ATOM     56  C   UNL     1      13.043  -5.536   6.288  1.00  0.00     0.029 A 
ATOM     57  N   UNL     1      11.800  -4.340   4.885  1.00  0.00    -0.354 N 
ATOM     58  N   UNL     1      11.296  -2.732   2.496  1.00  0.00    -0.248 NA
ATOM     59  C   UNL     1      12.085  -1.532   0.655  1.00  0.00     0.031 C 
ATOM     60  C   UNL     1      13.883  -4.986   5.312  1.00  0.00     0.029 A 
ATOM     61  C   UNL     1      13.105  -4.253   4.430  1.00  0.00     0.049 A 
ATOM     62  H   UNL     1      11.023  -3.915   4.455  1.00  0.00     0.167 HD
ATOM     63  C   UNL     1      12.679  -2.854   2.429  1.00  0.00     0.074 A 
ATOM     64  C   UNL     1      13.110  -2.113   1.263  1.00  0.00     0.031 C 
ATOM     65  C   UNL     1      13.518  -3.518   3.262  1.00  0.00     0.037 A 
BRANCH  52  66
ATOM     66  C   UNL     1      10.653  -6.219   8.021  1.00  0.00     0.057 A 
ATOM     67  C   UNL     1      10.191  -7.540   8.079  1.00  0.00     0.134 A 
ATOM     68  C   UNL     1      11.210  -5.675   9.185  1.00  0.00     0.134 A 
ATOM     69  F   UNL     1       9.630  -8.111   7.003  1.00  0.00    -0.206 F 
ATOM     70  C   UNL     1      10.254  -8.280   9.261  1.00  0.00     0.040 A 
ATOM     71  C   UNL     1      11.297  -6.412  10.366  1.00  0.00     0.040 A 
ATOM     72  F   UNL     1      11.671  -4.415   9.194  1.00  0.00    -0.206 F 
ATOM     73  C   UNL     1      10.810  -7.717  10.409  1.00  0.00     0.006 A 
ENDBRANCH  52  66
BRANCH  53  74
ATOM     74  C   UNL     1       9.413  -0.726  -0.189  1.00  0.00     0.057 A 
ATOM     75  C   UNL     1       9.611  -1.299  -1.451  1.00  0.00     0.134 A 
ATOM     76  C   UNL     1       9.085   0.634  -0.142  1.00  0.00     0.134 A 
ATOM     77  F   UNL     1       9.957  -2.590  -1.559  1.00  0.00    -0.206 F 
ATOM     78  C   UNL     1       9.497  -0.546  -2.621  1.00  0.00     0.040 A 
ATOM     79  C   UNL     1       8.945   1.393  -1.304  1.00  0.00     0.040 A 
ATOM     80  F   UNL     1       8.891   1.244   1.037  1.00  0.00    -0.206 F 
ATOM     81  C   UNL     1       9.158   0.804  -2.549  1.00  0.00     0.006 A 
ENDBRANCH  53  74
BRANCH  65  82
ATOM     82  C   UNL     1      14.980  -3.501   2.928  1.00  0.00     0.057 A 
ATOM     83  C   UNL     1      15.774  -2.371   3.156  1.00  0.00     0.134 A 
ATOM     84  C   UNL     1      15.610  -4.643   2.417  1.00  0.00     0.134 A 
ATOM     85  F   UNL     1      15.229  -1.241   3.632  1.00  0.00    -0.206 F 
ATOM     86  C   UNL     1      17.142  -2.373   2.875  1.00  0.00     0.040 A 
ATOM     87  C   UNL     1      16.979  -4.664   2.150  1.00  0.00     0.040 A 
ATOM     88  F   UNL     1      14.906  -5.761   2.182  1.00  0.00    -0.206 F 
ATOM     89  C   UNL     1      17.749  -3.524   2.376  1.00  0.00     0.006 A 
ENDBRANCH  65  82
ENDBRANCH  39  40
ENDBRANCH  32  34
ENDBRANCH  31  32
ENDBRANCH  30  31
ENDBRANCH  29  30
ENDBRANCH  28  29
ENDBRANCH  27  28
ENDBRANCH   1  27
TORSDOF 21
