REMARK SMILES CC(C)CCn1nc(C(=O)OCCOCCOCCOC(=O)c2ccc(-c3c4nc(c(-c5c(F)cccc5F)c5ccc([nH]5)c(-c5c(F)cccc5F)c5nc(c(-c6c(F)cccc6F)c6ccc3[nH]6)C=C5)C=C4)cc2)c2c1CCN(C(=O)[C@@H]1CCc3nn(C)c(=O)n3C1)C2
REMARK SMILES IDX 15 1 14 2 13 3 12 4 11 5 9 6 10 7 8 8 6 9 7 10 78 11 77 12
REMARK SMILES IDX 79 13 95 14 80 15 81 16 5 17 4 18 2 19 1 20 3 21 82 22 83 23
REMARK SMILES IDX 84 24 85 25 94 26 86 27 93 28 87 29 91 30 88 31 89 32 92 33
REMARK SMILES IDX 90 34 16 35 17 36 18 37 19 38 20 39 21 40 22 41 23 42 24 43
REMARK SMILES IDX 76 44 25 45 75 46 26 47 27 48 28 49 69 50 29 51 74 52 68 53
REMARK SMILES IDX 70 54 30 55 73 56 67 57 66 58 31 60 57 61 40 62 56 63 41 64
REMARK SMILES IDX 44 65 55 66 71 67 42 68 43 69 54 71 72 72 45 73 32 74 33 75
REMARK SMILES IDX 38 76 34 77 35 78 37 79 39 80 36 81 58 82 59 83 64 84 60 85
REMARK SMILES IDX 61 86 63 87 65 88 62 89 46 90 47 91 52 92 48 93 49 94 51 95
REMARK SMILES IDX 53 96 50 97
REMARK H PARENT 70 59 44 70
REMARK Flexibility Score: inf
ROOT
ATOM      1  C   UNL     1      -2.825   7.088  -1.891  1.00  0.00     0.188 C 
ENDROOT
BRANCH   1   2
ATOM      2  O   UNL     1      -2.596   8.488  -1.789  1.00  0.00    -0.376 OA
BRANCH   2   3
ATOM      3  C   UNL     1      -1.461   9.084  -2.409  1.00  0.00     0.202 C 
BRANCH   3   4
ATOM      4  C   UNL     1      -0.044   8.494  -2.254  1.00  0.00     0.261 C 
BRANCH   4   5
ATOM      5  O   UNL     1       0.064   7.084  -2.459  1.00  0.00    -0.458 OA
BRANCH   5   6
ATOM      6  C   UNL     1       0.191   6.300  -1.345  1.00  0.00     0.359 C 
ATOM      7  O   UNL     1       0.361   6.732  -0.218  1.00  0.00    -0.244 OA
BRANCH   6   8
ATOM      8  C   UNL     1      -0.015   4.877  -1.681  1.00  0.00     0.175 A 
ATOM      9  N   UNL     1      -0.516   2.795  -1.433  1.00  0.00    -0.268 N 
ATOM     10  N   UNL     1      -0.422   3.969  -0.764  1.00  0.00    -0.165 NA
ATOM     11  C   UNL     1      -0.075   2.924  -2.712  1.00  0.00     0.046 A 
ATOM     12  C   UNL     1       0.097   4.273  -2.961  1.00  0.00     0.028 A 
ATOM     13  C   UNL     1       0.283   1.903  -3.713  1.00  0.00     0.078 C 
ATOM     14  C   UNL     1       0.457   4.845  -4.315  1.00  0.00     0.159 C 
ATOM     15  C   UNL     1       1.334   2.585  -4.599  1.00  0.00     0.126 C 
ATOM     16  N   UNL     1       0.755   3.739  -5.257  1.00  0.00    -0.338 N 
BRANCH   9  17
ATOM     17  C   UNL     1      -1.181   1.681  -0.775  1.00  0.00     0.145 C 
BRANCH  17  18
ATOM     18  C   UNL     1      -0.821   0.252  -1.205  1.00  0.00     0.027 C 
BRANCH  18  19
ATOM     19  C   UNL     1       0.654  -0.137  -0.986  1.00  0.00    -0.016 C 
ATOM     20  C   UNL     1       0.988  -0.346   0.487  1.00  0.00     0.007 C 
ATOM     21  C   UNL     1       0.992  -1.398  -1.790  1.00  0.00     0.007 C 
ENDBRANCH  18  19
ENDBRANCH  17  18
ENDBRANCH   9  17
BRANCH  16  22
ATOM     22  C   UNL     1       0.401   3.852  -6.587  1.00  0.00     0.227 C 
ATOM     23  O   UNL     1      -0.180   4.874  -6.980  1.00  0.00    -0.274 OA
BRANCH  22  24
ATOM     24  C   UNL     1       0.684   2.760  -7.659  1.00  0.00     0.099 C 
ATOM     25  C   UNL     1      -0.258   1.548  -7.711  1.00  0.00     0.023 C 
ATOM     26  C   UNL     1       2.143   2.371  -7.879  1.00  0.00     0.142 C 
ATOM     27  C   UNL     1       0.190   0.300  -6.956  1.00  0.00     0.078 C 
ATOM     28  N   UNL     1       2.510   1.136  -7.221  1.00  0.00    -0.278 N 
ATOM     29  C   UNL     1       1.669   0.204  -6.729  1.00  0.00     0.133 A 
ATOM     30  C   UNL     1       3.724   0.913  -6.615  1.00  0.00     0.345 A 
ATOM     31  N   UNL     1       2.208  -0.630  -5.886  1.00  0.00    -0.155 NA
ATOM     32  N   UNL     1       3.514  -0.197  -5.788  1.00  0.00    -0.216 N 
ATOM     33  O   UNL     1       4.713   1.627  -6.663  1.00  0.00    -0.246 OA
ATOM     34  C   UNL     1       4.369  -0.566  -4.690  1.00  0.00     0.179 C 
ENDBRANCH  22  24
ENDBRANCH  16  22
ENDBRANCH   6   8
ENDBRANCH   5   6
ENDBRANCH   4   5
ENDBRANCH   3   4
ENDBRANCH   2   3
ENDBRANCH   1   2
BRANCH   1  35
ATOM     35  C   UNL     1      -2.724   6.378  -3.260  1.00  0.00     0.188 C 
BRANCH  35  36
ATOM     36  O   UNL     1      -1.988   7.103  -4.221  1.00  0.00    -0.376 OA
BRANCH  36  37
ATOM     37  C   UNL     1      -2.590   7.678  -5.372  1.00  0.00     0.202 C 
BRANCH  37  38
ATOM     38  C   UNL     1      -3.934   8.408  -5.324  1.00  0.00     0.261 C 
BRANCH  38  39
ATOM     39  O   UNL     1      -4.660   8.205  -4.134  1.00  0.00    -0.460 OA
BRANCH  39  40
ATOM     40  C   UNL     1      -5.450   7.113  -4.152  1.00  0.00     0.338 C 
ATOM     41  O   UNL     1      -5.583   6.309  -5.054  1.00  0.00    -0.246 OA
BRANCH  40  42
ATOM     42  C   UNL     1      -6.153   7.044  -2.861  1.00  0.00     0.060 A 
ATOM     43  C   UNL     1      -6.968   5.923  -2.716  1.00  0.00     0.016 A 
ATOM     44  C   UNL     1      -6.417   8.268  -2.237  1.00  0.00     0.016 A 
ATOM     45  C   UNL     1      -8.270   6.165  -2.374  1.00  0.00     0.010 A 
ATOM     46  C   UNL     1      -7.718   8.517  -1.922  1.00  0.00     0.010 A 
ATOM     47  C   UNL     1      -8.635   7.493  -2.143  1.00  0.00    -0.014 A 
BRANCH  47  48
ATOM     48  C   UNL     1     -10.036   7.816  -2.129  1.00  0.00     0.031 A 
ATOM     49  C   UNL     1     -10.636   7.523  -0.820  1.00  0.00     0.074 A 
ATOM     50  C   UNL     1     -10.623   8.410  -3.184  1.00  0.00     0.049 A 
ATOM     51  N   UNL     1     -11.423   6.546  -0.520  1.00  0.00    -0.248 NA
ATOM     52  C   UNL     1     -10.083   8.236   0.344  1.00  0.00     0.031 C 
ATOM     53  C   UNL     1     -10.010   8.960  -4.398  1.00  0.00     0.029 A 
ATOM     54  N   UNL     1     -11.930   8.750  -3.321  1.00  0.00    -0.354 N 
ATOM     55  C   UNL     1     -11.644   6.678   0.845  1.00  0.00     0.074 A 
ATOM     56  C   UNL     1     -10.598   7.525   1.344  1.00  0.00     0.031 C 
ATOM     57  C   UNL     1     -10.899   9.773  -5.016  1.00  0.00     0.029 A 
ATOM     58  C   UNL     1     -12.167   9.696  -4.315  1.00  0.00     0.049 A 
ATOM     59  H   UNL     1     -12.647   8.363  -2.768  1.00  0.00     0.167 HD
ATOM     60  C   UNL     1     -12.846   6.358   1.389  1.00  0.00     0.037 A 
ATOM     61  C   UNL     1     -13.310  10.423  -4.410  1.00  0.00     0.037 A 
ATOM     62  C   UNL     1     -13.610   5.527   0.491  1.00  0.00     0.049 A 
ATOM     63  C   UNL     1     -14.345   9.700  -3.612  1.00  0.00     0.074 A 
ATOM     64  C   UNL     1     -13.412   4.283  -0.077  1.00  0.00     0.029 A 
ATOM     65  N   UNL     1     -14.581   6.139  -0.267  1.00  0.00    -0.354 N 
ATOM     66  N   UNL     1     -14.817   8.526  -3.944  1.00  0.00    -0.248 NA
ATOM     67  C   UNL     1     -14.444  10.033  -2.195  1.00  0.00     0.031 C 
ATOM     68  C   UNL     1     -13.915   4.399  -1.405  1.00  0.00     0.029 A 
ATOM     69  C   UNL     1     -14.460   5.676  -1.551  1.00  0.00     0.049 A 
ATOM     70  H   UNL     1     -15.243   6.792   0.056  1.00  0.00     0.167 HD
ATOM     71  C   UNL     1     -14.887   7.818  -2.749  1.00  0.00     0.074 A 
ATOM     72  C   UNL     1     -14.684   8.814  -1.699  1.00  0.00     0.031 C 
ATOM     73  C   UNL     1     -14.797   6.455  -2.720  1.00  0.00     0.037 A 
BRANCH  60  74
ATOM     74  C   UNL     1     -13.487   7.135   2.512  1.00  0.00     0.057 A 
ATOM     75  C   UNL     1     -14.693   6.655   3.048  1.00  0.00     0.134 A 
ATOM     76  C   UNL     1     -13.149   8.453   2.890  1.00  0.00     0.134 A 
ATOM     77  F   UNL     1     -15.125   5.415   2.770  1.00  0.00    -0.206 F 
ATOM     78  C   UNL     1     -15.543   7.458   3.814  1.00  0.00     0.040 A 
ATOM     79  C   UNL     1     -13.964   9.244   3.699  1.00  0.00     0.040 A 
ATOM     80  F   UNL     1     -12.070   9.095   2.431  1.00  0.00    -0.206 F 
ATOM     81  C   UNL     1     -15.186   8.762   4.132  1.00  0.00     0.006 A 
ENDBRANCH  60  74
BRANCH  61  82
ATOM     82  C   UNL     1     -13.440  11.850  -4.787  1.00  0.00     0.057 A 
ATOM     83  C   UNL     1     -14.674  12.405  -5.151  1.00  0.00     0.134 A 
ATOM     84  C   UNL     1     -12.400  12.770  -4.552  1.00  0.00     0.134 A 
ATOM     85  F   UNL     1     -15.742  11.616  -5.344  1.00  0.00    -0.206 F 
ATOM     86  C   UNL     1     -14.865  13.790  -5.271  1.00  0.00     0.040 A 
ATOM     87  C   UNL     1     -12.575  14.152  -4.672  1.00  0.00     0.040 A 
ATOM     88  F   UNL     1     -11.201  12.363  -4.111  1.00  0.00    -0.206 F 
ATOM     89  C   UNL     1     -13.814  14.669  -5.024  1.00  0.00     0.006 A 
ENDBRANCH  61  82
BRANCH  73  90
ATOM     90  C   UNL     1     -14.811   5.708  -4.025  1.00  0.00     0.057 A 
ATOM     91  C   UNL     1     -13.780   5.779  -4.975  1.00  0.00     0.134 A 
ATOM     92  C   UNL     1     -15.781   4.719  -4.216  1.00  0.00     0.134 A 
ATOM     93  F   UNL     1     -12.758   6.630  -4.823  1.00  0.00    -0.206 F 
ATOM     94  C   UNL     1     -13.730   4.914  -6.074  1.00  0.00     0.040 A 
ATOM     95  C   UNL     1     -15.726   3.830  -5.290  1.00  0.00     0.040 A 
ATOM     96  F   UNL     1     -16.763   4.556  -3.315  1.00  0.00    -0.206 F 
ATOM     97  C   UNL     1     -14.699   3.927  -6.226  1.00  0.00     0.006 A 
ENDBRANCH  73  90
ENDBRANCH  47  48
ENDBRANCH  40  42
ENDBRANCH  39  40
ENDBRANCH  38  39
ENDBRANCH  37  38
ENDBRANCH  36  37
ENDBRANCH  35  36
ENDBRANCH   1  35
TORSDOF 22
