REMARK SMILES C[C@H](CN(Cc1ccccc1)C(=O)c1cc2ccccc2oc1=O)C(=O)OCCOCCOCCOC(=O)c1ccc(-c2c3nc(c(-c4c(F)cccc4F)c4ccc([nH]4)c(-c4c(F)cccc4F)c4nc(c(-c5c(F)cccc5F)c5ccc2[nH]5)C=C4)C=C3)cc1
REMARK SMILES IDX 31 1 30 2 29 3 28 4 27 5 25 6 26 7 2 8 1 9 3 10 4 11 5 12
REMARK SMILES IDX 6 13 7 14 11 15 8 16 10 17 9 18 12 19 13 20 14 21 15 22
REMARK SMILES IDX 23 23 16 24 22 25 24 26 17 27 21 28 18 29 20 30 19 31 32 32
REMARK SMILES IDX 33 33 34 34 35 35 36 36 37 37 38 38 39 39 40 40 92 41 41 42
REMARK SMILES IDX 91 43 42 44 43 45 44 46 85 47 45 48 90 49 84 50 86 51 46 52
REMARK SMILES IDX 89 53 83 54 82 55 47 57 73 58 56 59 72 60 57 61 60 62 71 63
REMARK SMILES IDX 87 64 58 65 59 66 70 68 88 69 61 70 48 71 49 72 54 73 50 74
REMARK SMILES IDX 51 75 53 76 55 77 52 78 74 79 75 80 80 81 76 82 77 83 79 84
REMARK SMILES IDX 81 85 78 86 62 87 63 88 68 89 64 90 65 91 67 92 69 93 66 94
REMARK H PARENT 86 56 60 67
REMARK Flexibility Score: inf
ROOT
ATOM      1  C   UNL     1      -2.028   2.384  -0.445  1.00  0.00     0.188 C 
ENDROOT
BRANCH   1   2
ATOM      2  O   UNL     1      -3.235   2.171  -1.167  1.00  0.00    -0.376 OA
BRANCH   2   3
ATOM      3  C   UNL     1      -3.601   0.798  -1.318  1.00  0.00     0.202 C 
BRANCH   3   4
ATOM      4  C   UNL     1      -2.852   0.121  -2.470  1.00  0.00     0.261 C 
BRANCH   4   5
ATOM      5  O   UNL     1      -1.539  -0.297  -2.048  1.00  0.00    -0.463 OA
BRANCH   5   6
ATOM      6  C   UNL     1      -0.468   0.257  -2.652  1.00  0.00     0.310 C 
ATOM      7  O   UNL     1      -0.522   0.964  -3.653  1.00  0.00    -0.252 OA
BRANCH   6   8
ATOM      8  C   UNL     1       0.852  -0.084  -1.973  1.00  0.00     0.115 C 
ATOM      9  C   UNL     1       1.600  -1.094  -2.832  1.00  0.00     0.022 C 
BRANCH   8  10
ATOM     10  C   UNL     1       0.806  -0.428  -0.465  1.00  0.00     0.135 C 
BRANCH  10  11
ATOM     11  N   UNL     1       0.610  -1.841  -0.130  1.00  0.00    -0.333 N 
BRANCH  11  12
ATOM     12  C   UNL     1       1.792  -2.659   0.181  1.00  0.00     0.155 C 
BRANCH  12  13
ATOM     13  C   UNL     1       1.716  -3.264   1.569  1.00  0.00    -0.029 A 
ATOM     14  C   UNL     1       1.837  -4.651   1.742  1.00  0.00     0.005 A 
ATOM     15  C   UNL     1       1.464  -2.463   2.696  1.00  0.00     0.005 A 
ATOM     16  C   UNL     1       1.665  -5.227   3.002  1.00  0.00     0.000 A 
ATOM     17  C   UNL     1       1.295  -3.042   3.955  1.00  0.00     0.000 A 
ATOM     18  C   UNL     1       1.387  -4.424   4.107  1.00  0.00     0.000 A 
ENDBRANCH  12  13
ENDBRANCH  11  12
BRANCH  11  19
ATOM     19  C   UNL     1      -0.686  -2.311   0.053  1.00  0.00     0.261 C 
ATOM     20  O   UNL     1      -1.632  -1.567   0.294  1.00  0.00    -0.269 OA
BRANCH  19  21
ATOM     21  C   UNL     1      -0.894  -3.788  -0.090  1.00  0.00     0.126 A 
ATOM     22  C   UNL     1      -1.960  -4.331   0.540  1.00  0.00     0.033 A 
ATOM     23  C   UNL     1      -0.828  -4.264  -1.500  1.00  0.00     0.349 A 
ATOM     24  C   UNL     1      -3.224  -3.929  -0.109  1.00  0.00     0.018 A 
ATOM     25  O   UNL     1      -2.029  -4.154  -2.213  1.00  0.00    -0.422 OA
ATOM     26  O   UNL     1       0.208  -4.681  -2.006  1.00  0.00    -0.246 OA
ATOM     27  C   UNL     1      -4.368  -3.579   0.599  1.00  0.00     0.012 A 
ATOM     28  C   UNL     1      -3.210  -3.834  -1.506  1.00  0.00     0.138 A 
ATOM     29  C   UNL     1      -5.489  -3.126  -0.102  1.00  0.00     0.001 A 
ATOM     30  C   UNL     1      -4.324  -3.407  -2.214  1.00  0.00     0.048 A 
ATOM     31  C   UNL     1      -5.467  -3.041  -1.501  1.00  0.00     0.004 A 
ENDBRANCH  19  21
ENDBRANCH  11  19
ENDBRANCH  10  11
ENDBRANCH   8  10
ENDBRANCH   6   8
ENDBRANCH   5   6
ENDBRANCH   4   5
ENDBRANCH   3   4
ENDBRANCH   2   3
ENDBRANCH   1   2
BRANCH   1  32
ATOM     32  C   UNL     1      -2.213   2.289   1.060  1.00  0.00     0.188 C 
BRANCH  32  33
ATOM     33  O   UNL     1      -2.107   0.977   1.606  1.00  0.00    -0.376 OA
BRANCH  33  34
ATOM     34  C   UNL     1      -3.172   0.620   2.490  1.00  0.00     0.202 C 
BRANCH  34  35
ATOM     35  C   UNL     1      -3.140   1.280   3.883  1.00  0.00     0.261 C 
BRANCH  35  36
ATOM     36  O   UNL     1      -2.841   2.683   3.812  1.00  0.00    -0.460 OA
BRANCH  36  37
ATOM     37  C   UNL     1      -1.562   3.015   4.124  1.00  0.00     0.338 C 
ATOM     38  O   UNL     1      -0.746   2.327   4.716  1.00  0.00    -0.246 OA
BRANCH  37  39
ATOM     39  C   UNL     1      -1.203   4.269   3.413  1.00  0.00     0.060 A 
ATOM     40  C   UNL     1       0.086   4.348   2.860  1.00  0.00     0.016 A 
ATOM     41  C   UNL     1      -2.137   5.280   3.158  1.00  0.00     0.016 A 
ATOM     42  C   UNL     1       0.451   5.442   2.075  1.00  0.00     0.010 A 
ATOM     43  C   UNL     1      -1.762   6.393   2.400  1.00  0.00     0.010 A 
ATOM     44  C   UNL     1      -0.456   6.494   1.889  1.00  0.00    -0.014 A 
BRANCH  44  45
ATOM     45  C   UNL     1       0.061   7.817   1.471  1.00  0.00     0.031 A 
ATOM     46  C   UNL     1       0.598   8.704   2.563  1.00  0.00     0.074 A 
ATOM     47  C   UNL     1       0.068   8.231   0.193  1.00  0.00     0.049 A 
ATOM     48  N   UNL     1       1.073   9.919   2.495  1.00  0.00    -0.248 NA
ATOM     49  C   UNL     1       0.598   8.131   3.921  1.00  0.00     0.031 C 
ATOM     50  C   UNL     1      -0.381   7.456  -0.961  1.00  0.00     0.029 A 
ATOM     51  N   UNL     1       0.470   9.431  -0.342  1.00  0.00    -0.354 N 
ATOM     52  C   UNL     1       1.430  10.249   3.795  1.00  0.00     0.074 A 
ATOM     53  C   UNL     1       1.099   9.123   4.636  1.00  0.00     0.031 C 
ATOM     54  C   UNL     1      -0.245   8.209  -2.069  1.00  0.00     0.029 A 
ATOM     55  C   UNL     1       0.276   9.524  -1.698  1.00  0.00     0.049 A 
ATOM     56  H   UNL     1       0.861  10.156   0.197  1.00  0.00     0.167 HD
ATOM     57  C   UNL     1       1.988  11.391   4.256  1.00  0.00     0.037 A 
ATOM     58  C   UNL     1       0.478  10.565  -2.531  1.00  0.00     0.037 A 
ATOM     59  C   UNL     1       2.287  12.528   3.435  1.00  0.00     0.049 A 
ATOM     60  C   UNL     1       1.014  11.864  -1.980  1.00  0.00     0.074 A 
ATOM     61  C   UNL     1       2.837  13.740   3.807  1.00  0.00     0.029 A 
ATOM     62  N   UNL     1       2.042  12.593   2.073  1.00  0.00    -0.354 N 
ATOM     63  N   UNL     1       1.370  12.161  -0.753  1.00  0.00    -0.248 NA
ATOM     64  C   UNL     1       1.171  12.975  -2.932  1.00  0.00     0.031 C 
ATOM     65  C   UNL     1       2.888  14.557   2.674  1.00  0.00     0.029 A 
ATOM     66  C   UNL     1       2.411  13.836   1.590  1.00  0.00     0.049 A 
ATOM     67  H   UNL     1       1.663  11.865   1.530  1.00  0.00     0.167 HD
ATOM     68  C   UNL     1       1.819  13.477  -0.792  1.00  0.00     0.074 A 
ATOM     69  C   UNL     1       1.696  13.920  -2.165  1.00  0.00     0.031 C 
ATOM     70  C   UNL     1       2.292  14.250   0.216  1.00  0.00     0.037 A 
BRANCH  57  71
ATOM     71  C   UNL     1       2.264  11.460   5.725  1.00  0.00     0.057 A 
ATOM     72  C   UNL     1       3.315  10.741   6.311  1.00  0.00     0.134 A 
ATOM     73  C   UNL     1       1.452  12.228   6.567  1.00  0.00     0.134 A 
ATOM     74  F   UNL     1       4.107   9.961   5.559  1.00  0.00    -0.206 F 
ATOM     75  C   UNL     1       3.535  10.769   7.688  1.00  0.00     0.040 A 
ATOM     76  C   UNL     1       1.676  12.281   7.942  1.00  0.00     0.040 A 
ATOM     77  F   UNL     1       0.422  12.928   6.067  1.00  0.00    -0.206 F 
ATOM     78  C   UNL     1       2.716  11.544   8.507  1.00  0.00     0.006 A 
ENDBRANCH  57  71
BRANCH  58  79
ATOM     79  C   UNL     1       0.155  10.446  -3.976  1.00  0.00     0.057 A 
ATOM     80  C   UNL     1       1.163  10.438  -4.947  1.00  0.00     0.134 A 
ATOM     81  C   UNL     1      -1.171  10.387  -4.423  1.00  0.00     0.134 A 
ATOM     82  F   UNL     1       2.451  10.525  -4.583  1.00  0.00    -0.206 F 
ATOM     83  C   UNL     1       0.866  10.392  -6.311  1.00  0.00     0.040 A 
ATOM     84  C   UNL     1      -1.482  10.319  -5.782  1.00  0.00     0.040 A 
ATOM     85  F   UNL     1      -2.183  10.402  -3.544  1.00  0.00    -0.206 F 
ATOM     86  C   UNL     1      -0.461  10.328  -6.731  1.00  0.00     0.006 A 
ENDBRANCH  58  79
BRANCH  70  87
ATOM     87  C   UNL     1       2.749  15.636  -0.127  1.00  0.00     0.057 A 
ATOM     88  C   UNL     1       1.842  16.668  -0.393  1.00  0.00     0.134 A 
ATOM     89  C   UNL     1       4.113  15.955  -0.119  1.00  0.00     0.134 A 
ATOM     90  F   UNL     1       0.523  16.425  -0.422  1.00  0.00    -0.206 F 
ATOM     91  C   UNL     1       2.277  17.969  -0.655  1.00  0.00     0.040 A 
ATOM     92  C   UNL     1       4.559  17.256  -0.357  1.00  0.00     0.040 A 
ATOM     93  F   UNL     1       5.032  15.013   0.142  1.00  0.00    -0.206 F 
ATOM     94  C   UNL     1       3.639  18.266  -0.630  1.00  0.00     0.006 A 
ENDBRANCH  70  87
ENDBRANCH  44  45
ENDBRANCH  37  39
ENDBRANCH  36  37
ENDBRANCH  35  36
ENDBRANCH  34  35
ENDBRANCH  33  34
ENDBRANCH  32  33
ENDBRANCH   1  32
TORSDOF 23
