REMARK SMILES O=C(OCCOCCOCCOC(=O)[C@H]1C[C@H](O)CN1C(=O)CS[C@H]1CCS(=O)(=O)C1)c1ccc(-c2c3nc(c(-c4c(F)cccc4F)c4ccc([nH]4)c(-c4c(F)cccc4F)c4nc(c(-c5c(F)cccc5F)c5ccc2[nH]5)C=C4)C=C3)cc1
REMARK SMILES IDX 8 1 7 2 6 3 5 4 4 5 3 6 2 7 1 8 32 9 33 10 85 11 34 12 84 13
REMARK SMILES IDX 35 14 36 15 37 16 78 17 38 18 83 19 77 20 79 21 39 22 82 23
REMARK SMILES IDX 76 24 75 25 40 27 66 28 49 29 65 30 50 31 53 32 64 33 80 34
REMARK SMILES IDX 51 35 52 36 63 38 81 39 54 40 41 41 42 42 47 43 43 44 44 45
REMARK SMILES IDX 46 46 48 47 45 48 67 49 68 50 73 51 69 52 70 53 72 54 74 55
REMARK SMILES IDX 71 56 55 57 56 58 61 59 57 60 58 61 60 62 62 63 59 64 9 65
REMARK SMILES IDX 10 66 11 67 12 68 13 69 14 70 15 71 16 72 20 73 17 74 19 75
REMARK SMILES IDX 21 76 22 77 23 78 24 79 25 80 26 81 31 82 27 83 28 84 29 85
REMARK SMILES IDX 30 86 18 87
REMARK H PARENT 79 26 53 37 18 88
REMARK Flexibility Score: inf
ROOT
ATOM      1  C   UNL     1      -3.466  -4.244   3.910  1.00  0.00     0.188 C 
ENDROOT
BRANCH   1   2
ATOM      2  C   UNL     1      -2.791  -3.206   3.003  1.00  0.00     0.188 C 
BRANCH   2   3
ATOM      3  O   UNL     1      -1.442  -2.848   3.309  1.00  0.00    -0.376 OA
BRANCH   3   4
ATOM      4  C   UNL     1      -1.263  -1.976   4.423  1.00  0.00     0.202 C 
BRANCH   4   5
ATOM      5  C   UNL     1      -1.581  -0.487   4.210  1.00  0.00     0.261 C 
BRANCH   5   6
ATOM      6  O   UNL     1      -2.643  -0.198   3.290  1.00  0.00    -0.460 OA
BRANCH   6   7
ATOM      7  C   UNL     1      -2.624  -0.080   1.941  1.00  0.00     0.338 C 
ATOM      8  O   UNL     1      -3.645   0.334   1.392  1.00  0.00    -0.246 OA
BRANCH   7   9
ATOM      9  C   UNL     1      -1.478  -0.484   1.057  1.00  0.00     0.060 A 
ATOM     10  C   UNL     1      -0.204  -0.869   1.479  1.00  0.00     0.016 A 
ATOM     11  C   UNL     1      -1.718  -0.468  -0.333  1.00  0.00     0.016 A 
ATOM     12  C   UNL     1       0.794  -1.218   0.572  1.00  0.00     0.010 A 
ATOM     13  C   UNL     1      -0.715  -0.795  -1.255  1.00  0.00     0.010 A 
ATOM     14  C   UNL     1       0.557  -1.148  -0.798  1.00  0.00    -0.014 A 
BRANCH  14  15
ATOM     15  C   UNL     1       1.714  -1.260  -1.708  1.00  0.00     0.031 A 
ATOM     16  C   UNL     1       2.436  -0.015  -2.089  1.00  0.00     0.074 A 
ATOM     17  C   UNL     1       2.217  -2.452  -2.064  1.00  0.00     0.049 A 
ATOM     18  N   UNL     1       3.506   0.115  -2.824  1.00  0.00    -0.248 NA
ATOM     19  C   UNL     1       1.918   1.242  -1.528  1.00  0.00     0.031 C 
ATOM     20  C   UNL     1       1.685  -3.724  -1.615  1.00  0.00     0.029 A 
ATOM     21  N   UNL     1       3.274  -2.796  -2.868  1.00  0.00    -0.354 N 
ATOM     22  C   UNL     1       3.806   1.464  -2.798  1.00  0.00     0.074 A 
ATOM     23  C   UNL     1       2.797   2.116  -1.990  1.00  0.00     0.031 C 
ATOM     24  C   UNL     1       2.392  -4.716  -2.179  1.00  0.00     0.029 A 
ATOM     25  C   UNL     1       3.403  -4.151  -3.046  1.00  0.00     0.049 A 
ATOM     26  H   UNL     1       3.880  -2.136  -3.277  1.00  0.00     0.167 HD
ATOM     27  C   UNL     1       4.838   2.092  -3.402  1.00  0.00     0.037 A 
ATOM     28  C   UNL     1       4.206  -4.877  -3.842  1.00  0.00     0.037 A 
ATOM     29  C   UNL     1       5.800   1.432  -4.243  1.00  0.00     0.049 A 
ATOM     30  C   UNL     1       5.216  -4.145  -4.657  1.00  0.00     0.074 A 
ATOM     31  C   UNL     1       6.847   1.987  -4.954  1.00  0.00     0.029 A 
ATOM     32  N   UNL     1       5.815   0.067  -4.509  1.00  0.00    -0.354 N 
ATOM     33  N   UNL     1       5.463  -2.860  -4.674  1.00  0.00    -0.248 NA
ATOM     34  C   UNL     1       6.057  -4.946  -5.550  1.00  0.00     0.031 C 
ATOM     35  C   UNL     1       7.451   0.972  -5.704  1.00  0.00     0.029 A 
ATOM     36  C   UNL     1       6.822  -0.229  -5.415  1.00  0.00     0.049 A 
ATOM     37  H   UNL     1       5.201  -0.592  -4.112  1.00  0.00     0.167 HD
ATOM     38  C   UNL     1       6.504  -2.691  -5.566  1.00  0.00     0.074 A 
ATOM     39  C   UNL     1       6.847  -4.012  -6.062  1.00  0.00     0.031 C 
ATOM     40  C   UNL     1       7.123  -1.543  -5.927  1.00  0.00     0.037 A 
BRANCH  27  41
ATOM     41  C   UNL     1       4.886   3.578  -3.243  1.00  0.00     0.057 A 
ATOM     42  C   UNL     1       5.247   4.192  -2.037  1.00  0.00     0.134 A 
ATOM     43  C   UNL     1       4.498   4.404  -4.304  1.00  0.00     0.134 A 
ATOM     44  F   UNL     1       5.585   3.453  -0.970  1.00  0.00    -0.206 F 
ATOM     45  C   UNL     1       5.200   5.580  -1.887  1.00  0.00     0.040 A 
ATOM     46  C   UNL     1       4.469   5.791  -4.173  1.00  0.00     0.040 A 
ATOM     47  F   UNL     1       4.120   3.873  -5.476  1.00  0.00    -0.206 F 
ATOM     48  C   UNL     1       4.814   6.382  -2.959  1.00  0.00     0.006 A 
ENDBRANCH  27  41
BRANCH  28  49
ATOM     49  C   UNL     1       4.046  -6.350  -3.932  1.00  0.00     0.057 A 
ATOM     50  C   UNL     1       4.974  -7.232  -3.370  1.00  0.00     0.134 A 
ATOM     51  C   UNL     1       2.933  -6.911  -4.571  1.00  0.00     0.134 A 
ATOM     52  F   UNL     1       6.077  -6.761  -2.770  1.00  0.00    -0.206 F 
ATOM     53  C   UNL     1       4.796  -8.617  -3.434  1.00  0.00     0.040 A 
ATOM     54  C   UNL     1       2.731  -8.291  -4.625  1.00  0.00     0.040 A 
ATOM     55  F   UNL     1       2.016  -6.120  -5.147  1.00  0.00    -0.206 F 
ATOM     56  C   UNL     1       3.666  -9.150  -4.054  1.00  0.00     0.006 A 
ENDBRANCH  28  49
BRANCH  40  57
ATOM     57  C   UNL     1       8.243  -1.687  -6.906  1.00  0.00     0.057 A 
ATOM     58  C   UNL     1       8.009  -1.992  -8.252  1.00  0.00     0.134 A 
ATOM     59  C   UNL     1       9.570  -1.542  -6.487  1.00  0.00     0.134 A 
ATOM     60  F   UNL     1       6.758  -2.172  -8.702  1.00  0.00    -0.206 F 
ATOM     61  C   UNL     1       9.063  -2.176  -9.146  1.00  0.00     0.040 A 
ATOM     62  C   UNL     1      10.631  -1.697  -7.378  1.00  0.00     0.040 A 
ATOM     63  F   UNL     1       9.855  -1.256  -5.208  1.00  0.00    -0.206 F 
ATOM     64  C   UNL     1      10.378  -2.023  -8.709  1.00  0.00     0.006 A 
ENDBRANCH  40  57
ENDBRANCH  14  15
ENDBRANCH   7   9
ENDBRANCH   6   7
ENDBRANCH   5   6
ENDBRANCH   4   5
ENDBRANCH   3   4
ENDBRANCH   2   3
ENDBRANCH   1   2
BRANCH   1  65
ATOM     65  O   UNL     1      -3.018  -4.202   5.260  1.00  0.00    -0.376 OA
BRANCH  65  66
ATOM     66  C   UNL     1      -2.371  -5.397   5.706  1.00  0.00     0.202 C 
BRANCH  66  67
ATOM     67  C   UNL     1      -0.956  -5.585   5.152  1.00  0.00     0.261 C 
BRANCH  67  68
ATOM     68  O   UNL     1      -0.924  -5.661   3.722  1.00  0.00    -0.462 OA
BRANCH  68  69
ATOM     69  C   UNL     1      -1.372  -6.794   3.121  1.00  0.00     0.329 C 
ATOM     70  O   UNL     1      -1.791  -7.775   3.717  1.00  0.00    -0.250 OA
BRANCH  69  71
ATOM     71  C   UNL     1      -1.293  -6.627   1.588  1.00  0.00     0.197 C 
ATOM     72  C   UNL     1      -0.164  -5.686   1.167  1.00  0.00     0.070 C 
ATOM     73  N   UNL     1      -0.868  -7.880   0.951  1.00  0.00    -0.325 N 
ATOM     74  C   UNL     1       1.055  -6.579   1.413  1.00  0.00     0.136 C 
ATOM     75  C   UNL     1       0.586  -7.919   0.836  1.00  0.00     0.152 C 
BRANCH  73  76
ATOM     76  C   UNL     1      -1.785  -8.788   0.472  1.00  0.00     0.233 C 
ATOM     77  O   UNL     1      -2.995  -8.598   0.609  1.00  0.00    -0.274 OA
BRANCH  76  78
ATOM     78  C   UNL     1      -1.252  -9.973  -0.321  1.00  0.00     0.169 C 
BRANCH  78  79
ATOM     79  S   UNL     1      -1.914 -10.022  -2.035  1.00  0.00    -0.148 SA
BRANCH  79  80
ATOM     80  C   UNL     1      -1.310  -8.444  -2.730  1.00  0.00     0.063 C 
ATOM     81  C   UNL     1      -1.462  -8.446  -4.266  1.00  0.00     0.031 C 
ATOM     82  C   UNL     1      -2.109  -7.230  -2.275  1.00  0.00     0.151 C 
ATOM     83  C   UNL     1      -1.279  -7.011  -4.771  1.00  0.00     0.138 C 
ATOM     84  S   UNL     1      -1.534  -5.960  -3.359  1.00  0.00     0.151 S 
ATOM     85  O   UNL     1      -0.239  -5.574  -2.844  1.00  0.00    -0.229 OA
ATOM     86  O   UNL     1      -2.589  -5.008  -3.602  1.00  0.00    -0.229 OA
ENDBRANCH  79  80
ENDBRANCH  78  79
ENDBRANCH  76  78
ENDBRANCH  73  76
BRANCH  74  87
ATOM     87  O   UNL     1       2.233  -6.110   0.806  1.00  0.00    -0.391 OA
ATOM     88  H   UNL     1       2.093  -6.028  -0.150  1.00  0.00     0.211 HD
ENDBRANCH  74  87
ENDBRANCH  69  71
ENDBRANCH  68  69
ENDBRANCH  67  68
ENDBRANCH  66  67
ENDBRANCH  65  66
ENDBRANCH   1  65
TORSDOF 22
