REMARK SMILES Cc1c(CC(=O)OCCOCCOCCOC(=O)c2ccc(-c3c4nc(c(-c5c(F)cccc5F)c5ccc([nH]5)c(-c5c(F)cccc5F)c5nc(c(-c6c(F)cccc6F)c6ccc3[nH]6)C=C5)C=C4)cc2)cc(-c2ccc(S(C)(=O)=O)cc2)n1-c1cccc(F)c1
REMARK SMILES IDX 11 1 10 2 9 3 8 4 7 5 5 6 6 7 4 8 3 9 1 10 2 11 85 12 73 13
REMARK SMILES IDX 74 14 86 15 87 16 92 17 88 18 90 19 89 20 91 21 75 22 76 23
REMARK SMILES IDX 84 24 77 25 83 26 78 27 79 28 80 29 81 30 82 31 12 32 13 33
REMARK SMILES IDX 14 34 15 35 16 36 17 37 18 38 19 39 20 40 72 41 21 42 71 43
REMARK SMILES IDX 22 44 23 45 24 46 65 47 25 48 70 49 64 50 66 51 26 52 69 53
REMARK SMILES IDX 63 54 62 55 27 57 53 58 36 59 52 60 37 61 40 62 51 63 67 64
REMARK SMILES IDX 38 65 39 66 50 68 68 69 41 70 28 71 29 72 34 73 30 74 31 75
REMARK SMILES IDX 33 76 35 77 32 78 54 79 55 80 60 81 56 82 57 83 59 84 61 85
REMARK SMILES IDX 58 86 42 87 43 88 48 89 44 90 45 91 47 92 49 93 46 94
REMARK H PARENT 66 56 40 67
REMARK Flexibility Score: inf
ROOT
ATOM      1  C   UNL     1       3.502   0.872  -1.151  1.00  0.00     0.188 C 
ENDROOT
BRANCH   1   2
ATOM      2  O   UNL     1       4.483   0.704  -2.159  1.00  0.00    -0.376 OA
BRANCH   2   3
ATOM      3  C   UNL     1       4.371  -0.377  -3.073  1.00  0.00     0.202 C 
BRANCH   3   4
ATOM      4  C   UNL     1       4.367  -1.810  -2.526  1.00  0.00     0.261 C 
BRANCH   4   5
ATOM      5  O   UNL     1       3.305  -2.075  -1.584  1.00  0.00    -0.463 OA
BRANCH   5   6
ATOM      6  C   UNL     1       3.698  -2.581  -0.387  1.00  0.00     0.310 C 
ATOM      7  O   UNL     1       4.872  -2.806  -0.093  1.00  0.00    -0.252 OA
BRANCH   6   8
ATOM      8  C   UNL     1       2.603  -2.821   0.633  1.00  0.00     0.160 C 
BRANCH   8   9
ATOM      9  C   UNL     1       1.157  -2.665   0.251  1.00  0.00    -0.015 A 
ATOM     10  C   UNL     1       0.530  -0.334   1.284  1.00  0.00     0.065 C 
ATOM     11  C   UNL     1       0.304  -1.591   0.509  1.00  0.00     0.024 A 
ATOM     12  N   UNL     1      -0.934  -1.888  -0.041  1.00  0.00    -0.313 N 
ATOM     13  C   UNL     1       0.319  -3.709  -0.243  1.00  0.00     0.033 A 
ATOM     14  C   UNL     1      -0.986  -3.248  -0.299  1.00  0.00     0.053 A 
BRANCH  12  15
ATOM     15  C   UNL     1      -1.968  -0.960  -0.306  1.00  0.00     0.049 A 
ATOM     16  C   UNL     1      -3.157  -0.995   0.428  1.00  0.00     0.027 A 
ATOM     17  C   UNL     1      -1.814  -0.091  -1.391  1.00  0.00     0.065 A 
ATOM     18  C   UNL     1      -4.202  -0.138   0.076  1.00  0.00     0.005 A 
ATOM     19  C   UNL     1      -2.873   0.737  -1.739  1.00  0.00     0.125 A 
ATOM     20  C   UNL     1      -4.063   0.723  -1.016  1.00  0.00     0.039 A 
ATOM     21  F   UNL     1      -2.761   1.540  -2.806  1.00  0.00    -0.207 F 
ENDBRANCH  12  15
BRANCH  14  22
ATOM     22  C   UNL     1      -2.216  -3.990  -0.566  1.00  0.00    -0.001 A 
ATOM     23  C   UNL     1      -2.934  -3.819  -1.755  1.00  0.00     0.011 A 
ATOM     24  C   UNL     1      -2.706  -4.862   0.417  1.00  0.00     0.011 A 
ATOM     25  C   UNL     1      -4.134  -4.506  -1.959  1.00  0.00     0.021 A 
ATOM     26  C   UNL     1      -3.905  -5.547   0.224  1.00  0.00     0.021 A 
ATOM     27  C   UNL     1      -4.616  -5.362  -0.962  1.00  0.00     0.067 A 
BRANCH  27  28
ATOM     28  S   UNL     1      -6.117  -6.268  -1.254  1.00  0.00     0.175 S 
ATOM     29  C   UNL     1      -7.377  -5.023  -1.326  1.00  0.00     0.163 C 
ATOM     30  O   UNL     1      -6.000  -6.883  -2.547  1.00  0.00    -0.224 OA
ATOM     31  O   UNL     1      -6.379  -7.072  -0.058  1.00  0.00    -0.224 OA
ENDBRANCH  27  28
ENDBRANCH  14  22
ENDBRANCH   8   9
ENDBRANCH   6   8
ENDBRANCH   5   6
ENDBRANCH   4   5
ENDBRANCH   3   4
ENDBRANCH   2   3
ENDBRANCH   1   2
BRANCH   1  32
ATOM     32  C   UNL     1       2.010   0.736  -1.475  1.00  0.00     0.188 C 
BRANCH  32  33
ATOM     33  O   UNL     1       1.554   0.747  -2.806  1.00  0.00    -0.376 OA
BRANCH  33  34
ATOM     34  C   UNL     1       1.637   1.954  -3.553  1.00  0.00     0.202 C 
BRANCH  34  35
ATOM     35  C   UNL     1       0.959   3.238  -2.996  1.00  0.00     0.261 C 
BRANCH  35  36
ATOM     36  O   UNL     1       1.771   4.259  -2.303  1.00  0.00    -0.460 OA
BRANCH  36  37
ATOM     37  C   UNL     1       1.188   4.855  -1.204  1.00  0.00     0.338 C 
ATOM     38  O   UNL     1       0.302   4.309  -0.554  1.00  0.00    -0.246 OA
BRANCH  37  39
ATOM     39  C   UNL     1       1.702   6.246  -0.766  1.00  0.00     0.060 A 
ATOM     40  C   UNL     1       2.105   6.413   0.549  1.00  0.00     0.016 A 
ATOM     41  C   UNL     1       1.570   7.467  -1.469  1.00  0.00     0.016 A 
ATOM     42  C   UNL     1       2.408   7.720   1.093  1.00  0.00     0.010 A 
ATOM     43  C   UNL     1       1.815   8.821  -0.871  1.00  0.00     0.010 A 
ATOM     44  C   UNL     1       2.242   9.019   0.456  1.00  0.00    -0.014 A 
BRANCH  44  45
ATOM     45  C   UNL     1       2.300  10.406   1.440  1.00  0.00     0.031 A 
ATOM     46  C   UNL     1       1.885   9.848   2.759  1.00  0.00     0.074 A 
ATOM     47  C   UNL     1       2.408  11.825   1.508  1.00  0.00     0.049 A 
ATOM     48  N   UNL     1       0.727   9.253   2.832  1.00  0.00    -0.248 NA
ATOM     49  C   UNL     1       2.794   9.536   3.864  1.00  0.00     0.031 C 
ATOM     50  C   UNL     1       2.495  12.792   0.394  1.00  0.00     0.029 A 
ATOM     51  N   UNL     1       2.438  12.790   2.612  1.00  0.00    -0.354 N 
ATOM     52  C   UNL     1       0.617   8.761   4.102  1.00  0.00     0.074 A 
ATOM     53  C   UNL     1       1.984   8.770   4.608  1.00  0.00     0.031 C 
ATOM     54  C   UNL     1       2.708  14.080   0.817  1.00  0.00     0.029 A 
ATOM     55  C   UNL     1       2.735  14.190   2.280  1.00  0.00     0.049 A 
ATOM     56  H   UNL     1       2.265  12.511   3.540  1.00  0.00     0.167 HD
ATOM     57  C   UNL     1      -0.547   9.093   4.731  1.00  0.00     0.037 A 
ATOM     58  C   UNL     1       2.885  15.362   3.061  1.00  0.00     0.037 A 
ATOM     59  C   UNL     1      -0.358  10.188   5.640  1.00  0.00     0.049 A 
ATOM     60  C   UNL     1       2.061  15.159   4.254  1.00  0.00     0.074 A 
ATOM     61  C   UNL     1       0.655  10.512   6.522  1.00  0.00     0.029 A 
ATOM     62  N   UNL     1      -1.030  11.356   5.360  1.00  0.00    -0.354 N 
ATOM     63  N   UNL     1       0.776  15.326   4.203  1.00  0.00    -0.248 NA
ATOM     64  C   UNL     1       2.614  14.944   5.585  1.00  0.00     0.031 C 
ATOM     65  C   UNL     1       0.886  11.883   6.301  1.00  0.00     0.029 A 
ATOM     66  C   UNL     1      -0.214  12.423   5.651  1.00  0.00     0.049 A 
ATOM     67  H   UNL     1      -1.948  11.417   5.009  1.00  0.00     0.167 HD
ATOM     68  C   UNL     1       0.345  14.704   5.325  1.00  0.00     0.074 A 
ATOM     69  C   UNL     1       1.469  14.745   6.244  1.00  0.00     0.031 C 
ATOM     70  C   UNL     1      -0.539  13.707   5.095  1.00  0.00     0.037 A 
BRANCH  57  71
ATOM     71  C   UNL     1      -1.755   8.915   3.842  1.00  0.00     0.057 A 
ATOM     72  C   UNL     1      -2.596   7.822   4.048  1.00  0.00     0.134 A 
ATOM     73  C   UNL     1      -1.980   9.681   2.679  1.00  0.00     0.134 A 
ATOM     74  F   UNL     1      -2.486   7.083   5.162  1.00  0.00    -0.206 F 
ATOM     75  C   UNL     1      -3.558   7.454   3.101  1.00  0.00     0.040 A 
ATOM     76  C   UNL     1      -2.883   9.283   1.694  1.00  0.00     0.040 A 
ATOM     77  F   UNL     1      -1.301  10.819   2.459  1.00  0.00    -0.206 F 
ATOM     78  C   UNL     1      -3.669   8.156   1.900  1.00  0.00     0.006 A 
ENDBRANCH  57  71
BRANCH  58  79
ATOM     79  C   UNL     1       3.341  16.893   3.120  1.00  0.00     0.057 A 
ATOM     80  C   UNL     1       2.664  17.869   3.950  1.00  0.00     0.134 A 
ATOM     81  C   UNL     1       4.632  17.320   2.780  1.00  0.00     0.134 A 
ATOM     82  F   UNL     1       1.397  17.700   4.355  1.00  0.00    -0.206 F 
ATOM     83  C   UNL     1       3.245  19.050   4.475  1.00  0.00     0.040 A 
ATOM     84  C   UNL     1       5.214  18.534   3.272  1.00  0.00     0.040 A 
ATOM     85  F   UNL     1       5.417  16.543   2.024  1.00  0.00    -0.206 F 
ATOM     86  C   UNL     1       4.541  19.380   4.152  1.00  0.00     0.006 A 
ENDBRANCH  58  79
BRANCH  70  87
ATOM     87  C   UNL     1      -1.661  14.000   4.115  1.00  0.00     0.057 A 
ATOM     88  C   UNL     1      -1.546  14.509   2.801  1.00  0.00     0.134 A 
ATOM     89  C   UNL     1      -2.968  13.827   4.583  1.00  0.00     0.134 A 
ATOM     90  F   UNL     1      -0.368  14.628   2.172  1.00  0.00    -0.206 F 
ATOM     91  C   UNL     1      -2.663  14.905   2.053  1.00  0.00     0.040 A 
ATOM     92  C   UNL     1      -4.092  14.167   3.825  1.00  0.00     0.040 A 
ATOM     93  F   UNL     1      -3.180  13.306   5.801  1.00  0.00    -0.206 F 
ATOM     94  C   UNL     1      -3.942  14.735   2.565  1.00  0.00     0.006 A 
ENDBRANCH  70  87
ENDBRANCH  44  45
ENDBRANCH  37  39
ENDBRANCH  36  37
ENDBRANCH  35  36
ENDBRANCH  34  35
ENDBRANCH  33  34
ENDBRANCH  32  33
ENDBRANCH   1  32
TORSDOF 21
