REMARK SMILES C[C@@H](C(=O)OCCOCCOCCOC(=O)c1ccc(-c2c3nc(c(-c4c(F)cccc4F)c4ccc([nH]4)c(-c4c(F)cccc4F)c4nc(c(-c5c(F)cccc5F)c5ccc2[nH]5)C=C4)C=C3)cc1)c1ccc(C[C@@H]2CCC[C@@H]2O)cc1Br
REMARK SMILES IDX 9 1 8 2 7 3 6 4 5 5 3 6 4 7 2 8 1 9 71 10 72 11 83 12 73 13
REMARK SMILES IDX 82 14 84 15 74 16 75 17 76 18 77 19 80 20 78 21 79 22 81 23
REMARK SMILES IDX 10 25 11 26 12 27 13 28 14 29 15 30 16 31 17 32 18 33 70 34
REMARK SMILES IDX 19 35 69 36 20 37 21 38 22 39 63 40 23 41 68 42 62 43 64 44
REMARK SMILES IDX 24 45 67 46 61 47 60 48 25 50 51 51 34 52 50 53 35 54 38 55
REMARK SMILES IDX 49 56 65 57 36 58 37 59 48 61 66 62 39 63 26 64 27 65 32 66
REMARK SMILES IDX 28 67 29 68 31 69 33 70 30 71 52 72 53 73 58 74 54 75 55 76
REMARK SMILES IDX 57 77 59 78 56 79 40 80 41 81 46 82 42 83 43 84 45 85 47 86
REMARK SMILES IDX 44 87
REMARK H PARENT 81 24 64 49 38 60
REMARK Flexibility Score: inf
ROOT
ATOM      1  C   UNL     1      -8.491   4.808   4.639  1.00  0.00     0.188 C 
ENDROOT
BRANCH   1   2
ATOM      2  O   UNL     1      -9.306   5.941   4.910  1.00  0.00    -0.376 OA
BRANCH   2   3
ATOM      3  C   UNL     1     -10.709   5.729   4.782  1.00  0.00     0.202 C 
BRANCH   3   4
ATOM      4  C   UNL     1     -11.297   4.756   5.803  1.00  0.00     0.261 C 
BRANCH   4   5
ATOM      5  O   UNL     1     -10.690   3.454   5.690  1.00  0.00    -0.463 OA
BRANCH   5   6
ATOM      6  C   UNL     1     -11.434   2.403   5.275  1.00  0.00     0.313 C 
ATOM      7  O   UNL     1     -12.597   2.487   4.898  1.00  0.00    -0.252 OA
BRANCH   6   8
ATOM      8  C   UNL     1     -10.677   1.086   5.424  1.00  0.00     0.127 C 
ATOM      9  C   UNL     1     -10.051   1.043   6.840  1.00  0.00     0.025 C 
BRANCH   8  10
ATOM     10  C   UNL     1      -9.733   0.588   4.309  1.00  0.00    -0.020 A 
ATOM     11  C   UNL     1      -8.864  -0.485   4.645  1.00  0.00     0.006 A 
ATOM     12  C   UNL     1      -9.745   0.947   2.950  1.00  0.00     0.022 A 
ATOM     13  C   UNL     1      -8.100  -1.186   3.699  1.00  0.00     0.004 A 
ATOM     14  C   UNL     1      -8.956   0.248   2.003  1.00  0.00     0.019 A 
ATOM     15  Br  UNL     1     -10.829   2.312   2.193  1.00  0.00    -0.050 Br
ATOM     16  C   UNL     1      -8.150  -0.845   2.356  1.00  0.00    -0.047 A 
BRANCH  16  17
ATOM     17  C   UNL     1      -7.493  -1.696   1.286  1.00  0.00     0.041 C 
BRANCH  17  18
ATOM     18  C   UNL     1      -5.954  -1.817   1.169  1.00  0.00     0.022 C 
ATOM     19  C   UNL     1      -5.253  -2.603   2.279  1.00  0.00     0.007 C 
ATOM     20  C   UNL     1      -5.180  -0.508   1.113  1.00  0.00     0.117 C 
ATOM     21  C   UNL     1      -4.535  -1.583   3.165  1.00  0.00     0.003 C 
ATOM     22  C   UNL     1      -4.811  -0.219   2.558  1.00  0.00     0.032 C 
BRANCH  20  23
ATOM     23  O   UNL     1      -5.963   0.519   0.556  1.00  0.00    -0.393 OA
ATOM     24  H   UNL     1      -6.771   0.629   1.081  1.00  0.00     0.210 HD
ENDBRANCH  20  23
ENDBRANCH  17  18
ENDBRANCH  16  17
ENDBRANCH   8  10
ENDBRANCH   6   8
ENDBRANCH   5   6
ENDBRANCH   4   5
ENDBRANCH   3   4
ENDBRANCH   2   3
ENDBRANCH   1   2
BRANCH   1  25
ATOM     25  C   UNL     1      -7.908   4.122   5.895  1.00  0.00     0.188 C 
BRANCH  25  26
ATOM     26  O   UNL     1      -8.069   4.742   7.163  1.00  0.00    -0.376 OA
BRANCH  26  27
ATOM     27  C   UNL     1      -7.658   6.102   7.275  1.00  0.00     0.202 C 
BRANCH  27  28
ATOM     28  C   UNL     1      -6.228   6.458   6.838  1.00  0.00     0.261 C 
BRANCH  28  29
ATOM     29  O   UNL     1      -5.935   6.111   5.468  1.00  0.00    -0.460 OA
BRANCH  29  30
ATOM     30  C   UNL     1      -4.776   5.451   5.253  1.00  0.00     0.338 C 
ATOM     31  O   UNL     1      -3.902   5.189   6.079  1.00  0.00    -0.246 OA
BRANCH  30  32
ATOM     32  C   UNL     1      -4.695   4.987   3.856  1.00  0.00     0.060 A 
ATOM     33  C   UNL     1      -5.286   3.775   3.497  1.00  0.00     0.016 A 
ATOM     34  C   UNL     1      -3.915   5.676   2.925  1.00  0.00     0.016 A 
ATOM     35  C   UNL     1      -5.112   3.264   2.215  1.00  0.00     0.010 A 
ATOM     36  C   UNL     1      -3.702   5.129   1.647  1.00  0.00     0.010 A 
ATOM     37  C   UNL     1      -4.270   3.894   1.294  1.00  0.00    -0.014 A 
BRANCH  37  38
ATOM     38  C   UNL     1      -3.819   3.118   0.102  1.00  0.00     0.031 A 
ATOM     39  C   UNL     1      -2.459   2.463   0.143  1.00  0.00     0.074 A 
ATOM     40  C   UNL     1      -4.650   2.819  -0.917  1.00  0.00     0.049 A 
ATOM     41  N   UNL     1      -1.853   1.742  -0.767  1.00  0.00    -0.248 NA
ATOM     42  C   UNL     1      -1.682   2.634   1.383  1.00  0.00     0.031 C 
ATOM     43  C   UNL     1      -6.053   3.220  -1.006  1.00  0.00     0.029 A 
ATOM     44  N   UNL     1      -4.466   2.004  -2.013  1.00  0.00    -0.354 N 
ATOM     45  C   UNL     1      -0.591   1.466  -0.253  1.00  0.00     0.074 A 
ATOM     46  C   UNL     1      -0.541   2.034   1.076  1.00  0.00     0.031 C 
ATOM     47  C   UNL     1      -6.629   2.562  -2.030  1.00  0.00     0.029 A 
ATOM     48  C   UNL     1      -5.621   1.756  -2.719  1.00  0.00     0.049 A 
ATOM     49  H   UNL     1      -3.590   1.634  -2.267  1.00  0.00     0.167 HD
ATOM     50  C   UNL     1       0.447   0.834  -0.850  1.00  0.00     0.037 A 
ATOM     51  C   UNL     1      -5.840   0.948  -3.777  1.00  0.00     0.037 A 
ATOM     52  C   UNL     1       0.386   0.205  -2.141  1.00  0.00     0.049 A 
ATOM     53  C   UNL     1      -4.675   0.247  -4.430  1.00  0.00     0.074 A 
ATOM     54  C   UNL     1       1.404  -0.400  -2.857  1.00  0.00     0.029 A 
ATOM     55  N   UNL     1      -0.766   0.074  -2.897  1.00  0.00    -0.354 N 
ATOM     56  N   UNL     1      -3.442   0.112  -4.006  1.00  0.00    -0.248 NA
ATOM     57  C   UNL     1      -4.929  -0.374  -5.740  1.00  0.00     0.031 C 
ATOM     58  C   UNL     1       0.875  -0.864  -4.066  1.00  0.00     0.029 A 
ATOM     59  C   UNL     1      -0.482  -0.589  -4.079  1.00  0.00     0.049 A 
ATOM     60  H   UNL     1      -1.656   0.404  -2.633  1.00  0.00     0.167 HD
ATOM     61  C   UNL     1      -2.772  -0.586  -5.007  1.00  0.00     0.074 A 
ATOM     62  C   UNL     1      -3.749  -0.905  -6.025  1.00  0.00     0.031 C 
ATOM     63  C   UNL     1      -1.456  -0.902  -5.090  1.00  0.00     0.037 A 
BRANCH  50  64
ATOM     64  C   UNL     1       1.777   0.889  -0.160  1.00  0.00     0.057 A 
ATOM     65  C   UNL     1       2.097   0.090   0.941  1.00  0.00     0.134 A 
ATOM     66  C   UNL     1       2.770   1.750  -0.649  1.00  0.00     0.134 A 
ATOM     67  F   UNL     1       1.183  -0.738   1.469  1.00  0.00    -0.206 F 
ATOM     68  C   UNL     1       3.358   0.153   1.540  1.00  0.00     0.040 A 
ATOM     69  C   UNL     1       4.039   1.804  -0.076  1.00  0.00     0.040 A 
ATOM     70  F   UNL     1       2.525   2.541  -1.705  1.00  0.00    -0.206 F 
ATOM     71  C   UNL     1       4.335   1.006   1.026  1.00  0.00     0.006 A 
ENDBRANCH  50  64
BRANCH  51  72
ATOM     72  C   UNL     1      -7.212   0.735  -4.315  1.00  0.00     0.057 A 
ATOM     73  C   UNL     1      -7.784  -0.546  -4.314  1.00  0.00     0.134 A 
ATOM     74  C   UNL     1      -7.957   1.766  -4.896  1.00  0.00     0.134 A 
ATOM     75  F   UNL     1      -7.110  -1.585  -3.798  1.00  0.00    -0.206 F 
ATOM     76  C   UNL     1      -9.034  -0.794  -4.885  1.00  0.00     0.040 A 
ATOM     77  C   UNL     1      -9.223   1.540  -5.440  1.00  0.00     0.040 A 
ATOM     78  F   UNL     1      -7.464   3.012  -4.948  1.00  0.00    -0.206 F 
ATOM     79  C   UNL     1      -9.760   0.254  -5.444  1.00  0.00     0.006 A 
ENDBRANCH  51  72
BRANCH  63  80
ATOM     80  C   UNL     1      -0.983  -1.604  -6.331  1.00  0.00     0.057 A 
ATOM     81  C   UNL     1      -0.901  -0.936  -7.560  1.00  0.00     0.134 A 
ATOM     82  C   UNL     1      -0.544  -2.933  -6.289  1.00  0.00     0.134 A 
ATOM     83  F   UNL     1      -1.310   0.337  -7.670  1.00  0.00    -0.206 F 
ATOM     84  C   UNL     1      -0.420  -1.570  -8.707  1.00  0.00     0.040 A 
ATOM     85  C   UNL     1      -0.037  -3.571  -7.424  1.00  0.00     0.040 A 
ATOM     86  F   UNL     1      -0.582  -3.628  -5.142  1.00  0.00    -0.206 F 
ATOM     87  C   UNL     1       0.021  -2.890  -8.638  1.00  0.00     0.006 A 
ENDBRANCH  63  80
ENDBRANCH  37  38
ENDBRANCH  30  32
ENDBRANCH  29  30
ENDBRANCH  28  29
ENDBRANCH  27  28
ENDBRANCH  26  27
ENDBRANCH  25  26
ENDBRANCH   1  25
TORSDOF 21
