REMARK SMILES COc1cc2ccccc2cc1C(=O)Nc1cc(C(=O)OCCOCCOCCOC(=O)c2ccc(-c3c4nc(c(-c5c(F)cccc5F)c5ccc([nH]5)c(-c5c(F)cccc5F)c5nc(c(-c6c(F)cccc6F)c6ccc3[nH]6)C=C5)C=C4)cc2)ccc1C
REMARK SMILES IDX 25 1 24 2 23 3 22 4 21 5 19 6 20 7 18 8 16 9 17 10 89 11
REMARK SMILES IDX 88 12 90 13 87 14 15 15 13 16 14 17 12 19 3 20 4 21 5 22
REMARK SMILES IDX 11 23 6 24 10 25 7 26 9 27 8 28 2 29 1 30 26 31 27 32 28 33
REMARK SMILES IDX 29 34 30 35 31 36 32 37 33 38 34 39 86 40 35 41 85 42 36 43
REMARK SMILES IDX 37 44 38 45 79 46 39 47 84 48 78 49 80 50 40 51 83 52 77 53
REMARK SMILES IDX 76 54 41 56 67 57 50 58 66 59 51 60 54 61 65 62 81 63 52 64
REMARK SMILES IDX 53 65 64 67 82 68 55 69 42 70 43 71 48 72 44 73 45 74 47 75
REMARK SMILES IDX 49 76 46 77 68 78 69 79 74 80 70 81 71 82 73 83 75 84 72 85
REMARK SMILES IDX 56 86 57 87 62 88 58 89 59 90 61 91 63 92 60 93
REMARK H PARENT 15 18 80 55 54 66
REMARK Flexibility Score: inf
ROOT
ATOM      1  C   UNL     1      -2.429   3.693   6.161  1.00  0.00     0.188 C 
ENDROOT
BRANCH   1   2
ATOM      2  O   UNL     1      -1.426   2.672   6.106  1.00  0.00    -0.376 OA
BRANCH   2   3
ATOM      3  C   UNL     1      -0.325   2.665   7.014  1.00  0.00     0.202 C 
BRANCH   3   4
ATOM      4  C   UNL     1       0.785   1.548   6.752  1.00  0.00     0.261 C 
BRANCH   4   5
ATOM      5  O   UNL     1       1.848   1.726   5.682  1.00  0.00    -0.460 OA
BRANCH   5   6
ATOM      6  C   UNL     1       1.351   1.511   4.442  1.00  0.00     0.338 C 
ATOM      7  O   UNL     1       0.146   1.411   4.394  1.00  0.00    -0.246 OA
BRANCH   6   8
ATOM      8  C   UNL     1       1.948   1.479   3.054  1.00  0.00     0.062 A 
ATOM      9  C   UNL     1       3.293   0.740   1.174  1.00  0.00     0.045 A 
ATOM     10  C   UNL     1       3.063   0.818   2.592  1.00  0.00     0.042 A 
ATOM     11  C   UNL     1       2.500   1.395   0.203  1.00  0.00    -0.027 A 
ATOM     12  C   UNL     1       1.323   1.924   0.650  1.00  0.00     0.006 A 
ATOM     13  C   UNL     1       2.679   1.367  -1.289  1.00  0.00     0.046 C 
ATOM     14  C   UNL     1       1.079   1.890   2.013  1.00  0.00     0.016 A 
BRANCH   9  15
ATOM     15  N   UNL     1       4.290  -0.100   0.690  1.00  0.00    -0.322 N 
ATOM     16  C   UNL     1       4.300  -1.475   0.740  1.00  0.00     0.259 C 
ATOM     17  O   UNL     1       5.266  -2.083   0.275  1.00  0.00    -0.269 OA
ATOM     18  H   UNL     1       5.067   0.333   0.269  1.00  0.00     0.170 HD
BRANCH  16  19
ATOM     19  C   UNL     1       3.182  -2.277   1.298  1.00  0.00     0.082 A 
ATOM     20  C   UNL     1       1.908  -2.367   0.719  1.00  0.00     0.132 A 
ATOM     21  C   UNL     1       0.978  -3.300   1.209  1.00  0.00     0.056 A 
ATOM     22  C   UNL     1       1.310  -4.163   2.267  1.00  0.00    -0.015 A 
ATOM     23  C   UNL     1       3.525  -3.153   2.335  1.00  0.00     0.026 A 
ATOM     24  C   UNL     1       0.378  -5.067   2.808  1.00  0.00     0.009 A 
ATOM     25  C   UNL     1       2.604  -4.089   2.830  1.00  0.00    -0.017 A 
ATOM     26  C   UNL     1       0.726  -5.892   3.877  1.00  0.00     0.001 A 
ATOM     27  C   UNL     1       2.946  -4.946   3.883  1.00  0.00     0.009 A 
ATOM     28  C   UNL     1       2.013  -5.842   4.403  1.00  0.00     0.001 A 
BRANCH  20  29
ATOM     29  O   UNL     1       1.512  -1.479  -0.240  1.00  0.00    -0.496 OA
ATOM     30  C   UNL     1       1.164  -2.083  -1.483  1.00  0.00     0.278 C 
ENDBRANCH  20  29
ENDBRANCH  16  19
ENDBRANCH   9  15
ENDBRANCH   6   8
ENDBRANCH   5   6
ENDBRANCH   4   5
ENDBRANCH   3   4
ENDBRANCH   2   3
ENDBRANCH   1   2
BRANCH   1  31
ATOM     31  C   UNL     1      -2.000   5.170   6.170  1.00  0.00     0.188 C 
BRANCH  31  32
ATOM     32  O   UNL     1      -0.653   5.319   5.757  1.00  0.00    -0.376 OA
BRANCH  32  33
ATOM     33  C   UNL     1      -0.044   6.564   6.056  1.00  0.00     0.202 C 
BRANCH  33  34
ATOM     34  C   UNL     1      -0.441   7.691   5.088  1.00  0.00     0.261 C 
BRANCH  34  35
ATOM     35  O   UNL     1      -0.089   7.338   3.730  1.00  0.00    -0.460 OA
BRANCH  35  36
ATOM     36  C   UNL     1      -1.126   7.199   2.850  1.00  0.00     0.338 C 
ATOM     37  O   UNL     1      -2.012   8.026   2.680  1.00  0.00    -0.246 OA
BRANCH  36  38
ATOM     38  C   UNL     1      -1.188   5.790   2.342  1.00  0.00     0.060 A 
ATOM     39  C   UNL     1      -2.317   5.267   1.700  1.00  0.00     0.016 A 
ATOM     40  C   UNL     1      -0.336   4.898   2.927  1.00  0.00     0.016 A 
ATOM     41  C   UNL     1      -2.670   3.887   1.851  1.00  0.00     0.010 A 
ATOM     42  C   UNL     1      -0.891   3.677   3.301  1.00  0.00     0.010 A 
ATOM     43  C   UNL     1      -2.017   3.042   2.753  1.00  0.00    -0.014 A 
BRANCH  43  44
ATOM     44  C   UNL     1      -2.552   1.698   3.320  1.00  0.00     0.031 A 
ATOM     45  C   UNL     1      -1.808   0.391   3.684  1.00  0.00     0.074 A 
ATOM     46  C   UNL     1      -3.822   1.662   3.770  1.00  0.00     0.049 A 
ATOM     47  N   UNL     1      -1.810  -0.192   4.864  1.00  0.00    -0.248 NA
ATOM     48  C   UNL     1      -0.956  -0.349   2.726  1.00  0.00     0.031 C 
ATOM     49  C   UNL     1      -4.449   0.678   4.655  1.00  0.00     0.029 A 
ATOM     50  N   UNL     1      -4.899   2.382   3.256  1.00  0.00    -0.354 N 
ATOM     51  C   UNL     1      -0.848  -1.192   4.885  1.00  0.00     0.074 A 
ATOM     52  C   UNL     1      -0.301  -1.195   3.537  1.00  0.00     0.031 C 
ATOM     53  C   UNL     1      -5.749   0.596   4.346  1.00  0.00     0.029 A 
ATOM     54  C   UNL     1      -5.936   1.428   3.177  1.00  0.00     0.049 A 
ATOM     55  H   UNL     1      -4.928   3.334   3.007  1.00  0.00     0.167 HD
ATOM     56  C   UNL     1      -1.026  -2.372   5.541  1.00  0.00     0.037 A 
ATOM     57  C   UNL     1      -6.320   0.965   1.954  1.00  0.00     0.037 A 
ATOM     58  C   UNL     1      -2.362  -2.857   5.344  1.00  0.00     0.049 A 
ATOM     59  C   UNL     1      -6.121  -0.529   1.798  1.00  0.00     0.074 A 
ATOM     60  C   UNL     1      -3.505  -2.942   6.107  1.00  0.00     0.029 A 
ATOM     61  N   UNL     1      -2.715  -3.159   4.042  1.00  0.00    -0.354 N 
ATOM     62  N   UNL     1      -5.246  -1.252   2.451  1.00  0.00    -0.248 NA
ATOM     63  C   UNL     1      -6.962  -1.331   0.916  1.00  0.00     0.031 C 
ATOM     64  C   UNL     1      -4.583  -3.189   5.211  1.00  0.00     0.029 A 
ATOM     65  C   UNL     1      -4.071  -3.297   3.927  1.00  0.00     0.049 A 
ATOM     66  H   UNL     1      -2.077  -3.260   3.298  1.00  0.00     0.167 HD
ATOM     67  C   UNL     1      -5.403  -2.574   2.102  1.00  0.00     0.074 A 
ATOM     68  C   UNL     1      -6.490  -2.567   1.145  1.00  0.00     0.031 C 
ATOM     69  C   UNL     1      -4.655  -3.589   2.632  1.00  0.00     0.037 A 
BRANCH  56  70
ATOM     70  C   UNL     1       0.082  -3.084   6.284  1.00  0.00     0.057 A 
ATOM     71  C   UNL     1      -0.183  -4.208   7.094  1.00  0.00     0.134 A 
ATOM     72  C   UNL     1       1.425  -2.658   6.294  1.00  0.00     0.134 A 
ATOM     73  F   UNL     1      -1.422  -4.707   7.210  1.00  0.00    -0.206 F 
ATOM     74  C   UNL     1       0.809  -4.866   7.843  1.00  0.00     0.040 A 
ATOM     75  C   UNL     1       2.428  -3.311   7.038  1.00  0.00     0.040 A 
ATOM     76  F   UNL     1       1.822  -1.592   5.582  1.00  0.00    -0.206 F 
ATOM     77  C   UNL     1       2.123  -4.422   7.814  1.00  0.00     0.006 A 
ENDBRANCH  56  70
BRANCH  57  78
ATOM     78  C   UNL     1      -6.229   2.014   0.890  1.00  0.00     0.057 A 
ATOM     79  C   UNL     1      -6.824   3.269   1.163  1.00  0.00     0.134 A 
ATOM     80  C   UNL     1      -5.315   1.975  -0.166  1.00  0.00     0.134 A 
ATOM     81  F   UNL     1      -7.714   3.389   2.164  1.00  0.00    -0.206 F 
ATOM     82  C   UNL     1      -6.414   4.447   0.535  1.00  0.00     0.040 A 
ATOM     83  C   UNL     1      -4.935   3.149  -0.843  1.00  0.00     0.040 A 
ATOM     84  F   UNL     1      -4.682   0.837  -0.484  1.00  0.00    -0.206 F 
ATOM     85  C   UNL     1      -5.449   4.391  -0.462  1.00  0.00     0.006 A 
ENDBRANCH  57  78
BRANCH  69  86
ATOM     86  C   UNL     1      -4.461  -4.972   2.028  1.00  0.00     0.057 A 
ATOM     87  C   UNL     1      -4.738  -5.293   0.690  1.00  0.00     0.134 A 
ATOM     88  C   UNL     1      -3.823  -6.009   2.754  1.00  0.00     0.134 A 
ATOM     89  F   UNL     1      -5.182  -4.378  -0.179  1.00  0.00    -0.206 F 
ATOM     90  C   UNL     1      -4.502  -6.565   0.147  1.00  0.00     0.040 A 
ATOM     91  C   UNL     1      -3.530  -7.264   2.205  1.00  0.00     0.040 A 
ATOM     92  F   UNL     1      -3.404  -5.841   4.016  1.00  0.00    -0.206 F 
ATOM     93  C   UNL     1      -3.894  -7.556   0.902  1.00  0.00     0.006 A 
ENDBRANCH  69  86
ENDBRANCH  43  44
ENDBRANCH  36  38
ENDBRANCH  35  36
ENDBRANCH  34  35
ENDBRANCH  33  34
ENDBRANCH  32  33
ENDBRANCH  31  32
ENDBRANCH   1  31
TORSDOF 20
