REMARK SMILES O=C(OCCOCCOCCOC(=O)c1ccc(-n2cnc3ccccc32)nc1)c1ccc(-c2c3nc(c(-c4c(F)cccc4F)c4ccc([nH]4)c(-c4c(F)cccc4F)c4nc(c(-c5c(F)cccc5F)c5ccc2[nH]5)C=C4)C=C3)cc1
REMARK SMILES IDX 7 1 6 2 5 3 4 4 3 5 2 6 1 7 30 8 31 9 83 10 32 11 82 12
REMARK SMILES IDX 33 13 34 14 35 15 76 16 36 17 81 18 75 19 77 20 37 21 80 22
REMARK SMILES IDX 74 23 73 24 38 26 64 27 47 28 63 29 48 30 51 31 62 32 78 33
REMARK SMILES IDX 49 34 50 35 61 37 79 38 52 39 39 40 40 41 45 42 41 43 42 44
REMARK SMILES IDX 44 45 46 46 43 47 65 48 66 49 71 50 67 51 68 52 70 53 72 54
REMARK SMILES IDX 69 55 53 56 54 57 59 58 55 59 56 60 58 61 60 62 57 63 8 64
REMARK SMILES IDX 9 65 10 66 11 67 12 68 13 69 14 70 15 71 16 72 29 73 17 74
REMARK SMILES IDX 28 75 18 76 19 77 20 78 27 79 21 80 22 81 26 82 23 83 25 84
REMARK SMILES IDX 24 85
REMARK H PARENT 77 25 51 36
REMARK Flexibility Score: inf
ROOT
ATOM      1  C   UNL     1       1.973  -1.299  -0.287  1.00  0.00     0.188 C 
ENDROOT
BRANCH   1   2
ATOM      2  O   UNL     1       3.320  -1.258  -0.739  1.00  0.00    -0.376 OA
BRANCH   2   3
ATOM      3  C   UNL     1       4.279  -1.702   0.212  1.00  0.00     0.202 C 
BRANCH   3   4
ATOM      4  C   UNL     1       4.350  -0.930   1.541  1.00  0.00     0.261 C 
BRANCH   4   5
ATOM      5  O   UNL     1       3.709   0.367   1.675  1.00  0.00    -0.460 OA
BRANCH   5   6
ATOM      6  C   UNL     1       3.662   1.433   0.842  1.00  0.00     0.338 C 
ATOM      7  O   UNL     1       2.896   2.367   1.046  1.00  0.00    -0.246 OA
BRANCH   6   8
ATOM      8  C   UNL     1       4.449   1.377  -0.401  1.00  0.00     0.060 A 
ATOM      9  C   UNL     1       3.802   1.719  -1.585  1.00  0.00     0.016 A 
ATOM     10  C   UNL     1       5.742   0.852  -0.430  1.00  0.00     0.016 A 
ATOM     11  C   UNL     1       4.375   1.329  -2.786  1.00  0.00     0.010 A 
ATOM     12  C   UNL     1       6.257   0.370  -1.633  1.00  0.00     0.010 A 
ATOM     13  C   UNL     1       5.538   0.544  -2.817  1.00  0.00    -0.014 A 
BRANCH  13  14
ATOM     14  C   UNL     1       6.192   0.352  -4.123  1.00  0.00     0.031 A 
ATOM     15  C   UNL     1       6.676   1.679  -4.592  1.00  0.00     0.074 A 
ATOM     16  C   UNL     1       6.446  -0.793  -4.804  1.00  0.00     0.049 A 
ATOM     17  N   UNL     1       6.228   2.354  -5.599  1.00  0.00    -0.248 NA
ATOM     18  C   UNL     1       7.554   2.454  -3.692  1.00  0.00     0.031 C 
ATOM     19  C   UNL     1       6.142  -2.167  -4.429  1.00  0.00     0.029 A 
ATOM     20  N   UNL     1       7.113  -0.983  -5.998  1.00  0.00    -0.354 N 
ATOM     21  C   UNL     1       6.973   3.529  -5.590  1.00  0.00     0.074 A 
ATOM     22  C   UNL     1       7.565   3.644  -4.289  1.00  0.00     0.031 C 
ATOM     23  C   UNL     1       6.809  -3.049  -5.188  1.00  0.00     0.029 A 
ATOM     24  C   UNL     1       7.479  -2.315  -6.225  1.00  0.00     0.049 A 
ATOM     25  H   UNL     1       7.311  -0.253  -6.628  1.00  0.00     0.167 HD
ATOM     26  C   UNL     1       7.372   4.085  -6.761  1.00  0.00     0.037 A 
ATOM     27  C   UNL     1       8.166  -2.888  -7.240  1.00  0.00     0.037 A 
ATOM     28  C   UNL     1       6.553   3.642  -7.856  1.00  0.00     0.049 A 
ATOM     29  C   UNL     1       8.106  -1.947  -8.371  1.00  0.00     0.074 A 
ATOM     30  C   UNL     1       5.311   3.947  -8.364  1.00  0.00     0.029 A 
ATOM     31  N   UNL     1       6.924   2.428  -8.368  1.00  0.00    -0.354 N 
ATOM     32  N   UNL     1       7.011  -1.692  -9.035  1.00  0.00    -0.248 NA
ATOM     33  C   UNL     1       9.156  -0.946  -8.483  1.00  0.00     0.031 C 
ATOM     34  C   UNL     1       4.890   2.800  -9.100  1.00  0.00     0.029 A 
ATOM     35  C   UNL     1       5.901   1.841  -9.059  1.00  0.00     0.049 A 
ATOM     36  H   UNL     1       7.816   2.028  -8.253  1.00  0.00     0.167 HD
ATOM     37  C   UNL     1       7.073  -0.334  -9.293  1.00  0.00     0.074 A 
ATOM     38  C   UNL     1       8.464   0.041  -9.059  1.00  0.00     0.031 C 
ATOM     39  C   UNL     1       5.943   0.427  -9.372  1.00  0.00     0.037 A 
BRANCH  26  40
ATOM     40  C   UNL     1       8.795   4.544  -6.985  1.00  0.00     0.057 A 
ATOM     41  C   UNL     1       9.913   4.051  -6.272  1.00  0.00     0.134 A 
ATOM     42  C   UNL     1       9.101   5.256  -8.153  1.00  0.00     0.134 A 
ATOM     43  F   UNL     1       9.799   3.252  -5.205  1.00  0.00    -0.206 F 
ATOM     44  C   UNL     1      11.230   4.256  -6.682  1.00  0.00     0.040 A 
ATOM     45  C   UNL     1      10.418   5.420  -8.603  1.00  0.00     0.040 A 
ATOM     46  F   UNL     1       8.125   5.744  -8.933  1.00  0.00    -0.206 F 
ATOM     47  C   UNL     1      11.486   4.917  -7.869  1.00  0.00     0.006 A 
ENDBRANCH  26  40
BRANCH  27  48
ATOM     48  C   UNL     1       8.970  -4.135  -7.192  1.00  0.00     0.057 A 
ATOM     49  C   UNL     1       9.534  -4.600  -5.985  1.00  0.00     0.134 A 
ATOM     50  C   UNL     1       9.396  -4.796  -8.351  1.00  0.00     0.134 A 
ATOM     51  F   UNL     1       9.259  -4.010  -4.813  1.00  0.00    -0.206 F 
ATOM     52  C   UNL     1      10.466  -5.641  -5.931  1.00  0.00     0.040 A 
ATOM     53  C   UNL     1      10.345  -5.831  -8.313  1.00  0.00     0.040 A 
ATOM     54  F   UNL     1       8.941  -4.421  -9.555  1.00  0.00    -0.206 F 
ATOM     55  C   UNL     1      10.891  -6.249  -7.103  1.00  0.00     0.006 A 
ENDBRANCH  27  48
BRANCH  39  56
ATOM     56  C   UNL     1       4.644  -0.267  -9.651  1.00  0.00     0.057 A 
ATOM     57  C   UNL     1       3.954   0.061 -10.824  1.00  0.00     0.134 A 
ATOM     58  C   UNL     1       4.016  -1.153  -8.768  1.00  0.00     0.134 A 
ATOM     59  F   UNL     1       4.478   0.941 -11.693  1.00  0.00    -0.206 F 
ATOM     60  C   UNL     1       2.693  -0.461 -11.112  1.00  0.00     0.040 A 
ATOM     61  C   UNL     1       2.765  -1.709  -9.060  1.00  0.00     0.040 A 
ATOM     62  F   UNL     1       4.574  -1.458  -7.586  1.00  0.00    -0.206 F 
ATOM     63  C   UNL     1       2.097  -1.357 -10.231  1.00  0.00     0.006 A 
ENDBRANCH  39  56
ENDBRANCH  13  14
ENDBRANCH   6   8
ENDBRANCH   5   6
ENDBRANCH   4   5
ENDBRANCH   3   4
ENDBRANCH   2   3
ENDBRANCH   1   2
BRANCH   1  64
ATOM     64  C   UNL     1       1.017  -2.039  -1.228  1.00  0.00     0.188 C 
BRANCH  64  65
ATOM     65  O   UNL     1       1.424  -3.314  -1.702  1.00  0.00    -0.376 OA
BRANCH  65  66
ATOM     66  C   UNL     1       2.628  -3.363  -2.442  1.00  0.00     0.202 C 
BRANCH  66  67
ATOM     67  C   UNL     1       2.916  -2.304  -3.517  1.00  0.00     0.261 C 
BRANCH  67  68
ATOM     68  O   UNL     1       2.124  -1.124  -3.637  1.00  0.00    -0.460 OA
BRANCH  68  69
ATOM     69  C   UNL     1       1.962  -0.695  -4.912  1.00  0.00     0.339 C 
ATOM     70  O   UNL     1       2.059  -1.357  -5.918  1.00  0.00    -0.246 OA
BRANCH  69  71
ATOM     71  C   UNL     1       1.785   0.769  -4.935  1.00  0.00     0.078 A 
ATOM     72  C   UNL     1       2.413   1.502  -5.944  1.00  0.00     0.021 A 
ATOM     73  C   UNL     1       1.052   1.458  -3.980  1.00  0.00     0.129 A 
ATOM     74  C   UNL     1       2.199   2.874  -6.016  1.00  0.00     0.048 A 
ATOM     75  N   UNL     1       0.857   2.805  -4.002  1.00  0.00    -0.238 NA
ATOM     76  C   UNL     1       1.374   3.472  -5.066  1.00  0.00     0.138 A 
BRANCH  76  77
ATOM     77  N   UNL     1       0.920   4.789  -5.312  1.00  0.00    -0.283 N 
ATOM     78  C   UNL     1       0.746   5.785  -4.384  1.00  0.00     0.206 A 
ATOM     79  C   UNL     1       0.407   5.258  -6.512  1.00  0.00     0.074 A 
ATOM     80  N   UNL     1       0.275   6.891  -4.924  1.00  0.00    -0.236 NA
ATOM     81  C   UNL     1       0.018   6.566  -6.233  1.00  0.00     0.089 A 
ATOM     82  C   UNL     1       0.158   4.647  -7.753  1.00  0.00     0.029 A 
ATOM     83  C   UNL     1      -0.595   7.327  -7.242  1.00  0.00     0.030 A 
ATOM     84  C   UNL     1      -0.480   5.410  -8.733  1.00  0.00     0.002 A 
ATOM     85  C   UNL     1      -0.844   6.732  -8.487  1.00  0.00     0.002 A 
ENDBRANCH  76  77
ENDBRANCH  69  71
ENDBRANCH  68  69
ENDBRANCH  67  68
ENDBRANCH  66  67
ENDBRANCH  65  66
ENDBRANCH  64  65
ENDBRANCH   1  64
TORSDOF 18
