REMARK SMILES N#CCCn1cc(/C=C/c2cc(C(=O)OCCOCCOCCOC(=O)c3ccc(-c4c5nc(c(-c6c(F)cccc6F)c6ccc([nH]6)c(-c6c(F)cccc6F)c6nc(c(-c7c(F)cccc7F)c7ccc4[nH]7)C=C6)C=C5)cc3)c3ccccc3n2)c(-c2ccccc2)n1
REMARK SMILES IDX 18 1 17 2 16 3 15 4 13 5 14 6 12 7 10 8 11 9 87 10 86 11
REMARK SMILES IDX 81 12 85 13 82 14 84 15 83 16 9 17 8 18 7 19 5 20 6 21 95 22
REMARK SMILES IDX 88 23 4 24 3 25 2 26 1 27 89 28 90 29 94 30 91 31 93 32
REMARK SMILES IDX 92 33 19 34 20 35 21 36 22 37 23 38 24 39 25 40 26 41 27 42
REMARK SMILES IDX 28 43 80 44 29 45 79 46 30 47 31 48 32 49 73 50 33 51 78 52
REMARK SMILES IDX 72 53 74 54 34 55 77 56 71 57 70 58 35 60 61 61 44 62 60 63
REMARK SMILES IDX 45 64 48 65 59 66 75 67 46 68 47 69 58 71 76 72 49 73 36 74
REMARK SMILES IDX 37 75 42 76 38 77 39 78 41 79 43 80 40 81 62 82 63 83 68 84
REMARK SMILES IDX 64 85 65 86 67 87 69 88 66 89 50 90 51 91 56 92 52 93 53 94
REMARK SMILES IDX 55 95 57 96 54 97
REMARK H PARENT 74 59 48 70
REMARK Flexibility Score: inf
ROOT
ATOM      1  O   UNL     1       3.610  -4.486 -12.573  1.00  0.00    -0.376 OA
ENDROOT
BRANCH   1   2
ATOM      2  C   UNL     1       4.279  -5.691 -12.943  1.00  0.00     0.202 C 
BRANCH   2   3
ATOM      3  C   UNL     1       5.080  -6.486 -11.895  1.00  0.00     0.261 C 
BRANCH   3   4
ATOM      4  O   UNL     1       4.317  -6.828 -10.725  1.00  0.00    -0.460 OA
BRANCH   4   5
ATOM      5  C   UNL     1       4.932  -6.641  -9.538  1.00  0.00     0.338 C 
ATOM      6  O   UNL     1       6.104  -6.346  -9.370  1.00  0.00    -0.246 OA
BRANCH   5   7
ATOM      7  C   UNL     1       3.951  -6.603  -8.428  1.00  0.00     0.071 A 
ATOM      8  C   UNL     1       3.232  -5.378  -6.508  1.00  0.00     0.065 A 
ATOM      9  C   UNL     1       4.036  -5.463  -7.626  1.00  0.00     0.044 A 
ATOM     10  N   UNL     1       2.370  -6.353  -6.160  1.00  0.00    -0.248 NA
ATOM     11  C   UNL     1       2.259  -7.436  -6.952  1.00  0.00     0.072 A 
ATOM     12  C   UNL     1       3.020  -7.622  -8.129  1.00  0.00     0.015 A 
ATOM     13  C   UNL     1       1.351  -8.419  -6.580  1.00  0.00     0.029 A 
ATOM     14  C   UNL     1       2.806  -8.791  -8.902  1.00  0.00     0.011 A 
ATOM     15  C   UNL     1       1.151  -9.571  -7.343  1.00  0.00     0.002 A 
ATOM     16  C   UNL     1       1.874  -9.752  -8.513  1.00  0.00     0.001 A 
BRANCH   8  17
ATOM     17  C   UNL     1       3.317  -4.183  -5.664  1.00  0.00     0.029 C 
ATOM     18  C   UNL     1       3.111  -4.158  -4.336  1.00  0.00     0.014 C 
BRANCH  18  19
ATOM     19  C   UNL     1       3.296  -3.001  -3.516  1.00  0.00     0.021 A 
ATOM     20  N   UNL     1       3.858  -1.748  -1.811  1.00  0.00    -0.270 N 
ATOM     21  C   UNL     1       3.761  -3.046  -2.221  1.00  0.00     0.117 A 
ATOM     22  N   UNL     1       3.542  -0.859  -2.767  1.00  0.00    -0.172 NA
ATOM     23  C   UNL     1       3.102  -1.612  -3.792  1.00  0.00     0.100 A 
BRANCH  20  24
ATOM     24  C   UNL     1       4.283  -1.297  -0.496  1.00  0.00     0.159 C 
BRANCH  24  25
ATOM     25  C   UNL     1       3.751   0.069  -0.066  1.00  0.00     0.144 C 
BRANCH  25  26
ATOM     26  C   UNL     1       2.231   0.069  -0.066  1.00  0.00     0.064 C 
ATOM     27  N   UNL     1       0.970   0.069  -0.066  1.00  0.00    -0.198 NA
ENDBRANCH  25  26
ENDBRANCH  24  25
ENDBRANCH  20  24
BRANCH  23  28
ATOM     28  C   UNL     1       2.523  -0.997  -4.984  1.00  0.00     0.003 A 
ATOM     29  C   UNL     1       1.242  -1.370  -5.416  1.00  0.00     0.010 A 
ATOM     30  C   UNL     1       3.248  -0.056  -5.722  1.00  0.00     0.010 A 
ATOM     31  C   UNL     1       0.705  -0.827  -6.585  1.00  0.00     0.001 A 
ATOM     32  C   UNL     1       2.711   0.483  -6.895  1.00  0.00     0.001 A 
ATOM     33  C   UNL     1       1.443   0.094  -7.327  1.00  0.00     0.000 A 
ENDBRANCH  23  28
ENDBRANCH  18  19
ENDBRANCH   8  17
ENDBRANCH   5   7
ENDBRANCH   4   5
ENDBRANCH   3   4
ENDBRANCH   2   3
ENDBRANCH   1   2
BRANCH   1  34
ATOM     34  C   UNL     1       2.886  -4.450 -11.348  1.00  0.00     0.188 C 
BRANCH  34  35
ATOM     35  C   UNL     1       1.740  -5.459 -11.108  1.00  0.00     0.188 C 
BRANCH  35  36
ATOM     36  O   UNL     1       1.881  -6.684 -11.793  1.00  0.00    -0.376 OA
BRANCH  36  37
ATOM     37  C   UNL     1       1.117  -6.997 -12.946  1.00  0.00     0.202 C 
BRANCH  37  38
ATOM     38  C   UNL     1       0.568  -5.974 -13.948  1.00  0.00     0.261 C 
BRANCH  38  39
ATOM     39  O   UNL     1       0.719  -4.604 -13.626  1.00  0.00    -0.460 OA
BRANCH  39  40
ATOM     40  C   UNL     1      -0.344  -4.069 -12.986  1.00  0.00     0.338 C 
ATOM     41  O   UNL     1      -1.288  -4.675 -12.511  1.00  0.00    -0.246 OA
BRANCH  40  42
ATOM     42  C   UNL     1      -0.221  -2.604 -12.970  1.00  0.00     0.060 A 
ATOM     43  C   UNL     1      -1.121  -1.911 -12.159  1.00  0.00     0.016 A 
ATOM     44  C   UNL     1       0.591  -1.941 -13.902  1.00  0.00     0.016 A 
ATOM     45  C   UNL     1      -1.364  -0.581 -12.431  1.00  0.00     0.010 A 
ATOM     46  C   UNL     1       0.346  -0.609 -14.175  1.00  0.00     0.010 A 
ATOM     47  C   UNL     1      -0.700   0.024 -13.504  1.00  0.00    -0.014 A 
BRANCH  47  48
ATOM     48  C   UNL     1      -1.272   1.263 -13.995  1.00  0.00     0.031 A 
ATOM     49  C   UNL     1      -1.051   2.483 -13.194  1.00  0.00     0.074 A 
ATOM     50  C   UNL     1      -1.992   1.302 -15.132  1.00  0.00     0.049 A 
ATOM     51  N   UNL     1      -1.939   3.221 -12.611  1.00  0.00    -0.248 NA
ATOM     52  C   UNL     1       0.336   2.917 -12.994  1.00  0.00     0.031 C 
ATOM     53  C   UNL     1      -2.094   0.280 -16.177  1.00  0.00     0.029 A 
ATOM     54  N   UNL     1      -2.730   2.334 -15.626  1.00  0.00    -0.354 N 
ATOM     55  C   UNL     1      -1.245   4.309 -12.099  1.00  0.00     0.074 A 
ATOM     56  C   UNL     1       0.159   4.032 -12.286  1.00  0.00     0.031 C 
ATOM     57  C   UNL     1      -2.680   0.824 -17.267  1.00  0.00     0.029 A 
ATOM     58  C   UNL     1      -3.099   2.179 -16.950  1.00  0.00     0.049 A 
ATOM     59  H   UNL     1      -2.978   3.121 -15.089  1.00  0.00     0.167 HD
ATOM     60  C   UNL     1      -1.870   5.451 -11.706  1.00  0.00     0.037 A 
ATOM     61  C   UNL     1      -3.642   3.128 -17.747  1.00  0.00     0.037 A 
ATOM     62  C   UNL     1      -3.271   5.260 -11.456  1.00  0.00     0.049 A 
ATOM     63  C   UNL     1      -4.239   4.174 -16.881  1.00  0.00     0.074 A 
ATOM     64  C   UNL     1      -4.003   4.456 -10.602  1.00  0.00     0.029 A 
ATOM     65  N   UNL     1      -4.181   5.758 -12.354  1.00  0.00    -0.354 N 
ATOM     66  N   UNL     1      -5.322   4.021 -16.172  1.00  0.00    -0.248 NA
ATOM     67  C   UNL     1      -3.408   5.310 -16.509  1.00  0.00     0.031 C 
ATOM     68  C   UNL     1      -5.197   4.140 -11.312  1.00  0.00     0.029 A 
ATOM     69  C   UNL     1      -5.114   4.772 -12.552  1.00  0.00     0.049 A 
ATOM     70  H   UNL     1      -4.166   6.648 -12.775  1.00  0.00     0.167 HD
ATOM     71  C   UNL     1      -5.109   4.777 -15.028  1.00  0.00     0.074 A 
ATOM     72  C   UNL     1      -3.975   5.636 -15.346  1.00  0.00     0.031 C 
ATOM     73  C   UNL     1      -5.688   4.447 -13.837  1.00  0.00     0.037 A 
BRANCH  60  74
ATOM     74  C   UNL     1      -1.236   6.805 -11.805  1.00  0.00     0.057 A 
ATOM     75  C   UNL     1      -1.746   7.884 -11.067  1.00  0.00     0.134 A 
ATOM     76  C   UNL     1      -0.287   7.136 -12.793  1.00  0.00     0.134 A 
ATOM     77  F   UNL     1      -2.693   7.694 -10.137  1.00  0.00    -0.206 F 
ATOM     78  C   UNL     1      -1.346   9.204 -11.306  1.00  0.00     0.040 A 
ATOM     79  C   UNL     1       0.157   8.442 -13.007  1.00  0.00     0.040 A 
ATOM     80  F   UNL     1       0.184   6.221 -13.653  1.00  0.00    -0.206 F 
ATOM     81  C   UNL     1      -0.388   9.486 -12.274  1.00  0.00     0.006 A 
ENDBRANCH  60  74
BRANCH  61  82
ATOM     82  C   UNL     1      -3.463   3.300 -19.204  1.00  0.00     0.057 A 
ATOM     83  C   UNL     1      -4.317   4.123 -19.949  1.00  0.00     0.134 A 
ATOM     84  C   UNL     1      -2.304   2.855 -19.866  1.00  0.00     0.134 A 
ATOM     85  F   UNL     1      -5.421   4.642 -19.392  1.00  0.00    -0.206 F 
ATOM     86  C   UNL     1      -4.032   4.488 -21.271  1.00  0.00     0.040 A 
ATOM     87  C   UNL     1      -2.016   3.197 -21.190  1.00  0.00     0.040 A 
ATOM     88  F   UNL     1      -1.366   2.141 -19.227  1.00  0.00    -0.206 F 
ATOM     89  C   UNL     1      -2.876   4.027 -21.894  1.00  0.00     0.006 A 
ENDBRANCH  61  82
BRANCH  73  90
ATOM     90  C   UNL     1      -6.789   3.425 -13.850  1.00  0.00     0.057 A 
ATOM     91  C   UNL     1      -6.598   2.091 -14.238  1.00  0.00     0.134 A 
ATOM     92  C   UNL     1      -8.039   3.759 -13.316  1.00  0.00     0.134 A 
ATOM     93  F   UNL     1      -5.402   1.656 -14.657  1.00  0.00    -0.206 F 
ATOM     94  C   UNL     1      -7.624   1.145 -14.148  1.00  0.00     0.040 A 
ATOM     95  C   UNL     1      -9.062   2.815 -13.191  1.00  0.00     0.040 A 
ATOM     96  F   UNL     1      -8.273   5.002 -12.864  1.00  0.00    -0.206 F 
ATOM     97  C   UNL     1      -8.860   1.506 -13.619  1.00  0.00     0.006 A 
ENDBRANCH  73  90
ENDBRANCH  47  48
ENDBRANCH  40  42
ENDBRANCH  39  40
ENDBRANCH  38  39
ENDBRANCH  37  38
ENDBRANCH  36  37
ENDBRANCH  35  36
ENDBRANCH  34  35
ENDBRANCH   1  34
TORSDOF 23
