REMARK SMILES CC1(C)CC[C@@]2(C(=O)OCCOCCOCCOC(=O)c3ccc(-c4c5nc(c(-c6c(F)cccc6F)c6ccc([nH]6)c(-c6c(F)cccc6F)c6nc(c(-c7c(F)cccc7F)c7ccc4[nH]7)C=C6)C=C5)cc3)CC[C@@]3(C)C(=CC[C@H]4[C@@]5(C)CC[C@H](O)C(C)(C)[C@@H]5CC[C@]43C)[C@@H]2C1
REMARK SMILES IDX 14 1 13 2 12 3 11 4 10 5 9 6 7 7 8 8 6 9 1 10 2 11 3 12 4 13
REMARK SMILES IDX 98 14 5 15 97 16 79 17 75 18 77 19 80 20 76 21 78 22 95 23
REMARK SMILES IDX 81 24 82 25 94 26 96 27 83 28 93 29 84 30 85 31 92 32 86 33
REMARK SMILES IDX 89 34 87 35 90 36 91 37 88 38 15 40 16 41 17 42 18 43 19 44
REMARK SMILES IDX 20 45 21 46 22 47 74 48 23 49 73 50 24 51 25 52 26 53 67 54
REMARK SMILES IDX 27 55 72 56 66 57 68 58 28 59 71 60 65 61 64 62 29 64 55 65
REMARK SMILES IDX 38 66 54 67 39 68 42 69 53 70 69 71 40 72 41 73 52 75 70 76
REMARK SMILES IDX 43 77 30 78 31 79 36 80 32 81 33 82 35 83 37 84 34 85 56 86
REMARK SMILES IDX 57 87 62 88 58 89 59 90 61 91 63 92 60 93 44 94 45 95 50 96
REMARK SMILES IDX 46 97 47 98 49 99 51 100 48 101
REMARK H PARENT 88 39 68 63 42 74
REMARK Flexibility Score: inf
ROOT
ATOM      1  C   UNL     1      -0.458   4.037   4.305  1.00  0.00     0.188 C 
ENDROOT
BRANCH   1   2
ATOM      2  C   UNL     1       0.641   3.882   3.358  1.00  0.00     0.188 C 
BRANCH   2   3
ATOM      3  O   UNL     1       0.054   3.225   2.305  1.00  0.00    -0.376 OA
BRANCH   3   4
ATOM      4  C   UNL     1      -0.476   1.993   2.702  1.00  0.00     0.202 C 
BRANCH   4   5
ATOM      5  C   UNL     1       0.219   0.928   2.002  1.00  0.00     0.261 C 
BRANCH   5   6
ATOM      6  O   UNL     1       1.602   1.274   2.015  1.00  0.00    -0.463 OA
BRANCH   6   7
ATOM      7  C   UNL     1       2.046   2.427   1.433  1.00  0.00     0.312 C 
ATOM      8  O   UNL     1       2.955   3.057   1.983  1.00  0.00    -0.252 OA
BRANCH   7   9
ATOM      9  C   UNL     1       1.625   2.755  -0.007  1.00  0.00     0.075 C 
ATOM     10  C   UNL     1       2.120  -1.278  -1.673  1.00  0.00     0.011 C 
ATOM     11  C   UNL     1       1.674  -0.274  -0.581  1.00  0.00    -0.035 C 
ATOM     12  C   UNL     1       1.253  -1.280   0.555  1.00  0.00     0.011 C 
ATOM     13  C   UNL     1       2.957   0.541  -0.261  1.00  0.00     0.007 C 
ATOM     14  C   UNL     1       0.463   0.668  -1.112  1.00  0.00     0.015 C 
ATOM     15  C   UNL     1       2.853   2.041  -0.682  1.00  0.00     0.020 C 
ATOM     16  C   UNL     1       0.328   2.267  -0.697  1.00  0.00     0.033 C 
ATOM     17  C   UNL     1      -1.044   2.962  -0.111  1.00  0.00    -0.063 C 
ATOM     18  C   UNL     1       1.580   4.316  -0.193  1.00  0.00     0.020 C 
ATOM     19  C   UNL     1      -1.099   4.515   0.437  1.00  0.00    -0.006 C 
ATOM     20  C   UNL     1      -2.195   2.263  -0.129  1.00  0.00    -0.027 C 
ATOM     21  C   UNL     1       0.377   5.132   0.455  1.00  0.00     0.013 C 
ATOM     22  C   UNL     1      -1.649   5.257  -0.863  1.00  0.00     0.017 C 
ATOM     23  C   UNL     1      -2.294   4.866   1.848  1.00  0.00    -0.020 C 
ATOM     24  C   UNL     1      -3.448   2.544   0.642  1.00  0.00     0.032 C 
ATOM     25  C   UNL     1      -3.370   3.309   1.998  1.00  0.00     0.006 C 
ATOM     26  C   UNL     1      -1.849   5.728   3.588  1.00  0.00     0.008 C 
ATOM     27  C   UNL     1      -3.274   5.980   1.266  1.00  0.00     0.012 C 
ATOM     28  C   UNL     1      -3.583   2.261   3.585  1.00  0.00    -0.025 C 
ATOM     29  C   UNL     1      -2.148   4.696   5.379  1.00  0.00     0.005 C 
ATOM     30  C   UNL     1      -5.144   2.141   3.792  1.00  0.00     0.012 C 
ATOM     31  C   UNL     1      -3.247   0.711   3.386  1.00  0.00     0.010 C 
ATOM     32  C   UNL     1      -2.717   2.809   5.178  1.00  0.00     0.003 C 
ATOM     33  C   UNL     1      -3.144  -0.144   4.663  1.00  0.00     0.033 C 
ATOM     34  C   UNL     1      -2.646   1.799   6.375  1.00  0.00    -0.006 C 
ATOM     35  C   UNL     1      -2.236   0.393   5.777  1.00  0.00     0.120 C 
ATOM     36  C   UNL     1      -3.938   1.713   7.178  1.00  0.00     0.014 C 
ATOM     37  C   UNL     1      -1.517   2.212   7.360  1.00  0.00     0.014 C 
BRANCH  35  38
ATOM     38  O   UNL     1      -2.117  -0.597   6.800  1.00  0.00    -0.393 OA
ATOM     39  H   UNL     1      -2.987  -0.755   7.200  1.00  0.00     0.210 HD
ENDBRANCH  35  38
ENDBRANCH   7   9
ENDBRANCH   6   7
ENDBRANCH   5   6
ENDBRANCH   4   5
ENDBRANCH   3   4
ENDBRANCH   2   3
ENDBRANCH   1   2
BRANCH   1  40
ATOM     40  O   UNL     1      -2.125   3.903   3.635  1.00  0.00    -0.376 OA
BRANCH  40  41
ATOM     41  C   UNL     1      -3.736   4.814   4.111  1.00  0.00     0.202 C 
BRANCH  41  42
ATOM     42  C   UNL     1      -4.078   6.291   5.056  1.00  0.00     0.261 C 
BRANCH  42  43
ATOM     43  O   UNL     1      -3.132   7.400   5.175  1.00  0.00    -0.460 OA
BRANCH  43  44
ATOM     44  C   UNL     1      -2.110   7.476   6.084  1.00  0.00     0.338 C 
ATOM     45  O   UNL     1      -1.982   6.903   7.139  1.00  0.00    -0.246 OA
BRANCH  44  46
ATOM     46  C   UNL     1      -1.030   8.252   5.410  1.00  0.00     0.060 A 
ATOM     47  C   UNL     1       0.253   7.708   5.199  1.00  0.00     0.016 A 
ATOM     48  C   UNL     1      -1.358   9.495   4.881  1.00  0.00     0.016 A 
ATOM     49  C   UNL     1       1.186   8.384   4.400  1.00  0.00     0.010 A 
ATOM     50  C   UNL     1      -0.411  10.200   4.152  1.00  0.00     0.010 A 
ATOM     51  C   UNL     1       0.868   9.661   3.925  1.00  0.00    -0.014 A 
BRANCH  51  52
ATOM     52  C   UNL     1       1.909  10.634   3.526  1.00  0.00     0.031 A 
ATOM     53  C   UNL     1       2.534  11.414   4.647  1.00  0.00     0.074 A 
ATOM     54  C   UNL     1       2.095  10.975   2.240  1.00  0.00     0.049 A 
ATOM     55  N   UNL     1       3.160  12.559   4.621  1.00  0.00    -0.248 NA
ATOM     56  C   UNL     1       2.377  10.843   5.997  1.00  0.00     0.031 C 
ATOM     57  C   UNL     1       1.546  10.269   1.084  1.00  0.00     0.029 A 
ATOM     58  N   UNL     1       2.750  12.053   1.700  1.00  0.00    -0.354 N 
ATOM     59  C   UNL     1       3.443  12.853   5.949  1.00  0.00     0.074 A 
ATOM     60  C   UNL     1       2.906  11.785   6.756  1.00  0.00     0.031 C 
ATOM     61  C   UNL     1       1.846  10.962  -0.030  1.00  0.00     0.029 A 
ATOM     62  C   UNL     1       2.561  12.181   0.345  1.00  0.00     0.049 A 
ATOM     63  H   UNL     1       3.300  12.673   2.231  1.00  0.00     0.167 HD
ATOM     64  C   UNL     1       4.085  13.930   6.453  1.00  0.00     0.037 A 
ATOM     65  C   UNL     1       2.888  13.197  -0.478  1.00  0.00     0.037 A 
ATOM     66  C   UNL     1       4.570  15.005   5.635  1.00  0.00     0.049 A 
ATOM     67  C   UNL     1       3.557  14.418   0.107  1.00  0.00     0.074 A 
ATOM     68  C   UNL     1       5.246  16.147   6.019  1.00  0.00     0.029 A 
ATOM     69  N   UNL     1       4.409  15.071   4.258  1.00  0.00    -0.354 N 
ATOM     70  N   UNL     1       3.856  14.680   1.359  1.00  0.00    -0.248 NA
ATOM     71  C   UNL     1       3.930  15.484  -0.832  1.00  0.00     0.031 C 
ATOM     72  C   UNL     1       5.450  16.929   4.878  1.00  0.00     0.029 A 
ATOM     73  C   UNL     1       4.957  16.244   3.776  1.00  0.00     0.049 A 
ATOM     74  H   UNL     1       3.969  14.384   3.707  1.00  0.00     0.167 HD
ATOM     75  C   UNL     1       4.485  15.919   1.353  1.00  0.00     0.074 A 
ATOM     76  C   UNL     1       4.527  16.355  -0.029  1.00  0.00     0.031 C 
ATOM     77  C   UNL     1       4.989  16.636   2.389  1.00  0.00     0.037 A 
BRANCH  64  78
ATOM     78  C   UNL     1       4.245  13.998   7.943  1.00  0.00     0.057 A 
ATOM     79  C   UNL     1       5.070  13.103   8.640  1.00  0.00     0.134 A 
ATOM     80  C   UNL     1       3.548  14.950   8.696  1.00  0.00     0.134 A 
ATOM     81  F   UNL     1       5.743  12.145   7.984  1.00  0.00    -0.206 F 
ATOM     82  C   UNL     1       5.171  13.134  10.032  1.00  0.00     0.040 A 
ATOM     83  C   UNL     1       3.666  15.011  10.086  1.00  0.00     0.040 A 
ATOM     84  F   UNL     1       2.733  15.830   8.097  1.00  0.00    -0.206 F 
ATOM     85  C   UNL     1       4.473  14.096  10.758  1.00  0.00     0.006 A 
ENDBRANCH  64  78
BRANCH  65  86
ATOM     86  C   UNL     1       2.588  13.115  -1.932  1.00  0.00     0.057 A 
ATOM     87  C   UNL     1       3.620  12.991  -2.871  1.00  0.00     0.134 A 
ATOM     88  C   UNL     1       1.278  13.160  -2.424  1.00  0.00     0.134 A 
ATOM     89  F   UNL     1       4.899  12.968  -2.468  1.00  0.00    -0.206 F 
ATOM     90  C   UNL     1       3.363  12.927  -4.243  1.00  0.00     0.040 A 
ATOM     91  C   UNL     1       1.004  13.072  -3.792  1.00  0.00     0.040 A 
ATOM     92  F   UNL     1       0.241  13.279  -1.582  1.00  0.00    -0.206 F 
ATOM     93  C   UNL     1       2.050  12.960  -4.706  1.00  0.00     0.006 A 
ENDBRANCH  65  86
BRANCH  77  94
ATOM     94  C   UNL     1       5.675  17.929   2.062  1.00  0.00     0.057 A 
ATOM     95  C   UNL     1       4.967  19.068   1.663  1.00  0.00     0.134 A 
ATOM     96  C   UNL     1       7.064  18.047   2.212  1.00  0.00     0.134 A 
ATOM     97  F   UNL     1       3.637  19.018   1.494  1.00  0.00    -0.206 F 
ATOM     98  C   UNL     1       5.618  20.274   1.400  1.00  0.00     0.040 A 
ATOM     99  C   UNL     1       7.722  19.255   1.982  1.00  0.00     0.040 A 
ATOM    100  F   UNL     1       7.799  16.997   2.607  1.00  0.00    -0.206 F 
ATOM    101  C   UNL     1       6.999  20.371   1.568  1.00  0.00     0.006 A 
ENDBRANCH  77  94
ENDBRANCH  51  52
ENDBRANCH  44  46
ENDBRANCH  43  44
ENDBRANCH  42  43
ENDBRANCH  41  42
ENDBRANCH  40  41
ENDBRANCH   1  40
TORSDOF 18
