REMARK SMILES Cc1nn(C)c(=O)c(C(=O)N2CC[C@@H](C(=O)OCCOCCOCCOC(=O)c3ccc(-c4c5nc(c(-c6c(F)cccc6F)c6ccc([nH]6)c(-c6c(F)cccc6F)c6nc(c(-c7c(F)cccc7F)c7ccc4[nH]7)C=C6)C=C5)cc3)[C@@H]2C)c1C
REMARK SMILES IDX 21 1 20 2 19 3 18 4 17 5 15 6 16 7 14 8 11 9 12 10 83 11
REMARK SMILES IDX 13 12 84 13 9 14 10 15 8 16 1 17 2 18 3 19 85 20 4 21 86 22
REMARK SMILES IDX 5 23 6 24 7 25 22 26 23 27 24 28 25 29 26 30 27 31 28 32
REMARK SMILES IDX 29 33 30 34 82 35 31 36 81 37 32 38 33 39 34 40 75 41 35 42
REMARK SMILES IDX 80 43 74 44 76 45 36 46 79 47 73 48 72 49 37 51 63 52 46 53
REMARK SMILES IDX 62 54 47 55 50 56 61 57 77 58 48 59 49 60 60 62 78 63 51 64
REMARK SMILES IDX 38 65 39 66 44 67 40 68 41 69 43 70 45 71 42 72 64 73 65 74
REMARK SMILES IDX 70 75 66 76 67 77 69 78 71 79 68 80 52 81 53 82 58 83 54 84
REMARK SMILES IDX 55 85 57 86 59 87 56 88
REMARK H PARENT 76 50 50 61
REMARK Flexibility Score: inf
ROOT
ATOM      1  C   UNL     1      -2.512   5.534   0.816  1.00  0.00     0.188 C 
ENDROOT
BRANCH   1   2
ATOM      2  O   UNL     1      -1.591   6.196  -0.040  1.00  0.00    -0.376 OA
BRANCH   2   3
ATOM      3  C   UNL     1      -0.282   5.661  -0.194  1.00  0.00     0.202 C 
BRANCH   3   4
ATOM      4  C   UNL     1       0.547   5.345   1.065  1.00  0.00     0.261 C 
BRANCH   4   5
ATOM      5  O   UNL     1      -0.073   4.461   2.034  1.00  0.00    -0.463 OA
BRANCH   5   6
ATOM      6  C   UNL     1      -0.282   4.978   3.268  1.00  0.00     0.311 C 
ATOM      7  O   UNL     1       0.016   6.127   3.583  1.00  0.00    -0.252 OA
BRANCH   6   8
ATOM      8  C   UNL     1      -0.937   4.047   4.285  1.00  0.00     0.123 C 
ATOM      9  N   UNL     1      -0.523   1.744   4.784  1.00  0.00    -0.335 N 
ATOM     10  C   UNL     1      -0.129   2.487   5.961  1.00  0.00     0.121 C 
ATOM     11  C   UNL     1      -1.366   2.594   3.938  1.00  0.00     0.096 C 
ATOM     12  C   UNL     1       0.055   3.897   5.451  1.00  0.00     0.039 C 
ATOM     13  C   UNL     1      -2.842   2.381   4.337  1.00  0.00     0.032 C 
BRANCH   9  14
ATOM     14  C   UNL     1      -0.283   0.383   4.766  1.00  0.00     0.260 C 
ATOM     15  O   UNL     1      -0.076  -0.184   5.844  1.00  0.00    -0.269 OA
BRANCH  14  16
ATOM     16  C   UNL     1      -0.118  -0.409   3.490  1.00  0.00     0.111 A 
ATOM     17  C   UNL     1       1.046  -0.432  -0.125  1.00  0.00     0.069 C 
ATOM     18  C   UNL     1       0.712  -0.924   1.268  1.00  0.00     0.062 A 
ATOM     19  N   UNL     1       0.734  -2.203   1.433  1.00  0.00    -0.175 NA
ATOM     20  C   UNL     1       0.434   0.070   2.353  1.00  0.00    -0.010 A 
ATOM     21  N   UNL     1       0.340  -2.686   2.643  1.00  0.00    -0.232 N 
ATOM     22  C   UNL     1       0.944   1.448   2.069  1.00  0.00     0.047 C 
ATOM     23  C   UNL     1       0.478  -4.125   2.805  1.00  0.00     0.178 C 
ATOM     24  C   UNL     1      -0.292  -1.910   3.610  1.00  0.00     0.279 A 
ATOM     25  O   UNL     1      -0.929  -2.413   4.534  1.00  0.00    -0.267 OA
ENDBRANCH  14  16
ENDBRANCH   9  14
ENDBRANCH   6   8
ENDBRANCH   5   6
ENDBRANCH   4   5
ENDBRANCH   3   4
ENDBRANCH   2   3
ENDBRANCH   1   2
BRANCH   1  26
ATOM     26  C   UNL     1      -2.574   4.001   0.796  1.00  0.00     0.188 C 
BRANCH  26  27
ATOM     27  O   UNL     1      -1.718   3.389  -0.139  1.00  0.00    -0.376 OA
BRANCH  27  28
ATOM     28  C   UNL     1      -2.269   2.522  -1.114  1.00  0.00     0.202 C 
BRANCH  28  29
ATOM     29  C   UNL     1      -3.414   3.023  -2.013  1.00  0.00     0.261 C 
BRANCH  29  30
ATOM     30  O   UNL     1      -4.484   3.739  -1.373  1.00  0.00    -0.460 OA
BRANCH  30  31
ATOM     31  C   UNL     1      -5.341   3.030  -0.602  1.00  0.00     0.338 C 
ATOM     32  O   UNL     1      -5.319   1.825  -0.399  1.00  0.00    -0.246 OA
BRANCH  31  33
ATOM     33  C   UNL     1      -6.118   4.013   0.192  1.00  0.00     0.060 A 
ATOM     34  C   UNL     1      -6.023   3.978   1.592  1.00  0.00     0.016 A 
ATOM     35  C   UNL     1      -6.864   5.010  -0.437  1.00  0.00     0.016 A 
ATOM     36  C   UNL     1      -6.670   4.944   2.365  1.00  0.00     0.010 A 
ATOM     37  C   UNL     1      -7.541   5.955   0.340  1.00  0.00     0.010 A 
ATOM     38  C   UNL     1      -7.463   5.917   1.744  1.00  0.00    -0.014 A 
BRANCH  38  39
ATOM     39  C   UNL     1      -8.373   6.757   2.559  1.00  0.00     0.031 A 
ATOM     40  C   UNL     1      -9.804   6.317   2.697  1.00  0.00     0.074 A 
ATOM     41  C   UNL     1      -7.946   7.866   3.189  1.00  0.00     0.049 A 
ATOM     42  N   UNL     1     -10.801   6.905   3.303  1.00  0.00    -0.248 NA
ATOM     43  C   UNL     1     -10.155   5.034   2.063  1.00  0.00     0.031 C 
ATOM     44  C   UNL     1      -6.574   8.366   3.191  1.00  0.00     0.029 A 
ATOM     45  N   UNL     1      -8.637   8.775   3.955  1.00  0.00    -0.354 N 
ATOM     46  C   UNL     1     -11.894   6.066   3.126  1.00  0.00     0.074 A 
ATOM     47  C   UNL     1     -11.450   4.949   2.323  1.00  0.00     0.031 C 
ATOM     48  C   UNL     1      -6.522   9.493   3.924  1.00  0.00     0.029 A 
ATOM     49  C   UNL     1      -7.864   9.816   4.410  1.00  0.00     0.049 A 
ATOM     50  H   UNL     1      -9.596   8.688   4.158  1.00  0.00     0.167 HD
ATOM     51  C   UNL     1     -13.152   6.206   3.603  1.00  0.00     0.037 A 
ATOM     52  C   UNL     1      -8.206  10.910   5.121  1.00  0.00     0.037 A 
ATOM     53  C   UNL     1     -13.595   7.319   4.397  1.00  0.00     0.049 A 
ATOM     54  C   UNL     1      -9.640  11.102   5.546  1.00  0.00     0.074 A 
ATOM     55  C   UNL     1     -14.855   7.555   4.917  1.00  0.00     0.029 A 
ATOM     56  N   UNL     1     -12.795   8.384   4.783  1.00  0.00    -0.354 N 
ATOM     57  N   UNL     1     -10.668  10.307   5.372  1.00  0.00    -0.248 NA
ATOM     58  C   UNL     1      -9.965  12.347   6.261  1.00  0.00     0.031 C 
ATOM     59  C   UNL     1     -14.833   8.789   5.571  1.00  0.00     0.029 A 
ATOM     60  C   UNL     1     -13.543   9.292   5.513  1.00  0.00     0.049 A 
ATOM     61  H   UNL     1     -11.839   8.480   4.569  1.00  0.00     0.167 HD
ATOM     62  C   UNL     1     -11.748  10.935   5.983  1.00  0.00     0.074 A 
ATOM     63  C   UNL     1     -11.251  12.176   6.537  1.00  0.00     0.031 C 
ATOM     64  C   UNL     1     -13.034  10.516   6.078  1.00  0.00     0.037 A 
BRANCH  51  65
ATOM     65  C   UNL     1     -14.145   5.133   3.269  1.00  0.00     0.057 A 
ATOM     66  C   UNL     1     -14.071   3.857   3.842  1.00  0.00     0.134 A 
ATOM     67  C   UNL     1     -15.216   5.394   2.406  1.00  0.00     0.134 A 
ATOM     68  F   UNL     1     -13.059   3.537   4.662  1.00  0.00    -0.206 F 
ATOM     69  C   UNL     1     -15.021   2.875   3.558  1.00  0.00     0.040 A 
ATOM     70  C   UNL     1     -16.189   4.430   2.138  1.00  0.00     0.040 A 
ATOM     71  F   UNL     1     -15.346   6.597   1.825  1.00  0.00    -0.206 F 
ATOM     72  C   UNL     1     -16.090   3.165   2.712  1.00  0.00     0.006 A 
ENDBRANCH  51  65
BRANCH  52  73
ATOM     73  C   UNL     1      -7.170  11.912   5.487  1.00  0.00     0.057 A 
ATOM     74  C   UNL     1      -6.781  12.095   6.819  1.00  0.00     0.134 A 
ATOM     75  C   UNL     1      -6.545  12.710   4.520  1.00  0.00     0.134 A 
ATOM     76  F   UNL     1      -7.361  11.382   7.795  1.00  0.00    -0.206 F 
ATOM     77  C   UNL     1      -5.814  13.036   7.178  1.00  0.00     0.040 A 
ATOM     78  C   UNL     1      -5.558  13.636   4.861  1.00  0.00     0.040 A 
ATOM     79  F   UNL     1      -6.876  12.590   3.226  1.00  0.00    -0.206 F 
ATOM     80  C   UNL     1      -5.192  13.804   6.195  1.00  0.00     0.006 A 
ENDBRANCH  52  73
BRANCH  64  81
ATOM     81  C   UNL     1     -14.007  11.375   6.835  1.00  0.00     0.057 A 
ATOM     82  C   UNL     1     -14.496  12.577   6.311  1.00  0.00     0.134 A 
ATOM     83  C   UNL     1     -14.547  10.932   8.052  1.00  0.00     0.134 A 
ATOM     84  F   UNL     1     -14.017  13.060   5.155  1.00  0.00    -0.206 F 
ATOM     85  C   UNL     1     -15.485  13.310   6.970  1.00  0.00     0.040 A 
ATOM     86  C   UNL     1     -15.555  11.642   8.705  1.00  0.00     0.040 A 
ATOM     87  F   UNL     1     -14.132   9.781   8.602  1.00  0.00    -0.206 F 
ATOM     88  C   UNL     1     -16.027  12.835   8.164  1.00  0.00     0.006 A 
ENDBRANCH  64  81
ENDBRANCH  38  39
ENDBRANCH  31  33
ENDBRANCH  30  31
ENDBRANCH  29  30
ENDBRANCH  28  29
ENDBRANCH  27  28
ENDBRANCH  26  27
ENDBRANCH   1  26
TORSDOF 19
