REMARK SMILES C[NH2+]C[C@H]1CCCN(c2ccc(C(=O)OCCOCCOCCOC(=O)c3ccc(-c4c5nc(c(-c6c(F)cccc6F)c6ccc([nH]6)c(-c6c(F)cccc6F)c6nc(c(-c7c(F)cccc7F)c7ccc4[nH]7)C=C6)C=C5)cc3)c(F)c2F)C1
REMARK SMILES IDX 19 1 18 2 17 3 16 4 15 5 13 6 14 7 12 8 9 9 10 10 83 11
REMARK SMILES IDX 11 12 81 13 84 14 82 15 8 16 4 17 5 18 85 19 6 20 7 21 3 22
REMARK SMILES IDX 2 23 1 24 20 27 21 28 22 29 23 30 24 31 25 32 26 33 27 34
REMARK SMILES IDX 28 35 80 36 29 37 79 38 30 39 31 40 32 41 73 42 33 43 78 44
REMARK SMILES IDX 72 45 74 46 34 47 77 48 71 49 70 50 35 52 61 53 44 54 60 55
REMARK SMILES IDX 45 56 48 57 59 58 75 59 46 60 47 61 58 63 76 64 49 65 36 66
REMARK SMILES IDX 37 67 42 68 38 69 39 70 41 71 43 72 40 73 62 74 63 75 68 76
REMARK SMILES IDX 64 77 65 78 67 79 69 80 66 81 50 82 51 83 56 84 52 85 53 86
REMARK SMILES IDX 55 87 57 88 54 89
REMARK H PARENT 2 25 2 26 74 51 48 62
REMARK Flexibility Score: inf
ROOT
ATOM      1  C   UNL     1       3.914  -7.111   4.914  1.00  0.00     0.188 C 
ENDROOT
BRANCH   1   2
ATOM      2  O   UNL     1       4.912  -8.082   4.612  1.00  0.00    -0.376 OA
BRANCH   2   3
ATOM      3  C   UNL     1       5.791  -7.870   3.509  1.00  0.00     0.202 C 
BRANCH   3   4
ATOM      4  C   UNL     1       5.179  -7.623   2.124  1.00  0.00     0.261 C 
BRANCH   4   5
ATOM      5  O   UNL     1       4.287  -6.501   2.101  1.00  0.00    -0.460 OA
BRANCH   5   6
ATOM      6  C   UNL     1       3.008  -6.759   1.729  1.00  0.00     0.341 C 
ATOM      7  O   UNL     1       2.548  -7.803   1.327  1.00  0.00    -0.246 OA
BRANCH   6   8
ATOM      8  C   UNL     1       2.165  -5.618   2.129  1.00  0.00     0.099 A 
ATOM      9  C   UNL     1       0.470  -3.518   2.878  1.00  0.00     0.076 A 
ATOM     10  C   UNL     1       0.165  -4.826   3.264  1.00  0.00     0.030 A 
ATOM     11  C   UNL     1       1.688  -3.277   2.202  1.00  0.00     0.182 A 
ATOM     12  C   UNL     1       0.998  -5.877   2.869  1.00  0.00     0.021 A 
ATOM     13  C   UNL     1       2.525  -4.314   1.823  1.00  0.00     0.175 A 
ATOM     14  F   UNL     1       1.991  -2.026   1.815  1.00  0.00    -0.201 F 
ATOM     15  F   UNL     1       3.632  -4.045   1.117  1.00  0.00    -0.203 F 
BRANCH   9  16
ATOM     16  N   UNL     1      -0.512  -2.542   2.833  1.00  0.00    -0.369 N 
ATOM     17  C   UNL     1      -1.423  -1.149   1.092  1.00  0.00     0.064 C 
ATOM     18  C   UNL     1      -2.238  -0.396   2.167  1.00  0.00     0.013 C 
ATOM     19  C   UNL     1      -1.236  -2.578   1.566  1.00  0.00     0.126 C 
ATOM     20  C   UNL     1      -1.667  -0.565   3.593  1.00  0.00     0.022 C 
ATOM     21  C   UNL     1      -1.269  -2.011   3.951  1.00  0.00     0.116 C 
BRANCH  17  22
ATOM     22  C   UNL     1      -2.066  -1.030  -0.310  1.00  0.00     0.265 C 
BRANCH  22  23
ATOM     23  N   UNL     1      -1.958  -2.167  -1.228  1.00  0.00    -0.348 N 
ATOM     24  C   UNL     1      -3.029  -3.141  -1.077  1.00  0.00     0.330 C 
ATOM     25  H   UNL     1      -1.978  -1.812  -2.184  1.00  0.00     0.346 HD
ATOM     26  H   UNL     1      -1.085  -2.646  -1.010  1.00  0.00     0.346 HD
ENDBRANCH  22  23
ENDBRANCH  17  22
ENDBRANCH   9  16
ENDBRANCH   6   8
ENDBRANCH   5   6
ENDBRANCH   4   5
ENDBRANCH   3   4
ENDBRANCH   2   3
ENDBRANCH   1   2
BRANCH   1  27
ATOM     27  C   UNL     1       4.283  -5.613   4.939  1.00  0.00     0.188 C 
BRANCH  27  28
ATOM     28  O   UNL     1       5.651  -5.372   4.699  1.00  0.00    -0.376 OA
BRANCH  28  29
ATOM     29  C   UNL     1       6.433  -4.899   5.779  1.00  0.00     0.202 C 
BRANCH  29  30
ATOM     30  C   UNL     1       6.461  -5.696   7.096  1.00  0.00     0.261 C 
BRANCH  30  31
ATOM     31  O   UNL     1       5.222  -6.268   7.545  1.00  0.00    -0.460 OA
BRANCH  31  32
ATOM     32  C   UNL     1       4.366  -5.463   8.213  1.00  0.00     0.338 C 
ATOM     33  O   UNL     1       4.504  -4.278   8.452  1.00  0.00    -0.246 OA
BRANCH  32  34
ATOM     34  C   UNL     1       3.125  -6.229   8.463  1.00  0.00     0.060 A 
ATOM     35  C   UNL     1       1.926  -5.798   7.879  1.00  0.00     0.016 A 
ATOM     36  C   UNL     1       3.144  -7.363   9.279  1.00  0.00     0.016 A 
ATOM     37  C   UNL     1       0.735  -6.481   8.140  1.00  0.00     0.010 A 
ATOM     38  C   UNL     1       1.948  -8.036   9.553  1.00  0.00     0.010 A 
ATOM     39  C   UNL     1       0.734  -7.579   9.012  1.00  0.00    -0.014 A 
BRANCH  39  40
ATOM     40  C   UNL     1      -0.551  -8.129   9.512  1.00  0.00     0.031 A 
ATOM     41  C   UNL     1      -1.061  -7.659  10.847  1.00  0.00     0.074 A 
ATOM     42  C   UNL     1      -1.259  -9.025   8.802  1.00  0.00     0.049 A 
ATOM     43  N   UNL     1      -2.124  -8.032  11.512  1.00  0.00    -0.248 NA
ATOM     44  C   UNL     1      -0.255  -6.631  11.523  1.00  0.00     0.031 C 
ATOM     45  C   UNL     1      -0.891  -9.544   7.488  1.00  0.00     0.029 A 
ATOM     46  N   UNL     1      -2.433  -9.670   9.106  1.00  0.00    -0.354 N 
ATOM     47  C   UNL     1      -2.114  -7.286  12.684  1.00  0.00     0.074 A 
ATOM     48  C   UNL     1      -0.920  -6.468  12.655  1.00  0.00     0.031 C 
ATOM     49  C   UNL     1      -1.811 -10.447   7.105  1.00  0.00     0.029 A 
ATOM     50  C   UNL     1      -2.816 -10.588   8.159  1.00  0.00     0.049 A 
ATOM     51  H   UNL     1      -2.951  -9.491   9.924  1.00  0.00     0.167 HD
ATOM     52  C   UNL     1      -3.020  -7.274  13.691  1.00  0.00     0.037 A 
ATOM     53  C   UNL     1      -3.843 -11.461   8.158  1.00  0.00     0.037 A 
ATOM     54  C   UNL     1      -4.196  -8.102  13.733  1.00  0.00     0.049 A 
ATOM     55  C   UNL     1      -4.803 -11.484   9.319  1.00  0.00     0.074 A 
ATOM     56  C   UNL     1      -5.178  -8.160  14.706  1.00  0.00     0.029 A 
ATOM     57  N   UNL     1      -4.540  -9.030  12.761  1.00  0.00    -0.354 N 
ATOM     58  N   UNL     1      -4.803 -10.754  10.408  1.00  0.00    -0.248 NA
ATOM     59  C   UNL     1      -5.910 -12.449   9.246  1.00  0.00     0.031 C 
ATOM     60  C   UNL     1      -6.091  -9.157  14.347  1.00  0.00     0.029 A 
ATOM     61  C   UNL     1      -5.709  -9.682  13.122  1.00  0.00     0.049 A 
ATOM     62  H   UNL     1      -4.030  -9.201  11.937  1.00  0.00     0.167 HD
ATOM     63  C   UNL     1      -5.918 -11.152  11.136  1.00  0.00     0.074 A 
ATOM     64  C   UNL     1      -6.579 -12.180  10.359  1.00  0.00     0.031 C 
ATOM     65  C   UNL     1      -6.358 -10.703  12.338  1.00  0.00     0.037 A 
BRANCH  52  66
ATOM     66  C   UNL     1      -2.744  -6.351  14.843  1.00  0.00     0.057 A 
ATOM     67  C   UNL     1      -2.829  -4.958  14.711  1.00  0.00     0.134 A 
ATOM     68  C   UNL     1      -2.382  -6.859  16.096  1.00  0.00     0.134 A 
ATOM     69  F   UNL     1      -3.154  -4.405  13.532  1.00  0.00    -0.206 F 
ATOM     70  C   UNL     1      -2.527  -4.104  15.774  1.00  0.00     0.040 A 
ATOM     71  C   UNL     1      -2.106  -6.017  17.174  1.00  0.00     0.040 A 
ATOM     72  F   UNL     1      -2.286  -8.183  16.293  1.00  0.00    -0.206 F 
ATOM     73  C   UNL     1      -2.168  -4.634  17.011  1.00  0.00     0.006 A 
ENDBRANCH  52  66
BRANCH  53  74
ATOM     74  C   UNL     1      -4.011 -12.398   7.018  1.00  0.00     0.057 A 
ATOM     75  C   UNL     1      -5.065 -12.259   6.109  1.00  0.00     0.134 A 
ATOM     76  C   UNL     1      -3.117 -13.457   6.813  1.00  0.00     0.134 A 
ATOM     77  F   UNL     1      -5.968 -11.280   6.268  1.00  0.00    -0.206 F 
ATOM     78  C   UNL     1      -5.232 -13.144   5.043  1.00  0.00     0.040 A 
ATOM     79  C   UNL     1      -3.257 -14.335   5.737  1.00  0.00     0.040 A 
ATOM     80  F   UNL     1      -2.087 -13.645   7.651  1.00  0.00    -0.206 F 
ATOM     81  C   UNL     1      -4.321 -14.181   4.850  1.00  0.00     0.006 A 
ENDBRANCH  53  74
BRANCH  65  82
ATOM     82  C   UNL     1      -7.633 -11.290  12.873  1.00  0.00     0.057 A 
ATOM     83  C   UNL     1      -7.700 -12.600  13.366  1.00  0.00     0.134 A 
ATOM     84  C   UNL     1      -8.801 -10.517  12.938  1.00  0.00     0.134 A 
ATOM     85  F   UNL     1      -6.622 -13.397  13.324  1.00  0.00    -0.206 F 
ATOM     86  C   UNL     1      -8.886 -13.126  13.881  1.00  0.00     0.040 A 
ATOM     87  C   UNL     1      -9.985 -11.023  13.476  1.00  0.00     0.040 A 
ATOM     88  F   UNL     1      -8.805  -9.251  12.493  1.00  0.00    -0.206 F 
ATOM     89  C   UNL     1     -10.031 -12.334  13.944  1.00  0.00     0.006 A 
ENDBRANCH  65  82
ENDBRANCH  39  40
ENDBRANCH  32  34
ENDBRANCH  31  32
ENDBRANCH  30  31
ENDBRANCH  29  30
ENDBRANCH  28  29
ENDBRANCH  27  28
ENDBRANCH   1  27
TORSDOF 20
