REMARK SMILES [NH3+]C1(C(=O)N2[C@@H](C(=O)OCCOCCOCCOC(=O)c3ccc(-c4c5nc(c(-c6c(F)cccc6F)c6ccc([nH]6)c(-c6c(F)cccc6F)c6nc(c(-c7c(F)cccc7F)c7ccc4[nH]7)C=C6)C=C5)cc3)CC[C@@H]3CCCC[C@@H]32)CC1
REMARK SMILES IDX 13 1 12 2 11 3 10 4 9 5 7 6 8 7 6 8 5 9 82 10 75 11 77 12
REMARK SMILES IDX 81 13 76 14 78 15 80 16 79 17 3 18 4 19 2 20 83 21 84 22
REMARK SMILES IDX 1 23 14 27 15 28 16 29 17 30 18 31 19 32 20 33 21 34 22 35
REMARK SMILES IDX 74 36 23 37 73 38 24 39 25 40 26 41 67 42 27 43 72 44 66 45
REMARK SMILES IDX 68 46 28 47 71 48 65 49 64 50 29 52 55 53 38 54 54 55 39 56
REMARK SMILES IDX 42 57 53 58 69 59 40 60 41 61 52 63 70 64 43 65 30 66 31 67
REMARK SMILES IDX 36 68 32 69 33 70 35 71 37 72 34 73 56 74 57 75 62 76 58 77
REMARK SMILES IDX 59 78 61 79 63 80 60 81 44 82 45 83 50 84 46 85 47 86 49 87
REMARK SMILES IDX 51 88 48 89
REMARK H PARENT 1 24 1 25 1 26 68 51 42 62
REMARK Flexibility Score: inf
ROOT
ATOM      1  C   UNL     1       1.568   3.425  -5.316  1.00  0.00     0.188 C 
ENDROOT
BRANCH   1   2
ATOM      2  O   UNL     1       2.941   3.194  -5.102  1.00  0.00    -0.376 OA
BRANCH   2   3
ATOM      3  C   UNL     1       3.406   2.137  -4.281  1.00  0.00     0.202 C 
BRANCH   3   4
ATOM      4  C   UNL     1       2.647   1.545  -3.084  1.00  0.00     0.261 C 
BRANCH   4   5
ATOM      5  O   UNL     1       1.336   0.999  -3.309  1.00  0.00    -0.462 OA
BRANCH   5   6
ATOM      6  C   UNL     1       0.321   1.778  -2.852  1.00  0.00     0.328 C 
ATOM      7  O   UNL     1       0.470   2.930  -2.457  1.00  0.00    -0.250 OA
BRANCH   6   8
ATOM      8  C   UNL     1      -1.054   1.104  -2.861  1.00  0.00     0.195 C 
ATOM      9  N   UNL     1      -1.637   0.723  -1.558  1.00  0.00    -0.320 N 
ATOM     10  C   UNL     1      -3.084   0.407  -1.581  1.00  0.00     0.089 C 
ATOM     11  C   UNL     1      -1.325   0.024  -3.918  1.00  0.00     0.037 C 
ATOM     12  C   UNL     1      -3.451  -0.562  -2.728  1.00  0.00     0.012 C 
ATOM     13  C   UNL     1      -3.902   1.709  -1.555  1.00  0.00     0.025 C 
ATOM     14  C   UNL     1      -2.844  -0.129  -4.070  1.00  0.00     0.008 C 
ATOM     15  C   UNL     1      -4.968  -0.752  -2.810  1.00  0.00     0.006 C 
ATOM     16  C   UNL     1      -5.372   1.606  -1.953  1.00  0.00     0.002 C 
ATOM     17  C   UNL     1      -5.714   0.559  -3.006  1.00  0.00     0.000 C 
BRANCH   9  18
ATOM     18  C   UNL     1      -0.864   0.047  -0.615  1.00  0.00     0.284 C 
ATOM     19  O   UNL     1      -1.128  -1.088  -0.227  1.00  0.00    -0.268 OA
BRANCH  18  20
ATOM     20  C   UNL     1       0.289   0.790   0.058  1.00  0.00     0.174 C 
ATOM     21  C   UNL     1      -0.075   1.508   1.353  1.00  0.00     0.086 C 
ATOM     22  C   UNL     1       0.402   2.292   0.184  1.00  0.00     0.086 C 
BRANCH  20  23
ATOM     23  N   UNL     1       1.545  -0.003   0.093  1.00  0.00    -0.345 N 
ATOM     24  H   UNL     1       1.324  -0.995  -0.001  1.00  0.00     0.345 HD
ATOM     25  H   UNL     1       2.022   0.156   0.981  1.00  0.00     0.345 HD
ATOM     26  H   UNL     1       2.151   0.285  -0.675  1.00  0.00     0.345 HD
ENDBRANCH  20  23
ENDBRANCH  18  20
ENDBRANCH   9  18
ENDBRANCH   6   8
ENDBRANCH   5   6
ENDBRANCH   4   5
ENDBRANCH   3   4
ENDBRANCH   2   3
ENDBRANCH   1   2
BRANCH   1  27
ATOM     27  C   UNL     1       0.710   2.305  -5.906  1.00  0.00     0.188 C 
BRANCH  27  28
ATOM     28  O   UNL     1       1.301   1.097  -6.311  1.00  0.00    -0.376 OA
BRANCH  28  29
ATOM     29  C   UNL     1       2.252   1.112  -7.364  1.00  0.00     0.202 C 
BRANCH  29  30
ATOM     30  C   UNL     1       2.309   2.180  -8.481  1.00  0.00     0.261 C 
BRANCH  30  31
ATOM     31  O   UNL     1       1.614   3.419  -8.282  1.00  0.00    -0.460 OA
BRANCH  31  32
ATOM     32  C   UNL     1       0.378   3.513  -8.833  1.00  0.00     0.338 C 
ATOM     33  O   UNL     1      -0.187   2.670  -9.517  1.00  0.00    -0.246 OA
BRANCH  32  34
ATOM     34  C   UNL     1      -0.310   4.699  -8.267  1.00  0.00     0.060 A 
ATOM     35  C   UNL     1      -1.478   4.506  -7.510  1.00  0.00     0.016 A 
ATOM     36  C   UNL     1       0.187   5.987  -8.467  1.00  0.00     0.016 A 
ATOM     37  C   UNL     1      -2.163   5.596  -6.968  1.00  0.00     0.010 A 
ATOM     38  C   UNL     1      -0.523   7.082  -7.958  1.00  0.00     0.010 A 
ATOM     39  C   UNL     1      -1.717   6.895  -7.233  1.00  0.00    -0.014 A 
BRANCH  39  40
ATOM     40  C   UNL     1      -2.604   8.054  -6.956  1.00  0.00     0.031 A 
ATOM     41  C   UNL     1      -3.417   8.610  -8.095  1.00  0.00     0.074 A 
ATOM     42  C   UNL     1      -2.701   8.608  -5.734  1.00  0.00     0.049 A 
ATOM     43  N   UNL     1      -4.173   9.676  -8.140  1.00  0.00    -0.248 NA
ATOM     44  C   UNL     1      -3.363   7.856  -9.359  1.00  0.00     0.031 C 
ATOM     45  C   UNL     1      -2.022   8.136  -4.531  1.00  0.00     0.029 A 
ATOM     46  N   UNL     1      -3.406   9.711  -5.315  1.00  0.00    -0.354 N 
ATOM     47  C   UNL     1      -4.667   9.733  -9.437  1.00  0.00     0.074 A 
ATOM     48  C   UNL     1      -4.108   8.608 -10.155  1.00  0.00     0.031 C 
ATOM     49  C   UNL     1      -2.324   8.960  -3.511  1.00  0.00     0.029 A 
ATOM     50  C   UNL     1      -3.183  10.039  -3.999  1.00  0.00     0.049 A 
ATOM     51  H   UNL     1      -4.013  10.218  -5.901  1.00  0.00     0.167 HD
ATOM     52  C   UNL     1      -5.513  10.638  -9.984  1.00  0.00     0.037 A 
ATOM     53  C   UNL     1      -3.597  11.104  -3.284  1.00  0.00     0.037 A 
ATOM     54  C   UNL     1      -6.070  11.758  -9.273  1.00  0.00     0.049 A 
ATOM     55  C   UNL     1      -4.467  12.150  -3.938  1.00  0.00     0.074 A 
ATOM     56  C   UNL     1      -6.947  12.723  -9.738  1.00  0.00     0.029 A 
ATOM     57  N   UNL     1      -5.796  12.071  -7.951  1.00  0.00    -0.354 N 
ATOM     58  N   UNL     1      -4.940  12.191  -5.160  1.00  0.00    -0.248 NA
ATOM     59  C   UNL     1      -4.861  13.301  -3.109  1.00  0.00     0.031 C 
ATOM     60  C   UNL     1      -7.157  13.653  -8.715  1.00  0.00     0.029 A 
ATOM     61  C   UNL     1      -6.464  13.230  -7.592  1.00  0.00     0.049 A 
ATOM     62  H   UNL     1      -5.212  11.547  -7.355  1.00  0.00     0.167 HD
ATOM     63  C   UNL     1      -5.713  13.345  -5.235  1.00  0.00     0.074 A 
ATOM     64  C   UNL     1      -5.654  13.972  -3.932  1.00  0.00     0.031 C 
ATOM     65  C   UNL     1      -6.412  13.840  -6.287  1.00  0.00     0.037 A 
BRANCH  52  66
ATOM     66  C   UNL     1      -5.861  10.473 -11.435  1.00  0.00     0.057 A 
ATOM     67  C   UNL     1      -6.671   9.426 -11.892  1.00  0.00     0.134 A 
ATOM     68  C   UNL     1      -5.401  11.395 -12.384  1.00  0.00     0.134 A 
ATOM     69  F   UNL     1      -7.132   8.499 -11.039  1.00  0.00    -0.206 F 
ATOM     70  C   UNL     1      -6.992   9.288 -13.244  1.00  0.00     0.040 A 
ATOM     71  C   UNL     1      -5.740  11.285 -13.734  1.00  0.00     0.040 A 
ATOM     72  F   UNL     1      -4.623  12.423 -12.014  1.00  0.00    -0.206 F 
ATOM     73  C   UNL     1      -6.532  10.225 -14.168  1.00  0.00     0.006 A 
ENDBRANCH  52  66
BRANCH  53  74
ATOM     74  C   UNL     1      -3.178  11.264  -1.866  1.00  0.00     0.057 A 
ATOM     75  C   UNL     1      -4.107  11.196  -0.821  1.00  0.00     0.134 A 
ATOM     76  C   UNL     1      -1.846  11.530  -1.524  1.00  0.00     0.134 A 
ATOM     77  F   UNL     1      -5.403  10.974  -1.084  1.00  0.00    -0.206 F 
ATOM     78  C   UNL     1      -3.733  11.407   0.508  1.00  0.00     0.040 A 
ATOM     79  C   UNL     1      -1.452  11.714  -0.197  1.00  0.00     0.040 A 
ATOM     80  F   UNL     1      -0.906  11.615  -2.477  1.00  0.00    -0.206 F 
ATOM     81  C   UNL     1      -2.400  11.661   0.823  1.00  0.00     0.006 A 
ENDBRANCH  53  74
BRANCH  65  82
ATOM     82  C   UNL     1      -7.216  15.091  -6.065  1.00  0.00     0.057 A 
ATOM     83  C   UNL     1      -6.615  16.343  -5.885  1.00  0.00     0.134 A 
ATOM     84  C   UNL     1      -8.617  15.046  -6.082  1.00  0.00     0.134 A 
ATOM     85  F   UNL     1      -5.279  16.458  -5.849  1.00  0.00    -0.206 F 
ATOM     86  C   UNL     1      -7.378  17.500  -5.703  1.00  0.00     0.040 A 
ATOM     87  C   UNL     1      -9.389  16.198  -5.932  1.00  0.00     0.040 A 
ATOM     88  F   UNL     1      -9.259  13.882  -6.263  1.00  0.00    -0.206 F 
ATOM     89  C   UNL     1      -8.769  17.430  -5.734  1.00  0.00     0.006 A 
ENDBRANCH  65  82
ENDBRANCH  39  40
ENDBRANCH  32  34
ENDBRANCH  31  32
ENDBRANCH  30  31
ENDBRANCH  29  30
ENDBRANCH  28  29
ENDBRANCH  27  28
ENDBRANCH   1  27
TORSDOF 20
