REMARK SMILES O=C(OCCOCCOCCOC(=O)c1cc(/N=C/c2ccc([N+](=O)[O-])cc2)ccc1O)c1ccc(-c2c3nc(c(-c4c(F)cccc4F)c4ccc([nH]4)c(-c4c(F)cccc4F)c4nc(c(-c5c(F)cccc5F)c5ccc2[nH]5)C=C4)C=C3)cc1
REMARK SMILES IDX 8 1 7 2 6 3 5 4 4 5 3 6 2 7 1 8 33 9 34 10 86 11 35 12 85 13
REMARK SMILES IDX 36 14 37 15 38 16 79 17 39 18 84 19 78 20 80 21 40 22 83 23
REMARK SMILES IDX 77 24 76 25 41 27 67 28 50 29 66 30 51 31 54 32 65 33 81 34
REMARK SMILES IDX 52 35 53 36 64 38 82 39 55 40 42 41 43 42 48 43 44 44 45 45
REMARK SMILES IDX 47 46 49 47 46 48 68 49 69 50 74 51 70 52 71 53 73 54 75 55
REMARK SMILES IDX 72 56 56 57 57 58 62 59 58 60 59 61 61 62 63 63 60 64 9 65
REMARK SMILES IDX 10 66 11 67 12 68 13 69 14 70 15 71 16 72 31 73 17 74 30 75
REMARK SMILES IDX 29 76 32 77 18 79 19 80 20 81 21 82 28 83 22 84 27 85 23 86
REMARK SMILES IDX 24 87 25 88 26 89
REMARK H PARENT 80 26 54 37 32 78
REMARK Flexibility Score: inf
ROOT
ATOM      1  C   UNL     1       2.029   3.346   0.165  1.00  0.00     0.188 C 
ENDROOT
BRANCH   1   2
ATOM      2  C   UNL     1       2.514   2.171  -0.686  1.00  0.00     0.188 C 
BRANCH   2   3
ATOM      3  O   UNL     1       3.747   1.655  -0.171  1.00  0.00    -0.376 OA
BRANCH   3   4
ATOM      4  C   UNL     1       4.565   1.022  -1.156  1.00  0.00     0.202 C 
BRANCH   4   5
ATOM      5  C   UNL     1       4.246  -0.462  -1.385  1.00  0.00     0.261 C 
BRANCH   5   6
ATOM      6  O   UNL     1       2.852  -0.763  -1.189  1.00  0.00    -0.460 OA
BRANCH   6   7
ATOM      7  C   UNL     1       2.271  -1.324  -0.096  1.00  0.00     0.338 C 
ATOM      8  O   UNL     1       1.080  -1.623  -0.136  1.00  0.00    -0.246 OA
BRANCH   7   9
ATOM      9  C   UNL     1       3.041  -1.664   1.136  1.00  0.00     0.060 A 
ATOM     10  C   UNL     1       4.125  -0.926   1.603  1.00  0.00     0.016 A 
ATOM     11  C   UNL     1       2.618  -2.768   1.895  1.00  0.00     0.016 A 
ATOM     12  C   UNL     1       4.881  -1.365   2.681  1.00  0.00     0.010 A 
ATOM     13  C   UNL     1       3.317  -3.159   3.045  1.00  0.00     0.010 A 
ATOM     14  C   UNL     1       4.489  -2.486   3.413  1.00  0.00    -0.014 A 
BRANCH  14  15
ATOM     15  C   UNL     1       5.385  -2.968   4.491  1.00  0.00     0.031 A 
ATOM     16  C   UNL     1       6.119  -4.265   4.311  1.00  0.00     0.074 A 
ATOM     17  C   UNL     1       5.663  -2.170   5.539  1.00  0.00     0.049 A 
ATOM     18  N   UNL     1       6.967  -4.852   5.114  1.00  0.00    -0.248 NA
ATOM     19  C   UNL     1       5.881  -4.990   3.051  1.00  0.00     0.031 C 
ATOM     20  C   UNL     1       5.089  -0.841   5.754  1.00  0.00     0.029 A 
ATOM     21  N   UNL     1       6.535  -2.325   6.586  1.00  0.00    -0.354 N 
ATOM     22  C   UNL     1       7.350  -6.019   4.466  1.00  0.00     0.074 A 
ATOM     23  C   UNL     1       6.627  -6.071   3.215  1.00  0.00     0.031 C 
ATOM     24  C   UNL     1       5.669  -0.282   6.826  1.00  0.00     0.029 A 
ATOM     25  C   UNL     1       6.585  -1.239   7.425  1.00  0.00     0.049 A 
ATOM     26  H   UNL     1       7.074  -3.138   6.723  1.00  0.00     0.167 HD
ATOM     27  C   UNL     1       8.233  -6.958   4.877  1.00  0.00     0.037 A 
ATOM     28  C   UNL     1       7.276  -1.039   8.562  1.00  0.00     0.037 A 
ATOM     29  C   UNL     1       8.952  -6.892   6.119  1.00  0.00     0.049 A 
ATOM     30  C   UNL     1       8.193  -2.129   9.034  1.00  0.00     0.074 A 
ATOM     31  C   UNL     1       9.799  -7.829   6.683  1.00  0.00     0.029 A 
ATOM     32  N   UNL     1       8.916  -5.808   6.986  1.00  0.00    -0.354 N 
ATOM     33  N   UNL     1       8.476  -3.272   8.456  1.00  0.00    -0.248 NA
ATOM     34  C   UNL     1       8.881  -1.911  10.312  1.00  0.00     0.031 C 
ATOM     35  C   UNL     1      10.259  -7.319   7.904  1.00  0.00     0.029 A 
ATOM     36  C   UNL     1       9.725  -6.052   8.082  1.00  0.00     0.049 A 
ATOM     37  H   UNL     1       8.392  -4.987   6.842  1.00  0.00     0.167 HD
ATOM     38  C   UNL     1       9.375  -3.909   9.296  1.00  0.00     0.074 A 
ATOM     39  C   UNL     1       9.616  -3.010  10.408  1.00  0.00     0.031 C 
ATOM     40  C   UNL     1       9.942  -5.133   9.169  1.00  0.00     0.037 A 
BRANCH  27  41
ATOM     41  C   UNL     1       8.419  -8.146   3.982  1.00  0.00     0.057 A 
ATOM     42  C   UNL     1       9.142  -8.063   2.784  1.00  0.00     0.134 A 
ATOM     43  C   UNL     1       7.835  -9.377   4.303  1.00  0.00     0.134 A 
ATOM     44  F   UNL     1       9.699  -6.903   2.405  1.00  0.00    -0.206 F 
ATOM     45  C   UNL     1       9.255  -9.159   1.925  1.00  0.00     0.040 A 
ATOM     46  C   UNL     1       7.959 -10.484   3.462  1.00  0.00     0.040 A 
ATOM     47  F   UNL     1       7.125  -9.520   5.432  1.00  0.00    -0.206 F 
ATOM     48  C   UNL     1       8.664 -10.374   2.265  1.00  0.00     0.006 A 
ENDBRANCH  27  41
BRANCH  28  49
ATOM     49  C   UNL     1       7.093   0.212   9.345  1.00  0.00     0.057 A 
ATOM     50  C   UNL     1       8.130   1.139   9.501  1.00  0.00     0.134 A 
ATOM     51  C   UNL     1       5.872   0.507   9.968  1.00  0.00     0.134 A 
ATOM     52  F   UNL     1       9.328   0.912   8.944  1.00  0.00    -0.206 F 
ATOM     53  C   UNL     1       7.966   2.300  10.261  1.00  0.00     0.040 A 
ATOM     54  C   UNL     1       5.686   1.675  10.709  1.00  0.00     0.040 A 
ATOM     55  F   UNL     1       4.829  -0.328   9.848  1.00  0.00    -0.206 F 
ATOM     56  C   UNL     1       6.740   2.572  10.864  1.00  0.00     0.006 A 
ENDBRANCH  28  49
BRANCH  40  57
ATOM     57  C   UNL     1      10.879  -5.552  10.258  1.00  0.00     0.057 A 
ATOM     58  C   UNL     1      10.407  -5.958  11.512  1.00  0.00     0.134 A 
ATOM     59  C   UNL     1      12.261  -5.569  10.043  1.00  0.00     0.134 A 
ATOM     60  F   UNL     1       9.092  -5.945  11.781  1.00  0.00    -0.206 F 
ATOM     61  C   UNL     1      11.282  -6.348  12.525  1.00  0.00     0.040 A 
ATOM     62  C   UNL     1      13.145  -5.978  11.041  1.00  0.00     0.040 A 
ATOM     63  F   UNL     1      12.771  -5.193   8.861  1.00  0.00    -0.206 F 
ATOM     64  C   UNL     1      12.656  -6.364  12.288  1.00  0.00     0.006 A 
ENDBRANCH  40  57
ENDBRANCH  14  15
ENDBRANCH   7   9
ENDBRANCH   6   7
ENDBRANCH   5   6
ENDBRANCH   4   5
ENDBRANCH   3   4
ENDBRANCH   2   3
ENDBRANCH   1   2
BRANCH   1  65
ATOM     65  O   UNL     1       2.781   4.548  -0.007  1.00  0.00    -0.376 OA
BRANCH  65  66
ATOM     66  C   UNL     1       4.129   4.535   0.457  1.00  0.00     0.202 C 
BRANCH  66  67
ATOM     67  C   UNL     1       4.322   4.671   1.971  1.00  0.00     0.261 C 
BRANCH  67  68
ATOM     68  O   UNL     1       3.848   3.560   2.752  1.00  0.00    -0.460 OA
BRANCH  68  69
ATOM     69  C   UNL     1       2.752   3.824   3.504  1.00  0.00     0.342 C 
ATOM     70  O   UNL     1       2.004   4.791   3.419  1.00  0.00    -0.246 OA
BRANCH  69  71
ATOM     71  C   UNL     1       2.551   2.778   4.513  1.00  0.00     0.103 A 
ATOM     72  C   UNL     1       1.536   1.825   4.340  1.00  0.00     0.048 A 
ATOM     73  C   UNL     1       3.263   2.846   5.715  1.00  0.00     0.130 A 
ATOM     74  C   UNL     1       1.235   0.934   5.374  1.00  0.00     0.064 A 
ATOM     75  C   UNL     1       2.960   1.969   6.750  1.00  0.00     0.049 A 
ATOM     76  C   UNL     1       1.966   1.006   6.569  1.00  0.00     0.032 A 
BRANCH  73  77
ATOM     77  O   UNL     1       4.246   3.780   5.879  1.00  0.00    -0.507 OA
ATOM     78  H   UNL     1       4.451   4.372   5.182  1.00  0.00     0.293 HD
ENDBRANCH  73  77
BRANCH  74  79
ATOM     79  N   UNL     1       0.238  -0.044   5.204  1.00  0.00    -0.256 NA
ATOM     80  C   UNL     1      -0.731  -0.039   6.067  1.00  0.00     0.119 C 
BRANCH  80  81
ATOM     81  C   UNL     1      -1.791  -1.068   6.090  1.00  0.00    -0.007 A 
ATOM     82  C   UNL     1      -2.749  -1.012   7.111  1.00  0.00     0.017 A 
ATOM     83  C   UNL     1      -1.821  -2.103   5.149  1.00  0.00     0.017 A 
ATOM     84  C   UNL     1      -3.742  -1.993   7.194  1.00  0.00     0.086 A 
ATOM     85  C   UNL     1      -2.813  -3.087   5.225  1.00  0.00     0.086 A 
ATOM     86  C   UNL     1      -3.771  -3.029   6.249  1.00  0.00     0.269 A 
BRANCH  86  87
ATOM     87  N   UNL     1      -4.810  -4.065   6.340  1.00  0.00     0.062 N 
ATOM     88  O   UNL     1      -5.646  -3.962   7.250  1.00  0.00    -0.258 OA
ATOM     89  O   UNL     1      -4.788  -4.979   5.505  1.00  0.00    -0.258 OA
ENDBRANCH  86  87
ENDBRANCH  80  81
ENDBRANCH  74  79
ENDBRANCH  69  71
ENDBRANCH  68  69
ENDBRANCH  67  68
ENDBRANCH  66  67
ENDBRANCH  65  66
ENDBRANCH   1  65
TORSDOF 21
