REMARK SMILES O=C(C[C@@H](C(=O)OCCOCCOCCOC(=O)c1ccc(-c2c3nc(c(-c4c(F)cccc4F)c4ccc([nH]4)c(-c4c(F)cccc4F)c4nc(c(-c5c(F)cccc5F)c5ccc2[nH]5)C=C4)C=C3)cc1)c1ccccc1)Nc1cc(C(F)(F)F)ccc1-n1cncn1
REMARK SMILES IDX 11 1 10 2 9 3 8 4 7 5 5 6 6 7 4 8 3 9 2 10 1 11 79 12 80 14
REMARK SMILES IDX 81 15 89 16 82 17 88 18 87 19 90 20 91 21 94 22 92 23 93 24
REMARK SMILES IDX 83 25 84 26 85 27 86 28 73 29 74 30 78 31 75 32 77 33 76 34
REMARK SMILES IDX 12 35 13 36 14 37 15 38 16 39 17 40 18 41 19 42 20 43 72 44
REMARK SMILES IDX 21 45 71 46 22 47 23 48 24 49 65 50 25 51 70 52 64 53 66 54
REMARK SMILES IDX 26 55 69 56 63 57 62 58 27 60 53 61 36 62 52 63 37 64 40 65
REMARK SMILES IDX 51 66 67 67 38 68 39 69 50 71 68 72 41 73 28 74 29 75 34 76
REMARK SMILES IDX 30 77 31 78 33 79 35 80 32 81 54 82 55 83 60 84 56 85 57 86
REMARK SMILES IDX 59 87 61 88 58 89 42 90 43 91 48 92 44 93 45 94 47 95 49 96
REMARK SMILES IDX 46 97
REMARK H PARENT 79 13 66 59 40 70
REMARK Flexibility Score: inf
ROOT
ATOM      1  C   UNL     1       6.992   0.147  -0.380  1.00  0.00     0.188 C 
ENDROOT
BRANCH   1   2
ATOM      2  O   UNL     1       7.657   1.338   0.017  1.00  0.00    -0.376 OA
BRANCH   2   3
ATOM      3  C   UNL     1       6.821   2.457   0.325  1.00  0.00     0.202 C 
BRANCH   3   4
ATOM      4  C   UNL     1       5.766   2.812  -0.736  1.00  0.00     0.261 C 
BRANCH   4   5
ATOM      5  O   UNL     1       4.788   1.754  -0.921  1.00  0.00    -0.463 OA
BRANCH   5   6
ATOM      6  C   UNL     1       4.266   1.661  -2.181  1.00  0.00     0.314 C 
ATOM      7  O   UNL     1       4.466   2.500  -3.053  1.00  0.00    -0.252 OA
BRANCH   6   8
ATOM      8  C   UNL     1       3.506   0.350  -2.444  1.00  0.00     0.138 C 
BRANCH   8   9
ATOM      9  C   UNL     1       2.672  -0.169  -1.265  1.00  0.00     0.120 C 
BRANCH   9  10
ATOM     10  C   UNL     1       1.929   0.846  -0.437  1.00  0.00     0.225 C 
ATOM     11  O   UNL     1       0.782   1.181  -0.706  1.00  0.00    -0.275 OA
ATOM     12  N   UNL     1       2.644   1.276   0.666  1.00  0.00    -0.324 N 
ATOM     13  H   UNL     1       3.606   1.073   0.708  1.00  0.00     0.170 HD
BRANCH  12  14
ATOM     14  C   UNL     1       2.065   1.990   1.731  1.00  0.00     0.067 A 
ATOM     15  C   UNL     1       2.727   3.166   2.097  1.00  0.00     0.041 A 
ATOM     16  C   UNL     1       0.871   1.633   2.382  1.00  0.00     0.090 A 
ATOM     17  C   UNL     1       2.178   4.041   3.046  1.00  0.00     0.058 A 
ATOM     18  C   UNL     1       0.302   2.518   3.313  1.00  0.00     0.031 A 
ATOM     19  C   UNL     1       0.954   3.711   3.642  1.00  0.00     0.015 A 
BRANCH  16  20
ATOM     20  N   UNL     1       0.279   0.350   2.240  1.00  0.00    -0.219 N 
ATOM     21  C   UNL     1       0.892  -0.848   1.949  1.00  0.00     0.226 A 
ATOM     22  N   UNL     1      -1.025   0.107   2.535  1.00  0.00    -0.155 NA
ATOM     23  N   UNL     1       0.012  -1.818   1.878  1.00  0.00    -0.223 NA
ATOM     24  C   UNL     1      -1.145  -1.183   2.214  1.00  0.00     0.246 A 
ENDBRANCH  16  20
BRANCH  17  25
ATOM     25  C   UNL     1       2.896   5.330   3.361  1.00  0.00     0.416 C 
ATOM     26  F   UNL     1       4.208   5.123   3.666  1.00  0.00    -0.166 F 
ATOM     27  F   UNL     1       2.893   6.193   2.308  1.00  0.00    -0.166 F 
ATOM     28  F   UNL     1       2.368   6.011   4.413  1.00  0.00    -0.166 F 
ENDBRANCH  17  25
ENDBRANCH  12  14
ENDBRANCH   9  10
ENDBRANCH   8   9
BRANCH   8  29
ATOM     29  C   UNL     1       4.374  -0.772  -3.063  1.00  0.00    -0.033 A 
ATOM     30  C   UNL     1       4.015  -2.132  -2.940  1.00  0.00     0.004 A 
ATOM     31  C   UNL     1       5.502  -0.484  -3.851  1.00  0.00     0.004 A 
ATOM     32  C   UNL     1       4.761  -3.150  -3.543  1.00  0.00     0.000 A 
ATOM     33  C   UNL     1       6.255  -1.505  -4.446  1.00  0.00     0.000 A 
ATOM     34  C   UNL     1       5.887  -2.837  -4.291  1.00  0.00     0.000 A 
ENDBRANCH   8  29
ENDBRANCH   6   8
ENDBRANCH   5   6
ENDBRANCH   4   5
ENDBRANCH   3   4
ENDBRANCH   2   3
ENDBRANCH   1   2
BRANCH   1  35
ATOM     35  C   UNL     1       6.125  -0.526   0.688  1.00  0.00     0.188 C 
BRANCH  35  36
ATOM     36  O   UNL     1       5.528   0.336   1.650  1.00  0.00    -0.376 OA
BRANCH  36  37
ATOM     37  C   UNL     1       5.142  -0.295   2.882  1.00  0.00     0.202 C 
BRANCH  37  38
ATOM     38  C   UNL     1       6.286  -0.889   3.741  1.00  0.00     0.261 C 
BRANCH  38  39
ATOM     39  O   UNL     1       7.007  -2.001   3.162  1.00  0.00    -0.460 OA
BRANCH  39  40
ATOM     40  C   UNL     1       6.286  -3.053   2.703  1.00  0.00     0.338 C 
ATOM     41  O   UNL     1       5.112  -3.283   2.938  1.00  0.00    -0.246 OA
BRANCH  40  42
ATOM     42  C   UNL     1       7.059  -3.691   1.600  1.00  0.00     0.060 A 
ATOM     43  C   UNL     1       6.383  -3.978   0.404  1.00  0.00     0.016 A 
ATOM     44  C   UNL     1       8.442  -3.882   1.677  1.00  0.00     0.016 A 
ATOM     45  C   UNL     1       7.083  -4.459  -0.707  1.00  0.00     0.010 A 
ATOM     46  C   UNL     1       9.138  -4.382   0.569  1.00  0.00     0.010 A 
ATOM     47  C   UNL     1       8.463  -4.686  -0.627  1.00  0.00    -0.014 A 
BRANCH  47  48
ATOM     48  C   UNL     1       9.177  -5.383  -1.727  1.00  0.00     0.031 A 
ATOM     49  C   UNL     1       9.383  -6.868  -1.620  1.00  0.00     0.074 A 
ATOM     50  C   UNL     1       9.650  -4.726  -2.801  1.00  0.00     0.049 A 
ATOM     51  N   UNL     1      10.063  -7.674  -2.394  1.00  0.00    -0.248 NA
ATOM     52  C   UNL     1       8.730  -7.529  -0.480  1.00  0.00     0.031 C 
ATOM     53  C   UNL     1       9.485  -3.299  -3.063  1.00  0.00     0.029 A 
ATOM     54  N   UNL     1      10.392  -5.181  -3.866  1.00  0.00    -0.354 N 
ATOM     55  C   UNL     1       9.926  -8.936  -1.832  1.00  0.00     0.074 A 
ATOM     56  C   UNL     1       9.118  -8.784  -0.641  1.00  0.00     0.031 C 
ATOM     57  C   UNL     1      10.136  -2.988  -4.198  1.00  0.00     0.029 A 
ATOM     58  C   UNL     1      10.795  -4.185  -4.722  1.00  0.00     0.049 A 
ATOM     59  H   UNL     1      10.614  -6.131  -4.002  1.00  0.00     0.167 HD
ATOM     60  C   UNL     1      10.426 -10.117  -2.266  1.00  0.00     0.037 A 
ATOM     61  C   UNL     1      11.632  -4.225  -5.779  1.00  0.00     0.037 A 
ATOM     62  C   UNL     1      11.248 -10.274  -3.437  1.00  0.00     0.049 A 
ATOM     63  C   UNL     1      12.265  -5.531  -6.189  1.00  0.00     0.074 A 
ATOM     64  C   UNL     1      11.787 -11.435  -3.963  1.00  0.00     0.029 A 
ATOM     65  N   UNL     1      11.667  -9.234  -4.253  1.00  0.00    -0.354 N 
ATOM     66  N   UNL     1      12.114  -6.724  -5.666  1.00  0.00    -0.248 NA
ATOM     67  C   UNL     1      13.194  -5.493  -7.330  1.00  0.00     0.031 C 
ATOM     68  C   UNL     1      12.580 -11.090  -5.063  1.00  0.00     0.029 A 
ATOM     69  C   UNL     1      12.490  -9.721  -5.255  1.00  0.00     0.049 A 
ATOM     70  H   UNL     1      11.416  -8.289  -4.137  1.00  0.00     0.167 HD
ATOM     71  C   UNL     1      12.915  -7.577  -6.418  1.00  0.00     0.074 A 
ATOM     72  C   UNL     1      13.537  -6.769  -7.446  1.00  0.00     0.031 C 
ATOM     73  C   UNL     1      13.117  -8.910  -6.269  1.00  0.00     0.037 A 
BRANCH  60  74
ATOM     74  C   UNL     1      10.130 -11.328  -1.431  1.00  0.00     0.057 A 
ATOM     75  C   UNL     1       8.846 -11.886  -1.363  1.00  0.00     0.134 A 
ATOM     76  C   UNL     1      11.141 -11.936  -0.677  1.00  0.00     0.134 A 
ATOM     77  F   UNL     1       7.829 -11.339  -2.046  1.00  0.00    -0.206 F 
ATOM     78  C   UNL     1       8.572 -12.985  -0.547  1.00  0.00     0.040 A 
ATOM     79  C   UNL     1      10.885 -13.052   0.120  1.00  0.00     0.040 A 
ATOM     80  F   UNL     1      12.392 -11.453  -0.700  1.00  0.00    -0.206 F 
ATOM     81  C   UNL     1       9.595 -13.573   0.195  1.00  0.00     0.006 A 
ENDBRANCH  60  74
BRANCH  61  82
ATOM     82  C   UNL     1      11.967  -2.970  -6.500  1.00  0.00     0.057 A 
ATOM     83  C   UNL     1      11.523  -2.737  -7.807  1.00  0.00     0.134 A 
ATOM     84  C   UNL     1      12.752  -1.978  -5.900  1.00  0.00     0.134 A 
ATOM     85  F   UNL     1      10.795  -3.663  -8.447  1.00  0.00    -0.206 F 
ATOM     86  C   UNL     1      11.851  -1.565  -8.492  1.00  0.00     0.040 A 
ATOM     87  C   UNL     1      13.066  -0.791  -6.563  1.00  0.00     0.040 A 
ATOM     88  F   UNL     1      13.215  -2.145  -4.652  1.00  0.00    -0.206 F 
ATOM     89  C   UNL     1      12.618  -0.584  -7.865  1.00  0.00     0.006 A 
ENDBRANCH  61  82
BRANCH  73  90
ATOM     90  C   UNL     1      14.041  -9.590  -7.239  1.00  0.00     0.057 A 
ATOM     91  C   UNL     1      15.429  -9.413  -7.183  1.00  0.00     0.134 A 
ATOM     92  C   UNL     1      13.543 -10.479  -8.201  1.00  0.00     0.134 A 
ATOM     93  F   UNL     1      15.972  -8.568  -6.293  1.00  0.00    -0.206 F 
ATOM     94  C   UNL     1      16.287 -10.085  -8.056  1.00  0.00     0.040 A 
ATOM     95  C   UNL     1      14.392 -11.175  -9.063  1.00  0.00     0.040 A 
ATOM     96  F   UNL     1      12.224 -10.702  -8.304  1.00  0.00    -0.206 F 
ATOM     97  C   UNL     1      15.769 -10.977  -8.994  1.00  0.00     0.006 A 
ENDBRANCH  73  90
ENDBRANCH  47  48
ENDBRANCH  40  42
ENDBRANCH  39  40
ENDBRANCH  38  39
ENDBRANCH  37  38
ENDBRANCH  36  37
ENDBRANCH  35  36
ENDBRANCH   1  35
TORSDOF 23
