REMARK SMILES O=C(Cc1cccc(-c2ccn(C(F)F)c(=O)c2)c1)OCCOCCOCCOC(=O)c1ccc(-c2c3nc(c(-c4c(F)cccc4F)c4ccc([nH]4)c(-c4c(F)cccc4F)c4nc(c(-c5c(F)cccc5F)c5ccc2[nH]5)C=C4)C=C3)cc1
REMARK SMILES IDX 24 1 23 2 22 3 21 4 20 5 2 6 1 7 3 8 4 9 5 10 19 11 6 12
REMARK SMILES IDX 8 13 7 14 9 15 10 16 18 17 11 18 16 19 12 20 17 21 13 22
REMARK SMILES IDX 14 23 15 24 25 25 26 26 27 27 28 28 29 29 30 30 31 31 32 32
REMARK SMILES IDX 33 33 85 34 34 35 84 36 35 37 36 38 37 39 78 40 38 41 83 42
REMARK SMILES IDX 77 43 79 44 39 45 82 46 76 47 75 48 40 50 66 51 49 52 65 53
REMARK SMILES IDX 50 54 53 55 64 56 80 57 51 58 52 59 63 61 81 62 54 63 41 64
REMARK SMILES IDX 42 65 47 66 43 67 44 68 46 69 48 70 45 71 67 72 68 73 73 74
REMARK SMILES IDX 69 75 70 76 72 77 74 78 71 79 55 80 56 81 61 82 57 83 58 84
REMARK SMILES IDX 60 85 62 86 59 87
REMARK H PARENT 79 49 53 60
REMARK Flexibility Score: inf
ROOT
ATOM      1  C   UNL     1       3.040  -0.337  -1.958  1.00  0.00     0.188 C 
ENDROOT
BRANCH   1   2
ATOM      2  O   UNL     1       4.434  -0.396  -1.729  1.00  0.00    -0.376 OA
BRANCH   2   3
ATOM      3  C   UNL     1       4.900  -0.167  -0.411  1.00  0.00     0.202 C 
BRANCH   3   4
ATOM      4  C   UNL     1       4.361  -1.128   0.643  1.00  0.00     0.261 C 
BRANCH   4   5
ATOM      5  O   UNL     1       2.947  -1.069   0.954  1.00  0.00    -0.463 OA
BRANCH   5   6
ATOM      6  C   UNL     1       2.222  -0.066   1.489  1.00  0.00     0.310 C 
ATOM      7  O   UNL     1       1.148  -0.320   2.034  1.00  0.00    -0.252 OA
BRANCH   6   8
ATOM      8  C   UNL     1       2.641   1.363   1.283  1.00  0.00     0.158 C 
BRANCH   8   9
ATOM      9  C   UNL     1       3.705   1.954   2.165  1.00  0.00    -0.036 A 
ATOM     10  C   UNL     1       4.418   1.248   3.135  1.00  0.00     0.004 A 
ATOM     11  C   UNL     1       3.947   3.331   2.022  1.00  0.00     0.013 A 
ATOM     12  C   UNL     1       5.368   1.898   3.924  1.00  0.00     0.001 A 
ATOM     13  C   UNL     1       4.834   4.009   2.865  1.00  0.00    -0.018 A 
ATOM     14  C   UNL     1       5.568   3.274   3.800  1.00  0.00     0.009 A 
BRANCH  13  15
ATOM     15  C   UNL     1       4.833   5.487   2.860  1.00  0.00    -0.011 A 
ATOM     16  C   UNL     1       3.593   6.227   3.024  1.00  0.00     0.027 A 
ATOM     17  C   UNL     1       5.986   6.169   2.753  1.00  0.00     0.080 A 
ATOM     18  C   UNL     1       3.596   7.559   3.117  1.00  0.00     0.095 A 
ATOM     19  C   UNL     1       6.003   7.658   2.844  1.00  0.00     0.255 A 
ATOM     20  N   UNL     1       4.777   8.269   3.050  1.00  0.00    -0.258 N 
ATOM     21  O   UNL     1       7.080   8.239   2.753  1.00  0.00    -0.269 OA
BRANCH  20  22
ATOM     22  C   UNL     1       4.775   9.693   3.249  1.00  0.00     0.451 C 
ATOM     23  F   UNL     1       5.495  10.034   4.345  1.00  0.00    -0.185 F 
ATOM     24  F   UNL     1       5.296  10.344   2.182  1.00  0.00    -0.185 F 
ENDBRANCH  20  22
ENDBRANCH  13  15
ENDBRANCH   8   9
ENDBRANCH   6   8
ENDBRANCH   5   6
ENDBRANCH   4   5
ENDBRANCH   3   4
ENDBRANCH   2   3
ENDBRANCH   1   2
BRANCH   1  25
ATOM     25  C   UNL     1       2.410  -1.659  -2.426  1.00  0.00     0.188 C 
BRANCH  25  26
ATOM     26  O   UNL     1       3.237  -2.804  -2.562  1.00  0.00    -0.376 OA
BRANCH  26  27
ATOM     27  C   UNL     1       4.441  -2.702  -3.319  1.00  0.00     0.202 C 
BRANCH  27  28
ATOM     28  C   UNL     1       4.359  -2.129  -4.740  1.00  0.00     0.261 C 
BRANCH  28  29
ATOM     29  O   UNL     1       3.995  -0.734  -4.790  1.00  0.00    -0.460 OA
BRANCH  29  30
ATOM     30  C   UNL     1       2.898  -0.440  -5.532  1.00  0.00     0.338 C 
ATOM     31  O   UNL     1       2.196  -1.218  -6.152  1.00  0.00    -0.246 OA
BRANCH  30  32
ATOM     32  C   UNL     1       2.542   0.986  -5.388  1.00  0.00     0.060 A 
ATOM     33  C   UNL     1       1.293   1.305  -4.836  1.00  0.00     0.016 A 
ATOM     34  C   UNL     1       3.371   1.994  -5.883  1.00  0.00     0.016 A 
ATOM     35  C   UNL     1       0.858   2.631  -4.800  1.00  0.00     0.010 A 
ATOM     36  C   UNL     1       2.921   3.322  -5.869  1.00  0.00     0.010 A 
ATOM     37  C   UNL     1       1.652   3.644  -5.354  1.00  0.00    -0.014 A 
BRANCH  37  38
ATOM     38  C   UNL     1       1.096   5.010  -5.533  1.00  0.00     0.031 A 
ATOM     39  C   UNL     1       0.472   5.380  -6.852  1.00  0.00     0.074 A 
ATOM     40  C   UNL     1       1.136   5.917  -4.540  1.00  0.00     0.049 A 
ATOM     41  N   UNL     1      -0.006   6.531  -7.251  1.00  0.00    -0.248 NA
ATOM     42  C   UNL     1       0.376   4.307  -7.855  1.00  0.00     0.031 C 
ATOM     43  C   UNL     1       1.680   5.690  -3.203  1.00  0.00     0.029 A 
ATOM     44  N   UNL     1       0.723   7.227  -4.519  1.00  0.00    -0.354 N 
ATOM     45  C   UNL     1      -0.455   6.324  -8.550  1.00  0.00     0.074 A 
ATOM     46  C   UNL     1      -0.176   4.942  -8.879  1.00  0.00     0.031 C 
ATOM     47  C   UNL     1       1.595   6.834  -2.499  1.00  0.00     0.029 A 
ATOM     48  C   UNL     1       1.015   7.876  -3.345  1.00  0.00     0.049 A 
ATOM     49  H   UNL     1       0.262   7.659  -5.274  1.00  0.00     0.167 HD
ATOM     50  C   UNL     1      -1.050   7.202  -9.393  1.00  0.00     0.037 A 
ATOM     51  C   UNL     1       0.864   9.171  -3.006  1.00  0.00     0.037 A 
ATOM     52  C   UNL     1      -1.331   8.578  -9.080  1.00  0.00     0.049 A 
ATOM     53  C   UNL     1       0.278  10.148  -3.994  1.00  0.00     0.074 A 
ATOM     54  C   UNL     1      -1.960   9.529  -9.866  1.00  0.00     0.029 A 
ATOM     55  N   UNL     1      -0.992   9.203  -7.892  1.00  0.00    -0.354 N 
ATOM     56  N   UNL     1      -0.173   9.934  -5.205  1.00  0.00    -0.248 NA
ATOM     57  C   UNL     1       0.189  11.553  -3.563  1.00  0.00     0.031 C 
ATOM     58  C   UNL     1      -1.960  10.743  -9.172  1.00  0.00     0.029 A 
ATOM     59  C   UNL     1      -1.372  10.535  -7.935  1.00  0.00     0.049 A 
ATOM     60  H   UNL     1      -0.548   8.766  -7.130  1.00  0.00     0.167 HD
ATOM     61  C   UNL     1      -0.617  11.167  -5.669  1.00  0.00     0.074 A 
ATOM     62  C   UNL     1      -0.398  12.122  -4.606  1.00  0.00     0.031 C 
ATOM     63  C   UNL     1      -1.157  11.479  -6.872  1.00  0.00     0.037 A 
BRANCH  50  64
ATOM     64  C   UNL     1      -1.425   6.707 -10.756  1.00  0.00     0.057 A 
ATOM     65  C   UNL     1      -2.532   5.873 -10.958  1.00  0.00     0.134 A 
ATOM     66  C   UNL     1      -0.708   7.120 -11.886  1.00  0.00     0.134 A 
ATOM     67  F   UNL     1      -3.252   5.435  -9.914  1.00  0.00    -0.206 F 
ATOM     68  C   UNL     1      -2.906   5.458 -12.237  1.00  0.00     0.040 A 
ATOM     69  C   UNL     1      -1.084   6.728 -13.171  1.00  0.00     0.040 A 
ATOM     70  F   UNL     1       0.359   7.923 -11.758  1.00  0.00    -0.206 F 
ATOM     71  C   UNL     1      -2.186   5.893 -13.348  1.00  0.00     0.006 A 
ENDBRANCH  50  64
BRANCH  51  72
ATOM     72  C   UNL     1       1.330   9.663  -1.687  1.00  0.00     0.057 A 
ATOM     73  C   UNL     1       0.426  10.098  -0.712  1.00  0.00     0.134 A 
ATOM     74  C   UNL     1       2.696   9.809  -1.419  1.00  0.00     0.134 A 
ATOM     75  F   UNL     1      -0.894  10.008  -0.927  1.00  0.00    -0.206 F 
ATOM     76  C   UNL     1       0.863  10.702   0.468  1.00  0.00     0.040 A 
ATOM     77  C   UNL     1       3.146  10.392  -0.235  1.00  0.00     0.040 A 
ATOM     78  F   UNL     1       3.609   9.410  -2.316  1.00  0.00    -0.206 F 
ATOM     79  C   UNL     1       2.227  10.859   0.703  1.00  0.00     0.006 A 
ENDBRANCH  51  72
BRANCH  63  80
ATOM     80  C   UNL     1      -1.581  12.902  -7.092  1.00  0.00     0.057 A 
ATOM     81  C   UNL     1      -0.649  13.928  -7.293  1.00  0.00     0.134 A 
ATOM     82  C   UNL     1      -2.938  13.244  -7.136  1.00  0.00     0.134 A 
ATOM     83  F   UNL     1       0.667  13.669  -7.247  1.00  0.00    -0.206 F 
ATOM     84  C   UNL     1      -1.052  15.247  -7.510  1.00  0.00     0.040 A 
ATOM     85  C   UNL     1      -3.354  14.554  -7.376  1.00  0.00     0.040 A 
ATOM     86  F   UNL     1      -3.883  12.308  -6.957  1.00  0.00    -0.206 F 
ATOM     87  C   UNL     1      -2.409  15.562  -7.559  1.00  0.00     0.006 A 
ENDBRANCH  63  80
ENDBRANCH  37  38
ENDBRANCH  30  32
ENDBRANCH  29  30
ENDBRANCH  28  29
ENDBRANCH  27  28
ENDBRANCH  26  27
ENDBRANCH  25  26
ENDBRANCH   1  25
TORSDOF 20
