REMARK SMILES CC(=O)O[C@@H]1CC[C@@]23C(=O)O[C@]4(CC[C@]2(O)C1)[C@H]3CC[C@]1(C)[C@H](C(=O)OCCOCCOCCOC(=O)c2ccc(-c3c5nc(c(-c6c(F)cccc6F)c6ccc([nH]6)c(-c6c(F)cccc6F)c6nc(c(-c7c(F)cccc7F)c7ccc3[nH]7)C=C6)C=C5)cc2)CC[C@@H]14
REMARK SMILES IDX 30 1 29 2 28 3 27 4 26 5 24 6 25 7 23 8 5 9 6 10 17 11 7 12
REMARK SMILES IDX 15 13 8 14 14 15 9 16 18 17 13 18 10 19 11 20 12 21 19 22
REMARK SMILES IDX 94 23 20 24 21 25 93 26 22 27 92 28 4 29 2 30 1 31 3 32
REMARK SMILES IDX 16 33 31 35 32 36 33 37 34 38 35 39 36 40 37 41 38 42 39 43
REMARK SMILES IDX 91 44 40 45 90 46 41 47 42 48 43 49 84 50 44 51 89 52 83 53
REMARK SMILES IDX 85 54 45 55 88 56 82 57 81 58 46 60 72 61 55 62 71 63 56 64
REMARK SMILES IDX 59 65 70 66 86 67 57 68 58 69 69 71 87 72 60 73 47 74 48 75
REMARK SMILES IDX 53 76 49 77 50 78 52 79 54 80 51 81 73 82 74 83 79 84 75 85
REMARK SMILES IDX 76 86 78 87 80 88 77 89 61 90 62 91 67 92 63 93 64 94 66 95
REMARK SMILES IDX 68 96 65 97
REMARK H PARENT 16 34 85 59 59 70
REMARK Flexibility Score: inf
ROOT
ATOM      1  C   UNL     1      -1.566   9.873   9.176  1.00  0.00     0.188 C 
ENDROOT
BRANCH   1   2
ATOM      2  O   UNL     1      -2.178  10.998   8.548  1.00  0.00    -0.376 OA
BRANCH   2   3
ATOM      3  C   UNL     1      -3.311  10.819   7.710  1.00  0.00     0.202 C 
BRANCH   3   4
ATOM      4  C   UNL     1      -3.075  10.117   6.363  1.00  0.00     0.261 C 
BRANCH   4   5
ATOM      5  O   UNL     1      -2.338   8.876   6.441  1.00  0.00    -0.463 OA
BRANCH   5   6
ATOM      6  C   UNL     1      -1.032   8.940   6.094  1.00  0.00     0.309 C 
ATOM      7  O   UNL     1      -0.517   9.958   5.631  1.00  0.00    -0.252 OA
BRANCH   6   8
ATOM      8  C   UNL     1      -0.155   7.716   6.462  1.00  0.00     0.105 C 
ATOM      9  C   UNL     1      -0.338   2.816   0.327  1.00  0.00     0.179 C 
ATOM     10  C   UNL     1      -0.050   4.253   0.683  1.00  0.00     0.047 C 
ATOM     11  C   UNL     1      -1.341   2.160   1.278  1.00  0.00     0.081 C 
ATOM     12  C   UNL     1       0.154   4.415   2.172  1.00  0.00     0.026 C 
ATOM     13  C   UNL     1      -1.196   2.440   2.787  1.00  0.00     0.085 C 
ATOM     14  C   UNL     1      -1.240   3.876   3.139  1.00  0.00     0.103 C 
ATOM     15  C   UNL     1       0.184   2.051   3.509  1.00  0.00     0.041 C 
ATOM     16  C   UNL     1      -1.671   5.232   3.194  1.00  0.00     0.316 C 
ATOM     17  C   UNL     1      -1.329   3.826   4.853  1.00  0.00     0.054 C 
ATOM     18  C   UNL     1       0.823   3.232   4.527  1.00  0.00     0.052 C 
ATOM     19  O   UNL     1      -2.501   5.890   2.574  1.00  0.00    -0.251 OA
ATOM     20  O   UNL     1      -0.640   5.676   4.029  1.00  0.00    -0.458 OA
ATOM     21  C   UNL     1      -0.081   4.560   4.874  1.00  0.00     0.120 C 
ATOM     22  C   UNL     1      -2.390   4.479   5.769  1.00  0.00     0.009 C 
ATOM     23  C   UNL     1       0.482   5.325   6.032  1.00  0.00     0.040 C 
ATOM     24  C   UNL     1      -2.070   5.876   6.355  1.00  0.00     0.008 C 
ATOM     25  C   UNL     1      -0.593   6.206   6.752  1.00  0.00    -0.013 C 
ATOM     26  C   UNL     1       1.558   6.303   5.516  1.00  0.00     0.009 C 
ATOM     27  C   UNL     1      -0.357   5.823   8.239  1.00  0.00     0.013 C 
ATOM     28  C   UNL     1       0.851   7.620   5.305  1.00  0.00     0.016 C 
BRANCH   9  29
ATOM     29  O   UNL     1       0.865   2.032   0.395  1.00  0.00    -0.462 OA
BRANCH  29  30
ATOM     30  C   UNL     1       1.022   1.154  -0.635  1.00  0.00     0.302 C 
ATOM     31  C   UNL     1       1.706  -0.084  -0.148  1.00  0.00     0.139 C 
ATOM     32  O   UNL     1       0.593   1.301  -1.769  1.00  0.00    -0.253 OA
ENDBRANCH  29  30
ENDBRANCH   9  29
BRANCH  13  33
ATOM     33  O   UNL     1      -2.264   1.733   3.424  1.00  0.00    -0.389 OA
ATOM     34  H   UNL     1      -2.221   1.876   4.382  1.00  0.00     0.211 HD
ENDBRANCH  13  33
ENDBRANCH   6   8
ENDBRANCH   5   6
ENDBRANCH   4   5
ENDBRANCH   3   4
ENDBRANCH   2   3
ENDBRANCH   1   2
BRANCH   1  35
ATOM     35  C   UNL     1      -2.294   8.524   9.232  1.00  0.00     0.188 C 
BRANCH  35  36
ATOM     36  O   UNL     1      -3.690   8.659   9.341  1.00  0.00    -0.376 OA
BRANCH  36  37
ATOM     37  C   UNL     1      -4.323   8.065  10.449  1.00  0.00     0.202 C 
BRANCH  37  38
ATOM     38  C   UNL     1      -3.920   8.595  11.832  1.00  0.00     0.261 C 
BRANCH  38  39
ATOM     39  O   UNL     1      -2.520   8.839  12.065  1.00  0.00    -0.460 OA
BRANCH  39  40
ATOM     40  C   UNL     1      -1.731   7.768  12.314  1.00  0.00     0.338 C 
ATOM     41  O   UNL     1      -2.069   6.598  12.326  1.00  0.00    -0.246 OA
BRANCH  40  42
ATOM     42  C   UNL     1      -0.323   8.231  12.373  1.00  0.00     0.060 A 
ATOM     43  C   UNL     1       0.612   7.704  11.472  1.00  0.00     0.016 A 
ATOM     44  C   UNL     1       0.082   9.155  13.337  1.00  0.00     0.016 A 
ATOM     45  C   UNL     1       1.959   8.067  11.554  1.00  0.00     0.010 A 
ATOM     46  C   UNL     1       1.433   9.505  13.431  1.00  0.00     0.010 A 
ATOM     47  C   UNL     1       2.386   8.937  12.563  1.00  0.00    -0.014 A 
BRANCH  47  48
ATOM     48  C   UNL     1       3.835   9.124  12.837  1.00  0.00     0.031 A 
ATOM     49  C   UNL     1       4.440   8.425  14.024  1.00  0.00     0.074 A 
ATOM     50  C   UNL     1       4.608   9.898  12.055  1.00  0.00     0.049 A 
ATOM     51  N   UNL     1       5.638   8.535  14.539  1.00  0.00    -0.248 NA
ATOM     52  C   UNL     1       3.565   7.477  14.732  1.00  0.00     0.031 C 
ATOM     53  C   UNL     1       4.165  10.590  10.848  1.00  0.00     0.029 A 
ATOM     54  N   UNL     1       5.930  10.249  12.181  1.00  0.00    -0.354 N 
ATOM     55  C   UNL     1       5.655   7.688  15.640  1.00  0.00     0.074 A 
ATOM     56  C   UNL     1       4.337   7.097  15.738  1.00  0.00     0.031 C 
ATOM     57  C   UNL     1       5.191  11.305  10.356  1.00  0.00     0.029 A 
ATOM     58  C   UNL     1       6.348  11.156  11.239  1.00  0.00     0.049 A 
ATOM     59  H   UNL     1       6.521   9.885  12.880  1.00  0.00     0.167 HD
ATOM     60  C   UNL     1       6.675   7.420  16.491  1.00  0.00     0.037 A 
ATOM     61  C   UNL     1       7.514  11.822  11.124  1.00  0.00     0.037 A 
ATOM     62  C   UNL     1       7.983   8.016  16.396  1.00  0.00     0.049 A 
ATOM     63  C   UNL     1       8.612  11.577  12.127  1.00  0.00     0.074 A 
ATOM     64  C   UNL     1       9.086   7.809  17.205  1.00  0.00     0.029 A 
ATOM     65  N   UNL     1       8.360   8.946  15.438  1.00  0.00    -0.354 N 
ATOM     66  N   UNL     1       8.623  10.774  13.164  1.00  0.00    -0.248 NA
ATOM     67  C   UNL     1       9.861  12.331  11.942  1.00  0.00     0.031 C 
ATOM     68  C   UNL     1      10.112   8.656  16.772  1.00  0.00     0.029 A 
ATOM     69  C   UNL     1       9.670   9.343  15.652  1.00  0.00     0.049 A 
ATOM     70  H   UNL     1       7.781   9.276  14.713  1.00  0.00     0.167 HD
ATOM     71  C   UNL     1       9.882  10.906  13.738  1.00  0.00     0.074 A 
ATOM     72  C   UNL     1      10.612  11.857  12.926  1.00  0.00     0.031 C 
ATOM     73  C   UNL     1      10.389  10.291  14.836  1.00  0.00     0.037 A 
BRANCH  60  74
ATOM     74  C   UNL     1       6.393   6.470  17.620  1.00  0.00     0.057 A 
ATOM     75  C   UNL     1       6.153   5.105  17.404  1.00  0.00     0.134 A 
ATOM     76  C   UNL     1       6.352   6.928  18.944  1.00  0.00     0.134 A 
ATOM     77  F   UNL     1       6.162   4.601  16.161  1.00  0.00    -0.206 F 
ATOM     78  C   UNL     1       5.842   4.242  18.457  1.00  0.00     0.040 A 
ATOM     79  C   UNL     1       6.075   6.068  20.008  1.00  0.00     0.040 A 
ATOM     80  F   UNL     1       6.579   8.220  19.225  1.00  0.00    -0.206 F 
ATOM     81  C   UNL     1       5.806   4.723  19.764  1.00  0.00     0.006 A 
ENDBRANCH  60  74
BRANCH  61  82
ATOM     82  C   UNL     1       7.692  12.810  10.030  1.00  0.00     0.057 A 
ATOM     83  C   UNL     1       8.576  12.575   8.971  1.00  0.00     0.134 A 
ATOM     84  C   UNL     1       6.975  14.014  10.015  1.00  0.00     0.134 A 
ATOM     85  F   UNL     1       9.311  11.454   8.942  1.00  0.00    -0.206 F 
ATOM     86  C   UNL     1       8.746  13.503   7.941  1.00  0.00     0.040 A 
ATOM     87  C   UNL     1       7.115  14.937   8.978  1.00  0.00     0.040 A 
ATOM     88  F   UNL     1       6.114  14.301  11.003  1.00  0.00    -0.206 F 
ATOM     89  C   UNL     1       8.007  14.684   7.938  1.00  0.00     0.006 A 
ENDBRANCH  61  82
BRANCH  73  90
ATOM     90  C   UNL     1      11.814  10.595  15.206  1.00  0.00     0.057 A 
ATOM     91  C   UNL     1      12.201  11.836  15.729  1.00  0.00     0.134 A 
ATOM     92  C   UNL     1      12.807   9.614  15.077  1.00  0.00     0.134 A 
ATOM     93  F   UNL     1      11.304  12.824  15.869  1.00  0.00    -0.206 F 
ATOM     94  C   UNL     1      13.525  12.098  16.085  1.00  0.00     0.040 A 
ATOM     95  C   UNL     1      14.128   9.854  15.458  1.00  0.00     0.040 A 
ATOM     96  F   UNL     1      12.506   8.399  14.594  1.00  0.00    -0.206 F 
ATOM     97  C   UNL     1      14.492  11.102  15.957  1.00  0.00     0.006 A 
ENDBRANCH  73  90
ENDBRANCH  47  48
ENDBRANCH  40  42
ENDBRANCH  39  40
ENDBRANCH  38  39
ENDBRANCH  37  38
ENDBRANCH  36  37
ENDBRANCH  35  36
ENDBRANCH   1  35
TORSDOF 20
