REMARK SMILES C[C@H]1[C@H](C(=O)OCCOCCOCCOC(=O)c2ccc(-c3c4nc(c(-c5c(F)cccc5F)c5ccc([nH]5)c(-c5c(F)cccc5F)c5nc(c(-c6c(F)cccc6F)c6ccc3[nH]6)C=C5)C=C4)cc2)CCN1C(=O)NCc1ccncc1
REMARK SMILES IDX 10 1 9 2 8 3 7 4 6 5 4 6 5 7 3 8 1 9 2 10 74 11 72 12 73 13
REMARK SMILES IDX 75 14 76 15 77 16 78 18 79 19 80 20 84 21 81 22 83 23 82 24
REMARK SMILES IDX 11 25 12 26 13 27 14 28 15 29 16 30 17 31 18 32 19 33 71 34
REMARK SMILES IDX 20 35 70 36 21 37 22 38 23 39 64 40 24 41 69 42 63 43 65 44
REMARK SMILES IDX 25 45 68 46 62 47 61 48 26 50 52 51 35 52 51 53 36 54 39 55
REMARK SMILES IDX 50 56 66 57 37 58 38 59 49 61 67 62 40 63 27 64 28 65 33 66
REMARK SMILES IDX 29 67 30 68 32 69 34 70 31 71 53 72 54 73 59 74 55 75 56 76
REMARK SMILES IDX 58 77 60 78 57 79 41 80 42 81 47 82 43 83 44 84 46 85 48 86
REMARK SMILES IDX 45 87
REMARK H PARENT 77 17 65 49 39 60
REMARK Flexibility Score: inf
ROOT
ATOM      1  C   UNL     1       1.546   3.919   1.804  1.00  0.00     0.188 C 
ENDROOT
BRANCH   1   2
ATOM      2  O   UNL     1       0.836   4.708   2.731  1.00  0.00    -0.376 OA
BRANCH   2   3
ATOM      3  C   UNL     1      -0.197   4.141   3.517  1.00  0.00     0.202 C 
BRANCH   3   4
ATOM      4  C   UNL     1      -1.280   3.238   2.910  1.00  0.00     0.261 C 
BRANCH   4   5
ATOM      5  O   UNL     1      -0.829   2.137   2.092  1.00  0.00    -0.463 OA
BRANCH   5   6
ATOM      6  C   UNL     1      -1.205   2.185   0.791  1.00  0.00     0.311 C 
ATOM      7  O   UNL     1      -1.833   3.119   0.297  1.00  0.00    -0.252 OA
BRANCH   6   8
ATOM      8  C   UNL     1      -0.851   0.971  -0.054  1.00  0.00     0.123 C 
ATOM      9  C   UNL     1       1.413   0.078  -0.670  1.00  0.00     0.032 C 
ATOM     10  C   UNL     1       0.263  -0.028   0.352  1.00  0.00     0.098 C 
ATOM     11  N   UNL     1      -0.333  -1.359   0.269  1.00  0.00    -0.321 N 
ATOM     12  C   UNL     1      -2.103   0.116  -0.225  1.00  0.00     0.039 C 
ATOM     13  C   UNL     1      -1.583  -1.285  -0.465  1.00  0.00     0.122 C 
BRANCH  11  14
ATOM     14  C   UNL     1       0.081  -2.563   0.743  1.00  0.00     0.317 C 
ATOM     15  O   UNL     1      -0.606  -3.579   0.580  1.00  0.00    -0.249 OA
ATOM     16  N   UNL     1       1.231  -2.768   1.403  1.00  0.00    -0.334 N 
ATOM     17  H   UNL     1       1.265  -3.680   1.773  1.00  0.00     0.165 HD
BRANCH  16  18
ATOM     18  C   UNL     1       2.439  -2.033   1.728  1.00  0.00     0.153 C 
BRANCH  18  19
ATOM     19  C   UNL     1       2.849  -2.145   3.176  1.00  0.00    -0.026 A 
ATOM     20  C   UNL     1       2.791  -3.338   3.900  1.00  0.00     0.025 A 
ATOM     21  C   UNL     1       3.386  -1.025   3.819  1.00  0.00     0.025 A 
ATOM     22  C   UNL     1       3.211  -3.340   5.225  1.00  0.00     0.111 A 
ATOM     23  C   UNL     1       3.778  -1.124   5.144  1.00  0.00     0.111 A 
ATOM     24  N   UNL     1       3.696  -2.257   5.867  1.00  0.00    -0.265 NA
ENDBRANCH  18  19
ENDBRANCH  16  18
ENDBRANCH  11  14
ENDBRANCH   6   8
ENDBRANCH   5   6
ENDBRANCH   4   5
ENDBRANCH   3   4
ENDBRANCH   2   3
ENDBRANCH   1   2
BRANCH   1  25
ATOM     25  C   UNL     1       2.007   2.505   2.167  1.00  0.00     0.188 C 
BRANCH  25  26
ATOM     26  O   UNL     1       1.929   1.985   3.474  1.00  0.00    -0.376 OA
BRANCH  26  27
ATOM     27  C   UNL     1       2.673   2.607   4.509  1.00  0.00     0.202 C 
BRANCH  27  28
ATOM     28  C   UNL     1       4.186   2.784   4.350  1.00  0.00     0.261 C 
BRANCH  28  29
ATOM     29  O   UNL     1       4.570   3.468   3.148  1.00  0.00    -0.460 OA
BRANCH  29  30
ATOM     30  C   UNL     1       5.213   2.709   2.226  1.00  0.00     0.338 C 
ATOM     31  O   UNL     1       5.499   1.520   2.310  1.00  0.00    -0.246 OA
BRANCH  30  32
ATOM     32  C   UNL     1       5.301   3.470   0.970  1.00  0.00     0.060 A 
ATOM     33  C   UNL     1       4.679   2.958  -0.182  1.00  0.00     0.016 A 
ATOM     34  C   UNL     1       5.996   4.675   0.928  1.00  0.00     0.016 A 
ATOM     35  C   UNL     1       4.743   3.659  -1.384  1.00  0.00     0.010 A 
ATOM     36  C   UNL     1       6.092   5.355  -0.283  1.00  0.00     0.010 A 
ATOM     37  C   UNL     1       5.481   4.844  -1.445  1.00  0.00    -0.014 A 
BRANCH  37  38
ATOM     38  C   UNL     1       5.794   5.483  -2.740  1.00  0.00     0.031 A 
ATOM     39  C   UNL     1       7.147   5.232  -3.336  1.00  0.00     0.074 A 
ATOM     40  C   UNL     1       4.929   6.326  -3.329  1.00  0.00     0.049 A 
ATOM     41  N   UNL     1       7.761   5.864  -4.300  1.00  0.00    -0.248 NA
ATOM     42  C   UNL     1       7.918   4.125  -2.747  1.00  0.00     0.031 C 
ATOM     43  C   UNL     1       3.564   6.591  -2.882  1.00  0.00     0.029 A 
ATOM     44  N   UNL     1       5.098   7.148  -4.415  1.00  0.00    -0.354 N 
ATOM     45  C   UNL     1       9.004   5.256  -4.410  1.00  0.00     0.074 A 
ATOM     46  C   UNL     1       9.060   4.212  -3.411  1.00  0.00     0.031 C 
ATOM     47  C   UNL     1       3.030   7.545  -3.665  1.00  0.00     0.029 A 
ATOM     48  C   UNL     1       4.037   7.994  -4.625  1.00  0.00     0.049 A 
ATOM     49  H   UNL     1       5.900   7.132  -4.986  1.00  0.00     0.167 HD
ATOM     50  C   UNL     1      10.009   5.554  -5.265  1.00  0.00     0.037 A 
ATOM     51  C   UNL     1       3.920   9.046  -5.460  1.00  0.00     0.037 A 
ATOM     52  C   UNL     1       9.937   6.599  -6.250  1.00  0.00     0.049 A 
ATOM     53  C   UNL     1       5.085   9.420  -6.341  1.00  0.00     0.074 A 
ATOM     54  C   UNL     1      10.894   6.981  -7.172  1.00  0.00     0.029 A 
ATOM     55  N   UNL     1       8.845   7.435  -6.432  1.00  0.00    -0.354 N 
ATOM     56  N   UNL     1       6.263   8.851  -6.442  1.00  0.00    -0.248 NA
ATOM     57  C   UNL     1       4.910  10.587  -7.218  1.00  0.00     0.031 C 
ATOM     58  C   UNL     1      10.403   8.085  -7.874  1.00  0.00     0.029 A 
ATOM     59  C   UNL     1       9.114   8.346  -7.437  1.00  0.00     0.049 A 
ATOM     60  H   UNL     1       8.004   7.386  -5.923  1.00  0.00     0.167 HD
ATOM     61  C   UNL     1       6.949   9.560  -7.421  1.00  0.00     0.074 A 
ATOM     62  C   UNL     1       6.060  10.606  -7.880  1.00  0.00     0.031 C 
ATOM     63  C   UNL     1       8.200   9.359  -7.903  1.00  0.00     0.037 A 
BRANCH  50  64
ATOM     64  C   UNL     1      11.282   4.771  -5.139  1.00  0.00     0.057 A 
ATOM     65  C   UNL     1      11.364   3.420  -5.498  1.00  0.00     0.134 A 
ATOM     66  C   UNL     1      12.450   5.388  -4.674  1.00  0.00     0.134 A 
ATOM     67  F   UNL     1      10.278   2.764  -5.933  1.00  0.00    -0.206 F 
ATOM     68  C   UNL     1      12.557   2.704  -5.375  1.00  0.00     0.040 A 
ATOM     69  C   UNL     1      13.655   4.692  -4.576  1.00  0.00     0.040 A 
ATOM     70  F   UNL     1      12.441   6.681  -4.314  1.00  0.00    -0.206 F 
ATOM     71  C   UNL     1      13.709   3.344  -4.921  1.00  0.00     0.006 A 
ENDBRANCH  50  64
BRANCH  51  72
ATOM     72  C   UNL     1       2.668   9.846  -5.482  1.00  0.00     0.057 A 
ATOM     73  C   UNL     1       1.832   9.847  -6.605  1.00  0.00     0.134 A 
ATOM     74  C   UNL     1       2.287  10.643  -4.396  1.00  0.00     0.134 A 
ATOM     75  F   UNL     1       2.155   9.123  -7.687  1.00  0.00    -0.206 F 
ATOM     76  C   UNL     1       0.674  10.626  -6.655  1.00  0.00     0.040 A 
ATOM     77  C   UNL     1       1.117  11.404  -4.420  1.00  0.00     0.040 A 
ATOM     78  F   UNL     1       3.043  10.687  -3.289  1.00  0.00    -0.206 F 
ATOM     79  C   UNL     1       0.311  11.403  -5.557  1.00  0.00     0.006 A 
ENDBRANCH  51  72
BRANCH  63  80
ATOM     80  C   UNL     1       8.667  10.229  -9.034  1.00  0.00     0.057 A 
ATOM     81  C   UNL     1       9.035  11.566  -8.846  1.00  0.00     0.134 A 
ATOM     82  C   UNL     1       8.843   9.681 -10.313  1.00  0.00     0.134 A 
ATOM     83  F   UNL     1       8.881  12.152  -7.650  1.00  0.00    -0.206 F 
ATOM     84  C   UNL     1       9.557  12.330  -9.892  1.00  0.00     0.040 A 
ATOM     85  C   UNL     1       9.390  10.426 -11.357  1.00  0.00     0.040 A 
ATOM     86  F   UNL     1       8.520   8.402 -10.556  1.00  0.00    -0.206 F 
ATOM     87  C   UNL     1       9.748  11.755 -11.148  1.00  0.00     0.006 A 
ENDBRANCH  63  80
ENDBRANCH  37  38
ENDBRANCH  30  32
ENDBRANCH  29  30
ENDBRANCH  28  29
ENDBRANCH  27  28
ENDBRANCH  26  27
ENDBRANCH  25  26
ENDBRANCH   1  25
TORSDOF 20
