REMARK SMILES COc1ccc(NS(=O)(=O)c2ccc(NC(=O)[C@H]3CCCC[C@@H]3C(=O)OCCOCCOCCOC(=O)c3ccc(-c4c5nc(c(-c6c(F)cccc6F)c6ccc([nH]6)c(-c6c(F)cccc6F)c6nc(c(-c7c(F)cccc7F)c7ccc4[nH]7)C=C6)C=C5)cc3)cc2)cc1
REMARK SMILES IDX 28 1 27 2 26 3 24 4 25 5 23 6 18 7 19 8 20 9 22 10 21 11
REMARK SMILES IDX 16 12 15 13 17 15 14 16 11 17 12 18 93 19 13 20 92 21 8 22
REMARK SMILES IDX 9 23 10 24 7 25 6 27 3 28 4 29 95 30 5 31 94 32 2 33 1 34
REMARK SMILES IDX 29 35 30 36 31 37 32 38 33 39 34 40 35 41 36 42 37 43 38 44
REMARK SMILES IDX 39 45 91 46 40 47 90 48 41 49 42 50 43 51 84 52 44 53 89 54
REMARK SMILES IDX 83 55 85 56 45 57 88 58 82 59 81 60 46 62 72 63 55 64 71 65
REMARK SMILES IDX 56 66 59 67 70 68 86 69 57 70 58 71 69 73 87 74 60 75 47 76
REMARK SMILES IDX 48 77 53 78 49 79 50 80 52 81 54 82 51 83 73 84 74 85 79 86
REMARK SMILES IDX 75 87 76 88 78 89 80 90 77 91 61 92 62 93 67 94 63 95 64 96
REMARK SMILES IDX 66 97 68 98 65 99
REMARK H PARENT 15 14 7 26 85 61 59 72
REMARK Flexibility Score: inf
ROOT
ATOM      1  C   UNL     1      -8.165   5.464   8.309  1.00  0.00     0.202 C 
ENDROOT
BRANCH   1   2
ATOM      2  C   UNL     1      -7.800   6.485   7.213  1.00  0.00     0.261 C 
BRANCH   2   3
ATOM      3  O   UNL     1      -6.500   6.396   6.578  1.00  0.00    -0.463 OA
BRANCH   3   4
ATOM      4  C   UNL     1      -5.433   6.204   7.383  1.00  0.00     0.309 C 
ATOM      5  O   UNL     1      -5.530   6.020   8.591  1.00  0.00    -0.252 OA
BRANCH   4   6
ATOM      6  C   UNL     1      -4.086   6.369   6.684  1.00  0.00     0.111 C 
ATOM      7  C   UNL     1      -3.334   5.114   6.208  1.00  0.00     0.093 C 
ATOM      8  C   UNL     1      -2.946   4.189   7.357  1.00  0.00     0.014 C 
ATOM      9  C   UNL     1      -2.140   4.895   8.427  1.00  0.00     0.001 C 
ATOM     10  C   UNL     1      -3.323   7.130   7.751  1.00  0.00     0.016 C 
ATOM     11  C   UNL     1      -2.688   6.260   8.846  1.00  0.00     0.001 C 
BRANCH   7  12
ATOM     12  C   UNL     1      -2.202   5.133   5.123  1.00  0.00     0.228 C 
ATOM     13  N   UNL     1      -1.208   6.027   4.855  1.00  0.00    -0.326 N 
ATOM     14  H   UNL     1      -0.624   5.724   4.123  1.00  0.00     0.169 HD
ATOM     15  O   UNL     1      -2.187   4.155   4.348  1.00  0.00    -0.274 OA
BRANCH  13  16
ATOM     16  C   UNL     1      -0.816   7.270   5.364  1.00  0.00     0.041 A 
ATOM     17  C   UNL     1      -1.013   9.818   6.372  1.00  0.00     0.087 A 
ATOM     18  C   UNL     1      -0.585   8.793   7.217  1.00  0.00     0.024 A 
ATOM     19  C   UNL     1      -0.915   9.651   4.993  1.00  0.00     0.024 A 
ATOM     20  C   UNL     1      -0.458   7.497   6.686  1.00  0.00     0.027 A 
ATOM     21  C   UNL     1      -0.815   8.354   4.483  1.00  0.00     0.027 A 
BRANCH  17  22
ATOM     22  S   UNL     1      -1.854  11.257   7.003  1.00  0.00     0.261 S 
ATOM     23  O   UNL     1      -1.416  12.404   6.240  1.00  0.00    -0.201 OA
ATOM     24  O   UNL     1      -1.715  11.234   8.447  1.00  0.00    -0.201 OA
BRANCH  22  25
ATOM     25  N   UNL     1      -3.531  11.045   6.732  1.00  0.00    -0.280 N 
ATOM     26  H   UNL     1      -4.136  11.088   7.507  1.00  0.00     0.180 HD
BRANCH  25  27
ATOM     27  C   UNL     1      -4.105  10.808   5.438  1.00  0.00     0.049 A 
ATOM     28  C   UNL     1      -5.419  10.169   3.016  1.00  0.00     0.119 A 
ATOM     29  C   UNL     1      -4.604   9.238   3.645  1.00  0.00     0.048 A 
ATOM     30  C   UNL     1      -5.604  11.416   3.613  1.00  0.00     0.048 A 
ATOM     31  C   UNL     1      -3.970   9.560   4.846  1.00  0.00     0.030 A 
ATOM     32  C   UNL     1      -4.946  11.736   4.822  1.00  0.00     0.030 A 
BRANCH  28  33
ATOM     33  O   UNL     1      -6.027   9.714   1.881  1.00  0.00    -0.497 OA
ATOM     34  C   UNL     1      -6.351  10.693   0.903  1.00  0.00     0.278 C 
ENDBRANCH  28  33
ENDBRANCH  25  27
ENDBRANCH  22  25
ENDBRANCH  17  22
ENDBRANCH  13  16
ENDBRANCH   7  12
ENDBRANCH   4   6
ENDBRANCH   3   4
ENDBRANCH   2   3
ENDBRANCH   1   2
BRANCH   1  35
ATOM     35  O   UNL     1      -8.238   4.112   7.892  1.00  0.00    -0.376 OA
BRANCH  35  36
ATOM     36  C   UNL     1      -7.039   3.509   7.440  1.00  0.00     0.188 C 
BRANCH  36  37
ATOM     37  C   UNL     1      -6.852   3.520   5.908  1.00  0.00     0.188 C 
BRANCH  37  38
ATOM     38  O   UNL     1      -7.970   3.579   5.034  1.00  0.00    -0.376 OA
BRANCH  38  39
ATOM     39  C   UNL     1      -9.212   3.054   5.463  1.00  0.00     0.202 C 
BRANCH  39  40
ATOM     40  C   UNL     1      -9.296   1.546   5.745  1.00  0.00     0.261 C 
BRANCH  40  41
ATOM     41  O   UNL     1      -8.241   0.997   6.559  1.00  0.00    -0.460 OA
BRANCH  41  42
ATOM     42  C   UNL     1      -7.243   0.357   5.891  1.00  0.00     0.338 C 
ATOM     43  O   UNL     1      -7.183   0.148   4.700  1.00  0.00    -0.246 OA
BRANCH  42  44
ATOM     44  C   UNL     1      -6.104   0.077   6.812  1.00  0.00     0.060 A 
ATOM     45  C   UNL     1      -4.817   0.480   6.422  1.00  0.00     0.016 A 
ATOM     46  C   UNL     1      -6.277  -0.618   8.010  1.00  0.00     0.016 A 
ATOM     47  C   UNL     1      -3.701   0.157   7.202  1.00  0.00     0.010 A 
ATOM     48  C   UNL     1      -5.154  -0.969   8.777  1.00  0.00     0.010 A 
ATOM     49  C   UNL     1      -3.856  -0.614   8.361  1.00  0.00    -0.014 A 
BRANCH  49  50
ATOM     50  C   UNL     1      -2.666  -1.229   9.010  1.00  0.00     0.031 A 
ATOM     51  C   UNL     1      -2.286  -2.636   8.626  1.00  0.00     0.074 A 
ATOM     52  C   UNL     1      -1.908  -0.564   9.901  1.00  0.00     0.049 A 
ATOM     53  N   UNL     1      -1.345  -3.409   9.107  1.00  0.00    -0.248 NA
ATOM     54  C   UNL     1      -3.078  -3.252   7.549  1.00  0.00     0.031 C 
ATOM     55  C   UNL     1      -2.104   0.822  10.317  1.00  0.00     0.029 A 
ATOM     56  N   UNL     1      -0.815  -0.982  10.624  1.00  0.00    -0.354 N 
ATOM     57  C   UNL     1      -1.431  -4.598   8.394  1.00  0.00     0.074 A 
ATOM     58  C   UNL     1      -2.535  -4.457   7.468  1.00  0.00     0.031 C 
ATOM     59  C   UNL     1      -1.171   1.136  11.235  1.00  0.00     0.029 A 
ATOM     60  C   UNL     1      -0.334  -0.036  11.498  1.00  0.00     0.049 A 
ATOM     61  H   UNL     1      -0.414  -1.876  10.525  1.00  0.00     0.167 HD
ATOM     62  C   UNL     1      -0.660  -5.708   8.491  1.00  0.00     0.037 A 
ATOM     63  C   UNL     1       0.647  -0.116  12.420  1.00  0.00     0.037 A 
ATOM     64  C   UNL     1       0.430  -5.868   9.416  1.00  0.00     0.049 A 
ATOM     65  C   UNL     1       1.419  -1.401  12.591  1.00  0.00     0.074 A 
ATOM     66  C   UNL     1       1.253  -6.967   9.597  1.00  0.00     0.029 A 
ATOM     67  N   UNL     1       0.847  -4.905  10.321  1.00  0.00    -0.354 N 
ATOM     68  N   UNL     1       1.322  -2.524  11.922  1.00  0.00    -0.248 NA
ATOM     69  C   UNL     1       2.438  -1.429  13.654  1.00  0.00     0.031 C 
ATOM     70  C   UNL     1       2.135  -6.687  10.645  1.00  0.00     0.029 A 
ATOM     71  C   UNL     1       1.901  -5.392  11.077  1.00  0.00     0.049 A 
ATOM     72  H   UNL     1       0.452  -4.007  10.414  1.00  0.00     0.167 HD
ATOM     73  C   UNL     1       2.286  -3.374  12.455  1.00  0.00     0.074 A 
ATOM     74  C   UNL     1       2.964  -2.636  13.499  1.00  0.00     0.031 C 
ATOM     75  C   UNL     1       2.584  -4.650  12.106  1.00  0.00     0.037 A 
BRANCH  62  76
ATOM     76  C   UNL     1      -0.993  -6.857   7.585  1.00  0.00     0.057 A 
ATOM     77  C   UNL     1      -0.730  -6.813   6.210  1.00  0.00     0.134 A 
ATOM     78  C   UNL     1      -1.553  -8.034   8.099  1.00  0.00     0.134 A 
ATOM     79  F   UNL     1      -0.208  -5.710   5.652  1.00  0.00    -0.206 F 
ATOM     80  C   UNL     1      -1.034  -7.890   5.375  1.00  0.00     0.040 A 
ATOM     81  C   UNL     1      -1.835  -9.127   7.279  1.00  0.00     0.040 A 
ATOM     82  F   UNL     1      -1.824  -8.143   9.409  1.00  0.00    -0.206 F 
ATOM     83  C   UNL     1      -1.581  -9.054   5.911  1.00  0.00     0.006 A 
ENDBRANCH  62  76
BRANCH  63  84
ATOM     84  C   UNL     1       0.958   1.054  13.283  1.00  0.00     0.057 A 
ATOM     85  C   UNL     1       2.176   1.736  13.171  1.00  0.00     0.134 A 
ATOM     86  C   UNL     1       0.066   1.490  14.271  1.00  0.00     0.134 A 
ATOM     87  F   UNL     1       3.087   1.345  12.267  1.00  0.00    -0.206 F 
ATOM     88  C   UNL     1       2.503   2.797  14.018  1.00  0.00     0.040 A 
ATOM     89  C   UNL     1       0.368   2.566  15.107  1.00  0.00     0.040 A 
ATOM     90  F   UNL     1      -1.113   0.874  14.438  1.00  0.00    -0.206 F 
ATOM     91  C   UNL     1       1.594   3.218  14.986  1.00  0.00     0.006 A 
ENDBRANCH  63  84
BRANCH  75  92
ATOM     92  C   UNL     1       3.723  -5.325  12.819  1.00  0.00     0.057 A 
ATOM     93  C   UNL     1       3.627  -5.738  14.154  1.00  0.00     0.134 A 
ATOM     94  C   UNL     1       4.914  -5.615  12.140  1.00  0.00     0.134 A 
ATOM     95  F   UNL     1       2.519  -5.485  14.867  1.00  0.00    -0.206 F 
ATOM     96  C   UNL     1       4.682  -6.394  14.794  1.00  0.00     0.040 A 
ATOM     97  C   UNL     1       5.965  -6.295  12.760  1.00  0.00     0.040 A 
ATOM     98  F   UNL     1       5.071  -5.260  10.856  1.00  0.00    -0.206 F 
ATOM     99  C   UNL     1       5.852  -6.681  14.093  1.00  0.00     0.006 A 
ENDBRANCH  75  92
ENDBRANCH  49  50
ENDBRANCH  42  44
ENDBRANCH  41  42
ENDBRANCH  40  41
ENDBRANCH  39  40
ENDBRANCH  38  39
ENDBRANCH  37  38
ENDBRANCH  36  37
ENDBRANCH  35  36
ENDBRANCH   1  35
TORSDOF 23
