REMARK SMILES Cc1nsc(NC(=O)[C@H]2Cc3[nH]cnc3C[NH2+]2)c1C(=O)OCCOCCOCCOC(=O)c1ccc(-c2c3nc(c(-c4c(F)cccc4F)c4ccc([nH]4)c(-c4c(F)cccc4F)c4nc(c(-c5c(F)cccc5F)c5ccc2[nH]5)C=C4)C=C3)cc1
REMARK SMILES IDX 25 1 24 2 23 3 22 4 21 5 19 6 20 7 18 8 1 9 2 10 3 11 4 12
REMARK SMILES IDX 5 13 6 14 7 15 8 17 9 18 10 19 17 20 11 21 16 22 12 25 15 26
REMARK SMILES IDX 13 27 14 29 26 30 27 31 28 32 29 33 30 34 31 35 32 36 33 37
REMARK SMILES IDX 34 38 86 39 35 40 85 41 36 42 37 43 38 44 79 45 39 46 84 47
REMARK SMILES IDX 78 48 80 49 40 50 83 51 77 52 76 53 41 55 67 56 50 57 66 58
REMARK SMILES IDX 51 59 54 60 65 61 81 62 52 63 53 64 64 66 82 67 55 68 42 69
REMARK SMILES IDX 43 70 48 71 44 72 45 73 47 74 49 75 46 76 68 77 69 78 74 79
REMARK SMILES IDX 70 80 71 81 73 82 75 83 72 84 56 85 57 86 62 87 58 88 59 89
REMARK SMILES IDX 61 90 63 91 60 92
REMARK H PARENT 6 16 17 23 17 24 12 28 80 54 54 65
REMARK Flexibility Score: inf
ROOT
ATOM      1  C   UNL     1      -1.438   3.639   1.960  1.00  0.00     0.188 C 
ENDROOT
BRANCH   1   2
ATOM      2  O   UNL     1      -0.877   4.931   1.753  1.00  0.00    -0.376 OA
BRANCH   2   3
ATOM      3  C   UNL     1       0.253   5.081   0.903  1.00  0.00     0.202 C 
BRANCH   3   4
ATOM      4  C   UNL     1       1.517   4.222   1.133  1.00  0.00     0.261 C 
BRANCH   4   5
ATOM      5  O   UNL     1       1.301   2.805   1.244  1.00  0.00    -0.460 OA
BRANCH   5   6
ATOM      6  C   UNL     1       1.345   2.206   2.468  1.00  0.00     0.343 C 
ATOM      7  O   UNL     1       1.684   2.761   3.510  1.00  0.00    -0.246 OA
BRANCH   6   8
ATOM      8  C   UNL     1       0.725   0.885   2.429  1.00  0.00     0.117 A 
ATOM      9  C   UNL     1       1.388   0.193  -0.034  1.00  0.00     0.069 C 
ATOM     10  C   UNL     1       0.692   0.003   1.270  1.00  0.00     0.068 A 
ATOM     11  N   UNL     1      -0.118  -1.048   1.359  1.00  0.00    -0.195 NA
ATOM     12  S   UNL     1      -0.904  -0.996   2.795  1.00  0.00    -0.017 S 
ATOM     13  C   UNL     1      -0.071   0.344   3.437  1.00  0.00     0.131 A 
BRANCH  13  14
ATOM     14  N   UNL     1      -0.324   0.749   4.743  1.00  0.00    -0.310 N 
ATOM     15  C   UNL     1      -1.234   0.089   5.565  1.00  0.00     0.283 C 
ATOM     16  H   UNL     1       0.157   1.530   5.100  1.00  0.00     0.171 HD
ATOM     17  O   UNL     1      -2.420   0.423   5.581  1.00  0.00    -0.268 OA
BRANCH  15  18
ATOM     18  C   UNL     1      -0.632  -0.901   6.625  1.00  0.00     0.279 C 
ATOM     19  C   UNL     1      -1.666  -2.026   6.997  1.00  0.00     0.131 C 
ATOM     20  N   UNL     1       0.740  -1.363   6.217  1.00  0.00    -0.331 N 
ATOM     21  C   UNL     1      -1.602  -3.037   5.923  1.00  0.00     0.050 A 
ATOM     22  C   UNL     1       0.861  -2.713   5.606  1.00  0.00     0.320 C 
ATOM     23  H   UNL     1       1.325  -1.353   7.052  1.00  0.00     0.347 HD
ATOM     24  H   UNL     1       1.019  -0.719   5.477  1.00  0.00     0.347 HD
ATOM     25  N   UNL     1      -2.588  -3.731   5.293  1.00  0.00    -0.348 N 
ATOM     26  C   UNL     1      -0.452  -3.291   5.224  1.00  0.00     0.116 A 
ATOM     27  C   UNL     1      -2.053  -4.123   4.092  1.00  0.00     0.197 A 
ATOM     28  H   UNL     1      -3.495  -3.914   5.630  1.00  0.00     0.167 HD
ATOM     29  N   UNL     1      -0.744  -3.963   4.068  1.00  0.00    -0.236 NA
ENDBRANCH  15  18
ENDBRANCH  13  14
ENDBRANCH   6   8
ENDBRANCH   5   6
ENDBRANCH   4   5
ENDBRANCH   3   4
ENDBRANCH   2   3
ENDBRANCH   1   2
BRANCH   1  30
ATOM     30  C   UNL     1      -1.623   2.665   0.772  1.00  0.00     0.188 C 
BRANCH  30  31
ATOM     31  O   UNL     1      -0.965   3.061  -0.415  1.00  0.00    -0.376 OA
BRANCH  31  32
ATOM     32  C   UNL     1      -1.727   3.388  -1.567  1.00  0.00     0.202 C 
BRANCH  32  33
ATOM     33  C   UNL     1      -2.875   4.397  -1.486  1.00  0.00     0.261 C 
BRANCH  33  34
ATOM     34  O   UNL     1      -3.423   4.553  -0.193  1.00  0.00    -0.460 OA
BRANCH  34  35
ATOM     35  C   UNL     1      -4.358   3.642   0.139  1.00  0.00     0.338 C 
ATOM     36  O   UNL     1      -4.736   2.694  -0.527  1.00  0.00    -0.246 OA
BRANCH  35  37
ATOM     37  C   UNL     1      -4.880   3.995   1.466  1.00  0.00     0.060 A 
ATOM     38  C   UNL     1      -5.756   3.069   2.031  1.00  0.00     0.016 A 
ATOM     39  C   UNL     1      -4.903   5.358   1.778  1.00  0.00     0.016 A 
ATOM     40  C   UNL     1      -6.924   3.565   2.546  1.00  0.00     0.010 A 
ATOM     41  C   UNL     1      -6.080   5.853   2.250  1.00  0.00     0.010 A 
ATOM     42  C   UNL     1      -7.111   4.947   2.488  1.00  0.00    -0.014 A 
BRANCH  42  43
ATOM     43  C   UNL     1      -8.447   5.464   2.632  1.00  0.00     0.031 A 
ATOM     44  C   UNL     1      -8.798   5.699   4.041  1.00  0.00     0.074 A 
ATOM     45  C   UNL     1      -9.174   5.799   1.550  1.00  0.00     0.049 A 
ATOM     46  N   UNL     1      -9.598   5.007   4.778  1.00  0.00    -0.248 NA
ATOM     47  C   UNL     1      -7.967   6.661   4.784  1.00  0.00     0.031 C 
ATOM     48  C   UNL     1      -8.760   5.857   0.142  1.00  0.00     0.029 A 
ATOM     49  N   UNL     1     -10.442   6.283   1.514  1.00  0.00    -0.354 N 
ATOM     50  C   UNL     1      -9.526   5.603   6.032  1.00  0.00     0.074 A 
ATOM     51  C   UNL     1      -8.326   6.387   6.036  1.00  0.00     0.031 C 
ATOM     52  C   UNL     1      -9.673   6.568  -0.561  1.00  0.00     0.029 A 
ATOM     53  C   UNL     1     -10.781   6.900   0.313  1.00  0.00     0.049 A 
ATOM     54  H   UNL     1     -11.066   6.204   2.271  1.00  0.00     0.167 HD
ATOM     55  C   UNL     1     -10.616   5.666   6.841  1.00  0.00     0.037 A 
ATOM     56  C   UNL     1     -11.853   7.718   0.155  1.00  0.00     0.037 A 
ATOM     57  C   UNL     1     -11.627   4.733   6.407  1.00  0.00     0.049 A 
ATOM     58  C   UNL     1     -12.771   7.453   1.302  1.00  0.00     0.074 A 
ATOM     59  C   UNL     1     -11.685   3.359   6.273  1.00  0.00     0.029 A 
ATOM     60  N   UNL     1     -12.663   5.232   5.652  1.00  0.00    -0.354 N 
ATOM     61  N   UNL     1     -13.410   6.325   1.468  1.00  0.00    -0.248 NA
ATOM     62  C   UNL     1     -12.569   8.238   2.514  1.00  0.00     0.031 C 
ATOM     63  C   UNL     1     -12.449   3.133   5.093  1.00  0.00     0.029 A 
ATOM     64  C   UNL     1     -12.873   4.371   4.607  1.00  0.00     0.049 A 
ATOM     65  H   UNL     1     -13.165   6.060   5.832  1.00  0.00     0.167 HD
ATOM     66  C   UNL     1     -13.323   6.062   2.831  1.00  0.00     0.074 A 
ATOM     67  C   UNL     1     -12.839   7.304   3.431  1.00  0.00     0.031 C 
ATOM     68  C   UNL     1     -13.361   4.784   3.311  1.00  0.00     0.037 A 
BRANCH  55  69
ATOM     69  C   UNL     1     -10.934   6.840   7.738  1.00  0.00     0.057 A 
ATOM     70  C   UNL     1     -12.067   6.754   8.565  1.00  0.00     0.134 A 
ATOM     71  C   UNL     1     -10.374   8.132   7.634  1.00  0.00     0.134 A 
ATOM     72  F   UNL     1     -12.688   5.581   8.764  1.00  0.00    -0.206 F 
ATOM     73  C   UNL     1     -12.658   7.879   9.149  1.00  0.00     0.040 A 
ATOM     74  C   UNL     1     -10.925   9.253   8.256  1.00  0.00     0.040 A 
ATOM     75  F   UNL     1      -9.324   8.420   6.858  1.00  0.00    -0.206 F 
ATOM     76  C   UNL     1     -12.095   9.137   8.983  1.00  0.00     0.006 A 
ENDBRANCH  55  69
BRANCH  56  77
ATOM     77  C   UNL     1     -11.942   8.950  -0.664  1.00  0.00     0.057 A 
ATOM     78  C   UNL     1     -13.179   9.524  -0.986  1.00  0.00     0.134 A 
ATOM     79  C   UNL     1     -10.809   9.742  -0.927  1.00  0.00     0.134 A 
ATOM     80  F   UNL     1     -14.320   8.868  -0.729  1.00  0.00    -0.206 F 
ATOM     81  C   UNL     1     -13.285  10.815  -1.525  1.00  0.00     0.040 A 
ATOM     82  C   UNL     1     -10.900  11.029  -1.468  1.00  0.00     0.040 A 
ATOM     83  F   UNL     1      -9.581   9.331  -0.583  1.00  0.00    -0.206 F 
ATOM     84  C   UNL     1     -12.143  11.575  -1.759  1.00  0.00     0.006 A 
ENDBRANCH  56  77
BRANCH  68  85
ATOM     85  C   UNL     1     -13.708   3.677   2.355  1.00  0.00     0.057 A 
ATOM     86  C   UNL     1     -12.886   3.282   1.289  1.00  0.00     0.134 A 
ATOM     87  C   UNL     1     -14.798   2.854   2.654  1.00  0.00     0.134 A 
ATOM     88  F   UNL     1     -11.768   3.957   0.991  1.00  0.00    -0.206 F 
ATOM     89  C   UNL     1     -13.150   2.129   0.542  1.00  0.00     0.040 A 
ATOM     90  C   UNL     1     -15.056   1.684   1.938  1.00  0.00     0.040 A 
ATOM     91  F   UNL     1     -15.593   3.141   3.697  1.00  0.00    -0.206 F 
ATOM     92  C   UNL     1     -14.232   1.319   0.875  1.00  0.00     0.006 A 
ENDBRANCH  68  85
ENDBRANCH  42  43
ENDBRANCH  35  37
ENDBRANCH  34  35
ENDBRANCH  33  34
ENDBRANCH  32  33
ENDBRANCH  31  32
ENDBRANCH  30  31
ENDBRANCH   1  30
TORSDOF 19
