REMARK SMILES O=C(OCCOCCOCCOC(=O)c1[nH]ncc1C[N@H+]1CCC[C@@H](C(=O)c2ccc(Oc3ccccc3)cc2)C1)c1ccc(-c2c3nc(c(-c4c(F)cccc4F)c4ccc([nH]4)c(-c4c(F)cccc4F)c4nc(c(-c5c(F)cccc5F)c5ccc2[nH]5)C=C4)C=C3)cc1
REMARK SMILES IDX 10 1 9 2 8 3 7 4 6 5 5 6 4 7 3 8 2 9 1 10 42 11 43 12 95 13
REMARK SMILES IDX 44 14 94 15 45 16 46 17 47 18 88 19 48 20 93 21 87 22 89 23
REMARK SMILES IDX 49 24 92 25 86 26 85 27 50 29 76 30 59 31 75 32 60 33 63 34
REMARK SMILES IDX 74 35 90 36 61 37 62 38 73 40 91 41 64 42 51 43 52 44 57 45
REMARK SMILES IDX 53 46 54 47 56 48 58 49 55 50 77 51 78 52 83 53 79 54 80 55
REMARK SMILES IDX 82 56 84 57 81 58 65 59 66 60 71 61 67 62 68 63 70 64 72 65
REMARK SMILES IDX 69 66 11 67 12 68 13 69 14 70 15 71 16 72 19 73 17 74 18 76
REMARK SMILES IDX 20 77 21 78 22 79 41 80 23 82 25 83 24 84 26 85 27 86 28 87
REMARK SMILES IDX 29 88 40 89 30 90 39 91 31 92 32 93 33 94 34 95 38 96 35 97
REMARK SMILES IDX 37 98 36 99
REMARK H PARENT 89 28 63 39 16 75 21 81
REMARK Flexibility Score: inf
ROOT
ATOM      1  C   UNL     1       3.966   4.694   0.602  1.00  0.00     0.202 C 
ENDROOT
BRANCH   1   2
ATOM      2  O   UNL     1       2.579   4.681   0.263  1.00  0.00    -0.376 OA
BRANCH   2   3
ATOM      3  C   UNL     1       1.907   3.420   0.326  1.00  0.00     0.188 C 
BRANCH   3   4
ATOM      4  C   UNL     1       2.395   2.402  -0.708  1.00  0.00     0.188 C 
BRANCH   4   5
ATOM      5  O   UNL     1       3.622   1.798  -0.266  1.00  0.00    -0.376 OA
BRANCH   5   6
ATOM      6  C   UNL     1       4.425   1.312  -1.347  1.00  0.00     0.202 C 
BRANCH   6   7
ATOM      7  C   UNL     1       4.194  -0.168  -1.676  1.00  0.00     0.261 C 
BRANCH   7   8
ATOM      8  O   UNL     1       2.827  -0.553  -1.457  1.00  0.00    -0.460 OA
BRANCH   8   9
ATOM      9  C   UNL     1       2.289  -1.078  -0.328  1.00  0.00     0.338 C 
ATOM     10  O   UNL     1       1.068  -1.197  -0.244  1.00  0.00    -0.246 OA
BRANCH   9  11
ATOM     11  C   UNL     1       3.121  -1.621   0.785  1.00  0.00     0.060 A 
ATOM     12  C   UNL     1       4.290  -1.029   1.262  1.00  0.00     0.016 A 
ATOM     13  C   UNL     1       2.645  -2.772   1.436  1.00  0.00     0.016 A 
ATOM     14  C   UNL     1       5.048  -1.650   2.255  1.00  0.00     0.010 A 
ATOM     15  C   UNL     1       3.362  -3.353   2.489  1.00  0.00     0.010 A 
ATOM     16  C   UNL     1       4.596  -2.821   2.875  1.00  0.00    -0.014 A 
BRANCH  16  17
ATOM     17  C   UNL     1       5.460  -3.486   3.884  1.00  0.00     0.031 A 
ATOM     18  C   UNL     1       6.134  -4.784   3.551  1.00  0.00     0.074 A 
ATOM     19  C   UNL     1       5.731  -2.868   5.050  1.00  0.00     0.049 A 
ATOM     20  N   UNL     1       6.998  -5.469   4.257  1.00  0.00    -0.248 NA
ATOM     21  C   UNL     1       5.808  -5.387   2.249  1.00  0.00     0.031 C 
ATOM     22  C   UNL     1       5.167  -1.586   5.461  1.00  0.00     0.029 A 
ATOM     23  N   UNL     1       6.572  -3.204   6.079  1.00  0.00    -0.354 N 
ATOM     24  C   UNL     1       7.333  -6.567   3.479  1.00  0.00     0.074 A 
ATOM     25  C   UNL     1       6.546  -6.487   2.267  1.00  0.00     0.031 C 
ATOM     26  C   UNL     1       5.704  -1.218   6.634  1.00  0.00     0.029 A 
ATOM     27  C   UNL     1       6.635  -2.251   7.068  1.00  0.00     0.049 A 
ATOM     28  H   UNL     1       7.082  -4.046   6.107  1.00  0.00     0.167 HD
ATOM     29  C   UNL     1       8.231  -7.546   3.739  1.00  0.00     0.037 A 
ATOM     30  C   UNL     1       7.371  -2.210   8.193  1.00  0.00     0.037 A 
ATOM     31  C   UNL     1       9.001  -7.639   4.949  1.00  0.00     0.049 A 
ATOM     32  C   UNL     1       8.313  -3.340   8.485  1.00  0.00     0.074 A 
ATOM     33  C   UNL     1       9.876  -8.635   5.345  1.00  0.00     0.029 A 
ATOM     34  N   UNL     1       8.991  -6.688   5.958  1.00  0.00    -0.354 N 
ATOM     35  N   UNL     1       8.579  -4.397   7.760  1.00  0.00    -0.248 NA
ATOM     36  C   UNL     1       9.051  -3.272   9.754  1.00  0.00     0.031 C 
ATOM     37  C   UNL     1      10.384  -8.293   6.605  1.00  0.00     0.029 A 
ATOM     38  C   UNL     1       9.842  -7.074   6.980  1.00  0.00     0.049 A 
ATOM     39  H   UNL     1       8.458  -5.861   5.950  1.00  0.00     0.167 HD
ATOM     40  C   UNL     1       9.512  -5.125   8.482  1.00  0.00     0.074 A 
ATOM     41  C   UNL     1       9.787  -4.373   9.691  1.00  0.00     0.031 C 
ATOM     42  C   UNL     1      10.085  -6.314   8.177  1.00  0.00     0.037 A 
BRANCH  29  43
ATOM     43  C   UNL     1       8.403  -8.595   2.685  1.00  0.00     0.057 A 
ATOM     44  C   UNL     1       9.143  -8.344   1.522  1.00  0.00     0.134 A 
ATOM     45  C   UNL     1       7.805  -9.853   2.818  1.00  0.00     0.134 A 
ATOM     46  F   UNL     1       9.717  -7.147   1.327  1.00  0.00    -0.206 F 
ATOM     47  C   UNL     1       9.266  -9.304   0.517  1.00  0.00     0.040 A 
ATOM     48  C   UNL     1       7.933 -10.826   1.825  1.00  0.00     0.040 A 
ATOM     49  F   UNL     1       7.077 -10.149   3.904  1.00  0.00    -0.206 F 
ATOM     50  C   UNL     1       8.661 -10.550   0.669  1.00  0.00     0.006 A 
ENDBRANCH  29  43
BRANCH  30  51
ATOM     51  C   UNL     1       7.256  -1.061   9.123  1.00  0.00     0.057 A 
ATOM     52  C   UNL     1       8.265  -0.097   9.214  1.00  0.00     0.134 A 
ATOM     53  C   UNL     1       6.143  -0.915   9.958  1.00  0.00     0.134 A 
ATOM     54  F   UNL     1       9.365  -0.198   8.454  1.00  0.00    -0.206 F 
ATOM     55  C   UNL     1       8.176   0.969  10.111  1.00  0.00     0.040 A 
ATOM     56  C   UNL     1       6.037   0.151  10.854  1.00  0.00     0.040 A 
ATOM     57  F   UNL     1       5.141  -1.804   9.911  1.00  0.00    -0.206 F 
ATOM     58  C   UNL     1       7.057   1.096  10.932  1.00  0.00     0.006 A 
ENDBRANCH  30  51
BRANCH  42  59
ATOM     59  C   UNL     1      11.046  -6.868   9.180  1.00  0.00     0.057 A 
ATOM     60  C   UNL     1      10.595  -7.490  10.350  1.00  0.00     0.134 A 
ATOM     61  C   UNL     1      12.427  -6.790   8.970  1.00  0.00     0.134 A 
ATOM     62  F   UNL     1       9.282  -7.578  10.610  1.00  0.00    -0.206 F 
ATOM     63  C   UNL     1      11.489  -8.002  11.290  1.00  0.00     0.040 A 
ATOM     64  C   UNL     1      13.331  -7.311   9.896  1.00  0.00     0.040 A 
ATOM     65  F   UNL     1      12.916  -6.204   7.867  1.00  0.00    -0.206 F 
ATOM     66  C   UNL     1      12.862  -7.916  11.061  1.00  0.00     0.006 A 
ENDBRANCH  42  59
ENDBRANCH  16  17
ENDBRANCH   9  11
ENDBRANCH   8   9
ENDBRANCH   7   8
ENDBRANCH   6   7
ENDBRANCH   5   6
ENDBRANCH   4   5
ENDBRANCH   3   4
ENDBRANCH   2   3
ENDBRANCH   1   2
BRANCH   1  67
ATOM     67  C   UNL     1       4.242   4.746   2.102  1.00  0.00     0.261 C 
BRANCH  67  68
ATOM     68  O   UNL     1       3.866   3.523   2.755  1.00  0.00    -0.459 OA
BRANCH  68  69
ATOM     69  C   UNL     1       2.885   3.640   3.688  1.00  0.00     0.356 C 
ATOM     70  O   UNL     1       2.275   4.659   3.969  1.00  0.00    -0.244 OA
BRANCH  69  71
ATOM     71  C   UNL     1       2.712   2.382   4.342  1.00  0.00     0.152 A 
ATOM     72  N   UNL     1       2.059   1.310   3.808  1.00  0.00    -0.271 N 
ATOM     73  C   UNL     1       3.099   2.004   5.618  1.00  0.00     0.059 A 
ATOM     74  N   UNL     1       1.965   0.267   4.647  1.00  0.00    -0.183 NA
ATOM     75  H   UNL     1       1.692   1.302   2.894  1.00  0.00     0.190 HD
ATOM     76  C   UNL     1       2.588   0.692   5.747  1.00  0.00     0.145 A 
BRANCH  73  77
ATOM     77  C   UNL     1       3.904   2.805   6.591  1.00  0.00     0.303 C 
BRANCH  77  78
ATOM     78  N   UNL     1       3.120   3.401   7.682  1.00  0.00    -0.330 N 
ATOM     79  C   UNL     1       2.081   4.327   7.220  1.00  0.00     0.262 C 
ATOM     80  C   UNL     1       2.595   2.396   8.606  1.00  0.00     0.274 C 
ATOM     81  H   UNL     1       3.780   3.973   8.208  1.00  0.00     0.348 HD
ATOM     82  C   UNL     1       1.395   5.008   8.405  1.00  0.00     0.062 C 
ATOM     83  C   UNL     1       1.906   2.993   9.835  1.00  0.00     0.116 C 
ATOM     84  C   UNL     1       0.827   3.990   9.391  1.00  0.00     0.023 C 
BRANCH  83  85
ATOM     85  C   UNL     1       1.279   1.969  10.791  1.00  0.00     0.171 C 
ATOM     86  O   UNL     1       0.892   2.292  11.914  1.00  0.00    -0.294 OA
BRANCH  85  87
ATOM     87  C   UNL     1       1.016   0.575  10.351  1.00  0.00     0.018 A 
ATOM     88  C   UNL     1      -0.299   0.109  10.331  1.00  0.00     0.015 A 
ATOM     89  C   UNL     1       2.058  -0.275   9.976  1.00  0.00     0.015 A 
ATOM     90  C   UNL     1      -0.569  -1.186   9.877  1.00  0.00     0.048 A 
ATOM     91  C   UNL     1       1.783  -1.551   9.483  1.00  0.00     0.048 A 
ATOM     92  C   UNL     1       0.467  -2.014   9.427  1.00  0.00     0.127 A 
BRANCH  92  93
ATOM     93  O   UNL     1       0.086  -3.271   9.005  1.00  0.00    -0.457 OA
BRANCH  93  94
ATOM     94  C   UNL     1       0.929  -3.950   8.160  1.00  0.00     0.127 A 
ATOM     95  C   UNL     1       0.637  -3.973   6.797  1.00  0.00     0.047 A 
ATOM     96  C   UNL     1       2.008  -4.680   8.664  1.00  0.00     0.047 A 
ATOM     97  C   UNL     1       1.459  -4.688   5.926  1.00  0.00     0.004 A 
ATOM     98  C   UNL     1       2.845  -5.370   7.787  1.00  0.00     0.004 A 
ATOM     99  C   UNL     1       2.571  -5.373   6.419  1.00  0.00     0.000 A 
ENDBRANCH  93  94
ENDBRANCH  92  93
ENDBRANCH  85  87
ENDBRANCH  83  85
ENDBRANCH  77  78
ENDBRANCH  73  77
ENDBRANCH  69  71
ENDBRANCH  68  69
ENDBRANCH  67  68
ENDBRANCH   1  67
TORSDOF 23
