REMARK SMILES CC(=O)N[C@@]1(C(=O)OCCOCCOCCOC(=O)c2ccc(-c3c4nc(c(-c5c(F)cccc5F)c5ccc([nH]5)c(-c5c(F)cccc5F)c5nc(c(-c6c(F)cccc6F)c6ccc3[nH]6)C=C5)C=C4)cc2)CCCc2ccccc21
REMARK SMILES IDX 13 1 12 2 11 3 10 4 9 5 8 6 6 7 7 8 5 9 74 10 82 11 75 12
REMARK SMILES IDX 77 13 81 14 76 15 78 16 80 17 79 18 4 19 1 20 2 21 3 22
REMARK SMILES IDX 14 24 15 25 16 26 17 27 18 28 19 29 20 30 21 31 73 32 22 33
REMARK SMILES IDX 72 34 23 35 24 36 25 37 66 38 26 39 71 40 65 41 67 42 27 43
REMARK SMILES IDX 70 44 64 45 63 46 28 48 54 49 37 50 53 51 38 52 41 53 52 54
REMARK SMILES IDX 68 55 39 56 40 57 51 59 69 60 42 61 29 62 30 63 35 64 31 65
REMARK SMILES IDX 32 66 34 67 36 68 33 69 55 70 56 71 61 72 57 73 58 74 60 75
REMARK SMILES IDX 62 76 59 77 43 78 44 79 49 80 45 81 46 82 48 83 50 84 47 85
REMARK H PARENT 4 23 67 47 41 58
REMARK Flexibility Score: inf
ROOT
ATOM      1  C   UNL     1      -1.748  -2.163   1.657  1.00  0.00     0.188 C 
ENDROOT
BRANCH   1   2
ATOM      2  C   UNL     1      -1.959  -1.925   3.151  1.00  0.00     0.188 C 
BRANCH   2   3
ATOM      3  O   UNL     1      -1.751  -0.617   3.683  1.00  0.00    -0.376 OA
BRANCH   3   4
ATOM      4  C   UNL     1      -1.611   0.483   2.796  1.00  0.00     0.202 C 
BRANCH   4   5
ATOM      5  C   UNL     1      -0.153   0.881   2.514  1.00  0.00     0.261 C 
BRANCH   5   6
ATOM      6  O   UNL     1       0.660  -0.118   1.863  1.00  0.00    -0.461 OA
BRANCH   6   7
ATOM      7  C   UNL     1       1.221  -1.027   2.711  1.00  0.00     0.336 C 
ATOM      8  O   UNL     1       0.950  -1.093   3.908  1.00  0.00    -0.249 OA
BRANCH   7   9
ATOM      9  C   UNL     1       2.317  -1.941   2.037  1.00  0.00     0.164 C 
ATOM     10  C   UNL     1       1.916  -3.425   2.208  1.00  0.00     0.046 C 
ATOM     11  C   UNL     1       3.579  -1.599   2.872  1.00  0.00    -0.008 A 
ATOM     12  C   UNL     1       1.998  -3.953   3.633  1.00  0.00     0.008 C 
ATOM     13  C   UNL     1       3.965  -2.399   3.969  1.00  0.00    -0.042 A 
ATOM     14  C   UNL     1       4.188  -0.332   2.717  1.00  0.00     0.007 A 
ATOM     15  C   UNL     1       3.388  -3.769   4.212  1.00  0.00     0.036 C 
ATOM     16  C   UNL     1       4.918  -1.914   4.879  1.00  0.00     0.004 A 
ATOM     17  C   UNL     1       5.131   0.134   3.631  1.00  0.00     0.000 A 
ATOM     18  C   UNL     1       5.482  -0.651   4.721  1.00  0.00     0.000 A 
BRANCH   9  19
ATOM     19  N   UNL     1       2.590  -1.646   0.595  1.00  0.00    -0.337 N 
ATOM     20  C   UNL     1       0.994  -3.041  -0.756  1.00  0.00     0.114 C 
ATOM     21  C   UNL     1       2.059  -1.995  -0.601  1.00  0.00     0.218 C 
ATOM     22  O   UNL     1       2.501  -1.420  -1.600  1.00  0.00    -0.275 OA
ATOM     23  H   UNL     1       3.358  -1.040   0.488  1.00  0.00     0.164 HD
ENDBRANCH   9  19
ENDBRANCH   7   9
ENDBRANCH   6   7
ENDBRANCH   5   6
ENDBRANCH   4   5
ENDBRANCH   3   4
ENDBRANCH   2   3
ENDBRANCH   1   2
BRANCH   1  24
ATOM     24  O   UNL     1      -2.801  -1.576   0.898  1.00  0.00    -0.376 OA
BRANCH  24  25
ATOM     25  C   UNL     1      -3.311  -2.419  -0.131  1.00  0.00     0.202 C 
BRANCH  25  26
ATOM     26  C   UNL     1      -4.446  -3.289   0.421  1.00  0.00     0.261 C 
BRANCH  26  27
ATOM     27  O   UNL     1      -4.030  -4.179   1.478  1.00  0.00    -0.460 OA
BRANCH  27  28
ATOM     28  C   UNL     1      -3.193  -5.177   1.118  1.00  0.00     0.338 C 
ATOM     29  O   UNL     1      -2.798  -5.423  -0.014  1.00  0.00    -0.246 OA
BRANCH  28  30
ATOM     30  C   UNL     1      -2.638  -5.811   2.334  1.00  0.00     0.060 A 
ATOM     31  C   UNL     1      -1.263  -6.079   2.371  1.00  0.00     0.016 A 
ATOM     32  C   UNL     1      -3.449  -6.157   3.418  1.00  0.00     0.016 A 
ATOM     33  C   UNL     1      -0.704  -6.720   3.478  1.00  0.00     0.010 A 
ATOM     34  C   UNL     1      -2.888  -6.811   4.521  1.00  0.00     0.010 A 
ATOM     35  C   UNL     1      -1.516  -7.114   4.549  1.00  0.00    -0.014 A 
BRANCH  35  36
ATOM     36  C   UNL     1      -0.962  -7.988   5.612  1.00  0.00     0.031 A 
ATOM     37  C   UNL     1      -1.080  -9.479   5.456  1.00  0.00     0.074 A 
ATOM     38  C   UNL     1      -0.334  -7.479   6.688  1.00  0.00     0.049 A 
ATOM     39  N   UNL     1      -0.740 -10.432   6.285  1.00  0.00    -0.248 NA
ATOM     40  C   UNL     1      -1.650  -9.956   4.186  1.00  0.00     0.031 C 
ATOM     41  C   UNL     1      -0.077  -6.062   6.929  1.00  0.00     0.029 A 
ATOM     42  N   UNL     1       0.199  -8.112   7.785  1.00  0.00    -0.354 N 
ATOM     43  C   UNL     1      -1.054 -11.621   5.639  1.00  0.00     0.074 A 
ATOM     44  C   UNL     1      -1.624 -11.269   4.356  1.00  0.00     0.031 C 
ATOM     45  C   UNL     1       0.551  -5.930   8.112  1.00  0.00     0.029 A 
ATOM     46  C   UNL     1       0.702  -7.249   8.727  1.00  0.00     0.049 A 
ATOM     47  H   UNL     1       0.217  -9.091   7.886  1.00  0.00     0.167 HD
ATOM     48  C   UNL     1      -0.886 -12.892   6.074  1.00  0.00     0.037 A 
ATOM     49  C   UNL     1       1.196  -7.495   9.958  1.00  0.00     0.037 A 
ATOM     50  C   UNL     1      -0.340 -13.251   7.355  1.00  0.00     0.049 A 
ATOM     51  C   UNL     1       1.259  -8.912  10.470  1.00  0.00     0.074 A 
ATOM     52  C   UNL     1      -0.154 -14.515   7.889  1.00  0.00     0.029 A 
ATOM     53  N   UNL     1       0.098 -12.346   8.308  1.00  0.00    -0.354 N 
ATOM     54  N   UNL     1       0.947 -10.030   9.860  1.00  0.00    -0.248 NA
ATOM     55  C   UNL     1       1.735  -9.099  11.850  1.00  0.00     0.031 C 
ATOM     56  C   UNL     1       0.355 -14.372   9.185  1.00  0.00     0.029 A 
ATOM     57  C   UNL     1       0.530 -13.021   9.438  1.00  0.00     0.049 A 
ATOM     58  H   UNL     1       0.101 -11.367   8.199  1.00  0.00     0.167 HD
ATOM     59  C   UNL     1       1.211 -11.049  10.770  1.00  0.00     0.074 A 
ATOM     60  C   UNL     1       1.721 -10.419  11.968  1.00  0.00     0.031 C 
ATOM     61  C   UNL     1       1.043 -12.386  10.624  1.00  0.00     0.037 A 
BRANCH  48  62
ATOM     62  C   UNL     1      -1.347 -13.989   5.164  1.00  0.00     0.057 A 
ATOM     63  C   UNL     1      -0.633 -14.343   4.013  1.00  0.00     0.134 A 
ATOM     64  C   UNL     1      -2.514 -14.707   5.451  1.00  0.00     0.134 A 
ATOM     65  F   UNL     1       0.483 -13.679   3.673  1.00  0.00    -0.206 F 
ATOM     66  C   UNL     1      -1.075 -15.361   3.167  1.00  0.00     0.040 A 
ATOM     67  C   UNL     1      -2.955 -15.741   4.625  1.00  0.00     0.040 A 
ATOM     68  F   UNL     1      -3.243 -14.415   6.539  1.00  0.00    -0.206 F 
ATOM     69  C   UNL     1      -2.237 -16.067   3.476  1.00  0.00     0.006 A 
ENDBRANCH  48  62
BRANCH  49  70
ATOM     70  C   UNL     1       1.631  -6.373  10.829  1.00  0.00     0.057 A 
ATOM     71  C   UNL     1       2.976  -6.204  11.180  1.00  0.00     0.134 A 
ATOM     72  C   UNL     1       0.705  -5.480  11.379  1.00  0.00     0.134 A 
ATOM     73  F   UNL     1       3.907  -7.049  10.712  1.00  0.00    -0.206 F 
ATOM     74  C   UNL     1       3.381  -5.199  12.060  1.00  0.00     0.040 A 
ATOM     75  C   UNL     1       1.099  -4.455  12.240  1.00  0.00     0.040 A 
ATOM     76  F   UNL     1      -0.600  -5.595  11.092  1.00  0.00    -0.206 F 
ATOM     77  C   UNL     1       2.440  -4.318  12.590  1.00  0.00     0.006 A 
ENDBRANCH  49  70
BRANCH  61  78
ATOM     78  C   UNL     1       1.445 -13.265  11.774  1.00  0.00     0.057 A 
ATOM     79  C   UNL     1       0.689 -13.338  12.950  1.00  0.00     0.134 A 
ATOM     80  C   UNL     1       2.580 -14.082  11.685  1.00  0.00     0.134 A 
ATOM     81  F   UNL     1      -0.403 -12.573  13.105  1.00  0.00    -0.206 F 
ATOM     82  C   UNL     1       1.057 -14.176  14.005  1.00  0.00     0.040 A 
ATOM     83  C   UNL     1       2.945 -14.943  12.722  1.00  0.00     0.040 A 
ATOM     84  F   UNL     1       3.344 -14.069  10.582  1.00  0.00    -0.206 F 
ATOM     85  C   UNL     1       2.185 -14.987  13.889  1.00  0.00     0.006 A 
ENDBRANCH  61  78
ENDBRANCH  35  36
ENDBRANCH  28  30
ENDBRANCH  27  28
ENDBRANCH  26  27
ENDBRANCH  25  26
ENDBRANCH  24  25
ENDBRANCH   1  24
TORSDOF 18
