REMARK SMILES C[C@@H]1[C@@H](C(=O)OCCOCCOCCOC(=O)c2ccc(-c3c4nc(c(-c5c(F)cccc5F)c5ccc([nH]5)c(-c5c(F)cccc5F)c5nc(c(-c6c(F)cccc6F)c6ccc3[nH]6)C=C5)C=C4)cc2)CCN1C(=O)N[C@@H](C)Cc1ccco1
REMARK SMILES IDX 10 1 9 2 8 3 7 4 6 5 4 6 5 7 3 8 1 9 2 10 74 11 72 12 73 13
REMARK SMILES IDX 75 14 76 15 77 16 78 18 79 19 80 20 81 21 82 22 85 23 83 24
REMARK SMILES IDX 84 25 11 26 12 27 13 28 14 29 15 30 16 31 17 32 18 33 19 34
REMARK SMILES IDX 71 35 20 36 70 37 21 38 22 39 23 40 64 41 24 42 69 43 63 44
REMARK SMILES IDX 65 45 25 46 68 47 62 48 61 49 26 51 52 52 35 53 51 54 36 55
REMARK SMILES IDX 39 56 50 57 66 58 37 59 38 60 49 62 67 63 40 64 27 65 28 66
REMARK SMILES IDX 33 67 29 68 30 69 32 70 34 71 31 72 53 73 54 74 59 75 55 76
REMARK SMILES IDX 56 77 58 78 60 79 57 80 41 81 42 82 47 83 43 84 44 85 46 86
REMARK SMILES IDX 48 87 45 88
REMARK H PARENT 77 17 65 50 39 61
REMARK Flexibility Score: inf
ROOT
ATOM      1  C   UNL     1       0.231   2.583  -3.480  1.00  0.00     0.188 C 
ENDROOT
BRANCH   1   2
ATOM      2  O   UNL     1      -0.738   2.863  -4.478  1.00  0.00    -0.376 OA
BRANCH   2   3
ATOM      3  C   UNL     1      -1.821   1.948  -4.591  1.00  0.00     0.202 C 
BRANCH   3   4
ATOM      4  C   UNL     1      -2.758   1.795  -3.387  1.00  0.00     0.261 C 
BRANCH   4   5
ATOM      5  O   UNL     1      -2.085   1.690  -2.123  1.00  0.00    -0.463 OA
BRANCH   5   6
ATOM      6  C   UNL     1      -1.835   0.450  -1.628  1.00  0.00     0.311 C 
ATOM      7  O   UNL     1      -2.152  -0.593  -2.177  1.00  0.00    -0.252 OA
BRANCH   6   8
ATOM      8  C   UNL     1      -1.099   0.578  -0.300  1.00  0.00     0.123 C 
ATOM      9  C   UNL     1       1.240   0.396   0.631  1.00  0.00     0.032 C 
ATOM     10  C   UNL     1       0.203  -0.236  -0.309  1.00  0.00     0.098 C 
ATOM     11  N   UNL     1      -0.201  -1.558   0.173  1.00  0.00    -0.321 N 
ATOM     12  C   UNL     1      -1.894  -0.018   0.850  1.00  0.00     0.039 C 
ATOM     13  C   UNL     1      -1.510  -1.487   0.815  1.00  0.00     0.122 C 
BRANCH  11  14
ATOM     14  C   UNL     1       0.303  -2.795  -0.067  1.00  0.00     0.317 C 
ATOM     15  O   UNL     1      -0.290  -3.811   0.315  1.00  0.00    -0.249 OA
ATOM     16  N   UNL     1       1.444  -3.025  -0.732  1.00  0.00    -0.335 N 
ATOM     17  H   UNL     1       1.560  -3.983  -0.926  1.00  0.00     0.165 HD
BRANCH  16  18
ATOM     18  C   UNL     1       2.563  -2.239  -1.248  1.00  0.00     0.088 C 
ATOM     19  C   UNL     1       3.808  -2.571  -0.420  1.00  0.00     0.031 C 
BRANCH  18  20
ATOM     20  C   UNL     1       2.840  -2.543  -2.727  1.00  0.00     0.100 C 
BRANCH  20  21
ATOM     21  C   UNL     1       1.709  -2.211  -3.627  1.00  0.00     0.105 A 
ATOM     22  C   UNL     1       0.644  -2.942  -4.110  1.00  0.00     0.045 A 
ATOM     23  O   UNL     1       1.692  -0.953  -4.149  1.00  0.00    -0.469 OA
ATOM     24  C   UNL     1      -0.064  -2.083  -4.981  1.00  0.00     0.042 A 
ATOM     25  C   UNL     1       0.625  -0.894  -4.986  1.00  0.00     0.195 A 
ENDBRANCH  20  21
ENDBRANCH  18  20
ENDBRANCH  16  18
ENDBRANCH  11  14
ENDBRANCH   6   8
ENDBRANCH   5   6
ENDBRANCH   4   5
ENDBRANCH   3   4
ENDBRANCH   2   3
ENDBRANCH   1   2
BRANCH   1  26
ATOM     26  C   UNL     1       0.207   3.561  -2.286  1.00  0.00     0.188 C 
BRANCH  26  27
ATOM     27  O   UNL     1      -0.768   4.591  -2.224  1.00  0.00    -0.376 OA
BRANCH  27  28
ATOM     28  C   UNL     1      -0.957   5.424  -3.363  1.00  0.00     0.202 C 
BRANCH  28  29
ATOM     29  C   UNL     1       0.249   6.183  -3.938  1.00  0.00     0.261 C 
BRANCH  29  30
ATOM     30  O   UNL     1       1.407   5.369  -4.189  1.00  0.00    -0.460 OA
BRANCH  30  31
ATOM     31  C   UNL     1       2.499   5.679  -3.446  1.00  0.00     0.338 C 
ATOM     32  O   UNL     1       2.619   6.587  -2.642  1.00  0.00    -0.246 OA
BRANCH  31  33
ATOM     33  C   UNL     1       3.526   4.630  -3.601  1.00  0.00     0.060 A 
ATOM     34  C   UNL     1       3.906   3.908  -2.461  1.00  0.00     0.016 A 
ATOM     35  C   UNL     1       4.169   4.421  -4.821  1.00  0.00     0.016 A 
ATOM     36  C   UNL     1       4.948   2.986  -2.532  1.00  0.00     0.010 A 
ATOM     37  C   UNL     1       5.237   3.519  -4.883  1.00  0.00     0.010 A 
ATOM     38  C   UNL     1       5.648   2.822  -3.733  1.00  0.00    -0.014 A 
BRANCH  38  39
ATOM     39  C   UNL     1       6.922   2.066  -3.735  1.00  0.00     0.031 A 
ATOM     40  C   UNL     1       8.203   2.815  -3.498  1.00  0.00     0.074 A 
ATOM     41  C   UNL     1       6.944   0.736  -3.927  1.00  0.00     0.049 A 
ATOM     42  N   UNL     1       9.435   2.376  -3.510  1.00  0.00    -0.248 NA
ATOM     43  C   UNL     1       8.076   4.253  -3.214  1.00  0.00     0.031 C 
ATOM     44  C   UNL     1       5.769  -0.105  -4.138  1.00  0.00     0.029 A 
ATOM     45  N   UNL     1       8.001  -0.138  -3.985  1.00  0.00    -0.354 N 
ATOM     46  C   UNL     1      10.230   3.483  -3.245  1.00  0.00     0.074 A 
ATOM     47  C   UNL     1       9.344   4.617  -3.091  1.00  0.00     0.031 C 
ATOM     48  C   UNL     1       6.173  -1.376  -4.311  1.00  0.00     0.029 A 
ATOM     49  C   UNL     1       7.630  -1.434  -4.242  1.00  0.00     0.049 A 
ATOM     50  H   UNL     1       8.937   0.140  -3.853  1.00  0.00     0.167 HD
ATOM     51  C   UNL     1      11.578   3.550  -3.142  1.00  0.00     0.037 A 
ATOM     52  C   UNL     1       8.382  -2.537  -4.420  1.00  0.00     0.037 A 
ATOM     53  C   UNL     1      12.462   2.429  -3.313  1.00  0.00     0.049 A 
ATOM     54  C   UNL     1       9.883  -2.424  -4.362  1.00  0.00     0.074 A 
ATOM     55  C   UNL     1      13.844   2.401  -3.244  1.00  0.00     0.029 A 
ATOM     56  N   UNL     1      12.048   1.136  -3.593  1.00  0.00    -0.354 N 
ATOM     57  N   UNL     1      10.624  -1.373  -4.109  1.00  0.00    -0.248 NA
ATOM     58  C   UNL     1      10.650  -3.649  -4.632  1.00  0.00     0.031 C 
ATOM     59  C   UNL     1      14.268   1.096  -3.518  1.00  0.00     0.029 A 
ATOM     60  C   UNL     1      13.148   0.304  -3.716  1.00  0.00     0.049 A 
ATOM     61  H   UNL     1      11.110   0.852  -3.691  1.00  0.00     0.167 HD
ATOM     62  C   UNL     1      11.941  -1.812  -4.170  1.00  0.00     0.074 A 
ATOM     63  C   UNL     1      11.897  -3.229  -4.466  1.00  0.00     0.031 C 
ATOM     64  C   UNL     1      13.085  -1.105  -4.001  1.00  0.00     0.037 A 
BRANCH  51  65
ATOM     65  C   UNL     1      12.176   4.896  -2.863  1.00  0.00     0.057 A 
ATOM     66  C   UNL     1      12.094   5.489  -1.597  1.00  0.00     0.134 A 
ATOM     67  C   UNL     1      12.856   5.597  -3.866  1.00  0.00     0.134 A 
ATOM     68  F   UNL     1      11.439   4.876  -0.600  1.00  0.00    -0.206 F 
ATOM     69  C   UNL     1      12.653   6.743  -1.344  1.00  0.00     0.040 A 
ATOM     70  C   UNL     1      13.438   6.841  -3.619  1.00  0.00     0.040 A 
ATOM     71  F   UNL     1      12.968   5.082  -5.100  1.00  0.00    -0.206 F 
ATOM     72  C   UNL     1      13.333   7.419  -2.356  1.00  0.00     0.006 A 
ENDBRANCH  51  65
BRANCH  52  73
ATOM     73  C   UNL     1       7.740  -3.849  -4.686  1.00  0.00     0.057 A 
ATOM     74  C   UNL     1       7.796  -4.884  -3.745  1.00  0.00     0.134 A 
ATOM     75  C   UNL     1       7.086  -4.113  -5.896  1.00  0.00     0.134 A 
ATOM     76  F   UNL     1       8.429  -4.700  -2.577  1.00  0.00    -0.206 F 
ATOM     77  C   UNL     1       7.242  -6.140  -4.003  1.00  0.00     0.040 A 
ATOM     78  C   UNL     1       6.504  -5.355  -6.157  1.00  0.00     0.040 A 
ATOM     79  F   UNL     1       6.998  -3.164  -6.839  1.00  0.00    -0.206 F 
ATOM     80  C   UNL     1       6.590  -6.376  -5.212  1.00  0.00     0.006 A 
ENDBRANCH  52  73
BRANCH  64  81
ATOM     81  C   UNL     1      14.378  -1.857  -4.100  1.00  0.00     0.057 A 
ATOM     82  C   UNL     1      14.889  -2.288  -5.331  1.00  0.00     0.134 A 
ATOM     83  C   UNL     1      15.142  -2.115  -2.954  1.00  0.00     0.134 A 
ATOM     84  F   UNL     1      14.199  -2.083  -6.463  1.00  0.00    -0.206 F 
ATOM     85  C   UNL     1      16.106  -2.966  -5.416  1.00  0.00     0.040 A 
ATOM     86  C   UNL     1      16.371  -2.771  -3.030  1.00  0.00     0.040 A 
ATOM     87  F   UNL     1      14.711  -1.721  -1.746  1.00  0.00    -0.206 F 
ATOM     88  C   UNL     1      16.854  -3.203  -4.264  1.00  0.00     0.006 A 
ENDBRANCH  64  81
ENDBRANCH  38  39
ENDBRANCH  31  33
ENDBRANCH  30  31
ENDBRANCH  29  30
ENDBRANCH  28  29
ENDBRANCH  27  28
ENDBRANCH  26  27
ENDBRANCH   1  26
TORSDOF 21
