REMARK SMILES O=C(OCCOCCOCCOC(=O)c1ccc(-n2cc(CSc3nc4ccccc4c(=O)n3-c3ccc(Br)cc3)nn2)cc1)c1ccc(-c2c3nc(c(-c4c(F)cccc4F)c4ccc([nH]4)c(-c4c(F)cccc4F)c4nc(c(-c5c(F)cccc5F)c5ccc2[nH]5)C=C4)C=C3)cc1
REMARK SMILES IDX 9 1 8 2 7 3 6 4 5 5 4 6 3 7 2 8 1 9 46 10 47 11 99 12 48 13
REMARK SMILES IDX 98 14 49 15 50 16 51 17 92 18 52 19 97 20 91 21 93 22 53 23
REMARK SMILES IDX 96 24 90 25 89 26 54 28 80 29 63 30 79 31 64 32 67 33 78 34
REMARK SMILES IDX 94 35 65 36 66 37 77 39 95 40 68 41 55 42 56 43 61 44 57 45
REMARK SMILES IDX 58 46 60 47 62 48 59 49 81 50 82 51 87 52 83 53 84 54 86 55
REMARK SMILES IDX 88 56 85 57 69 58 70 59 75 60 71 61 72 62 74 63 76 64 73 65
REMARK SMILES IDX 10 66 11 67 12 68 13 69 14 70 15 71 16 72 45 73 17 74 44 75
REMARK SMILES IDX 18 76 19 77 20 78 43 79 21 80 42 81 22 82 23 83 24 84 25 85
REMARK SMILES IDX 34 86 26 87 32 88 27 89 31 90 33 91 28 92 30 93 29 94 35 95
REMARK SMILES IDX 36 96 41 97 37 98 40 99 38 100 39 101
REMARK H PARENT 93 27 67 38
REMARK Flexibility Score: inf
ROOT
ATOM      1  O   UNL     1       3.021   2.763   2.216  1.00  0.00    -0.376 OA
ENDROOT
BRANCH   1   2
ATOM      2  C   UNL     1       2.499   1.461   1.988  1.00  0.00     0.188 C 
BRANCH   2   3
ATOM      3  C   UNL     1       3.447   0.270   1.742  1.00  0.00     0.188 C 
BRANCH   3   4
ATOM      4  O   UNL     1       4.752   0.649   1.331  1.00  0.00    -0.376 OA
BRANCH   4   5
ATOM      5  C   UNL     1       5.160   0.162   0.067  1.00  0.00     0.202 C 
BRANCH   5   6
ATOM      6  C   UNL     1       4.583   0.959  -1.102  1.00  0.00     0.261 C 
BRANCH   6   7
ATOM      7  O   UNL     1       3.164   1.206  -1.049  1.00  0.00    -0.460 OA
BRANCH   7   8
ATOM      8  C   UNL     1       2.116   0.469  -1.458  1.00  0.00     0.338 C 
ATOM      9  O   UNL     1       1.046   1.021  -1.703  1.00  0.00    -0.246 OA
BRANCH   8  10
ATOM     10  C   UNL     1       2.134  -1.014  -1.437  1.00  0.00     0.060 A 
ATOM     11  C   UNL     1       3.214  -1.800  -1.834  1.00  0.00     0.016 A 
ATOM     12  C   UNL     1       0.923  -1.641  -1.082  1.00  0.00     0.016 A 
ATOM     13  C   UNL     1       3.071  -3.181  -1.931  1.00  0.00     0.010 A 
ATOM     14  C   UNL     1       0.772  -3.019  -1.194  1.00  0.00     0.010 A 
ATOM     15  C   UNL     1       1.833  -3.780  -1.680  1.00  0.00    -0.014 A 
BRANCH  15  16
ATOM     16  C   UNL     1       1.670  -5.168  -2.109  1.00  0.00     0.031 A 
ATOM     17  C   UNL     1       2.416  -6.237  -1.391  1.00  0.00     0.074 A 
ATOM     18  C   UNL     1       0.856  -5.495  -3.134  1.00  0.00     0.049 A 
ATOM     19  N   UNL     1       3.286  -7.071  -1.871  1.00  0.00    -0.248 NA
ATOM     20  C   UNL     1       2.160  -6.398   0.046  1.00  0.00     0.031 C 
ATOM     21  C   UNL     1      -0.154  -4.657  -3.787  1.00  0.00     0.029 A 
ATOM     22  N   UNL     1       0.713  -6.702  -3.755  1.00  0.00    -0.354 N 
ATOM     23  C   UNL     1       3.568  -7.972  -0.845  1.00  0.00     0.074 A 
ATOM     24  C   UNL     1       2.907  -7.466   0.333  1.00  0.00     0.031 C 
ATOM     25  C   UNL     1      -0.941  -5.435  -4.561  1.00  0.00     0.029 A 
ATOM     26  C   UNL     1      -0.406  -6.785  -4.565  1.00  0.00     0.049 A 
ATOM     27  H   UNL     1       1.347  -7.446  -3.637  1.00  0.00     0.167 HD
ATOM     28  C   UNL     1       4.195  -9.162  -1.061  1.00  0.00     0.037 A 
ATOM     29  C   UNL     1      -0.905  -7.895  -5.154  1.00  0.00     0.037 A 
ATOM     30  C   UNL     1       4.915  -9.190  -2.303  1.00  0.00     0.049 A 
ATOM     31  C   UNL     1       0.171  -8.908  -5.232  1.00  0.00     0.074 A 
ATOM     32  C   UNL     1       5.962  -8.472  -2.845  1.00  0.00     0.029 A 
ATOM     33  N   UNL     1       4.415  -9.940  -3.336  1.00  0.00    -0.354 N 
ATOM     34  N   UNL     1       1.209  -8.830  -6.017  1.00  0.00    -0.248 NA
ATOM     35  C   UNL     1       0.274  -9.884  -4.158  1.00  0.00     0.031 C 
ATOM     36  C   UNL     1       5.727  -8.468  -4.251  1.00  0.00     0.029 A 
ATOM     37  C   UNL     1       4.548  -9.181  -4.469  1.00  0.00     0.049 A 
ATOM     38  H   UNL     1       4.036 -10.847  -3.276  1.00  0.00     0.167 HD
ATOM     39  C   UNL     1       2.233  -9.444  -5.314  1.00  0.00     0.074 A 
ATOM     40  C   UNL     1       1.572 -10.180  -4.243  1.00  0.00     0.031 C 
ATOM     41  C   UNL     1       3.536  -9.079  -5.494  1.00  0.00     0.037 A 
BRANCH  28  42
ATOM     42  C   UNL     1       3.940 -10.415  -0.262  1.00  0.00     0.057 A 
ATOM     43  C   UNL     1       4.814 -11.514  -0.370  1.00  0.00     0.134 A 
ATOM     44  C   UNL     1       2.721 -10.680   0.392  1.00  0.00     0.134 A 
ATOM     45  F   UNL     1       5.990 -11.399  -1.005  1.00  0.00    -0.206 F 
ATOM     46  C   UNL     1       4.480 -12.789   0.103  1.00  0.00     0.040 A 
ATOM     47  C   UNL     1       2.399 -11.937   0.912  1.00  0.00     0.040 A 
ATOM     48  F   UNL     1       1.750  -9.761   0.474  1.00  0.00    -0.206 F 
ATOM     49  C   UNL     1       3.268 -13.005   0.747  1.00  0.00     0.006 A 
ENDBRANCH  28  42
BRANCH  29  50
ATOM     50  C   UNL     1      -2.325  -8.205  -5.415  1.00  0.00     0.057 A 
ATOM     51  C   UNL     1      -2.707  -9.168  -6.356  1.00  0.00     0.134 A 
ATOM     52  C   UNL     1      -3.343  -7.725  -4.569  1.00  0.00     0.134 A 
ATOM     53  F   UNL     1      -1.797  -9.723  -7.169  1.00  0.00    -0.206 F 
ATOM     54  C   UNL     1      -4.027  -9.627  -6.451  1.00  0.00     0.040 A 
ATOM     55  C   UNL     1      -4.665  -8.165  -4.662  1.00  0.00     0.040 A 
ATOM     56  F   UNL     1      -3.070  -6.872  -3.571  1.00  0.00    -0.206 F 
ATOM     57  C   UNL     1      -5.010  -9.128  -5.600  1.00  0.00     0.006 A 
ENDBRANCH  29  50
BRANCH  41  58
ATOM     58  C   UNL     1       3.868  -8.223  -6.681  1.00  0.00     0.057 A 
ATOM     59  C   UNL     1       3.416  -6.904  -6.827  1.00  0.00     0.134 A 
ATOM     60  C   UNL     1       4.802  -8.684  -7.616  1.00  0.00     0.134 A 
ATOM     61  F   UNL     1       2.606  -6.347  -5.917  1.00  0.00    -0.206 F 
ATOM     62  C   UNL     1       3.841  -6.095  -7.884  1.00  0.00     0.040 A 
ATOM     63  C   UNL     1       5.258  -7.875  -8.660  1.00  0.00     0.040 A 
ATOM     64  F   UNL     1       5.328  -9.914  -7.499  1.00  0.00    -0.206 F 
ATOM     65  C   UNL     1       4.770  -6.578  -8.802  1.00  0.00     0.006 A 
ENDBRANCH  41  58
ENDBRANCH  15  16
ENDBRANCH   8  10
ENDBRANCH   7   8
ENDBRANCH   6   7
ENDBRANCH   5   6
ENDBRANCH   4   5
ENDBRANCH   3   4
ENDBRANCH   2   3
ENDBRANCH   1   2
BRANCH   1  66
ATOM     66  C   UNL     1       4.222   2.920   2.956  1.00  0.00     0.202 C 
BRANCH  66  67
ATOM     67  C   UNL     1       4.218   2.453   4.414  1.00  0.00     0.261 C 
BRANCH  67  68
ATOM     68  O   UNL     1       3.878   1.066   4.577  1.00  0.00    -0.460 OA
BRANCH  68  69
ATOM     69  C   UNL     1       2.767   0.824   5.312  1.00  0.00     0.338 C 
ATOM     70  O   UNL     1       2.066   1.626   5.896  1.00  0.00    -0.246 OA
BRANCH  69  71
ATOM     71  C   UNL     1       2.445  -0.613   5.270  1.00  0.00     0.060 A 
ATOM     72  C   UNL     1       1.352  -1.043   4.506  1.00  0.00     0.018 A 
ATOM     73  C   UNL     1       3.115  -1.495   6.116  1.00  0.00     0.018 A 
ATOM     74  C   UNL     1       0.897  -2.356   4.610  1.00  0.00     0.029 A 
ATOM     75  C   UNL     1       2.617  -2.789   6.278  1.00  0.00     0.029 A 
ATOM     76  C   UNL     1       1.476  -3.198   5.562  1.00  0.00     0.066 A 
BRANCH  76  77
ATOM     77  N   UNL     1       0.773  -4.365   5.937  1.00  0.00    -0.220 N 
ATOM     78  C   UNL     1       0.750  -4.932   7.185  1.00  0.00     0.141 A 
ATOM     79  N   UNL     1      -0.144  -4.975   5.149  1.00  0.00    -0.062 NA
ATOM     80  C   UNL     1      -0.320  -5.801   7.161  1.00  0.00     0.093 A 
ATOM     81  N   UNL     1      -0.802  -5.864   5.885  1.00  0.00    -0.134 NA
BRANCH  80  82
ATOM     82  C   UNL     1      -0.812  -6.668   8.248  1.00  0.00     0.138 C 
BRANCH  82  83
ATOM     83  S   UNL     1      -2.334  -6.330   9.130  1.00  0.00    -0.081 SA
BRANCH  83  84
ATOM     84  C   UNL     1      -3.052  -4.811   8.654  1.00  0.00     0.176 A 
ATOM     85  N   UNL     1      -4.338  -4.924   8.491  1.00  0.00    -0.223 NA
ATOM     86  N   UNL     1      -2.386  -3.595   8.512  1.00  0.00    -0.255 N 
ATOM     87  C   UNL     1      -5.072  -3.795   8.119  1.00  0.00     0.079 A 
ATOM     88  C   UNL     1      -2.967  -2.729   7.572  1.00  0.00     0.266 A 
ATOM     89  C   UNL     1      -6.460  -3.767   8.260  1.00  0.00     0.029 A 
ATOM     90  C   UNL     1      -4.436  -2.701   7.554  1.00  0.00     0.066 A 
ATOM     91  O   UNL     1      -2.373  -2.018   6.764  1.00  0.00    -0.268 OA
ATOM     92  C   UNL     1      -7.196  -2.666   7.805  1.00  0.00     0.002 A 
ATOM     93  C   UNL     1      -5.158  -1.608   7.061  1.00  0.00     0.016 A 
ATOM     94  C   UNL     1      -6.546  -1.596   7.187  1.00  0.00     0.001 A 
BRANCH  86  95
ATOM     95  C   UNL     1      -1.188  -3.157   9.214  1.00  0.00     0.051 A 
ATOM     96  C   UNL     1      -0.628  -1.884   8.969  1.00  0.00     0.028 A 
ATOM     97  C   UNL     1      -0.553  -3.903  10.219  1.00  0.00     0.028 A 
ATOM     98  C   UNL     1       0.577  -1.463   9.544  1.00  0.00     0.018 A 
ATOM     99  C   UNL     1       0.676  -3.510  10.776  1.00  0.00     0.018 A 
ATOM    100  C   UNL     1       1.252  -2.304  10.409  1.00  0.00     0.018 A 
ATOM    101  Br  UNL     1       2.942  -1.811  11.084  1.00  0.00    -0.051 Br
ENDBRANCH  86  95
ENDBRANCH  83  84
ENDBRANCH  82  83
ENDBRANCH  80  82
ENDBRANCH  76  77
ENDBRANCH  69  71
ENDBRANCH  68  69
ENDBRANCH  67  68
ENDBRANCH  66  67
ENDBRANCH   1  66
TORSDOF 22
