REMARK SMILES COc1ccc(CCc2nnc(NC(=O)[C@@H]3[C@@H](C(=O)OCCOCCOCCOC(=O)c4ccc(-c5c6nc(c(-c7c(F)cccc7F)c7ccc([nH]7)c(-c7c(F)cccc7F)c7nc(c(-c8c(F)cccc8F)c8ccc5[nH]8)C=C7)C=C6)cc4)C3(C)C)s2)cc1
REMARK SMILES IDX 22 1 21 2 20 3 18 4 19 5 17 6 16 7 86 8 87 9 88 10 14 11
REMARK SMILES IDX 13 12 15 14 12 15 9 16 10 17 89 18 11 19 8 20 7 21 6 22 3 23
REMARK SMILES IDX 4 24 91 25 5 26 90 27 2 28 1 29 23 30 24 31 25 32 26 33
REMARK SMILES IDX 27 34 28 35 29 36 30 37 31 38 32 39 33 40 85 41 34 42 84 43
REMARK SMILES IDX 35 44 36 45 37 46 78 47 38 48 83 49 77 50 79 51 39 52 82 53
REMARK SMILES IDX 76 54 75 55 40 57 66 58 49 59 65 60 50 61 53 62 64 63 80 64
REMARK SMILES IDX 51 65 52 66 63 68 81 69 54 70 41 71 42 72 47 73 43 74 44 75
REMARK SMILES IDX 46 76 48 77 45 78 67 79 68 80 73 81 69 82 70 83 72 84 74 85
REMARK SMILES IDX 71 86 55 87 56 88 61 89 57 90 58 91 60 92 62 93 59 94
REMARK H PARENT 13 13 79 56 53 67
REMARK Flexibility Score: inf
ROOT
ATOM      1  C   UNL     1      -0.657   6.652  -2.402  1.00  0.00     0.202 C 
ENDROOT
BRANCH   1   2
ATOM      2  C   UNL     1      -1.515   6.828  -3.662  1.00  0.00     0.261 C 
BRANCH   2   3
ATOM      3  O   UNL     1      -2.294   5.665  -3.997  1.00  0.00    -0.463 OA
BRANCH   3   4
ATOM      4  C   UNL     1      -2.152   5.223  -5.270  1.00  0.00     0.310 C 
ATOM      5  O   UNL     1      -1.485   5.766  -6.143  1.00  0.00    -0.252 OA
BRANCH   4   6
ATOM      6  C   UNL     1      -2.760   3.900  -5.556  1.00  0.00     0.118 C 
ATOM      7  C   UNL     1      -4.204   3.935  -6.004  1.00  0.00     0.100 C 
ATOM      8  C   UNL     1      -3.806   3.014  -4.877  1.00  0.00    -0.009 C 
ATOM      9  C   UNL     1      -4.513   3.338  -3.576  1.00  0.00     0.013 C 
ATOM     10  C   UNL     1      -3.681   1.525  -5.114  1.00  0.00     0.013 C 
BRANCH   7  11
ATOM     11  C   UNL     1      -4.491   3.613  -7.425  1.00  0.00     0.230 C 
ATOM     12  N   UNL     1      -5.060   4.594  -8.207  1.00  0.00    -0.300 N 
ATOM     13  H   UNL     1      -5.424   4.338  -9.085  1.00  0.00     0.172 HD
ATOM     14  O   UNL     1      -4.304   2.485  -7.871  1.00  0.00    -0.274 OA
BRANCH  12  15
ATOM     15  C   UNL     1      -5.145   5.905  -7.827  1.00  0.00     0.212 A 
ATOM     16  C   UNL     1      -6.051   8.021  -7.324  1.00  0.00     0.119 A 
ATOM     17  N   UNL     1      -4.975   7.765  -6.614  1.00  0.00    -0.142 NA
ATOM     18  S   UNL     1      -6.381   6.838  -8.541  1.00  0.00    -0.080 S 
ATOM     19  N   UNL     1      -4.454   6.533  -6.907  1.00  0.00    -0.120 NA
BRANCH  16  20
ATOM     20  C   UNL     1      -6.941   9.194  -7.078  1.00  0.00     0.074 C 
BRANCH  20  21
ATOM     21  C   UNL     1      -8.200   8.836  -6.272  1.00  0.00     0.043 C 
BRANCH  21  22
ATOM     22  C   UNL     1      -7.971   8.407  -4.837  1.00  0.00    -0.047 A 
ATOM     23  C   UNL     1      -7.628   7.587  -2.164  1.00  0.00     0.118 A 
ATOM     24  C   UNL     1      -7.389   6.696  -3.207  1.00  0.00     0.046 A 
ATOM     25  C   UNL     1      -8.002   8.899  -2.450  1.00  0.00     0.046 A 
ATOM     26  C   UNL     1      -7.578   7.096  -4.532  1.00  0.00     0.007 A 
ATOM     27  C   UNL     1      -8.171   9.306  -3.780  1.00  0.00     0.007 A 
BRANCH  23  28
ATOM     28  O   UNL     1      -7.408   7.116  -0.899  1.00  0.00    -0.497 OA
ATOM     29  C   UNL     1      -8.463   7.417   0.011  1.00  0.00     0.278 C 
ENDBRANCH  23  28
ENDBRANCH  21  22
ENDBRANCH  20  21
ENDBRANCH  16  20
ENDBRANCH  12  15
ENDBRANCH   7  11
ENDBRANCH   4   6
ENDBRANCH   3   4
ENDBRANCH   2   3
ENDBRANCH   1   2
BRANCH   1  30
ATOM     30  O   UNL     1       0.302   5.596  -2.373  1.00  0.00    -0.376 OA
BRANCH  30  31
ATOM     31  C   UNL     1      -0.114   4.265  -2.664  1.00  0.00     0.188 C 
BRANCH  31  32
ATOM     32  C   UNL     1      -1.430   3.745  -2.064  1.00  0.00     0.188 C 
BRANCH  32  33
ATOM     33  O   UNL     1      -2.045   4.628  -1.157  1.00  0.00    -0.376 OA
BRANCH  33  34
ATOM     34  C   UNL     1      -2.012   4.344   0.227  1.00  0.00     0.202 C 
BRANCH  34  35
ATOM     35  C   UNL     1      -0.738   3.827   0.916  1.00  0.00     0.261 C 
BRANCH  35  36
ATOM     36  O   UNL     1       0.098   2.932   0.171  1.00  0.00    -0.460 OA
BRANCH  36  37
ATOM     37  C   UNL     1      -0.266   1.629   0.123  1.00  0.00     0.338 C 
ATOM     38  O   UNL     1      -1.245   1.114   0.628  1.00  0.00    -0.246 OA
BRANCH  37  39
ATOM     39  C   UNL     1       0.643   0.967  -0.839  1.00  0.00     0.060 A 
ATOM     40  C   UNL     1       0.114   0.416  -2.014  1.00  0.00     0.016 A 
ATOM     41  C   UNL     1       2.019   0.932  -0.598  1.00  0.00     0.016 A 
ATOM     42  C   UNL     1       0.963  -0.179  -2.950  1.00  0.00     0.010 A 
ATOM     43  C   UNL     1       2.863   0.316  -1.524  1.00  0.00     0.010 A 
ATOM     44  C   UNL     1       2.338  -0.257  -2.696  1.00  0.00    -0.014 A 
BRANCH  44  45
ATOM     45  C   UNL     1       3.222  -1.056  -3.576  1.00  0.00     0.031 A 
ATOM     46  C   UNL     1       3.552  -2.465  -3.178  1.00  0.00     0.074 A 
ATOM     47  C   UNL     1       3.749  -0.530  -4.694  1.00  0.00     0.049 A 
ATOM     48  N   UNL     1       4.377  -3.315  -3.732  1.00  0.00    -0.248 NA
ATOM     49  C   UNL     1       2.859  -2.981  -1.988  1.00  0.00     0.031 C 
ATOM     50  C   UNL     1       3.485   0.814  -5.202  1.00  0.00     0.029 A 
ATOM     51  N   UNL     1       4.641  -1.064  -5.591  1.00  0.00    -0.354 N 
ATOM     52  C   UNL     1       4.305  -4.466  -2.959  1.00  0.00     0.074 A 
ATOM     53  C   UNL     1       3.380  -4.194  -1.879  1.00  0.00     0.031 C 
ATOM     54  C   UNL     1       4.226   1.013  -6.306  1.00  0.00     0.029 A 
ATOM     55  C   UNL     1       5.038  -0.177  -6.561  1.00  0.00     0.049 A 
ATOM     56  H   UNL     1       4.964  -1.993  -5.544  1.00  0.00     0.167 HD
ATOM     57  C   UNL     1       4.947  -5.645  -3.136  1.00  0.00     0.037 A 
ATOM     58  C   UNL     1       5.976  -0.299  -7.520  1.00  0.00     0.037 A 
ATOM     59  C   UNL     1       5.883  -5.906  -4.197  1.00  0.00     0.049 A 
ATOM     60  C   UNL     1       6.744  -1.587  -7.650  1.00  0.00     0.074 A 
ATOM     61  C   UNL     1       6.570  -7.074  -4.474  1.00  0.00     0.029 A 
ATOM     62  N   UNL     1       6.277  -4.975  -5.146  1.00  0.00    -0.354 N 
ATOM     63  N   UNL     1       6.646  -2.684  -6.937  1.00  0.00    -0.248 NA
ATOM     64  C   UNL     1       7.753  -1.655  -8.717  1.00  0.00     0.031 C 
ATOM     65  C   UNL     1       7.421  -6.834  -5.559  1.00  0.00     0.029 A 
ATOM     66  C   UNL     1       7.225  -5.531  -5.990  1.00  0.00     0.049 A 
ATOM     67  H   UNL     1       5.935  -4.054  -5.211  1.00  0.00     0.167 HD
ATOM     68  C   UNL     1       7.568  -3.574  -7.475  1.00  0.00     0.074 A 
ATOM     69  C   UNL     1       8.203  -2.896  -8.586  1.00  0.00     0.031 C 
ATOM     70  C   UNL     1       7.860  -4.840  -7.085  1.00  0.00     0.037 A 
BRANCH  57  71
ATOM     71  C   UNL     1       4.676  -6.724  -2.130  1.00  0.00     0.057 A 
ATOM     72  C   UNL     1       3.442  -7.386  -2.068  1.00  0.00     0.134 A 
ATOM     73  C   UNL     1       5.658  -7.103  -1.207  1.00  0.00     0.134 A 
ATOM     74  F   UNL     1       2.452  -7.059  -2.912  1.00  0.00    -0.206 F 
ATOM     75  C   UNL     1       3.184  -8.361  -1.103  1.00  0.00     0.040 A 
ATOM     76  C   UNL     1       5.422  -8.095  -0.255  1.00  0.00     0.040 A 
ATOM     77  F   UNL     1       6.863  -6.512  -1.213  1.00  0.00    -0.206 F 
ATOM     78  C   UNL     1       4.178  -8.720  -0.195  1.00  0.00     0.006 A 
ENDBRANCH  57  71
BRANCH  58  79
ATOM     79  C   UNL     1       6.264   0.850  -8.414  1.00  0.00     0.057 A 
ATOM     80  C   UNL     1       5.900   0.832  -9.764  1.00  0.00     0.134 A 
ATOM     81  C   UNL     1       6.904   1.999  -7.932  1.00  0.00     0.134 A 
ATOM     82  F   UNL     1       5.310  -0.251 -10.290  1.00  0.00    -0.206 F 
ATOM     83  C   UNL     1       6.166   1.913 -10.606  1.00  0.00     0.040 A 
ATOM     84  C   UNL     1       7.155   3.097  -8.757  1.00  0.00     0.040 A 
ATOM     85  F   UNL     1       7.282   2.076  -6.647  1.00  0.00    -0.206 F 
ATOM     86  C   UNL     1       6.788   3.054 -10.100  1.00  0.00     0.006 A 
ENDBRANCH  58  79
BRANCH  70  87
ATOM     87  C   UNL     1       8.906  -5.580  -7.868  1.00  0.00     0.057 A 
ATOM     88  C   UNL     1      10.267  -5.267  -7.759  1.00  0.00     0.134 A 
ATOM     89  C   UNL     1       8.554  -6.648  -8.702  1.00  0.00     0.134 A 
ATOM     90  F   UNL     1      10.671  -4.247  -6.987  1.00  0.00    -0.206 F 
ATOM     91  C   UNL     1      11.238  -5.979  -8.466  1.00  0.00     0.040 A 
ATOM     92  C   UNL     1       9.517  -7.384  -9.394  1.00  0.00     0.040 A 
ATOM     93  F   UNL     1       7.269  -7.006  -8.845  1.00  0.00    -0.206 F 
ATOM     94  C   UNL     1      10.864  -7.046  -9.281  1.00  0.00     0.006 A 
ENDBRANCH  70  87
ENDBRANCH  44  45
ENDBRANCH  37  39
ENDBRANCH  36  37
ENDBRANCH  35  36
ENDBRANCH  34  35
ENDBRANCH  33  34
ENDBRANCH  32  33
ENDBRANCH  31  32
ENDBRANCH  30  31
ENDBRANCH   1  30
TORSDOF 23
