REMARK SMILES COc1cc([N+](=O)[O-])cc2c1=N[C@H](C(=O)OCCOCCOCCOC(=O)c1ccc(-c3c4nc(c(-c5c(F)cccc5F)c5ccc([nH]5)c(-c5c(F)cccc5F)c5nc(c(-c6c(F)cccc6F)c6ccc3[nH]6)C=C5)C=C4)cc1)C=2CC[NH3+]
REMARK SMILES IDX 20 1 19 2 18 3 17 4 16 5 14 6 15 7 13 8 3 9 4 10 11 11 5 12
REMARK SMILES IDX 10 13 12 14 9 15 82 16 2 17 1 18 6 19 7 20 8 21 83 22 84 23
REMARK SMILES IDX 85 24 21 28 22 29 23 30 24 31 25 32 26 33 27 34 28 35 29 36
REMARK SMILES IDX 81 37 30 38 80 39 31 40 32 41 33 42 74 43 34 44 79 45 73 46
REMARK SMILES IDX 75 47 35 48 78 49 72 50 71 51 36 53 62 54 45 55 61 56 46 57
REMARK SMILES IDX 49 58 60 59 76 60 47 61 48 62 59 64 77 65 50 66 37 67 38 68
REMARK SMILES IDX 43 69 39 70 40 71 42 72 44 73 41 74 63 75 64 76 69 77 65 78
REMARK SMILES IDX 66 79 68 80 70 81 67 82 51 83 52 84 57 85 53 86 54 87 56 88
REMARK SMILES IDX 58 89 55 90
REMARK H PARENT 85 25 85 26 85 27 75 52 49 63
REMARK Flexibility Score: inf
ROOT
ATOM      1  C   UNL     1      -1.487  -2.548   6.323  1.00  0.00     0.188 C 
ENDROOT
BRANCH   1   2
ATOM      2  O   UNL     1      -2.558  -1.851   6.942  1.00  0.00    -0.376 OA
BRANCH   2   3
ATOM      3  C   UNL     1      -3.840  -2.469   6.872  1.00  0.00     0.202 C 
BRANCH   3   4
ATOM      4  C   UNL     1      -4.418  -2.768   5.475  1.00  0.00     0.261 C 
BRANCH   4   5
ATOM      5  O   UNL     1      -3.545  -3.456   4.537  1.00  0.00    -0.461 OA
BRANCH   5   6
ATOM      6  C   UNL     1      -3.224  -2.729   3.425  1.00  0.00     0.335 C 
ATOM      7  O   UNL     1      -3.614  -1.572   3.264  1.00  0.00    -0.249 OA
BRANCH   6   8
ATOM      8  C   UNL     1      -2.363  -3.476   2.332  1.00  0.00     0.243 C 
ATOM      9  C   UNL     1       0.817  -1.820   1.419  1.00  0.00     0.151 A 
ATOM     10  C   UNL     1       2.035  -2.395   1.369  1.00  0.00     0.134 A 
ATOM     11  C   UNL     1      -0.351  -2.667   1.810  1.00  0.00     0.109 A 
ATOM     12  C   UNL     1       2.242  -3.806   1.661  1.00  0.00     0.273 A 
ATOM     13  C   UNL     1      -0.062  -4.025   2.291  1.00  0.00     0.012 A 
ATOM     14  N   UNL     1      -1.597  -2.349   1.687  1.00  0.00    -0.261 NA
ATOM     15  C   UNL     1       1.250  -4.595   2.122  1.00  0.00     0.096 A 
ATOM     16  C   UNL     1      -1.278  -4.522   2.570  1.00  0.00    -0.019 C 
BRANCH   9  17
ATOM     17  O   UNL     1       0.567  -0.484   1.200  1.00  0.00    -0.494 OA
ATOM     18  C   UNL     1       1.118   0.029  -0.007  1.00  0.00     0.278 C 
ENDBRANCH   9  17
BRANCH  12  19
ATOM     19  N   UNL     1       3.578  -4.403   1.511  1.00  0.00     0.062 N 
ATOM     20  O   UNL     1       3.758  -5.550   1.943  1.00  0.00    -0.258 OA
ATOM     21  O   UNL     1       4.450  -3.707   0.976  1.00  0.00    -0.258 OA
ENDBRANCH  12  19
BRANCH  16  22
ATOM     22  C   UNL     1      -1.562  -6.008   2.588  1.00  0.00     0.096 C 
BRANCH  22  23
ATOM     23  C   UNL     1      -2.219  -6.615   3.820  1.00  0.00     0.263 C 
BRANCH  23  24
ATOM     24  N   UNL     1      -3.614  -6.224   3.966  1.00  0.00    -0.357 N 
ATOM     25  H   UNL     1      -3.673  -5.212   4.076  1.00  0.00     0.344 HD
ATOM     26  H   UNL     1      -4.010  -6.679   4.789  1.00  0.00     0.344 HD
ATOM     27  H   UNL     1      -4.135  -6.507   3.137  1.00  0.00     0.344 HD
ENDBRANCH  23  24
ENDBRANCH  22  23
ENDBRANCH  16  22
ENDBRANCH   6   8
ENDBRANCH   5   6
ENDBRANCH   4   5
ENDBRANCH   3   4
ENDBRANCH   2   3
ENDBRANCH   1   2
BRANCH   1  28
ATOM     28  C   UNL     1      -1.250  -3.993   6.782  1.00  0.00     0.188 C 
BRANCH  28  29
ATOM     29  O   UNL     1      -2.411  -4.793   6.937  1.00  0.00    -0.376 OA
BRANCH  29  30
ATOM     30  C   UNL     1      -2.272  -6.122   7.439  1.00  0.00     0.202 C 
BRANCH  30  31
ATOM     31  C   UNL     1      -1.267  -6.421   8.562  1.00  0.00     0.261 C 
BRANCH  31  32
ATOM     32  O   UNL     1       0.084  -5.973   8.352  1.00  0.00    -0.460 OA
BRANCH  32  33
ATOM     33  C   UNL     1       0.726  -6.319   7.214  1.00  0.00     0.338 C 
ATOM     34  O   UNL     1       0.369  -7.156   6.400  1.00  0.00    -0.246 OA
BRANCH  33  35
ATOM     35  C   UNL     1       1.777  -5.288   6.968  1.00  0.00     0.060 A 
ATOM     36  C   UNL     1       2.397  -4.600   8.016  1.00  0.00     0.016 A 
ATOM     37  C   UNL     1       2.043  -4.911   5.646  1.00  0.00     0.016 A 
ATOM     38  C   UNL     1       3.284  -3.555   7.738  1.00  0.00     0.010 A 
ATOM     39  C   UNL     1       2.935  -3.868   5.371  1.00  0.00     0.010 A 
ATOM     40  C   UNL     1       3.580  -3.194   6.412  1.00  0.00    -0.014 A 
BRANCH  40  41
ATOM     41  C   UNL     1       4.722  -2.285   6.129  1.00  0.00     0.031 A 
ATOM     42  C   UNL     1       4.559  -0.885   5.614  1.00  0.00     0.074 A 
ATOM     43  C   UNL     1       5.958  -2.779   6.331  1.00  0.00     0.049 A 
ATOM     44  N   UNL     1       5.475   0.042   5.465  1.00  0.00    -0.248 NA
ATOM     45  C   UNL     1       3.213  -0.474   5.193  1.00  0.00     0.031 C 
ATOM     46  C   UNL     1       6.254  -4.158   6.727  1.00  0.00     0.029 A 
ATOM     47  N   UNL     1       7.190  -2.185   6.245  1.00  0.00    -0.354 N 
ATOM     48  C   UNL     1       4.814   1.162   4.978  1.00  0.00     0.074 A 
ATOM     49  C   UNL     1       3.431   0.770   4.780  1.00  0.00     0.031 C 
ATOM     50  C   UNL     1       7.576  -4.292   6.896  1.00  0.00     0.029 A 
ATOM     51  C   UNL     1       8.222  -3.019   6.598  1.00  0.00     0.049 A 
ATOM     52  H   UNL     1       7.322  -1.253   5.957  1.00  0.00     0.167 HD
ATOM     53  C   UNL     1       5.308   2.406   4.750  1.00  0.00     0.037 A 
ATOM     54  C   UNL     1       9.543  -2.785   6.687  1.00  0.00     0.037 A 
ATOM     55  C   UNL     1       6.697   2.779   4.902  1.00  0.00     0.049 A 
ATOM     56  C   UNL     1      10.066  -1.406   6.400  1.00  0.00     0.074 A 
ATOM     57  C   UNL     1       7.286   4.021   4.721  1.00  0.00     0.029 A 
ATOM     58  N   UNL     1       7.720   1.908   5.250  1.00  0.00    -0.354 N 
ATOM     59  N   UNL     1       9.409  -0.323   6.064  1.00  0.00    -0.248 NA
ATOM     60  C   UNL     1      11.517  -1.217   6.524  1.00  0.00     0.031 C 
ATOM     61  C   UNL     1       8.667   3.890   4.913  1.00  0.00     0.029 A 
ATOM     62  C   UNL     1       8.935   2.579   5.269  1.00  0.00     0.049 A 
ATOM     63  H   UNL     1       7.601   0.952   5.454  1.00  0.00     0.167 HD
ATOM     64  C   UNL     1      10.364   0.680   5.961  1.00  0.00     0.074 A 
ATOM     65  C   UNL     1      11.636   0.083   6.306  1.00  0.00     0.031 C 
ATOM     66  C   UNL     1      10.202   1.979   5.605  1.00  0.00     0.037 A 
BRANCH  53  67
ATOM     67  C   UNL     1       4.331   3.474   4.338  1.00  0.00     0.057 A 
ATOM     68  C   UNL     1       4.388   4.072   3.072  1.00  0.00     0.134 A 
ATOM     69  C   UNL     1       3.365   3.958   5.232  1.00  0.00     0.134 A 
ATOM     70  F   UNL     1       5.298   3.674   2.170  1.00  0.00    -0.206 F 
ATOM     71  C   UNL     1       3.520   5.105   2.711  1.00  0.00     0.040 A 
ATOM     72  C   UNL     1       2.473   4.970   4.873  1.00  0.00     0.040 A 
ATOM     73  F   UNL     1       3.259   3.436   6.464  1.00  0.00    -0.206 F 
ATOM     74  C   UNL     1       2.553   5.551   3.610  1.00  0.00     0.006 A 
ENDBRANCH  53  67
BRANCH  54  75
ATOM     75  C   UNL     1      10.468  -3.872   7.092  1.00  0.00     0.057 A 
ATOM     76  C   UNL     1      10.710  -4.969   6.256  1.00  0.00     0.134 A 
ATOM     77  C   UNL     1      11.165  -3.818   8.304  1.00  0.00     0.134 A 
ATOM     78  F   UNL     1      10.060  -5.088   5.089  1.00  0.00    -0.206 F 
ATOM     79  C   UNL     1      11.620  -5.966   6.606  1.00  0.00     0.040 A 
ATOM     80  C   UNL     1      12.104  -4.790   8.651  1.00  0.00     0.040 A 
ATOM     81  F   UNL     1      10.983  -2.787   9.143  1.00  0.00    -0.206 F 
ATOM     82  C   UNL     1      12.333  -5.868   7.799  1.00  0.00     0.006 A 
ENDBRANCH  54  75
BRANCH  66  83
ATOM     83  C   UNL     1      11.438   2.837   5.602  1.00  0.00     0.057 A 
ATOM     84  C   UNL     1      11.608   3.848   6.557  1.00  0.00     0.134 A 
ATOM     85  C   UNL     1      12.474   2.646   4.677  1.00  0.00     0.134 A 
ATOM     86  F   UNL     1      10.656   4.093   7.469  1.00  0.00    -0.206 F 
ATOM     87  C   UNL     1      12.767   4.626   6.600  1.00  0.00     0.040 A 
ATOM     88  C   UNL     1      13.652   3.394   4.731  1.00  0.00     0.040 A 
ATOM     89  F   UNL     1      12.385   1.684   3.745  1.00  0.00    -0.206 F 
ATOM     90  C   UNL     1      13.799   4.390   5.694  1.00  0.00     0.006 A 
ENDBRANCH  66  83
ENDBRANCH  40  41
ENDBRANCH  33  35
ENDBRANCH  32  33
ENDBRANCH  31  32
ENDBRANCH  30  31
ENDBRANCH  29  30
ENDBRANCH  28  29
ENDBRANCH   1  28
TORSDOF 22
