REMARK SMILES Cc1ccccc1[C@@H](CC(=O)OCCOCCOCCOC(=O)c1ccc(-c2c3nc(c(-c4c(F)cccc4F)c4ccc([nH]4)c(-c4c(F)cccc4F)c4nc(c(-c5c(F)cccc5F)c5ccc2[nH]5)C=C4)C=C3)cc1)NC(=O)C(F)(F)F
REMARK SMILES IDX 16 1 15 2 14 3 13 4 12 5 10 6 11 7 9 8 8 9 7 10 1 11 2 12
REMARK SMILES IDX 3 13 4 14 6 15 5 16 78 17 79 18 80 20 81 21 82 22 83 23
REMARK SMILES IDX 84 24 17 25 18 26 19 27 20 28 21 29 22 30 23 31 24 32 25 33
REMARK SMILES IDX 77 34 26 35 76 36 27 37 28 38 29 39 70 40 30 41 75 42 69 43
REMARK SMILES IDX 71 44 31 45 74 46 68 47 67 48 32 50 58 51 41 52 57 53 42 54
REMARK SMILES IDX 45 55 56 56 72 57 43 58 44 59 55 61 73 62 46 63 33 64 34 65
REMARK SMILES IDX 39 66 35 67 36 68 38 69 40 70 37 71 59 72 60 73 65 74 61 75
REMARK SMILES IDX 62 76 64 77 66 78 63 79 47 80 48 81 53 82 49 83 50 84 52 85
REMARK SMILES IDX 54 86 51 87
REMARK H PARENT 78 19 71 49 45 60
REMARK Flexibility Score: inf
ROOT
ATOM      1  C   UNL     1      -4.202   4.670   0.560  1.00  0.00     0.188 C 
ENDROOT
BRANCH   1   2
ATOM      2  O   UNL     1      -4.422   3.610  -0.381  1.00  0.00    -0.376 OA
BRANCH   2   3
ATOM      3  C   UNL     1      -4.167   2.209  -0.132  1.00  0.00     0.202 C 
BRANCH   3   4
ATOM      4  C   UNL     1      -2.893   1.405  -0.754  1.00  0.00     0.261 C 
BRANCH   4   5
ATOM      5  O   UNL     1      -1.249   1.373  -0.284  1.00  0.00    -0.463 OA
BRANCH   5   6
ATOM      6  C   UNL     1       0.038   1.678  -0.833  1.00  0.00     0.308 C 
ATOM      7  O   UNL     1       0.306   2.178  -1.931  1.00  0.00    -0.252 OA
BRANCH   6   8
ATOM      8  C   UNL     1       1.346   1.631  -0.117  1.00  0.00     0.152 C 
BRANCH   8   9
ATOM      9  C   UNL     1       1.666   0.791   1.070  1.00  0.00     0.124 C 
BRANCH   9  10
ATOM     10  C   UNL     1       0.923  -0.519   0.961  1.00  0.00    -0.022 A 
ATOM     11  C   UNL     1       2.954  -1.774  -0.035  1.00  0.00     0.045 C 
ATOM     12  C   UNL     1       1.491  -1.634   0.306  1.00  0.00    -0.046 A 
ATOM     13  C   UNL     1       0.657  -2.706  -0.056  1.00  0.00     0.004 A 
ATOM     14  C   UNL     1      -0.718  -2.659   0.160  1.00  0.00     0.000 A 
ATOM     15  C   UNL     1      -0.449  -0.550   1.274  1.00  0.00     0.006 A 
ATOM     16  C   UNL     1      -1.273  -1.577   0.822  1.00  0.00     0.000 A 
ENDBRANCH   9  10
BRANCH   9  17
ATOM     17  N   UNL     1       1.530   1.545   2.295  1.00  0.00    -0.341 N 
ATOM     18  C   UNL     1       2.391   2.531   2.752  1.00  0.00     0.326 C 
ATOM     19  H   UNL     1       0.751   1.339   2.860  1.00  0.00     0.164 HD
ATOM     20  O   UNL     1       2.043   3.116   3.786  1.00  0.00    -0.265 OA
BRANCH  18  21
ATOM     21  C   UNL     1       3.704   2.910   1.988  1.00  0.00     0.471 C 
ATOM     22  F   UNL     1       4.418   1.824   1.573  1.00  0.00    -0.162 F 
ATOM     23  F   UNL     1       3.465   3.652   0.870  1.00  0.00    -0.162 F 
ATOM     24  F   UNL     1       4.560   3.649   2.748  1.00  0.00    -0.162 F 
ENDBRANCH  18  21
ENDBRANCH   9  17
ENDBRANCH   8   9
ENDBRANCH   6   8
ENDBRANCH   5   6
ENDBRANCH   4   5
ENDBRANCH   3   4
ENDBRANCH   2   3
ENDBRANCH   1   2
BRANCH   1  25
ATOM     25  C   UNL     1      -4.148   4.443   2.054  1.00  0.00     0.188 C 
BRANCH  25  26
ATOM     26  O   UNL     1      -3.555   3.197   2.353  1.00  0.00    -0.376 OA
BRANCH  26  27
ATOM     27  C   UNL     1      -3.445   2.912   3.736  1.00  0.00     0.202 C 
BRANCH  27  28
ATOM     28  C   UNL     1      -2.592   3.949   4.504  1.00  0.00     0.261 C 
BRANCH  28  29
ATOM     29  O   UNL     1      -1.262   4.066   3.911  1.00  0.00    -0.460 OA
BRANCH  29  30
ATOM     30  C   UNL     1      -0.874   5.232   3.261  1.00  0.00     0.338 C 
ATOM     31  O   UNL     1      -1.129   6.350   3.637  1.00  0.00    -0.246 OA
BRANCH  30  32
ATOM     32  C   UNL     1      -0.401   4.896   1.845  1.00  0.00     0.060 A 
ATOM     33  C   UNL     1       0.015   5.732   0.789  1.00  0.00     0.016 A 
ATOM     34  C   UNL     1      -0.855   3.706   1.426  1.00  0.00     0.016 A 
ATOM     35  C   UNL     1      -0.193   5.369  -0.649  1.00  0.00     0.010 A 
ATOM     36  C   UNL     1      -1.382   3.687   0.142  1.00  0.00     0.010 A 
ATOM     37  C   UNL     1      -0.994   4.292  -1.035  1.00  0.00    -0.014 A 
BRANCH  37  38
ATOM     38  C   UNL     1      -1.696   3.772  -2.419  1.00  0.00     0.031 A 
ATOM     39  C   UNL     1      -1.442   2.399  -3.403  1.00  0.00     0.074 A 
ATOM     40  C   UNL     1      -2.822   4.453  -2.708  1.00  0.00     0.049 A 
ATOM     41  N   UNL     1      -1.178   2.371  -4.695  1.00  0.00    -0.248 NA
ATOM     42  C   UNL     1      -1.392   0.937  -2.971  1.00  0.00     0.031 C 
ATOM     43  C   UNL     1      -3.856   4.196  -3.697  1.00  0.00     0.029 A 
ATOM     44  N   UNL     1      -3.222   5.673  -2.154  1.00  0.00    -0.354 N 
ATOM     45  C   UNL     1      -1.059   0.995  -5.063  1.00  0.00     0.074 A 
ATOM     46  C   UNL     1      -0.714   0.296  -3.901  1.00  0.00     0.031 C 
ATOM     47  C   UNL     1      -4.475   5.368  -3.958  1.00  0.00     0.029 A 
ATOM     48  C   UNL     1      -3.785   6.412  -3.205  1.00  0.00     0.049 A 
ATOM     49  H   UNL     1      -3.127   5.956  -1.216  1.00  0.00     0.167 HD
ATOM     50  C   UNL     1      -1.742   0.366  -6.075  1.00  0.00     0.037 A 
ATOM     51  C   UNL     1      -3.027   7.451  -3.662  1.00  0.00     0.037 A 
ATOM     52  C   UNL     1      -2.585   1.354  -6.702  1.00  0.00     0.049 A 
ATOM     53  C   UNL     1      -2.371   7.061  -4.981  1.00  0.00     0.074 A 
ATOM     54  C   UNL     1      -3.885   1.792  -6.544  1.00  0.00     0.029 A 
ATOM     55  N   UNL     1      -1.910   2.373  -7.307  1.00  0.00    -0.354 N 
ATOM     56  N   UNL     1      -2.654   5.962  -5.638  1.00  0.00    -0.248 NA
ATOM     57  C   UNL     1      -1.326   7.835  -5.647  1.00  0.00     0.031 C 
ATOM     58  C   UNL     1      -3.890   3.193  -6.895  1.00  0.00     0.029 A 
ATOM     59  C   UNL     1      -2.604   3.561  -7.267  1.00  0.00     0.049 A 
ATOM     60  H   UNL     1      -1.025   2.271  -7.726  1.00  0.00     0.167 HD
ATOM     61  C   UNL     1      -1.822   5.825  -6.704  1.00  0.00     0.074 A 
ATOM     62  C   UNL     1      -1.014   7.034  -6.681  1.00  0.00     0.031 C 
ATOM     63  C   UNL     1      -1.805   4.749  -7.542  1.00  0.00     0.037 A 
BRANCH  50  64
ATOM     64  C   UNL     1      -1.847  -1.157  -6.316  1.00  0.00     0.057 A 
ATOM     65  C   UNL     1      -2.808  -1.647  -7.219  1.00  0.00     0.134 A 
ATOM     66  C   UNL     1      -1.044  -2.190  -5.760  1.00  0.00     0.134 A 
ATOM     67  F   UNL     1      -3.581  -0.811  -7.925  1.00  0.00    -0.206 F 
ATOM     68  C   UNL     1      -3.007  -3.017  -7.481  1.00  0.00     0.040 A 
ATOM     69  C   UNL     1      -1.285  -3.566  -5.949  1.00  0.00     0.040 A 
ATOM     70  F   UNL     1       0.081  -1.945  -5.077  1.00  0.00    -0.206 F 
ATOM     71  C   UNL     1      -2.270  -3.986  -6.821  1.00  0.00     0.006 A 
ENDBRANCH  50  64
BRANCH  51  72
ATOM     72  C   UNL     1      -2.461   8.241  -2.495  1.00  0.00     0.057 A 
ATOM     73  C   UNL     1      -3.361   8.609  -1.458  1.00  0.00     0.134 A 
ATOM     74  C   UNL     1      -1.107   8.331  -2.164  1.00  0.00     0.134 A 
ATOM     75  F   UNL     1      -4.686   8.603  -1.682  1.00  0.00    -0.206 F 
ATOM     76  C   UNL     1      -2.953   8.845  -0.138  1.00  0.00     0.040 A 
ATOM     77  C   UNL     1      -0.683   8.639  -0.854  1.00  0.00     0.040 A 
ATOM     78  F   UNL     1      -0.155   8.006  -3.049  1.00  0.00    -0.206 F 
ATOM     79  C   UNL     1      -1.604   8.826   0.176  1.00  0.00     0.006 A 
ENDBRANCH  51  72
BRANCH  63  80
ATOM     80  C   UNL     1      -0.922   4.777  -8.753  1.00  0.00     0.057 A 
ATOM     81  C   UNL     1      -1.081   5.808  -9.681  1.00  0.00     0.134 A 
ATOM     82  C   UNL     1      -0.015   3.758  -9.101  1.00  0.00     0.134 A 
ATOM     83  F   UNL     1      -1.944   6.809  -9.450  1.00  0.00    -0.206 F 
ATOM     84  C   UNL     1      -0.358   5.840 -10.871  1.00  0.00     0.040 A 
ATOM     85  C   UNL     1       0.644   3.731 -10.326  1.00  0.00     0.040 A 
ATOM     86  F   UNL     1       0.277   2.746  -8.270  1.00  0.00    -0.206 F 
ATOM     87  C   UNL     1       0.489   4.789 -11.207  1.00  0.00     0.006 A 
ENDBRANCH  63  80
ENDBRANCH  37  38
ENDBRANCH  30  32
ENDBRANCH  29  30
ENDBRANCH  28  29
ENDBRANCH  27  28
ENDBRANCH  26  27
ENDBRANCH  25  26
ENDBRANCH   1  25
TORSDOF 21
