REMARK SMILES Cc1nn([C@H]2CCS(=O)(=O)C2)c(C)c1/C=C(\CC(=O)OCCOCCOCCOC(=O)c1ccc(-c2c3nc(c(-c4c(F)cccc4F)c4ccc([nH]4)c(-c4c(F)cccc4F)c4nc(c(-c5c(F)cccc5F)c5ccc2[nH]5)C=C4)C=C3)cc1)c1nc2ccccc2s1
REMARK SMILES IDX 24 1 23 2 22 3 21 4 20 5 18 6 19 7 17 8 16 9 15 10 14 11
REMARK SMILES IDX 1 12 2 13 3 14 4 15 12 16 13 17 5 18 6 19 11 20 7 21 8 22
REMARK SMILES IDX 9 23 10 24 86 25 87 26 94 27 88 28 93 29 89 30 92 31 90 32
REMARK SMILES IDX 91 33 25 34 26 35 27 36 28 37 29 38 30 39 31 40 32 41 33 42
REMARK SMILES IDX 85 43 34 44 84 45 35 46 36 47 37 48 78 49 38 50 83 51 77 52
REMARK SMILES IDX 79 53 39 54 82 55 76 56 75 57 40 59 66 60 49 61 65 62 50 63
REMARK SMILES IDX 53 64 64 65 80 66 51 67 52 68 63 70 81 71 54 72 41 73 42 74
REMARK SMILES IDX 47 75 43 76 44 77 46 78 48 79 45 80 67 81 68 82 73 83 69 84
REMARK SMILES IDX 70 85 72 86 74 87 71 88 55 89 56 90 61 91 57 92 58 93 60 94
REMARK SMILES IDX 62 95 59 96
REMARK H PARENT 79 58 53 69
REMARK Flexibility Score: inf
ROOT
ATOM      1  C   UNL     1       4.719  -4.685   9.440  1.00  0.00     0.188 C 
ENDROOT
BRANCH   1   2
ATOM      2  O   UNL     1       4.062  -4.896  10.685  1.00  0.00    -0.376 OA
BRANCH   2   3
ATOM      3  C   UNL     1       2.996  -5.854  10.739  1.00  0.00     0.202 C 
BRANCH   3   4
ATOM      4  C   UNL     1       1.866  -5.766   9.683  1.00  0.00     0.261 C 
BRANCH   4   5
ATOM      5  O   UNL     1       2.247  -6.137   8.324  1.00  0.00    -0.463 OA
BRANCH   5   6
ATOM      6  C   UNL     1       2.358  -5.108   7.474  1.00  0.00     0.310 C 
ATOM      7  O   UNL     1       1.943  -3.975   7.748  1.00  0.00    -0.252 OA
BRANCH   6   8
ATOM      8  C   UNL     1       3.155  -5.258   6.171  1.00  0.00     0.161 C 
BRANCH   8   9
ATOM      9  C   UNL     1       3.574  -6.250   5.079  1.00  0.00    -0.000 C 
ATOM     10  C   UNL     1       2.995  -6.173   3.840  1.00  0.00     0.019 C 
BRANCH  10  11
ATOM     11  C   UNL     1       1.891  -5.324   3.489  1.00  0.00     0.019 A 
ATOM     12  C   UNL     1       0.291  -6.987   2.278  1.00  0.00     0.069 C 
ATOM     13  C   UNL     1       0.657  -5.703   2.922  1.00  0.00     0.067 A 
ATOM     14  N   UNL     1      -0.250  -4.726   3.067  1.00  0.00    -0.177 NA
ATOM     15  N   UNL     1       0.420  -3.741   3.705  1.00  0.00    -0.265 N 
ATOM     16  C   UNL     1       1.783  -3.946   3.663  1.00  0.00     0.043 A 
ATOM     17  C   UNL     1       2.801  -2.896   3.955  1.00  0.00     0.067 C 
BRANCH  15  18
ATOM     18  C   UNL     1      -0.321  -2.644   4.316  1.00  0.00     0.123 C 
ATOM     19  C   UNL     1      -1.796  -2.985   4.643  1.00  0.00     0.044 C 
ATOM     20  C   UNL     1       0.214  -2.175   5.673  1.00  0.00     0.164 C 
ATOM     21  C   UNL     1      -2.382  -1.773   5.360  1.00  0.00     0.139 C 
ATOM     22  S   UNL     1      -1.028  -1.052   6.263  1.00  0.00     0.152 S 
ATOM     23  O   UNL     1      -0.747   0.253   5.700  1.00  0.00    -0.229 OA
ATOM     24  O   UNL     1      -1.232  -1.255   7.680  1.00  0.00    -0.229 OA
ENDBRANCH  15  18
ENDBRANCH  10  11
BRANCH   9  25
ATOM     25  C   UNL     1       4.817  -7.003   5.081  1.00  0.00     0.121 A 
ATOM     26  N   UNL     1       4.992  -8.289   5.322  1.00  0.00    -0.236 NA
ATOM     27  S   UNL     1       6.283  -6.187   4.600  1.00  0.00    -0.114 S 
ATOM     28  C   UNL     1       6.353  -8.627   5.298  1.00  0.00     0.082 A 
ATOM     29  C   UNL     1       7.214  -7.597   4.920  1.00  0.00     0.055 A 
ATOM     30  C   UNL     1       6.925  -9.862   5.691  1.00  0.00     0.030 A 
ATOM     31  C   UNL     1       8.615  -7.763   4.891  1.00  0.00     0.021 A 
ATOM     32  C   UNL     1       8.322 -10.004   5.760  1.00  0.00     0.002 A 
ATOM     33  C   UNL     1       9.155  -8.965   5.360  1.00  0.00     0.002 A 
ENDBRANCH   9  25
ENDBRANCH   8   9
ENDBRANCH   6   8
ENDBRANCH   5   6
ENDBRANCH   4   5
ENDBRANCH   3   4
ENDBRANCH   2   3
ENDBRANCH   1   2
BRANCH   1  34
ATOM     34  C   UNL     1       5.255  -5.938   8.735  1.00  0.00     0.188 C 
BRANCH  34  35
ATOM     35  O   UNL     1       4.393  -7.045   8.899  1.00  0.00    -0.376 OA
BRANCH  35  36
ATOM     36  C   UNL     1       4.814  -8.383   8.732  1.00  0.00     0.202 C 
BRANCH  36  37
ATOM     37  C   UNL     1       5.682  -8.922   9.877  1.00  0.00     0.261 C 
BRANCH  37  38
ATOM     38  O   UNL     1       6.767  -8.061  10.206  1.00  0.00    -0.460 OA
BRANCH  38  39
ATOM     39  C   UNL     1       7.560  -7.831   9.142  1.00  0.00     0.338 C 
ATOM     40  O   UNL     1       7.498  -8.379   8.064  1.00  0.00    -0.246 OA
BRANCH  39  41
ATOM     41  C   UNL     1       8.528  -6.768   9.409  1.00  0.00     0.060 A 
ATOM     42  C   UNL     1       9.240  -6.380   8.270  1.00  0.00     0.016 A 
ATOM     43  C   UNL     1       9.057  -6.761  10.694  1.00  0.00     0.016 A 
ATOM     44  C   UNL     1      10.596  -6.491   8.343  1.00  0.00     0.010 A 
ATOM     45  C   UNL     1      10.415  -6.848  10.773  1.00  0.00     0.010 A 
ATOM     46  C   UNL     1      11.136  -6.860   9.575  1.00  0.00    -0.014 A 
BRANCH  46  47
ATOM     47  C   UNL     1      12.532  -7.210   9.600  1.00  0.00     0.031 A 
ATOM     48  C   UNL     1      13.390  -6.027   9.395  1.00  0.00     0.074 A 
ATOM     49  C   UNL     1      12.901  -8.460   9.932  1.00  0.00     0.049 A 
ATOM     50  N   UNL     1      14.316  -5.840   8.517  1.00  0.00    -0.248 NA
ATOM     51  C   UNL     1      13.021  -4.814  10.155  1.00  0.00     0.031 C 
ATOM     52  C   UNL     1      12.040  -9.560  10.389  1.00  0.00     0.029 A 
ATOM     53  N   UNL     1      14.146  -8.967  10.098  1.00  0.00    -0.354 N 
ATOM     54  C   UNL     1      14.793  -4.559   8.777  1.00  0.00     0.074 A 
ATOM     55  C   UNL     1      13.821  -3.907   9.605  1.00  0.00     0.031 C 
ATOM     56  C   UNL     1      12.800 -10.472  11.033  1.00  0.00     0.029 A 
ATOM     57  C   UNL     1      14.191 -10.067  10.940  1.00  0.00     0.049 A 
ATOM     58  H   UNL     1      14.944  -8.589   9.662  1.00  0.00     0.167 HD
ATOM     59  C   UNL     1      16.100  -4.255   8.580  1.00  0.00     0.037 A 
ATOM     60  C   UNL     1      15.285 -10.504  11.609  1.00  0.00     0.037 A 
ATOM     61  C   UNL     1      16.698  -5.136   7.610  1.00  0.00     0.049 A 
ATOM     62  C   UNL     1      16.472  -9.844  11.000  1.00  0.00     0.074 A 
ATOM     63  C   UNL     1      16.426  -5.447   6.291  1.00  0.00     0.029 A 
ATOM     64  N   UNL     1      17.528  -6.130   8.067  1.00  0.00    -0.354 N 
ATOM     65  N   UNL     1      16.919 -10.096   9.802  1.00  0.00    -0.248 NA
ATOM     66  C   UNL     1      16.901  -8.570  11.564  1.00  0.00     0.031 C 
ATOM     67  C   UNL     1      16.739  -6.830   6.158  1.00  0.00     0.029 A 
ATOM     68  C   UNL     1      17.216  -7.280   7.389  1.00  0.00     0.049 A 
ATOM     69  H   UNL     1      18.223  -6.034   8.758  1.00  0.00     0.167 HD
ATOM     70  C   UNL     1      17.331  -8.866   9.305  1.00  0.00     0.074 A 
ATOM     71  C   UNL     1      17.390  -7.986  10.467  1.00  0.00     0.031 C 
ATOM     72  C   UNL     1      17.299  -8.602   7.965  1.00  0.00     0.037 A 
BRANCH  59  73
ATOM     73  C   UNL     1      16.901  -3.457   9.582  1.00  0.00     0.057 A 
ATOM     74  C   UNL     1      18.223  -3.111   9.261  1.00  0.00     0.134 A 
ATOM     75  C   UNL     1      16.549  -3.264  10.939  1.00  0.00     0.134 A 
ATOM     76  F   UNL     1      18.684  -3.252   8.009  1.00  0.00    -0.206 F 
ATOM     77  C   UNL     1      19.145  -2.696  10.229  1.00  0.00     0.040 A 
ATOM     78  C   UNL     1      17.445  -2.798  11.900  1.00  0.00     0.040 A 
ATOM     79  F   UNL     1      15.357  -3.604  11.442  1.00  0.00    -0.206 F 
ATOM     80  C   UNL     1      18.760  -2.548  11.555  1.00  0.00     0.006 A 
ENDBRANCH  59  73
BRANCH  60  81
ATOM     81  C   UNL     1      15.337 -11.170  12.932  1.00  0.00     0.057 A 
ATOM     82  C   UNL     1      16.492 -11.842  13.351  1.00  0.00     0.134 A 
ATOM     83  C   UNL     1      14.350 -10.972  13.916  1.00  0.00     0.134 A 
ATOM     84  F   UNL     1      17.510 -12.038  12.500  1.00  0.00    -0.206 F 
ATOM     85  C   UNL     1      16.662 -12.282  14.671  1.00  0.00     0.040 A 
ATOM     86  C   UNL     1      14.499 -11.420  15.232  1.00  0.00     0.040 A 
ATOM     87  F   UNL     1      13.242 -10.262  13.661  1.00  0.00    -0.206 F 
ATOM     88  C   UNL     1      15.665 -12.067  15.617  1.00  0.00     0.006 A 
ENDBRANCH  60  81
BRANCH  72  89
ATOM     89  C   UNL     1      17.063  -9.759   7.035  1.00  0.00     0.057 A 
ATOM     90  C   UNL     1      15.871 -10.500   6.999  1.00  0.00     0.134 A 
ATOM     91  C   UNL     1      18.011 -10.040   6.048  1.00  0.00     0.134 A 
ATOM     92  F   UNL     1      14.861 -10.227   7.834  1.00  0.00    -0.206 F 
ATOM     93  C   UNL     1      15.656 -11.508   6.057  1.00  0.00     0.040 A 
ATOM     94  C   UNL     1      17.794 -11.021   5.077  1.00  0.00     0.040 A 
ATOM     95  F   UNL     1      19.148  -9.329   5.980  1.00  0.00    -0.206 F 
ATOM     96  C   UNL     1      16.619 -11.768   5.087  1.00  0.00     0.006 A 
ENDBRANCH  72  89
ENDBRANCH  46  47
ENDBRANCH  39  41
ENDBRANCH  38  39
ENDBRANCH  37  38
ENDBRANCH  36  37
ENDBRANCH  35  36
ENDBRANCH  34  35
ENDBRANCH   1  34
TORSDOF 21
