REMARK SMILES O=C(CNC(=O)c1cccs1)N[C@@H]1C=C[C@H](C(=O)OCCOCCOCCOC(=O)c2ccc(-c3c4nc(c(-c5c(F)cccc5F)c5ccc([nH]5)c(-c5c(F)cccc5F)c5nc(c(-c6c(F)cccc6F)c6ccc3[nH]6)C=C5)C=C4)cc2)C1
REMARK SMILES IDX 23 1 22 2 21 3 20 4 19 5 17 6 18 7 16 8 13 9 14 10 85 11
REMARK SMILES IDX 15 12 12 13 1 14 2 15 3 17 4 18 5 19 6 21 7 22 8 23 11 24
REMARK SMILES IDX 9 25 10 26 24 27 25 28 26 29 27 30 28 31 29 32 30 33 31 34
REMARK SMILES IDX 32 35 84 36 33 37 83 38 34 39 35 40 36 41 77 42 37 43 82 44
REMARK SMILES IDX 76 45 78 46 38 47 81 48 75 49 74 50 39 52 65 53 48 54 64 55
REMARK SMILES IDX 49 56 52 57 63 58 79 59 50 60 51 61 62 63 80 64 53 65 40 66
REMARK SMILES IDX 41 67 46 68 42 69 43 70 45 71 47 72 44 73 66 74 67 75 72 76
REMARK SMILES IDX 68 77 69 78 71 79 73 80 70 81 54 82 55 83 60 84 56 85 57 86
REMARK SMILES IDX 59 87 61 88 58 89
REMARK H PARENT 12 16 4 20 78 51 52 62
REMARK Flexibility Score: inf
ROOT
ATOM      1  C   UNL     1      -0.270  -1.702  -4.805  1.00  0.00     0.188 C 
ENDROOT
BRANCH   1   2
ATOM      2  O   UNL     1      -0.821  -2.609  -5.735  1.00  0.00    -0.376 OA
BRANCH   2   3
ATOM      3  C   UNL     1      -2.144  -3.058  -5.513  1.00  0.00     0.202 C 
BRANCH   3   4
ATOM      4  C   UNL     1      -2.404  -3.903  -4.260  1.00  0.00     0.261 C 
BRANCH   4   5
ATOM      5  O   UNL     1      -1.760  -3.462  -3.047  1.00  0.00    -0.463 OA
BRANCH   5   6
ATOM      6  C   UNL     1      -0.646  -4.176  -2.692  1.00  0.00     0.312 C 
ATOM      7  O   UNL     1      -0.126  -5.039  -3.388  1.00  0.00    -0.252 OA
BRANCH   6   8
ATOM      8  C   UNL     1      -0.144  -3.763  -1.305  1.00  0.00     0.124 C 
ATOM      9  C   UNL     1       1.951  -2.481  -1.358  1.00  0.00     0.106 C 
ATOM     10  C   UNL     1       2.186  -3.890  -0.934  1.00  0.00    -0.006 C 
ATOM     11  C   UNL     1       0.432  -2.341  -1.210  1.00  0.00     0.048 C 
ATOM     12  C   UNL     1       1.049  -4.594  -0.909  1.00  0.00    -0.014 C 
BRANCH   9  13
ATOM     13  N   UNL     1       2.373  -2.393  -2.733  1.00  0.00    -0.348 N 
ATOM     14  O   UNL     1       4.352  -1.349  -2.288  1.00  0.00    -0.273 OA
ATOM     15  C   UNL     1       3.570  -1.850  -3.093  1.00  0.00     0.239 C 
ATOM     16  H   UNL     1       1.777  -2.738  -3.437  1.00  0.00     0.164 HD
BRANCH  15  17
ATOM     17  C   UNL     1       3.890  -1.951  -4.587  1.00  0.00     0.216 C 
BRANCH  17  18
ATOM     18  N   UNL     1       2.929  -2.487  -5.564  1.00  0.00    -0.342 N 
ATOM     19  C   UNL     1       2.483  -2.161  -6.848  1.00  0.00     0.261 C 
ATOM     20  H   UNL     1       2.477  -3.291  -5.221  1.00  0.00     0.164 HD
ATOM     21  O   UNL     1       2.181  -3.169  -7.497  1.00  0.00    -0.268 OA
BRANCH  19  22
ATOM     22  C   UNL     1       2.291  -0.823  -7.455  1.00  0.00     0.092 A 
ATOM     23  C   UNL     1       3.108   0.002  -8.228  1.00  0.00     0.025 A 
ATOM     24  S   UNL     1       0.648  -0.342  -7.750  1.00  0.00    -0.139 S 
ATOM     25  C   UNL     1       2.424   1.085  -8.875  1.00  0.00     0.012 A 
ATOM     26  C   UNL     1       1.076   1.038  -8.647  1.00  0.00     0.065 A 
ENDBRANCH  19  22
ENDBRANCH  17  18
ENDBRANCH  15  17
ENDBRANCH   9  13
ENDBRANCH   6   8
ENDBRANCH   5   6
ENDBRANCH   4   5
ENDBRANCH   3   4
ENDBRANCH   2   3
ENDBRANCH   1   2
BRANCH   1  27
ATOM     27  C   UNL     1      -1.031  -0.471  -4.330  1.00  0.00     0.188 C 
BRANCH  27  28
ATOM     28  O   UNL     1      -2.122  -0.100  -5.150  1.00  0.00    -0.376 OA
BRANCH  28  29
ATOM     29  C   UNL     1      -2.510   1.257  -4.936  1.00  0.00     0.202 C 
BRANCH  29  30
ATOM     30  C   UNL     1      -1.877   2.161  -6.001  1.00  0.00     0.261 C 
BRANCH  30  31
ATOM     31  O   UNL     1      -0.423   2.201  -6.022  1.00  0.00    -0.460 OA
BRANCH  31  32
ATOM     32  C   UNL     1       0.259   2.728  -4.978  1.00  0.00     0.338 C 
ATOM     33  O   UNL     1      -0.237   3.214  -3.973  1.00  0.00    -0.246 OA
BRANCH  32  34
ATOM     34  C   UNL     1       1.721   2.433  -5.148  1.00  0.00     0.060 A 
ATOM     35  C   UNL     1       2.377   1.628  -4.218  1.00  0.00     0.016 A 
ATOM     36  C   UNL     1       2.480   2.938  -6.205  1.00  0.00     0.016 A 
ATOM     37  C   UNL     1       3.733   1.256  -4.412  1.00  0.00     0.010 A 
ATOM     38  C   UNL     1       3.824   2.500  -6.418  1.00  0.00     0.010 A 
ATOM     39  C   UNL     1       4.460   1.559  -5.581  1.00  0.00    -0.014 A 
BRANCH  39  40
ATOM     40  C   UNL     1       5.932   1.118  -5.763  1.00  0.00     0.031 A 
ATOM     41  C   UNL     1       6.963   2.172  -5.487  1.00  0.00     0.074 A 
ATOM     42  C   UNL     1       6.471  -0.077  -6.164  1.00  0.00     0.049 A 
ATOM     43  N   UNL     1       8.249   2.138  -5.721  1.00  0.00    -0.248 NA
ATOM     44  C   UNL     1       6.459   3.457  -4.993  1.00  0.00     0.031 C 
ATOM     45  C   UNL     1       5.766  -1.230  -6.674  1.00  0.00     0.029 A 
ATOM     46  N   UNL     1       7.781  -0.563  -6.177  1.00  0.00    -0.354 N 
ATOM     47  C   UNL     1       8.685   3.433  -5.533  1.00  0.00     0.074 A 
ATOM     48  C   UNL     1       7.526   4.218  -5.157  1.00  0.00     0.031 C 
ATOM     49  C   UNL     1       6.543  -2.316  -6.752  1.00  0.00     0.029 A 
ATOM     50  C   UNL     1       7.895  -1.928  -6.432  1.00  0.00     0.049 A 
ATOM     51  H   UNL     1       8.562   0.015  -6.018  1.00  0.00     0.167 HD
ATOM     52  C   UNL     1       9.932   3.933  -5.679  1.00  0.00     0.037 A 
ATOM     53  C   UNL     1       8.932  -2.797  -6.453  1.00  0.00     0.037 A 
ATOM     54  C   UNL     1      11.118   3.175  -5.963  1.00  0.00     0.049 A 
ATOM     55  C   UNL     1      10.325  -2.246  -6.432  1.00  0.00     0.074 A 
ATOM     56  C   UNL     1      12.416   3.643  -6.081  1.00  0.00     0.029 A 
ATOM     57  N   UNL     1      11.175   1.802  -6.134  1.00  0.00    -0.354 N 
ATOM     58  N   UNL     1      10.706  -1.004  -6.298  1.00  0.00    -0.248 NA
ATOM     59  C   UNL     1      11.430  -3.194  -6.664  1.00  0.00     0.031 C 
ATOM     60  C   UNL     1      13.260   2.555  -6.322  1.00  0.00     0.029 A 
ATOM     61  C   UNL     1      12.492   1.405  -6.322  1.00  0.00     0.049 A 
ATOM     62  H   UNL     1      10.397   1.197  -6.125  1.00  0.00     0.167 HD
ATOM     63  C   UNL     1      12.083  -1.017  -6.451  1.00  0.00     0.074 A 
ATOM     64  C   UNL     1      12.485  -2.393  -6.632  1.00  0.00     0.031 C 
ATOM     65  C   UNL     1      12.922   0.041  -6.478  1.00  0.00     0.037 A 
BRANCH  52  66
ATOM     66  C   UNL     1      10.037   5.418  -5.566  1.00  0.00     0.057 A 
ATOM     67  C   UNL     1       9.856   6.080  -4.346  1.00  0.00     0.134 A 
ATOM     68  C   UNL     1      10.239   6.193  -6.714  1.00  0.00     0.134 A 
ATOM     69  F   UNL     1       9.617   5.384  -3.224  1.00  0.00    -0.206 F 
ATOM     70  C   UNL     1       9.811   7.470  -4.282  1.00  0.00     0.040 A 
ATOM     71  C   UNL     1      10.239   7.583  -6.653  1.00  0.00     0.040 A 
ATOM     72  F   UNL     1      10.414   5.611  -7.910  1.00  0.00    -0.206 F 
ATOM     73  C   UNL     1      10.006   8.224  -5.437  1.00  0.00     0.006 A 
ENDBRANCH  52  66
BRANCH  53  74
ATOM     74  C   UNL     1       8.758  -4.285  -6.560  1.00  0.00     0.057 A 
ATOM     75  C   UNL     1       9.216  -5.125  -5.528  1.00  0.00     0.134 A 
ATOM     76  C   UNL     1       8.257  -4.919  -7.703  1.00  0.00     0.134 A 
ATOM     77  F   UNL     1       9.757  -4.596  -4.420  1.00  0.00    -0.206 F 
ATOM     78  C   UNL     1       9.208  -6.519  -5.642  1.00  0.00     0.040 A 
ATOM     79  C   UNL     1       8.203  -6.314  -7.813  1.00  0.00     0.040 A 
ATOM     80  F   UNL     1       7.827  -4.194  -8.746  1.00  0.00    -0.206 F 
ATOM     81  C   UNL     1       8.694  -7.119  -6.787  1.00  0.00     0.006 A 
ENDBRANCH  53  74
BRANCH  65  82
ATOM     82  C   UNL     1      14.383  -0.237  -6.658  1.00  0.00     0.057 A 
ATOM     83  C   UNL     1      14.918  -0.629  -7.892  1.00  0.00     0.134 A 
ATOM     84  C   UNL     1      15.271  -0.069  -5.590  1.00  0.00     0.134 A 
ATOM     85  F   UNL     1      14.118  -0.831  -8.949  1.00  0.00    -0.206 F 
ATOM     86  C   UNL     1      16.288  -0.848  -8.054  1.00  0.00     0.040 A 
ATOM     87  C   UNL     1      16.643  -0.263  -5.745  1.00  0.00     0.040 A 
ATOM     88  F   UNL     1      14.819   0.299  -4.381  1.00  0.00    -0.206 F 
ATOM     89  C   UNL     1      17.155  -0.655  -6.980  1.00  0.00     0.006 A 
ENDBRANCH  65  82
ENDBRANCH  39  40
ENDBRANCH  32  34
ENDBRANCH  31  32
ENDBRANCH  30  31
ENDBRANCH  29  30
ENDBRANCH  28  29
ENDBRANCH  27  28
ENDBRANCH   1  27
TORSDOF 21
