REMARK SMILES Cn1c(=O)c(=O)n(C)c2cc(S(=O)(=O)N3CCC[C@H]3C(=O)OCCOCCOCCOC(=O)c3ccc(-c4c5nc(c(-c6c(F)cccc6F)c6ccc([nH]6)c(-c6c(F)cccc6F)c6nc(c(-c7c(F)cccc7F)c7ccc4[nH]7)C=C6)C=C5)cc3)ccc21
REMARK SMILES IDX 26 1 25 2 24 3 23 4 22 5 20 6 21 7 19 8 15 9 16 10 17 11
REMARK SMILES IDX 18 12 12 13 13 14 14 15 11 16 1 17 2 18 3 19 90 20 4 21 5 22
REMARK SMILES IDX 9 23 89 24 6 25 7 26 10 27 88 28 8 29 27 30 28 31 29 32
REMARK SMILES IDX 30 33 31 34 32 35 33 36 34 37 35 38 87 39 36 40 86 41 37 42
REMARK SMILES IDX 38 43 39 44 80 45 40 46 85 47 79 48 81 49 41 50 84 51 78 52
REMARK SMILES IDX 77 53 42 55 68 56 51 57 67 58 52 59 55 60 66 61 82 62 53 63
REMARK SMILES IDX 54 64 65 66 83 67 56 68 43 69 44 70 49 71 45 72 46 73 48 74
REMARK SMILES IDX 50 75 47 76 69 77 70 78 75 79 71 80 72 81 74 82 76 83 73 84
REMARK SMILES IDX 57 85 58 86 63 87 59 88 60 89 62 90 64 91 61 92
REMARK H PARENT 81 54 55 65
REMARK Flexibility Score: inf
ROOT
ATOM      1  C   UNL     1      -6.378   2.349  -3.152  1.00  0.00     0.188 C 
ENDROOT
BRANCH   1   2
ATOM      2  O   UNL     1      -7.656   2.747  -3.623  1.00  0.00    -0.376 OA
BRANCH   2   3
ATOM      3  C   UNL     1      -8.227   2.096  -4.756  1.00  0.00     0.202 C 
BRANCH   3   4
ATOM      4  C   UNL     1      -7.382   1.849  -6.018  1.00  0.00     0.261 C 
BRANCH   4   5
ATOM      5  O   UNL     1      -6.099   1.286  -5.717  1.00  0.00    -0.462 OA
BRANCH   5   6
ATOM      6  C   UNL     1      -5.020   1.864  -6.316  1.00  0.00     0.324 C 
ATOM      7  O   UNL     1      -5.069   2.637  -7.265  1.00  0.00    -0.250 OA
BRANCH   6   8
ATOM      8  C   UNL     1      -3.760   1.569  -5.515  1.00  0.00     0.183 C 
ATOM      9  N   UNL     1      -2.744   0.777  -6.207  1.00  0.00    -0.184 NA
ATOM     10  C   UNL     1      -1.700   1.658  -6.724  1.00  0.00     0.103 C 
ATOM     11  C   UNL     1      -1.684   2.841  -5.768  1.00  0.00     0.019 C 
ATOM     12  C   UNL     1      -3.069   2.888  -5.132  1.00  0.00     0.034 C 
BRANCH   9  13
ATOM     13  S   UNL     1      -2.494  -0.830  -5.804  1.00  0.00     0.243 S 
ATOM     14  O   UNL     1      -1.566  -1.378  -6.773  1.00  0.00    -0.207 OA
ATOM     15  O   UNL     1      -3.789  -1.425  -5.574  1.00  0.00    -0.207 OA
BRANCH  13  16
ATOM     16  C   UNL     1      -1.647  -0.911  -4.225  1.00  0.00     0.084 A 
ATOM     17  C   UNL     1       1.040  -0.073   0.122  1.00  0.00     0.154 C 
ATOM     18  N   UNL     1       0.654  -1.233  -0.665  1.00  0.00    -0.305 N 
ATOM     19  C   UNL     1       1.151  -2.456  -0.213  1.00  0.00     0.316 A 
ATOM     20  C   UNL     1      -0.167  -1.145  -1.822  1.00  0.00     0.068 A 
ATOM     21  O   UNL     1       1.849  -2.564   0.794  1.00  0.00    -0.263 OA
ATOM     22  C   UNL     1       0.804  -3.714  -1.011  1.00  0.00     0.316 A 
ATOM     23  C   UNL     1      -0.435  -2.291  -2.597  1.00  0.00     0.069 A 
ATOM     24  C   UNL     1      -0.718   0.078  -2.229  1.00  0.00     0.030 A 
ATOM     25  O   UNL     1       1.218  -4.796  -0.602  1.00  0.00    -0.263 OA
ATOM     26  N   UNL     1       0.041  -3.563  -2.169  1.00  0.00    -0.305 N 
ATOM     27  C   UNL     1      -1.171  -2.158  -3.798  1.00  0.00     0.050 A 
ATOM     28  C   UNL     1      -1.445   0.193  -3.416  1.00  0.00     0.024 A 
ATOM     29  C   UNL     1      -0.289  -4.767  -2.916  1.00  0.00     0.154 C 
ENDBRANCH  13  16
ENDBRANCH   9  13
ENDBRANCH   6   8
ENDBRANCH   5   6
ENDBRANCH   4   5
ENDBRANCH   3   4
ENDBRANCH   2   3
ENDBRANCH   1   2
BRANCH   1  30
ATOM     30  C   UNL     1      -6.102   0.879  -2.767  1.00  0.00     0.188 C 
BRANCH  30  31
ATOM     31  O   UNL     1      -7.018  -0.069  -3.237  1.00  0.00    -0.376 OA
BRANCH  31  32
ATOM     32  C   UNL     1      -8.098  -0.471  -2.413  1.00  0.00     0.202 C 
BRANCH  32  33
ATOM     33  C   UNL     1      -8.466   0.139  -1.040  1.00  0.00     0.261 C 
BRANCH  33  34
ATOM     34  O   UNL     1      -7.806   1.338  -0.615  1.00  0.00    -0.460 OA
BRANCH  34  35
ATOM     35  C   UNL     1      -6.845   1.185   0.335  1.00  0.00     0.338 C 
ATOM     36  O   UNL     1      -6.458   0.144   0.835  1.00  0.00    -0.246 OA
BRANCH  35  37
ATOM     37  C   UNL     1      -6.150   2.479   0.505  1.00  0.00     0.060 A 
ATOM     38  C   UNL     1      -6.839   3.586   0.993  1.00  0.00     0.016 A 
ATOM     39  C   UNL     1      -4.792   2.579   0.161  1.00  0.00     0.016 A 
ATOM     40  C   UNL     1      -6.162   4.798   1.152  1.00  0.00     0.010 A 
ATOM     41  C   UNL     1      -4.122   3.799   0.302  1.00  0.00     0.010 A 
ATOM     42  C   UNL     1      -4.798   4.912   0.820  1.00  0.00    -0.014 A 
BRANCH  42  43
ATOM     43  C   UNL     1      -4.063   6.149   1.184  1.00  0.00     0.031 A 
ATOM     44  C   UNL     1      -3.724   7.208   0.178  1.00  0.00     0.074 A 
ATOM     45  C   UNL     1      -3.719   6.317   2.475  1.00  0.00     0.049 A 
ATOM     46  N   UNL     1      -3.209   8.396   0.379  1.00  0.00    -0.248 NA
ATOM     47  C   UNL     1      -3.984   6.892  -1.232  1.00  0.00     0.031 C 
ATOM     48  C   UNL     1      -3.961   5.341   3.539  1.00  0.00     0.029 A 
ATOM     49  N   UNL     1      -3.115   7.368   3.115  1.00  0.00    -0.354 N 
ATOM     50  C   UNL     1      -3.109   8.986  -0.874  1.00  0.00     0.074 A 
ATOM     51  C   UNL     1      -3.564   7.999  -1.834  1.00  0.00     0.031 C 
ATOM     52  C   UNL     1      -3.548   5.856   4.707  1.00  0.00     0.029 A 
ATOM     53  C   UNL     1      -2.991   7.184   4.470  1.00  0.00     0.049 A 
ATOM     54  H   UNL     1      -2.801   8.176   2.648  1.00  0.00     0.167 HD
ATOM     55  C   UNL     1      -2.696  10.240  -1.187  1.00  0.00     0.037 A 
ATOM     56  C   UNL     1      -2.495   7.999   5.419  1.00  0.00     0.037 A 
ATOM     57  C   UNL     1      -2.220  11.209  -0.228  1.00  0.00     0.049 A 
ATOM     58  C   UNL     1      -1.992   9.361   5.032  1.00  0.00     0.074 A 
ATOM     59  C   UNL     1      -1.821  12.518  -0.448  1.00  0.00     0.029 A 
ATOM     60  N   UNL     1      -2.056  10.971   1.129  1.00  0.00    -0.354 N 
ATOM     61  N   UNL     1      -1.994   9.943   3.858  1.00  0.00    -0.248 NA
ATOM     62  C   UNL     1      -1.423  10.182   6.110  1.00  0.00     0.031 C 
ATOM     63  C   UNL     1      -1.357  13.049   0.762  1.00  0.00     0.029 A 
ATOM     64  C   UNL     1      -1.526  12.093   1.750  1.00  0.00     0.049 A 
ATOM     65  H   UNL     1      -2.283  10.129   1.585  1.00  0.00     0.167 HD
ATOM     66  C   UNL     1      -1.455  11.208   4.061  1.00  0.00     0.074 A 
ATOM     67  C   UNL     1      -1.161  11.314   5.475  1.00  0.00     0.031 C 
ATOM     68  C   UNL     1      -1.225  12.192   3.157  1.00  0.00     0.037 A 
BRANCH  55  69
ATOM     69  C   UNL     1      -2.733  10.641  -2.636  1.00  0.00     0.057 A 
ATOM     70  C   UNL     1      -1.550  10.885  -3.347  1.00  0.00     0.134 A 
ATOM     71  C   UNL     1      -3.943  10.836  -3.316  1.00  0.00     0.134 A 
ATOM     72  F   UNL     1      -0.356  10.733  -2.755  1.00  0.00    -0.206 F 
ATOM     73  C   UNL     1      -1.570  11.305  -4.678  1.00  0.00     0.040 A 
ATOM     74  C   UNL     1      -3.975  11.228  -4.657  1.00  0.00     0.040 A 
ATOM     75  F   UNL     1      -5.114  10.620  -2.697  1.00  0.00    -0.206 F 
ATOM     76  C   UNL     1      -2.785  11.469  -5.340  1.00  0.00     0.006 A 
ENDBRANCH  55  69
BRANCH  56  77
ATOM     77  C   UNL     1      -2.466   7.561   6.837  1.00  0.00     0.057 A 
ATOM     78  C   UNL     1      -1.620   6.531   7.264  1.00  0.00     0.134 A 
ATOM     79  C   UNL     1      -3.256   8.192   7.806  1.00  0.00     0.134 A 
ATOM     80  F   UNL     1      -0.845   5.882   6.382  1.00  0.00    -0.206 F 
ATOM     81  C   UNL     1      -1.558   6.145   8.602  1.00  0.00     0.040 A 
ATOM     82  C   UNL     1      -3.181   7.837   9.153  1.00  0.00     0.040 A 
ATOM     83  F   UNL     1      -4.074   9.196   7.460  1.00  0.00    -0.206 F 
ATOM     84  C   UNL     1      -2.330   6.808   9.554  1.00  0.00     0.006 A 
ENDBRANCH  56  77
BRANCH  68  85
ATOM     85  C   UNL     1      -0.649  13.478   3.682  1.00  0.00     0.057 A 
ATOM     86  C   UNL     1      -1.419  14.649   3.706  1.00  0.00     0.134 A 
ATOM     87  C   UNL     1       0.663  13.562   4.166  1.00  0.00     0.134 A 
ATOM     88  F   UNL     1      -2.681  14.645   3.252  1.00  0.00    -0.206 F 
ATOM     89  C   UNL     1      -0.907  15.852   4.196  1.00  0.00     0.040 A 
ATOM     90  C   UNL     1       1.176  14.752   4.689  1.00  0.00     0.040 A 
ATOM     91  F   UNL     1       1.451  12.476   4.188  1.00  0.00    -0.206 F 
ATOM     92  C   UNL     1       0.391  15.902   4.701  1.00  0.00     0.006 A 
ENDBRANCH  68  85
ENDBRANCH  42  43
ENDBRANCH  35  37
ENDBRANCH  34  35
ENDBRANCH  33  34
ENDBRANCH  32  33
ENDBRANCH  31  32
ENDBRANCH  30  31
ENDBRANCH   1  30
TORSDOF 19
