REMARK SMILES Cc1nc(NC(=O)[C@H]2[C@@H]3CC[C@@H](C3)[C@@H]2C(=O)OCCOCCOCCOC(=O)c2ccc(-c3c4nc(c(-c5c(F)cccc5F)c5ccc([nH]5)c(-c5c(F)cccc5F)c5nc(c(-c6c(F)cccc6F)c6ccc3[nH]6)C=C5)C=C4)cc2)sc1-c1ccccc1
REMARK SMILES IDX 21 1 20 2 19 3 18 4 17 5 15 6 16 7 14 8 8 9 9 10 10 11 13 12
REMARK SMILES IDX 12 13 11 14 6 15 5 16 7 18 4 19 1 20 2 21 3 22 84 23 83 24
REMARK SMILES IDX 85 25 86 26 90 27 87 28 89 29 88 30 22 31 23 32 24 33 25 34
REMARK SMILES IDX 26 35 27 36 28 37 29 38 30 39 82 40 31 41 81 42 32 43 33 44
REMARK SMILES IDX 34 45 75 46 35 47 80 48 74 49 76 50 36 51 79 52 73 53 72 54
REMARK SMILES IDX 37 56 63 57 46 58 62 59 47 60 50 61 61 62 77 63 48 64 49 65
REMARK SMILES IDX 60 67 78 68 51 69 38 70 39 71 44 72 40 73 41 74 43 75 45 76
REMARK SMILES IDX 42 77 64 78 65 79 70 80 66 81 67 82 69 83 71 84 68 85 52 86
REMARK SMILES IDX 53 87 58 88 54 89 55 90 57 91 59 92 56 93
REMARK H PARENT 5 17 76 55 50 66
REMARK Flexibility Score: inf
ROOT
ATOM      1  C   UNL     1      -1.236   1.307   3.093  1.00  0.00     0.188 C 
ENDROOT
BRANCH   1   2
ATOM      2  O   UNL     1      -2.275   1.553   4.029  1.00  0.00    -0.376 OA
BRANCH   2   3
ATOM      3  C   UNL     1      -3.544   0.968   3.753  1.00  0.00     0.202 C 
BRANCH   3   4
ATOM      4  C   UNL     1      -4.378   1.627   2.645  1.00  0.00     0.261 C 
BRANCH   4   5
ATOM      5  O   UNL     1      -3.709   1.699   1.377  1.00  0.00    -0.463 OA
BRANCH   5   6
ATOM      6  C   UNL     1      -3.144   2.907   1.065  1.00  0.00     0.310 C 
ATOM      7  O   UNL     1      -3.240   3.925   1.734  1.00  0.00    -0.252 OA
BRANCH   6   8
ATOM      8  C   UNL     1      -2.309   2.761  -0.202  1.00  0.00     0.115 C 
ATOM      9  C   UNL     1      -1.087   3.693  -0.285  1.00  0.00     0.096 C 
ATOM     10  C   UNL     1      -1.456   4.612  -1.478  1.00  0.00     0.003 C 
ATOM     11  C   UNL     1      -2.712   5.449  -1.127  1.00  0.00     0.005 C 
ATOM     12  C   UNL     1      -2.033   3.607  -2.466  1.00  0.00     0.009 C 
ATOM     13  C   UNL     1      -3.107   3.117  -1.485  1.00  0.00     0.004 C 
ATOM     14  C   UNL     1      -3.864   4.440  -1.280  1.00  0.00     0.005 C 
BRANCH   9  15
ATOM     15  C   UNL     1       0.365   3.163  -0.438  1.00  0.00     0.230 C 
ATOM     16  N   UNL     1       0.836   2.013  -0.981  1.00  0.00    -0.302 N 
ATOM     17  H   UNL     1       1.818   1.970  -1.044  1.00  0.00     0.172 HD
ATOM     18  O   UNL     1       1.269   3.919  -0.032  1.00  0.00    -0.274 OA
BRANCH  16  19
ATOM     19  C   UNL     1       0.200   0.905  -1.454  1.00  0.00     0.190 A 
ATOM     20  C   UNL     1      -2.819  -0.923  -1.577  1.00  0.00     0.068 C 
ATOM     21  C   UNL     1      -1.370  -0.608  -1.706  1.00  0.00     0.058 A 
ATOM     22  N   UNL     1      -1.062   0.735  -1.688  1.00  0.00    -0.225 NA
ATOM     23  C   UNL     1      -0.272  -1.467  -1.735  1.00  0.00     0.059 A 
ATOM     24  S   UNL     1       1.163  -0.486  -1.694  1.00  0.00    -0.096 S 
BRANCH  23  25
ATOM     25  C   UNL     1      -0.242  -2.945  -1.660  1.00  0.00    -0.006 A 
ATOM     26  C   UNL     1       0.752  -3.633  -0.956  1.00  0.00     0.009 A 
ATOM     27  C   UNL     1      -1.322  -3.700  -2.144  1.00  0.00     0.009 A 
ATOM     28  C   UNL     1       0.588  -4.976  -0.592  1.00  0.00     0.001 A 
ATOM     29  C   UNL     1      -1.489  -5.043  -1.791  1.00  0.00     0.001 A 
ATOM     30  C   UNL     1      -0.550  -5.671  -0.982  1.00  0.00     0.000 A 
ENDBRANCH  23  25
ENDBRANCH  16  19
ENDBRANCH   9  15
ENDBRANCH   6   8
ENDBRANCH   5   6
ENDBRANCH   4   5
ENDBRANCH   3   4
ENDBRANCH   2   3
ENDBRANCH   1   2
BRANCH   1  31
ATOM     31  C   UNL     1      -0.743  -0.127   2.967  1.00  0.00     0.188 C 
BRANCH  31  32
ATOM     32  O   UNL     1      -1.728  -1.111   2.671  1.00  0.00    -0.376 OA
BRANCH  32  33
ATOM     33  C   UNL     1      -1.169  -2.384   2.308  1.00  0.00     0.202 C 
BRANCH  33  34
ATOM     34  C   UNL     1      -0.264  -3.033   3.379  1.00  0.00     0.261 C 
BRANCH  34  35
ATOM     35  O   UNL     1       0.921  -2.261   3.694  1.00  0.00    -0.460 OA
BRANCH  35  36
ATOM     36  C   UNL     1       1.806  -2.113   2.692  1.00  0.00     0.338 C 
ATOM     37  O   UNL     1       1.818  -2.733   1.636  1.00  0.00    -0.246 OA
BRANCH  36  38
ATOM     38  C   UNL     1       2.671  -0.944   2.911  1.00  0.00     0.060 A 
ATOM     39  C   UNL     1       2.663   0.074   1.945  1.00  0.00     0.016 A 
ATOM     40  C   UNL     1       3.559  -0.895   3.981  1.00  0.00     0.016 A 
ATOM     41  C   UNL     1       3.578   1.118   2.010  1.00  0.00     0.010 A 
ATOM     42  C   UNL     1       4.492   0.145   4.037  1.00  0.00     0.010 A 
ATOM     43  C   UNL     1       4.531   1.131   3.032  1.00  0.00    -0.014 A 
BRANCH  43  44
ATOM     44  C   UNL     1       5.671   2.075   2.961  1.00  0.00     0.031 A 
ATOM     45  C   UNL     1       7.020   1.549   2.561  1.00  0.00     0.074 A 
ATOM     46  C   UNL     1       5.505   3.383   3.221  1.00  0.00     0.049 A 
ATOM     47  N   UNL     1       8.189   2.132   2.604  1.00  0.00    -0.248 NA
ATOM     48  C   UNL     1       7.052   0.171   2.044  1.00  0.00     0.031 C 
ATOM     49  C   UNL     1       4.230   4.030   3.520  1.00  0.00     0.029 A 
ATOM     50  N   UNL     1       6.425   4.398   3.285  1.00  0.00    -0.354 N 
ATOM     51  C   UNL     1       9.101   1.180   2.167  1.00  0.00     0.074 A 
ATOM     52  C   UNL     1       8.350  -0.017   1.857  1.00  0.00     0.031 C 
ATOM     53  C   UNL     1       4.451   5.333   3.761  1.00  0.00     0.029 A 
ATOM     54  C   UNL     1       5.886   5.593   3.690  1.00  0.00     0.049 A 
ATOM     55  H   UNL     1       7.377   4.280   3.063  1.00  0.00     0.167 HD
ATOM     56  C   UNL     1      10.445   1.296   2.047  1.00  0.00     0.037 A 
ATOM     57  C   UNL     1       6.490   6.752   4.017  1.00  0.00     0.037 A 
ATOM     58  C   UNL     1      11.175   2.504   2.332  1.00  0.00     0.049 A 
ATOM     59  C   UNL     1       7.989   6.846   3.930  1.00  0.00     0.074 A 
ATOM     60  C   UNL     1      12.536   2.735   2.240  1.00  0.00     0.029 A 
ATOM     61  N   UNL     1      10.596   3.690   2.762  1.00  0.00    -0.354 N 
ATOM     62  N   UNL     1       8.855   5.930   3.567  1.00  0.00    -0.248 NA
ATOM     63  C   UNL     1       8.594   8.131   4.305  1.00  0.00     0.031 C 
ATOM     64  C   UNL     1      12.784   4.048   2.656  1.00  0.00     0.029 A 
ATOM     65  C   UNL     1      11.573   4.651   2.959  1.00  0.00     0.049 A 
ATOM     66  H   UNL     1       9.631   3.828   2.905  1.00  0.00     0.167 HD
ATOM     67  C   UNL     1      10.105   6.530   3.654  1.00  0.00     0.074 A 
ATOM     68  C   UNL     1       9.881   7.894   4.090  1.00  0.00     0.031 C 
ATOM     69  C   UNL     1      11.327   6.002   3.397  1.00  0.00     0.037 A 
BRANCH  56  70
ATOM     70  C   UNL     1      11.210   0.066   1.653  1.00  0.00     0.057 A 
ATOM     71  C   UNL     1      11.165  -0.466   0.358  1.00  0.00     0.134 A 
ATOM     72  C   UNL     1      12.007  -0.598   2.595  1.00  0.00     0.134 A 
ATOM     73  F   UNL     1      10.406   0.108  -0.587  1.00  0.00    -0.206 F 
ATOM     74  C   UNL     1      11.861  -1.630   0.023  1.00  0.00     0.040 A 
ATOM     75  C   UNL     1      12.728  -1.747   2.266  1.00  0.00     0.040 A 
ATOM     76  F   UNL     1      12.096  -0.142   3.854  1.00  0.00    -0.206 F 
ATOM     77  C   UNL     1      12.649  -2.271   0.978  1.00  0.00     0.006 A 
ENDBRANCH  56  70
BRANCH  57  78
ATOM     78  C   UNL     1       5.674   7.891   4.505  1.00  0.00     0.057 A 
ATOM     79  C   UNL     1       5.499   9.046   3.737  1.00  0.00     0.134 A 
ATOM     80  C   UNL     1       5.031   7.839   5.749  1.00  0.00     0.134 A 
ATOM     81  F   UNL     1       6.112   9.167   2.550  1.00  0.00    -0.206 F 
ATOM     82  C   UNL     1       4.715  10.110   4.187  1.00  0.00     0.040 A 
ATOM     83  C   UNL     1       4.224   8.883   6.200  1.00  0.00     0.040 A 
ATOM     84  F   UNL     1       5.162   6.760   6.535  1.00  0.00    -0.206 F 
ATOM     85  C   UNL     1       4.066  10.025   5.418  1.00  0.00     0.006 A 
ENDBRANCH  57  78
BRANCH  69  86
ATOM     86  C   UNL     1      12.509   6.912   3.553  1.00  0.00     0.057 A 
ATOM     87  C   UNL     1      12.982   7.300   4.812  1.00  0.00     0.134 A 
ATOM     88  C   UNL     1      13.198   7.382   2.428  1.00  0.00     0.134 A 
ATOM     89  F   UNL     1      12.358   6.894   5.928  1.00  0.00    -0.206 F 
ATOM     90  C   UNL     1      14.086   8.144   4.947  1.00  0.00     0.040 A 
ATOM     91  C   UNL     1      14.318   8.205   2.550  1.00  0.00     0.040 A 
ATOM     92  F   UNL     1      12.802   7.039   1.193  1.00  0.00    -0.206 F 
ATOM     93  C   UNL     1      14.761   8.594   3.813  1.00  0.00     0.006 A 
ENDBRANCH  69  86
ENDBRANCH  43  44
ENDBRANCH  36  38
ENDBRANCH  35  36
ENDBRANCH  34  35
ENDBRANCH  33  34
ENDBRANCH  32  33
ENDBRANCH  31  32
ENDBRANCH   1  31
TORSDOF 20
