REMARK SMILES O=C(COCC(=O)OCCOCCOCCOC(=O)c1ccc(-c2c3nc(c(-c4c(F)cccc4F)c4ccc([nH]4)c(-c4c(F)cccc4F)c4nc(c(-c5c(F)cccc5F)c5ccc2[nH]5)C=C4)C=C3)cc1)/[NH+]=C1\S[C@@H]2CS(=O)(=O)C[C@H]2N1c1ccc(Cl)cc1
REMARK SMILES IDX 12 1 11 2 10 3 9 4 8 5 6 6 7 7 5 8 4 9 3 10 2 11 1 12 74 13
REMARK SMILES IDX 75 14 76 16 84 17 77 18 83 19 78 20 82 21 79 22 80 23 81 24
REMARK SMILES IDX 85 25 86 26 91 27 87 28 90 29 88 30 89 31 13 32 14 33 15 34
REMARK SMILES IDX 16 35 17 36 18 37 19 38 20 39 21 40 73 41 22 42 72 43 23 44
REMARK SMILES IDX 24 45 25 46 66 47 26 48 71 49 65 50 67 51 27 52 70 53 64 54
REMARK SMILES IDX 63 55 28 57 54 58 37 59 53 60 38 61 41 62 52 63 68 64 39 65
REMARK SMILES IDX 40 66 51 68 69 69 42 70 29 71 30 72 35 73 31 74 32 75 34 76
REMARK SMILES IDX 36 77 33 78 55 79 56 80 61 81 57 82 58 83 60 84 62 85 59 86
REMARK SMILES IDX 43 87 44 88 49 89 45 90 46 91 48 92 50 93 47 94
REMARK H PARENT 74 15 67 56 41 67
REMARK Flexibility Score: inf
ROOT
ATOM      1  C   UNL     1      -0.097   0.021  -3.051  1.00  0.00     0.188 C 
ENDROOT
BRANCH   1   2
ATOM      2  O   UNL     1      -0.557   0.304  -4.369  1.00  0.00    -0.376 OA
BRANCH   2   3
ATOM      3  C   UNL     1       0.292  -0.119  -5.431  1.00  0.00     0.202 C 
BRANCH   3   4
ATOM      4  C   UNL     1       1.599   0.664  -5.638  1.00  0.00     0.261 C 
BRANCH   4   5
ATOM      5  O   UNL     1       2.431   0.832  -4.471  1.00  0.00    -0.462 OA
BRANCH   5   6
ATOM      6  C   UNL     1       2.529   2.105  -3.991  1.00  0.00     0.332 C 
ATOM      7  O   UNL     1       1.939   3.074  -4.458  1.00  0.00    -0.250 OA
BRANCH   6   8
ATOM      8  C   UNL     1       3.478   2.243  -2.780  1.00  0.00     0.283 C 
BRANCH   8   9
ATOM      9  O   UNL     1       4.150   1.146  -2.178  1.00  0.00    -0.358 OA
BRANCH   9  10
ATOM     10  C   UNL     1       3.277   0.297  -1.458  1.00  0.00     0.288 C 
BRANCH  10  11
ATOM     11  C   UNL     1       2.691   0.771  -0.106  1.00  0.00     0.333 C 
ATOM     12  O   UNL     1       1.468   0.917  -0.040  1.00  0.00    -0.244 OA
ATOM     13  N   UNL     1       3.484   1.148   0.950  1.00  0.00    -0.202 N 
ATOM     14  C   UNL     1       4.618   0.643   1.291  1.00  0.00     0.319 C 
ATOM     15  H   UNL     1       3.148   1.887   1.508  1.00  0.00     0.316 HD
ATOM     16  S   UNL     1       5.456  -0.704   0.480  1.00  0.00    -0.029 SA
ATOM     17  N   UNL     1       5.480   1.148   2.273  1.00  0.00    -0.217 N 
ATOM     18  C   UNL     1       6.967   0.238   0.685  1.00  0.00     0.120 C 
ATOM     19  C   UNL     1       6.851   0.608   2.173  1.00  0.00     0.212 C 
ATOM     20  C   UNL     1       8.320  -0.359   0.435  1.00  0.00     0.156 C 
ATOM     21  C   UNL     1       8.046   1.506   2.386  1.00  0.00     0.188 C 
ATOM     22  S   UNL     1       9.356   0.647   1.500  1.00  0.00     0.155 S 
ATOM     23  O   UNL     1      10.063   1.610   0.692  1.00  0.00    -0.229 OA
ATOM     24  O   UNL     1      10.030  -0.239   2.430  1.00  0.00    -0.229 OA
BRANCH  17  25
ATOM     25  C   UNL     1       5.053   1.827   3.423  1.00  0.00     0.128 A 
ATOM     26  C   UNL     1       5.662   3.024   3.828  1.00  0.00     0.053 A 
ATOM     27  C   UNL     1       3.975   1.360   4.197  1.00  0.00     0.053 A 
ATOM     28  C   UNL     1       5.230   3.723   4.961  1.00  0.00     0.025 A 
ATOM     29  C   UNL     1       3.540   2.052   5.338  1.00  0.00     0.025 A 
ATOM     30  C   UNL     1       4.171   3.232   5.715  1.00  0.00     0.041 A 
ATOM     31  Cl  UNL     1       3.638   4.100   7.101  1.00  0.00    -0.084 Cl
ENDBRANCH  17  25
ENDBRANCH  10  11
ENDBRANCH   9  10
ENDBRANCH   8   9
ENDBRANCH   6   8
ENDBRANCH   5   6
ENDBRANCH   4   5
ENDBRANCH   3   4
ENDBRANCH   2   3
ENDBRANCH   1   2
BRANCH   1  32
ATOM     32  C   UNL     1       0.262  -1.444  -2.779  1.00  0.00     0.188 C 
BRANCH  32  33
ATOM     33  O   UNL     1       1.385  -1.918  -3.510  1.00  0.00    -0.376 OA
BRANCH  33  34
ATOM     34  C   UNL     1       1.684  -3.317  -3.463  1.00  0.00     0.202 C 
BRANCH  34  35
ATOM     35  C   UNL     1       0.655  -4.351  -2.946  1.00  0.00     0.261 C 
BRANCH  35  36
ATOM     36  O   UNL     1      -0.069  -3.993  -1.752  1.00  0.00    -0.460 OA
BRANCH  36  37
ATOM     37  C   UNL     1       0.662  -3.811  -0.629  1.00  0.00     0.338 C 
ATOM     38  O   UNL     1       1.842  -4.083  -0.488  1.00  0.00    -0.246 OA
BRANCH  37  39
ATOM     39  C   UNL     1      -0.119  -2.973   0.323  1.00  0.00     0.060 A 
ATOM     40  C   UNL     1       0.568  -1.923   0.941  1.00  0.00     0.016 A 
ATOM     41  C   UNL     1      -1.486  -3.135   0.566  1.00  0.00     0.016 A 
ATOM     42  C   UNL     1      -0.087  -1.055   1.816  1.00  0.00     0.010 A 
ATOM     43  C   UNL     1      -2.140  -2.277   1.471  1.00  0.00     0.010 A 
ATOM     44  C   UNL     1      -1.436  -1.247   2.126  1.00  0.00    -0.014 A 
BRANCH  44  45
ATOM     45  C   UNL     1      -2.009  -0.510   3.289  1.00  0.00     0.031 A 
ATOM     46  C   UNL     1      -2.115  -1.232   4.608  1.00  0.00     0.074 A 
ATOM     47  C   UNL     1      -2.320   0.800   3.238  1.00  0.00     0.049 A 
ATOM     48  N   UNL     1      -2.549  -0.805   5.768  1.00  0.00    -0.248 NA
ATOM     49  C   UNL     1      -1.652  -2.628   4.619  1.00  0.00     0.031 C 
ATOM     50  C   UNL     1      -2.174   1.663   2.069  1.00  0.00     0.029 A 
ATOM     51  N   UNL     1      -2.808   1.638   4.215  1.00  0.00    -0.354 N 
ATOM     52  C   UNL     1      -2.432  -1.883   6.637  1.00  0.00     0.074 A 
ATOM     53  C   UNL     1      -1.907  -2.990   5.865  1.00  0.00     0.031 C 
ATOM     54  C   UNL     1      -2.558   2.911   2.397  1.00  0.00     0.029 A 
ATOM     55  C   UNL     1      -3.010   2.929   3.789  1.00  0.00     0.049 A 
ATOM     56  H   UNL     1      -2.996   1.340   5.134  1.00  0.00     0.167 HD
ATOM     57  C   UNL     1      -2.725  -1.952   7.958  1.00  0.00     0.037 A 
ATOM     58  C   UNL     1      -3.511   3.999   4.440  1.00  0.00     0.037 A 
ATOM     59  C   UNL     1      -3.236  -0.856   8.739  1.00  0.00     0.049 A 
ATOM     60  C   UNL     1      -3.932   3.870   5.884  1.00  0.00     0.074 A 
ATOM     61  C   UNL     1      -3.553  -0.834  10.087  1.00  0.00     0.029 A 
ATOM     62  N   UNL     1      -3.517   0.409   8.244  1.00  0.00    -0.354 N 
ATOM     63  N   UNL     1      -3.824   2.845   6.695  1.00  0.00    -0.248 NA
ATOM     64  C   UNL     1      -4.547   5.056   6.502  1.00  0.00     0.031 C 
ATOM     65  C   UNL     1      -4.090   0.422  10.392  1.00  0.00     0.029 A 
ATOM     66  C   UNL     1      -4.038   1.207   9.252  1.00  0.00     0.049 A 
ATOM     67  H   UNL     1      -3.368   0.698   7.315  1.00  0.00     0.167 HD
ATOM     68  C   UNL     1      -4.320   3.274   7.923  1.00  0.00     0.074 A 
ATOM     69  C   UNL     1      -4.715   4.656   7.753  1.00  0.00     0.031 C 
ATOM     70  C   UNL     1      -4.433   2.584   9.085  1.00  0.00     0.037 A 
BRANCH  57  71
ATOM     71  C   UNL     1      -2.558  -3.288   8.625  1.00  0.00     0.057 A 
ATOM     72  C   UNL     1      -1.302  -3.866   8.852  1.00  0.00     0.134 A 
ATOM     73  C   UNL     1      -3.684  -4.011   9.043  1.00  0.00     0.134 A 
ATOM     74  F   UNL     1      -0.183  -3.237   8.461  1.00  0.00    -0.206 F 
ATOM     75  C   UNL     1      -1.174  -5.130   9.432  1.00  0.00     0.040 A 
ATOM     76  C   UNL     1      -3.567  -5.259   9.655  1.00  0.00     0.040 A 
ATOM     77  F   UNL     1      -4.918  -3.515   8.862  1.00  0.00    -0.206 F 
ATOM     78  C   UNL     1      -2.309  -5.827   9.840  1.00  0.00     0.006 A 
ENDBRANCH  57  71
BRANCH  58  79
ATOM     79  C   UNL     1      -3.666   5.303   3.739  1.00  0.00     0.057 A 
ATOM     80  C   UNL     1      -2.927   6.429   4.123  1.00  0.00     0.134 A 
ATOM     81  C   UNL     1      -4.599   5.470   2.708  1.00  0.00     0.134 A 
ATOM     82  F   UNL     1      -2.046   6.348   5.131  1.00  0.00    -0.206 F 
ATOM     83  C   UNL     1      -3.120   7.674   3.519  1.00  0.00     0.040 A 
ATOM     84  C   UNL     1      -4.782   6.701   2.076  1.00  0.00     0.040 A 
ATOM     85  F   UNL     1      -5.353   4.437   2.303  1.00  0.00    -0.206 F 
ATOM     86  C   UNL     1      -4.046   7.810   2.487  1.00  0.00     0.006 A 
ENDBRANCH  58  79
BRANCH  70  87
ATOM     87  C   UNL     1      -4.963   3.326  10.284  1.00  0.00     0.057 A 
ATOM     88  C   UNL     1      -6.292   3.764  10.367  1.00  0.00     0.134 A 
ATOM     89  C   UNL     1      -4.131   3.599  11.378  1.00  0.00     0.134 A 
ATOM     90  F   UNL     1      -7.146   3.544   9.355  1.00  0.00    -0.206 F 
ATOM     91  C   UNL     1      -6.760   4.483  11.470  1.00  0.00     0.040 A 
ATOM     92  C   UNL     1      -4.596   4.286  12.502  1.00  0.00     0.040 A 
ATOM     93  F   UNL     1      -2.851   3.198  11.379  1.00  0.00    -0.206 F 
ATOM     94  C   UNL     1      -5.911   4.742  12.544  1.00  0.00     0.006 A 
ENDBRANCH  70  87
ENDBRANCH  44  45
ENDBRANCH  37  39
ENDBRANCH  36  37
ENDBRANCH  35  36
ENDBRANCH  34  35
ENDBRANCH  33  34
ENDBRANCH  32  33
ENDBRANCH   1  32
TORSDOF 21
