REMARK SMILES Cc1oc(C)c(C(=O)Nc2cc(C(=O)OCCOCCOCCOC(=O)c3ccc(-c4c5nc(c(-c6c(F)cccc6F)c6ccc([nH]6)c(-c6c(F)cccc6F)c6nc(c(-c7c(F)cccc7F)c7ccc4[nH]7)C=C6)C=C5)cc3)ccc2Cl)c1C
REMARK SMILES IDX 19 1 18 2 17 3 16 4 15 5 13 6 14 7 12 8 10 9 11 10 83 11
REMARK SMILES IDX 82 12 84 13 81 14 9 15 7 16 8 17 6 19 1 20 2 21 3 22 85 23
REMARK SMILES IDX 4 24 86 25 5 26 20 27 21 28 22 29 23 30 24 31 25 32 26 33
REMARK SMILES IDX 27 34 28 35 80 36 29 37 79 38 30 39 31 40 32 41 73 42 33 43
REMARK SMILES IDX 78 44 72 45 74 46 34 47 77 48 71 49 70 50 35 52 61 53 44 54
REMARK SMILES IDX 60 55 45 56 48 57 59 58 75 59 46 60 47 61 58 63 76 64 49 65
REMARK SMILES IDX 36 66 37 67 42 68 38 69 39 70 41 71 43 72 40 73 62 74 63 75
REMARK SMILES IDX 68 76 64 77 65 78 67 79 69 80 66 81 50 82 51 83 56 84 52 85
REMARK SMILES IDX 53 86 55 87 57 88 54 89
REMARK H PARENT 9 18 74 51 48 62
REMARK Flexibility Score: inf
ROOT
ATOM      1  C   UNL     1      -1.344   4.453   6.483  1.00  0.00     0.188 C 
ENDROOT
BRANCH   1   2
ATOM      2  O   UNL     1      -0.679   5.598   6.963  1.00  0.00    -0.376 OA
BRANCH   2   3
ATOM      3  C   UNL     1       0.417   6.156   6.253  1.00  0.00     0.202 C 
BRANCH   3   4
ATOM      4  C   UNL     1       1.172   5.461   5.102  1.00  0.00     0.261 C 
BRANCH   4   5
ATOM      5  O   UNL     1       0.385   4.618   4.255  1.00  0.00    -0.460 OA
BRANCH   5   6
ATOM      6  C   UNL     1       0.683   3.304   4.322  1.00  0.00     0.338 C 
ATOM      7  O   UNL     1       1.627   2.795   4.916  1.00  0.00    -0.246 OA
BRANCH   6   8
ATOM      8  C   UNL     1      -0.411   2.479   3.766  1.00  0.00     0.062 A 
ATOM      9  C   UNL     1      -1.517   0.329   3.865  1.00  0.00     0.061 A 
ATOM     10  C   UNL     1      -0.724   1.304   4.466  1.00  0.00     0.043 A 
ATOM     11  C   UNL     1      -2.167   0.612   2.655  1.00  0.00     0.064 A 
ATOM     12  C   UNL     1      -1.972   1.854   2.032  1.00  0.00     0.023 A 
ATOM     13  Cl  UNL     1      -3.252  -0.511   1.923  1.00  0.00    -0.082 Cl
ATOM     14  C   UNL     1      -1.066   2.780   2.567  1.00  0.00     0.017 A 
BRANCH   9  15
ATOM     15  N   UNL     1      -1.505  -0.928   4.486  1.00  0.00    -0.320 N 
ATOM     16  C   UNL     1      -0.899  -2.095   4.048  1.00  0.00     0.259 C 
ATOM     17  O   UNL     1      -1.025  -3.087   4.768  1.00  0.00    -0.269 OA
ATOM     18  H   UNL     1      -1.987  -0.989   5.342  1.00  0.00     0.170 HD
BRANCH  16  19
ATOM     19  C   UNL     1      -0.141  -2.138   2.794  1.00  0.00     0.084 A 
ATOM     20  C   UNL     1       1.383  -1.051  -0.393  1.00  0.00     0.088 C 
ATOM     21  C   UNL     1       0.860  -1.669   0.841  1.00  0.00     0.104 A 
ATOM     22  O   UNL     1       0.532  -2.981   0.804  1.00  0.00    -0.466 OA
ATOM     23  C   UNL     1       0.711  -1.189   2.124  1.00  0.00     0.003 A 
ATOM     24  C   UNL     1       0.039  -3.292   2.038  1.00  0.00     0.114 A 
ATOM     25  C   UNL     1       1.372   0.046   2.595  1.00  0.00     0.049 C 
ATOM     26  C   UNL     1      -0.136  -4.738   2.291  1.00  0.00     0.088 C 
ENDBRANCH  16  19
ENDBRANCH   9  15
ENDBRANCH   6   8
ENDBRANCH   5   6
ENDBRANCH   4   5
ENDBRANCH   3   4
ENDBRANCH   2   3
ENDBRANCH   1   2
BRANCH   1  27
ATOM     27  C   UNL     1      -2.329   4.587   5.301  1.00  0.00     0.188 C 
BRANCH  27  28
ATOM     28  O   UNL     1      -2.215   5.581   4.303  1.00  0.00    -0.376 OA
BRANCH  28  29
ATOM     29  C   UNL     1      -2.337   6.972   4.557  1.00  0.00     0.202 C 
BRANCH  29  30
ATOM     30  C   UNL     1      -3.220   7.576   5.646  1.00  0.00     0.261 C 
BRANCH  30  31
ATOM     31  O   UNL     1      -3.417   6.737   6.759  1.00  0.00    -0.460 OA
BRANCH  31  32
ATOM     32  C   UNL     1      -4.530   5.984   6.654  1.00  0.00     0.338 C 
ATOM     33  O   UNL     1      -5.319   5.943   5.726  1.00  0.00    -0.246 OA
BRANCH  32  34
ATOM     34  C   UNL     1      -4.651   5.173   7.869  1.00  0.00     0.060 A 
ATOM     35  C   UNL     1      -5.698   4.254   7.853  1.00  0.00     0.016 A 
ATOM     36  C   UNL     1      -4.106   5.700   9.045  1.00  0.00     0.016 A 
ATOM     37  C   UNL     1      -6.479   4.204   8.973  1.00  0.00     0.010 A 
ATOM     38  C   UNL     1      -4.898   5.669  10.154  1.00  0.00     0.010 A 
ATOM     39  C   UNL     1      -6.132   5.034  10.044  1.00  0.00    -0.014 A 
BRANCH  39  40
ATOM     40  C   UNL     1      -7.082   5.180  11.114  1.00  0.00     0.031 A 
ATOM     41  C   UNL     1      -7.083   3.983  11.966  1.00  0.00     0.074 A 
ATOM     42  C   UNL     1      -7.785   6.315  11.288  1.00  0.00     0.049 A 
ATOM     43  N   UNL     1      -7.985   3.063  12.004  1.00  0.00    -0.248 NA
ATOM     44  C   UNL     1      -5.829   3.631  12.652  1.00  0.00     0.031 C 
ATOM     45  C   UNL     1      -7.622   7.594  10.586  1.00  0.00     0.029 A 
ATOM     46  N   UNL     1      -8.746   6.591  12.210  1.00  0.00    -0.354 N 
ATOM     47  C   UNL     1      -7.518   2.155  12.944  1.00  0.00     0.074 A 
ATOM     48  C   UNL     1      -6.113   2.407  13.097  1.00  0.00     0.031 C 
ATOM     49  C   UNL     1      -8.287   8.562  11.259  1.00  0.00     0.029 A 
ATOM     50  C   UNL     1      -9.030   7.947  12.344  1.00  0.00     0.049 A 
ATOM     51  H   UNL     1      -9.200   5.894  12.736  1.00  0.00     0.167 HD
ATOM     52  C   UNL     1      -8.397   1.551  13.785  1.00  0.00     0.037 A 
ATOM     53  C   UNL     1      -9.787   8.501  13.322  1.00  0.00     0.037 A 
ATOM     54  C   UNL     1      -9.745   1.682  13.289  1.00  0.00     0.049 A 
ATOM     55  C   UNL     1     -10.634   7.426  13.888  1.00  0.00     0.074 A 
ATOM     56  C   UNL     1     -10.491   1.130  12.271  1.00  0.00     0.029 A 
ATOM     57  N   UNL     1     -10.362   2.847  13.667  1.00  0.00    -0.354 N 
ATOM     58  N   UNL     1     -11.601   6.859  13.223  1.00  0.00    -0.248 NA
ATOM     59  C   UNL     1     -10.167   6.687  15.056  1.00  0.00     0.031 C 
ATOM     60  C   UNL     1     -11.485   2.097  11.938  1.00  0.00     0.029 A 
ATOM     61  C   UNL     1     -11.350   3.195  12.787  1.00  0.00     0.049 A 
ATOM     62  H   UNL     1     -10.125   3.366  14.469  1.00  0.00     0.167 HD
ATOM     63  C   UNL     1     -11.560   5.534  13.616  1.00  0.00     0.074 A 
ATOM     64  C   UNL     1     -10.794   5.524  14.856  1.00  0.00     0.031 C 
ATOM     65  C   UNL     1     -11.866   4.544  12.730  1.00  0.00     0.037 A 
BRANCH  52  66
ATOM     66  C   UNL     1      -8.128   1.345  15.258  1.00  0.00     0.057 A 
ATOM     67  C   UNL     1      -9.060   0.613  16.013  1.00  0.00     0.134 A 
ATOM     68  C   UNL     1      -7.187   2.075  16.018  1.00  0.00     0.134 A 
ATOM     69  F   UNL     1     -10.019  -0.105  15.410  1.00  0.00    -0.206 F 
ATOM     70  C   UNL     1      -9.091   0.658  17.412  1.00  0.00     0.040 A 
ATOM     71  C   UNL     1      -7.178   2.085  17.414  1.00  0.00     0.040 A 
ATOM     72  F   UNL     1      -6.293   2.904  15.468  1.00  0.00    -0.206 F 
ATOM     73  C   UNL     1      -8.152   1.400  18.117  1.00  0.00     0.006 A 
ENDBRANCH  52  66
BRANCH  53  74
ATOM     74  C   UNL     1      -9.659   9.820  13.975  1.00  0.00     0.057 A 
ATOM     75  C   UNL     1     -10.733  10.407  14.658  1.00  0.00     0.134 A 
ATOM     76  C   UNL     1      -8.396  10.394  14.194  1.00  0.00     0.134 A 
ATOM     77  F   UNL     1     -11.970   9.903  14.542  1.00  0.00    -0.206 F 
ATOM     78  C   UNL     1     -10.557  11.488  15.532  1.00  0.00     0.040 A 
ATOM     79  C   UNL     1      -8.206  11.473  15.064  1.00  0.00     0.040 A 
ATOM     80  F   UNL     1      -7.295   9.864  13.642  1.00  0.00    -0.206 F 
ATOM     81  C   UNL     1      -9.287  12.015  15.748  1.00  0.00     0.006 A 
ENDBRANCH  53  74
BRANCH  65  82
ATOM     82  C   UNL     1     -12.669   4.938  11.528  1.00  0.00     0.057 A 
ATOM     83  C   UNL     1     -12.190   5.732  10.477  1.00  0.00     0.134 A 
ATOM     84  C   UNL     1     -13.965   4.429  11.405  1.00  0.00     0.134 A 
ATOM     85  F   UNL     1     -10.934   6.198  10.479  1.00  0.00    -0.206 F 
ATOM     86  C   UNL     1     -12.986   6.038   9.370  1.00  0.00     0.040 A 
ATOM     87  C   UNL     1     -14.759   4.701  10.291  1.00  0.00     0.040 A 
ATOM     88  F   UNL     1     -14.468   3.628  12.357  1.00  0.00    -0.206 F 
ATOM     89  C   UNL     1     -14.274   5.518   9.273  1.00  0.00     0.006 A 
ENDBRANCH  65  82
ENDBRANCH  39  40
ENDBRANCH  32  34
ENDBRANCH  31  32
ENDBRANCH  30  31
ENDBRANCH  29  30
ENDBRANCH  28  29
ENDBRANCH  27  28
ENDBRANCH   1  27
TORSDOF 19
