REMARK SMILES C=CC[N@H+](CC(=O)OCCOCCOCCOC(=O)c1ccc(-c2c3nc(c(-c4c(F)cccc4F)c4ccc([nH]4)c(-c4c(F)cccc4F)c4nc(c(-c5c(F)cccc5F)c5ccc2[nH]5)C=C4)C=C3)cc1)Cc1ccnc(C#N)c1
REMARK SMILES IDX 12 1 11 2 10 3 9 4 8 5 6 6 7 7 5 8 4 9 3 11 2 12 1 13 74 14
REMARK SMILES IDX 75 15 76 16 82 17 77 18 79 19 78 20 80 21 81 22 13 23 14 24
REMARK SMILES IDX 15 25 16 26 17 27 18 28 19 29 20 30 21 31 73 32 22 33 72 34
REMARK SMILES IDX 23 35 24 36 25 37 66 38 26 39 71 40 65 41 67 42 27 43 70 44
REMARK SMILES IDX 64 45 63 46 28 48 54 49 37 50 53 51 38 52 41 53 52 54 68 55
REMARK SMILES IDX 39 56 40 57 51 59 69 60 42 61 29 62 30 63 35 64 31 65 32 66
REMARK SMILES IDX 34 67 36 68 33 69 55 70 56 71 61 72 57 73 58 74 60 75 62 76
REMARK SMILES IDX 59 77 43 78 44 79 49 80 45 81 46 82 48 83 50 84 47 85
REMARK H PARENT 4 10 67 47 41 58
REMARK Flexibility Score: inf
ROOT
ATOM      1  C   UNL     1      -4.749  -0.223   2.759  1.00  0.00     0.188 C 
ENDROOT
BRANCH   1   2
ATOM      2  O   UNL     1      -5.640  -1.206   2.268  1.00  0.00    -0.376 OA
BRANCH   2   3
ATOM      3  C   UNL     1      -5.147  -2.087   1.272  1.00  0.00     0.202 C 
BRANCH   3   4
ATOM      4  C   UNL     1      -4.932  -1.494  -0.125  1.00  0.00     0.261 C 
BRANCH   4   5
ATOM      5  O   UNL     1      -4.061  -0.343  -0.162  1.00  0.00    -0.459 OA
BRANCH   5   6
ATOM      6  C   UNL     1      -4.502   0.689  -0.935  1.00  0.00     0.361 C 
ATOM      7  O   UNL     1      -5.598   0.711  -1.494  1.00  0.00    -0.245 OA
BRANCH   6   8
ATOM      8  C   UNL     1      -3.586   1.908  -1.006  1.00  0.00     0.387 C 
BRANCH   8   9
ATOM      9  N   UNL     1      -2.150   1.708  -0.747  1.00  0.00    -0.319 N 
ATOM     10  H   UNL     1      -2.066   1.155   0.106  1.00  0.00     0.349 HD
BRANCH   9  11
ATOM     11  C   UNL     1      -1.476   0.778  -1.652  1.00  0.00     0.291 C 
BRANCH  11  12
ATOM     12  C   UNL     1       0.029   0.850  -1.732  1.00  0.00     0.025 C 
ATOM     13  C   UNL     1       0.885  -0.103  -1.333  1.00  0.00     0.010 C 
ENDBRANCH  11  12
ENDBRANCH   9  11
BRANCH   9  14
ATOM     14  C   UNL     1      -1.473   2.958  -0.374  1.00  0.00     0.299 C 
BRANCH  14  15
ATOM     15  C   UNL     1      -1.033   2.739   1.053  1.00  0.00     0.011 A 
ATOM     16  C   UNL     1      -1.993   2.921   2.041  1.00  0.00     0.030 A 
ATOM     17  C   UNL     1       0.085   1.922   1.280  1.00  0.00     0.049 A 
ATOM     18  C   UNL     1      -1.900   2.099   3.119  1.00  0.00     0.113 A 
ATOM     19  C   UNL     1       0.027   1.055   2.339  1.00  0.00     0.140 A 
ATOM     20  N   UNL     1      -0.947   1.146   3.261  1.00  0.00    -0.246 NA
BRANCH  19  21
ATOM     21  C   UNL     1       0.837  -0.138   2.359  1.00  0.00     0.119 C 
ATOM     22  N   UNL     1       1.445  -1.125   2.299  1.00  0.00    -0.191 NA
ENDBRANCH  19  21
ENDBRANCH  14  15
ENDBRANCH   9  14
ENDBRANCH   8   9
ENDBRANCH   6   8
ENDBRANCH   5   6
ENDBRANCH   4   5
ENDBRANCH   3   4
ENDBRANCH   2   3
ENDBRANCH   1   2
BRANCH   1  23
ATOM     23  C   UNL     1      -3.296  -0.584   3.128  1.00  0.00     0.188 C 
BRANCH  23  24
ATOM     24  O   UNL     1      -2.946  -1.901   3.496  1.00  0.00    -0.376 OA
BRANCH  24  25
ATOM     25  C   UNL     1      -2.335  -2.074   4.787  1.00  0.00     0.202 C 
BRANCH  25  26
ATOM     26  C   UNL     1      -1.134  -1.206   5.290  1.00  0.00     0.261 C 
BRANCH  26  27
ATOM     27  O   UNL     1      -1.495   0.113   5.799  1.00  0.00    -0.460 OA
BRANCH  27  28
ATOM     28  C   UNL     1      -0.454   1.001   5.960  1.00  0.00     0.338 C 
ATOM     29  O   UNL     1       0.736   0.753   5.841  1.00  0.00    -0.246 OA
BRANCH  28  30
ATOM     30  C   UNL     1      -0.979   2.402   6.121  1.00  0.00     0.060 A 
ATOM     31  C   UNL     1      -0.518   3.430   5.275  1.00  0.00     0.016 A 
ATOM     32  C   UNL     1      -2.010   2.690   7.013  1.00  0.00     0.016 A 
ATOM     33  C   UNL     1      -1.191   4.667   5.204  1.00  0.00     0.010 A 
ATOM     34  C   UNL     1      -2.618   3.962   7.010  1.00  0.00     0.010 A 
ATOM     35  C   UNL     1      -2.246   4.954   6.083  1.00  0.00    -0.014 A 
BRANCH  35  36
ATOM     36  C   UNL     1      -2.764   6.354   6.223  1.00  0.00     0.031 A 
ATOM     37  C   UNL     1      -1.929   7.319   7.025  1.00  0.00     0.074 A 
ATOM     38  C   UNL     1      -3.936   6.791   5.711  1.00  0.00     0.049 A 
ATOM     39  N   UNL     1      -2.165   8.566   7.350  1.00  0.00    -0.248 NA
ATOM     40  C   UNL     1      -0.650   6.796   7.531  1.00  0.00     0.031 C 
ATOM     41  C   UNL     1      -4.852   6.021   4.875  1.00  0.00     0.029 A 
ATOM     42  N   UNL     1      -4.562   8.017   5.841  1.00  0.00    -0.354 N 
ATOM     43  C   UNL     1      -1.061   8.976   8.086  1.00  0.00     0.074 A 
ATOM     44  C   UNL     1      -0.170   7.841   8.182  1.00  0.00     0.031 C 
ATOM     45  C   UNL     1      -5.928   6.780   4.586  1.00  0.00     0.029 A 
ATOM     46  C   UNL     1      -5.798   8.087   5.236  1.00  0.00     0.049 A 
ATOM     47  H   UNL     1      -4.159   8.774   6.324  1.00  0.00     0.167 HD
ATOM     48  C   UNL     1      -0.800  10.181   8.644  1.00  0.00     0.037 A 
ATOM     49  C   UNL     1      -6.723   9.075   5.224  1.00  0.00     0.037 A 
ATOM     50  C   UNL     1      -1.690  11.309   8.622  1.00  0.00     0.049 A 
ATOM     51  C   UNL     1      -6.460  10.377   5.954  1.00  0.00     0.074 A 
ATOM     52  C   UNL     1      -1.501  12.562   9.178  1.00  0.00     0.029 A 
ATOM     53  N   UNL     1      -2.947  11.316   8.041  1.00  0.00    -0.354 N 
ATOM     54  N   UNL     1      -5.392  10.764   6.608  1.00  0.00    -0.248 NA
ATOM     55  C   UNL     1      -7.540  11.382   5.941  1.00  0.00     0.031 C 
ATOM     56  C   UNL     1      -2.669  13.307   8.989  1.00  0.00     0.029 A 
ATOM     57  C   UNL     1      -3.557  12.542   8.252  1.00  0.00     0.049 A 
ATOM     58  H   UNL     1      -3.347  10.561   7.551  1.00  0.00     0.167 HD
ATOM     59  C   UNL     1      -5.657  12.061   7.046  1.00  0.00     0.074 A 
ATOM     60  C   UNL     1      -6.979  12.403   6.572  1.00  0.00     0.031 C 
ATOM     61  C   UNL     1      -4.870  12.893   7.774  1.00  0.00     0.037 A 
BRANCH  48  62
ATOM     62  C   UNL     1       0.502  10.315   9.375  1.00  0.00     0.057 A 
ATOM     63  C   UNL     1       1.730  10.334   8.698  1.00  0.00     0.134 A 
ATOM     64  C   UNL     1       0.529  10.419  10.771  1.00  0.00     0.134 A 
ATOM     65  F   UNL     1       1.772  10.212   7.363  1.00  0.00    -0.206 F 
ATOM     66  C   UNL     1       2.939  10.421   9.388  1.00  0.00     0.040 A 
ATOM     67  C   UNL     1       1.730  10.539  11.469  1.00  0.00     0.040 A 
ATOM     68  F   UNL     1      -0.611  10.405  11.477  1.00  0.00    -0.206 F 
ATOM     69  C   UNL     1       2.940  10.531  10.777  1.00  0.00     0.006 A 
ENDBRANCH  48  62
BRANCH  49  70
ATOM     70  C   UNL     1      -8.027   8.897   4.518  1.00  0.00     0.057 A 
ATOM     71  C   UNL     1      -8.371   9.687   3.411  1.00  0.00     0.134 A 
ATOM     72  C   UNL     1      -8.997   8.003   4.987  1.00  0.00     0.134 A 
ATOM     73  F   UNL     1      -7.507  10.596   2.936  1.00  0.00    -0.206 F 
ATOM     74  C   UNL     1      -9.634   9.613   2.817  1.00  0.00     0.040 A 
ATOM     75  C   UNL     1     -10.254   7.897   4.384  1.00  0.00     0.040 A 
ATOM     76  F   UNL     1      -8.745   7.229   6.053  1.00  0.00    -0.206 F 
ATOM     77  C   UNL     1     -10.579   8.711   3.301  1.00  0.00     0.006 A 
ENDBRANCH  49  70
BRANCH  61  78
ATOM     78  C   UNL     1      -5.384  14.278   8.069  1.00  0.00     0.057 A 
ATOM     79  C   UNL     1      -6.456  14.511   8.942  1.00  0.00     0.134 A 
ATOM     80  C   UNL     1      -4.764  15.402   7.505  1.00  0.00     0.134 A 
ATOM     81  F   UNL     1      -7.101  13.484   9.515  1.00  0.00    -0.206 F 
ATOM     82  C   UNL     1      -6.910  15.803   9.216  1.00  0.00     0.040 A 
ATOM     83  C   UNL     1      -5.188  16.701   7.797  1.00  0.00     0.040 A 
ATOM     84  F   UNL     1      -3.721  15.260   6.673  1.00  0.00    -0.206 F 
ATOM     85  C   UNL     1      -6.271  16.904   8.648  1.00  0.00     0.006 A 
ENDBRANCH  61  78
ENDBRANCH  35  36
ENDBRANCH  28  30
ENDBRANCH  27  28
ENDBRANCH  26  27
ENDBRANCH  25  26
ENDBRANCH  24  25
ENDBRANCH  23  24
ENDBRANCH   1  23
TORSDOF 23
