REMARK SMILES Cc1ccc(/[NH+]=C2/S[C@@H](CC(=O)Nc3ccc(C(=O)OCCOCCOCCOC(=O)c4ccc(-c5c6nc(c(-c7c(F)cccc7F)c7ccc([nH]7)c(-c7c(F)cccc7F)c7nc(c(-c8c(F)cccc8F)c8ccc5[nH]8)C=C7)C=C6)cc4)cc3)C(=O)N2C)cc1
REMARK SMILES IDX 24 1 23 2 22 3 21 4 20 5 18 6 19 7 17 8 14 9 15 10 87 11
REMARK SMILES IDX 16 12 86 13 13 14 11 15 12 16 10 18 9 19 6 20 7 21 8 23
REMARK SMILES IDX 90 24 88 25 91 26 89 27 5 28 1 29 2 30 3 31 93 32 4 33 92 34
REMARK SMILES IDX 25 35 26 36 27 37 28 38 29 39 30 40 31 41 32 42 33 43 85 44
REMARK SMILES IDX 34 45 84 46 35 47 36 48 37 49 78 50 38 51 83 52 77 53 79 54
REMARK SMILES IDX 39 55 82 56 76 57 75 58 40 60 66 61 49 62 65 63 50 64 53 65
REMARK SMILES IDX 64 66 80 67 51 68 52 69 63 71 81 72 54 73 41 74 42 75 47 76
REMARK SMILES IDX 43 77 44 78 46 79 48 80 45 81 67 82 68 83 73 84 69 85 70 86
REMARK SMILES IDX 72 87 74 88 71 89 55 90 56 91 61 92 57 93 58 94 60 95 62 96
REMARK SMILES IDX 59 97
REMARK H PARENT 13 17 6 22 79 59 53 70
REMARK Flexibility Score: inf
ROOT
ATOM      1  C   UNL     1       0.712   5.479   4.253  1.00  0.00     0.188 C 
ENDROOT
BRANCH   1   2
ATOM      2  O   UNL     1       0.790   4.090   4.592  1.00  0.00    -0.376 OA
BRANCH   2   3
ATOM      3  C   UNL     1       1.226   3.134   3.616  1.00  0.00     0.202 C 
BRANCH   3   4
ATOM      4  C   UNL     1       0.316   2.156   2.677  1.00  0.00     0.261 C 
BRANCH   4   5
ATOM      5  O   UNL     1      -0.770   2.453   1.667  1.00  0.00    -0.460 OA
BRANCH   5   6
ATOM      6  C   UNL     1      -1.753   3.221   2.205  1.00  0.00     0.338 C 
ATOM      7  O   UNL     1      -1.331   3.762   3.212  1.00  0.00    -0.246 OA
BRANCH   6   8
ATOM      8  C   UNL     1      -3.310   3.582   1.498  1.00  0.00     0.060 A 
ATOM      9  C   UNL     1      -5.687   4.268  -0.077  1.00  0.00     0.041 A 
ATOM     10  C   UNL     1      -4.809   3.201  -0.243  1.00  0.00     0.027 A 
ATOM     11  C   UNL     1      -5.463   5.021   1.011  1.00  0.00     0.027 A 
ATOM     12  C   UNL     1      -3.666   2.820   0.470  1.00  0.00     0.018 A 
ATOM     13  C   UNL     1      -4.344   4.642   1.772  1.00  0.00     0.018 A 
BRANCH   9  14
ATOM     14  N   UNL     1      -6.712   4.567  -0.985  1.00  0.00    -0.326 N 
ATOM     15  C   UNL     1      -7.205   3.788  -2.007  1.00  0.00     0.226 C 
ATOM     16  O   UNL     1      -7.921   4.305  -2.867  1.00  0.00    -0.275 OA
ATOM     17  H   UNL     1      -7.135   5.449  -0.877  1.00  0.00     0.169 HD
BRANCH  15  18
ATOM     18  C   UNL     1      -7.002   2.270  -1.972  1.00  0.00     0.128 C 
BRANCH  18  19
ATOM     19  C   UNL     1      -5.926   1.639  -2.911  1.00  0.00     0.183 C 
ATOM     20  N   UNL     1      -2.829  -0.175  -1.396  1.00  0.00    -0.235 N 
ATOM     21  C   UNL     1      -3.607   0.637  -2.035  1.00  0.00     0.319 C 
ATOM     22  H   UNL     1      -3.299  -0.989  -1.102  1.00  0.00     0.313 HD
ATOM     23  S   UNL     1      -5.285   0.064  -2.216  1.00  0.00    -0.022 SA
ATOM     24  N   UNL     1      -3.500   1.899  -2.588  1.00  0.00    -0.193 N 
ATOM     25  C   UNL     1      -4.647   2.436  -3.205  1.00  0.00     0.324 C 
ATOM     26  C   UNL     1      -2.411   2.853  -2.384  1.00  0.00     0.301 C 
ATOM     27  O   UNL     1      -4.656   3.499  -3.818  1.00  0.00    -0.245 OA
BRANCH  20  28
ATOM     28  C   UNL     1      -1.476  -0.174  -1.020  1.00  0.00     0.125 A 
ATOM     29  C   UNL     1       2.682  -0.466   0.272  1.00  0.00     0.044 C 
ATOM     30  C   UNL     1       1.242  -0.378  -0.140  1.00  0.00    -0.051 A 
ATOM     31  C   UNL     1       0.270  -1.246   0.356  1.00  0.00     0.008 A 
ATOM     32  C   UNL     1       0.860   0.544  -1.112  1.00  0.00     0.008 A 
ATOM     33  C   UNL     1      -1.071  -1.119  -0.057  1.00  0.00     0.052 A 
ATOM     34  C   UNL     1      -0.460   0.586  -1.585  1.00  0.00     0.052 A 
ENDBRANCH  20  28
ENDBRANCH  18  19
ENDBRANCH  15  18
ENDBRANCH   9  14
ENDBRANCH   6   8
ENDBRANCH   5   6
ENDBRANCH   4   5
ENDBRANCH   3   4
ENDBRANCH   2   3
ENDBRANCH   1   2
BRANCH   1  35
ATOM     35  C   UNL     1       1.632   6.063   3.193  1.00  0.00     0.188 C 
BRANCH  35  36
ATOM     36  O   UNL     1       1.475   5.339   1.978  1.00  0.00    -0.376 OA
BRANCH  36  37
ATOM     37  C   UNL     1       2.576   5.456   1.090  1.00  0.00     0.202 C 
BRANCH  37  38
ATOM     38  C   UNL     1       2.675   6.858   0.473  1.00  0.00     0.261 C 
BRANCH  38  39
ATOM     39  O   UNL     1       1.410   7.221  -0.133  1.00  0.00    -0.460 OA
BRANCH  39  40
ATOM     40  C   UNL     1       0.701   8.243   0.476  1.00  0.00     0.338 C 
ATOM     41  O   UNL     1       1.153   9.291   0.816  1.00  0.00    -0.246 OA
BRANCH  40  42
ATOM     42  C   UNL     1      -0.647   7.716   0.908  1.00  0.00     0.060 A 
ATOM     43  C   UNL     1      -1.445   8.265   1.921  1.00  0.00     0.016 A 
ATOM     44  C   UNL     1      -0.956   6.456   0.552  1.00  0.00     0.016 A 
ATOM     45  C   UNL     1      -2.275   7.441   2.797  1.00  0.00     0.010 A 
ATOM     46  C   UNL     1      -1.674   5.703   1.482  1.00  0.00     0.010 A 
ATOM     47  C   UNL     1      -2.302   6.053   2.751  1.00  0.00    -0.014 A 
BRANCH  47  48
ATOM     48  C   UNL     1      -2.936   5.026   4.097  1.00  0.00     0.031 A 
ATOM     49  C   UNL     1      -3.661   3.390   4.160  1.00  0.00     0.074 A 
ATOM     50  C   UNL     1      -2.544   5.371   5.328  1.00  0.00     0.049 A 
ATOM     51  N   UNL     1      -4.921   2.978   4.028  1.00  0.00    -0.248 NA
ATOM     52  C   UNL     1      -2.812   2.130   4.199  1.00  0.00     0.031 C 
ATOM     53  C   UNL     1      -2.596   4.556   6.528  1.00  0.00     0.029 A 
ATOM     54  N   UNL     1      -2.209   6.640   5.771  1.00  0.00    -0.354 N 
ATOM     55  C   UNL     1      -4.878   1.543   3.833  1.00  0.00     0.074 A 
ATOM     56  C   UNL     1      -3.524   1.291   3.436  1.00  0.00     0.031 C 
ATOM     57  C   UNL     1      -2.668   5.387   7.578  1.00  0.00     0.029 A 
ATOM     58  C   UNL     1      -2.805   6.733   7.046  1.00  0.00     0.049 A 
ATOM     59  H   UNL     1      -1.676   7.322   5.301  1.00  0.00     0.167 HD
ATOM     60  C   UNL     1      -5.261   0.535   4.714  1.00  0.00     0.037 A 
ATOM     61  C   UNL     1      -3.903   7.541   7.152  1.00  0.00     0.037 A 
ATOM     62  C   UNL     1      -5.271   1.065   6.047  1.00  0.00     0.049 A 
ATOM     63  C   UNL     1      -5.197   6.756   7.360  1.00  0.00     0.074 A 
ATOM     64  C   UNL     1      -4.385   1.168   7.103  1.00  0.00     0.029 A 
ATOM     65  N   UNL     1      -6.230   1.985   6.257  1.00  0.00    -0.354 N 
ATOM     66  N   UNL     1      -5.275   5.450   7.448  1.00  0.00    -0.248 NA
ATOM     67  C   UNL     1      -6.519   7.378   7.453  1.00  0.00     0.031 C 
ATOM     68  C   UNL     1      -4.851   2.247   7.929  1.00  0.00     0.029 A 
ATOM     69  C   UNL     1      -6.024   2.732   7.373  1.00  0.00     0.049 A 
ATOM     70  H   UNL     1      -7.005   2.105   5.661  1.00  0.00     0.167 HD
ATOM     71  C   UNL     1      -6.588   5.068   7.541  1.00  0.00     0.074 A 
ATOM     72  C   UNL     1      -7.329   6.310   7.561  1.00  0.00     0.031 C 
ATOM     73  C   UNL     1      -7.011   3.773   7.538  1.00  0.00     0.037 A 
BRANCH  60  74
ATOM     74  C   UNL     1      -5.076  -0.967   4.420  1.00  0.00     0.057 A 
ATOM     75  C   UNL     1      -4.891  -1.919   5.443  1.00  0.00     0.134 A 
ATOM     76  C   UNL     1      -5.075  -1.510   3.116  1.00  0.00     0.134 A 
ATOM     77  F   UNL     1      -4.957  -1.576   6.736  1.00  0.00    -0.206 F 
ATOM     78  C   UNL     1      -4.625  -3.277   5.191  1.00  0.00     0.040 A 
ATOM     79  C   UNL     1      -4.789  -2.865   2.848  1.00  0.00     0.040 A 
ATOM     80  F   UNL     1      -5.323  -0.732   2.051  1.00  0.00    -0.206 F 
ATOM     81  C   UNL     1      -4.548  -3.752   3.889  1.00  0.00     0.006 A 
ENDBRANCH  60  74
BRANCH  61  82
ATOM     82  C   UNL     1      -3.683   8.824   6.388  1.00  0.00     0.057 A 
ATOM     83  C   UNL     1      -2.452   9.495   6.616  1.00  0.00     0.134 A 
ATOM     84  C   UNL     1      -4.357   9.171   5.213  1.00  0.00     0.134 A 
ATOM     85  F   UNL     1      -1.744   9.239   7.729  1.00  0.00    -0.206 F 
ATOM     86  C   UNL     1      -1.831  10.286   5.645  1.00  0.00     0.040 A 
ATOM     87  C   UNL     1      -3.779  10.042   4.266  1.00  0.00     0.040 A 
ATOM     88  F   UNL     1      -5.493   8.550   4.864  1.00  0.00    -0.206 F 
ATOM     89  C   UNL     1      -2.488  10.545   4.453  1.00  0.00     0.006 A 
ENDBRANCH  61  82
BRANCH  73  90
ATOM     90  C   UNL     1      -8.470   3.364   7.573  1.00  0.00     0.057 A 
ATOM     91  C   UNL     1      -9.282   3.750   8.634  1.00  0.00     0.134 A 
ATOM     92  C   UNL     1      -9.054   2.440   6.667  1.00  0.00     0.134 A 
ATOM     93  F   UNL     1      -8.831   4.612   9.557  1.00  0.00    -0.206 F 
ATOM     94  C   UNL     1     -10.581   3.250   8.789  1.00  0.00     0.040 A 
ATOM     95  C   UNL     1     -10.308   1.865   6.859  1.00  0.00     0.040 A 
ATOM     96  F   UNL     1      -8.448   2.067   5.529  1.00  0.00    -0.206 F 
ATOM     97  C   UNL     1     -11.085   2.283   7.920  1.00  0.00     0.006 A 
ENDBRANCH  73  90
ENDBRANCH  47  48
ENDBRANCH  40  42
ENDBRANCH  39  40
ENDBRANCH  38  39
ENDBRANCH  37  38
ENDBRANCH  36  37
ENDBRANCH  35  36
ENDBRANCH   1  35
TORSDOF 21
