REMARK SMILES CCOc1ccc(NC(=O)[C@@H]2[C@@H](C(=O)OCCOCCOCCOC(=O)c3ccc(-c4c5nc(c(-c6c(F)cccc6F)c6ccc([nH]6)c(-c6c(F)cccc6F)c6nc(c(-c7c(F)cccc7F)c7ccc4[nH]7)C=C6)C=C5)cc3)[C@H]3C=C[C@@H]2C3)cc1
REMARK SMILES IDX 19 1 18 2 17 3 16 4 15 5 13 6 14 7 12 8 11 9 84 10 81 11
REMARK SMILES IDX 83 12 85 13 82 14 9 15 8 16 10 18 7 19 4 20 5 21 87 22 6 23
REMARK SMILES IDX 86 24 3 25 2 26 1 27 20 28 21 29 22 30 23 31 24 32 25 33
REMARK SMILES IDX 26 34 27 35 28 36 80 37 29 38 79 39 30 40 31 41 32 42 73 43
REMARK SMILES IDX 33 44 78 45 72 46 74 47 34 48 77 49 71 50 70 51 35 53 61 54
REMARK SMILES IDX 44 55 60 56 45 57 48 58 59 59 75 60 46 61 47 62 58 64 76 65
REMARK SMILES IDX 49 66 36 67 37 68 42 69 38 70 39 71 41 72 43 73 40 74 62 75
REMARK SMILES IDX 63 76 68 77 64 78 65 79 67 80 69 81 66 82 50 83 51 84 56 85
REMARK SMILES IDX 52 86 53 87 55 88 57 89 54 90
REMARK H PARENT 8 17 74 52 48 63
REMARK Flexibility Score: inf
ROOT
ATOM      1  C   UNL     1       2.561   2.948   5.764  1.00  0.00     0.188 C 
ENDROOT
BRANCH   1   2
ATOM      2  O   UNL     1       1.593   3.565   6.593  1.00  0.00    -0.376 OA
BRANCH   2   3
ATOM      3  C   UNL     1       1.929   4.817   7.148  1.00  0.00     0.202 C 
BRANCH   3   4
ATOM      4  C   UNL     1       3.144   4.848   8.091  1.00  0.00     0.261 C 
BRANCH   4   5
ATOM      5  O   UNL     1       4.421   4.390   7.565  1.00  0.00    -0.463 OA
BRANCH   5   6
ATOM      6  C   UNL     1       4.832   3.134   7.919  1.00  0.00     0.310 C 
ATOM      7  O   UNL     1       4.163   2.410   8.645  1.00  0.00    -0.252 OA
BRANCH   6   8
ATOM      8  C   UNL     1       6.200   2.741   7.301  1.00  0.00     0.119 C 
ATOM      9  C   UNL     1       6.218   1.610   6.175  1.00  0.00     0.100 C 
ATOM     10  C   UNL     1       7.152   0.532   6.828  1.00  0.00     0.025 C 
ATOM     11  C   UNL     1       7.062   2.089   8.432  1.00  0.00     0.027 C 
ATOM     12  C   UNL     1       6.411  -0.084   7.988  1.00  0.00    -0.027 C 
ATOM     13  C   UNL     1       8.151   1.383   7.633  1.00  0.00     0.017 C 
ATOM     14  C   UNL     1       6.382   0.838   8.961  1.00  0.00    -0.027 C 
BRANCH   9  15
ATOM     15  C   UNL     1       6.865   1.985   4.826  1.00  0.00     0.228 C 
ATOM     16  N   UNL     1       6.372   1.697   3.581  1.00  0.00    -0.326 N 
ATOM     17  H   UNL     1       7.049   1.849   2.882  1.00  0.00     0.169 HD
ATOM     18  O   UNL     1       7.986   2.515   4.822  1.00  0.00    -0.274 OA
BRANCH  16  19
ATOM     19  C   UNL     1       5.154   1.240   3.031  1.00  0.00     0.041 A 
ATOM     20  C   UNL     1       1.906   0.644   1.461  1.00  0.00     0.119 A 
ATOM     21  C   UNL     1       2.093   0.447   3.257  1.00  0.00     0.048 A 
ATOM     22  C   UNL     1       3.382   0.904   0.417  1.00  0.00     0.048 A 
ATOM     23  C   UNL     1       3.698   0.803   4.024  1.00  0.00     0.030 A 
ATOM     24  C   UNL     1       5.031   1.122   1.196  1.00  0.00     0.030 A 
BRANCH  20  25
ATOM     25  O   UNL     1       0.657   0.933   0.987  1.00  0.00    -0.494 OA
BRANCH  25  26
ATOM     26  C   UNL     1      -0.075  -0.203   0.539  1.00  0.00     0.226 C 
ATOM     27  C   UNL     1       0.090  -0.291  -0.965  1.00  0.00     0.049 C 
ENDBRANCH  25  26
ENDBRANCH  20  25
ENDBRANCH  16  19
ENDBRANCH   9  15
ENDBRANCH   6   8
ENDBRANCH   5   6
ENDBRANCH   4   5
ENDBRANCH   3   4
ENDBRANCH   2   3
ENDBRANCH   1   2
BRANCH   1  28
ATOM     28  C   UNL     1       3.519   3.822   4.924  1.00  0.00     0.188 C 
BRANCH  28  29
ATOM     29  O   UNL     1       2.888   4.997   4.473  1.00  0.00    -0.376 OA
BRANCH  29  30
ATOM     30  C   UNL     1       2.547   5.036   3.103  1.00  0.00     0.202 C 
BRANCH  30  31
ATOM     31  C   UNL     1       1.798   3.849   2.484  1.00  0.00     0.261 C 
BRANCH  31  32
ATOM     32  O   UNL     1       2.212   2.509   2.854  1.00  0.00    -0.460 OA
BRANCH  32  33
ATOM     33  C   UNL     1       3.374   1.837   2.230  1.00  0.00     0.338 C 
ATOM     34  O   UNL     1       3.982   2.850   1.766  1.00  0.00    -0.246 OA
BRANCH  33  35
ATOM     35  C   UNL     1       3.779  -0.271   2.190  1.00  0.00     0.060 A 
ATOM     36  C   UNL     1       4.927  -1.071   2.805  1.00  0.00     0.016 A 
ATOM     37  C   UNL     1       2.975  -1.409   1.622  1.00  0.00     0.016 A 
ATOM     38  C   UNL     1       4.980  -2.420   3.157  1.00  0.00     0.010 A 
ATOM     39  C   UNL     1       2.924  -2.744   2.040  1.00  0.00     0.010 A 
ATOM     40  C   UNL     1       3.924  -3.230   2.844  1.00  0.00    -0.014 A 
BRANCH  40  41
ATOM     41  C   UNL     1       4.074  -4.659   3.053  1.00  0.00     0.031 A 
ATOM     42  C   UNL     1       4.436  -5.453   1.844  1.00  0.00     0.074 A 
ATOM     43  C   UNL     1       3.965  -5.136   4.301  1.00  0.00     0.049 A 
ATOM     44  N   UNL     1       4.550  -6.739   1.713  1.00  0.00    -0.248 NA
ATOM     45  C   UNL     1       4.677  -4.696   0.595  1.00  0.00     0.031 C 
ATOM     46  C   UNL     1       3.678  -4.334   5.498  1.00  0.00     0.029 A 
ATOM     47  N   UNL     1       4.104  -6.404   4.774  1.00  0.00    -0.354 N 
ATOM     48  C   UNL     1       4.825  -6.942   0.369  1.00  0.00     0.074 A 
ATOM     49  C   UNL     1       4.818  -5.664  -0.291  1.00  0.00     0.031 C 
ATOM     50  C   UNL     1       3.677  -5.139   6.574  1.00  0.00     0.029 A 
ATOM     51  C   UNL     1       3.910  -6.506   6.129  1.00  0.00     0.049 A 
ATOM     52  H   UNL     1       4.321  -7.173   4.200  1.00  0.00     0.167 HD
ATOM     53  C   UNL     1       5.080  -8.118  -0.237  1.00  0.00     0.037 A 
ATOM     54  C   UNL     1       3.905  -7.614   6.889  1.00  0.00     0.037 A 
ATOM     55  C   UNL     1       5.127  -9.345   0.501  1.00  0.00     0.049 A 
ATOM     56  C   UNL     1       4.173  -8.913   6.172  1.00  0.00     0.074 A 
ATOM     57  C   UNL     1       5.382 -10.620   0.046  1.00  0.00     0.029 A 
ATOM     58  N   UNL     1       4.922  -9.428   1.875  1.00  0.00    -0.354 N 
ATOM     59  N   UNL     1       4.423  -9.116   4.896  1.00  0.00    -0.248 NA
ATOM     60  C   UNL     1       4.161 -10.131   6.984  1.00  0.00     0.031 C 
ATOM     61  C   UNL     1       5.278 -11.484   1.140  1.00  0.00     0.029 A 
ATOM     62  C   UNL     1       5.024 -10.739   2.287  1.00  0.00     0.049 A 
ATOM     63  H   UNL     1       4.732  -8.664   2.466  1.00  0.00     0.167 HD
ATOM     64  C   UNL     1       4.627 -10.478   4.755  1.00  0.00     0.074 A 
ATOM     65  C   UNL     1       4.492 -11.046   6.085  1.00  0.00     0.031 C 
ATOM     66  C   UNL     1       4.894 -11.210   3.644  1.00  0.00     0.037 A 
BRANCH  53  67
ATOM     67  C   UNL     1       5.270  -8.108  -1.722  1.00  0.00     0.057 A 
ATOM     68  C   UNL     1       6.385  -7.522  -2.337  1.00  0.00     0.134 A 
ATOM     69  C   UNL     1       4.297  -8.672  -2.554  1.00  0.00     0.134 A 
ATOM     70  F   UNL     1       7.331  -6.919  -1.601  1.00  0.00    -0.206 F 
ATOM     71  C   UNL     1       6.519  -7.490  -3.727  1.00  0.00     0.040 A 
ATOM     72  C   UNL     1       4.434  -8.672  -3.943  1.00  0.00     0.040 A 
ATOM     73  F   UNL     1       3.190  -9.222  -2.033  1.00  0.00    -0.206 F 
ATOM     74  C   UNL     1       5.546  -8.077  -4.533  1.00  0.00     0.006 A 
ENDBRANCH  53  67
BRANCH  54  75
ATOM     75  C   UNL     1       3.624  -7.551   8.347  1.00  0.00     0.057 A 
ATOM     76  C   UNL     1       4.576  -7.942   9.294  1.00  0.00     0.134 A 
ATOM     77  C   UNL     1       2.381  -7.121   8.834  1.00  0.00     0.134 A 
ATOM     78  F   UNL     1       5.787  -8.365   8.900  1.00  0.00    -0.206 F 
ATOM     79  C   UNL     1       4.293  -7.950  10.663  1.00  0.00     0.040 A 
ATOM     80  C   UNL     1       2.095  -7.093  10.201  1.00  0.00     0.040 A 
ATOM     81  F   UNL     1       1.423  -6.715   7.987  1.00  0.00    -0.206 F 
ATOM     82  C   UNL     1       3.048  -7.524  11.120  1.00  0.00     0.006 A 
ENDBRANCH  54  75
BRANCH  66  83
ATOM     83  C   UNL     1       5.101 -12.676   3.853  1.00  0.00     0.057 A 
ATOM     84  C   UNL     1       4.037 -13.534   4.148  1.00  0.00     0.134 A 
ATOM     85  C   UNL     1       6.375 -13.234   3.692  1.00  0.00     0.134 A 
ATOM     86  F   UNL     1       2.798 -13.049   4.321  1.00  0.00    -0.206 F 
ATOM     87  C   UNL     1       4.238 -14.903   4.304  1.00  0.00     0.040 A 
ATOM     88  C   UNL     1       6.581 -14.605   3.809  1.00  0.00     0.040 A 
ATOM     89  F   UNL     1       7.427 -12.458   3.390  1.00  0.00    -0.206 F 
ATOM     90  C   UNL     1       5.512 -15.442   4.125  1.00  0.00     0.006 A 
ENDBRANCH  66  83
ENDBRANCH  40  41
ENDBRANCH  33  35
ENDBRANCH  32  33
ENDBRANCH  31  32
ENDBRANCH  30  31
ENDBRANCH  29  30
ENDBRANCH  28  29
ENDBRANCH   1  28
TORSDOF 21
