REMARK SMILES Cc1nc([C@]2(C)CCCO2)nc(C)c1C(=O)OCCOCCOCCOC(=O)c1ccc(-c2c3nc(c(-c4c(F)cccc4F)c4ccc([nH]4)c(-c4c(F)cccc4F)c4nc(c(-c5c(F)cccc5F)c5ccc2[nH]5)C=C4)C=C3)cc1
REMARK SMILES IDX 22 1 21 2 20 3 19 4 18 5 17 6 15 7 16 8 14 9 1 10 2 11 3 12
REMARK SMILES IDX 4 13 12 14 11 15 13 16 5 17 7 18 10 19 6 20 8 21 9 22 23 23
REMARK SMILES IDX 24 24 25 25 26 26 27 27 28 28 29 29 30 30 82 31 31 32 81 33
REMARK SMILES IDX 32 34 33 35 34 36 75 37 35 38 80 39 74 40 76 41 36 42 79 43
REMARK SMILES IDX 73 44 72 45 37 47 63 48 46 49 62 50 47 51 50 52 61 53 77 54
REMARK SMILES IDX 48 55 49 56 60 58 78 59 51 60 38 61 39 62 44 63 40 64 41 65
REMARK SMILES IDX 43 66 45 67 42 68 64 69 65 70 70 71 66 72 67 73 69 74 71 75
REMARK SMILES IDX 68 76 52 77 53 78 58 79 54 80 55 81 57 82 59 83 56 84
REMARK H PARENT 76 46 50 57
REMARK Flexibility Score: inf
ROOT
ATOM      1  C   UNL     1      -4.527  -3.415   4.564  1.00  0.00     0.188 C 
ENDROOT
BRANCH   1   2
ATOM      2  C   UNL     1      -5.553  -2.274   4.387  1.00  0.00     0.188 C 
BRANCH   2   3
ATOM      3  O   UNL     1      -6.913  -2.488   4.694  1.00  0.00    -0.376 OA
BRANCH   3   4
ATOM      4  C   UNL     1      -7.724  -3.344   3.905  1.00  0.00     0.202 C 
BRANCH   4   5
ATOM      5  C   UNL     1      -7.429  -3.692   2.439  1.00  0.00     0.261 C 
BRANCH   5   6
ATOM      6  O   UNL     1      -6.044  -3.783   2.096  1.00  0.00    -0.460 OA
BRANCH   6   7
ATOM      7  C   UNL     1      -5.646  -2.999   1.066  1.00  0.00     0.341 C 
ATOM      8  O   UNL     1      -6.357  -2.268   0.395  1.00  0.00    -0.246 OA
BRANCH   7   9
ATOM      9  C   UNL     1      -4.186  -3.053   0.901  1.00  0.00     0.102 A 
ATOM     10  C   UNL     1      -4.112  -5.593   0.952  1.00  0.00     0.068 C 
ATOM     11  C   UNL     1      -3.484  -4.242   0.767  1.00  0.00     0.056 A 
ATOM     12  N   UNL     1      -2.154  -4.263   0.509  1.00  0.00    -0.234 NA
ATOM     13  C   UNL     1      -1.504  -3.085   0.394  1.00  0.00     0.160 A 
ATOM     14  C   UNL     1      -3.437  -1.883   0.830  1.00  0.00     0.056 A 
ATOM     15  N   UNL     1      -2.108  -1.895   0.570  1.00  0.00    -0.234 NA
ATOM     16  C   UNL     1      -3.987  -0.526   1.165  1.00  0.00     0.068 C 
BRANCH  13  17
ATOM     17  C   UNL     1      -0.023  -3.105  -0.019  1.00  0.00     0.125 C 
ATOM     18  C   UNL     1       0.153  -3.661  -1.434  1.00  0.00     0.046 C 
ATOM     19  O   UNL     1       0.728  -4.001   0.835  1.00  0.00    -0.367 OA
ATOM     20  C   UNL     1       0.617  -1.717   0.101  1.00  0.00     0.051 C 
ATOM     21  C   UNL     1       0.264  -5.151  -1.214  1.00  0.00     0.032 C 
ATOM     22  C   UNL     1       0.881  -5.261   0.166  1.00  0.00     0.161 C 
ENDBRANCH  13  17
ENDBRANCH   7   9
ENDBRANCH   6   7
ENDBRANCH   5   6
ENDBRANCH   4   5
ENDBRANCH   3   4
ENDBRANCH   2   3
ENDBRANCH   1   2
BRANCH   1  23
ATOM     23  O   UNL     1      -4.921  -4.678   5.063  1.00  0.00    -0.376 OA
BRANCH  23  24
ATOM     24  C   UNL     1      -5.651  -4.749   6.277  1.00  0.00     0.202 C 
BRANCH  24  25
ATOM     25  C   UNL     1      -5.176  -4.008   7.533  1.00  0.00     0.261 C 
BRANCH  25  26
ATOM     26  O   UNL     1      -4.822  -2.634   7.327  1.00  0.00    -0.460 OA
BRANCH  26  27
ATOM     27  C   UNL     1      -3.514  -2.342   7.528  1.00  0.00     0.338 C 
ATOM     28  O   UNL     1      -2.629  -3.101   7.882  1.00  0.00    -0.246 OA
BRANCH  27  29
ATOM     29  C   UNL     1      -3.245  -0.961   7.088  1.00  0.00     0.060 A 
ATOM     30  C   UNL     1      -2.315  -0.759   6.059  1.00  0.00     0.016 A 
ATOM     31  C   UNL     1      -3.850   0.125   7.723  1.00  0.00     0.016 A 
ATOM     32  C   UNL     1      -1.964   0.536   5.680  1.00  0.00     0.010 A 
ATOM     33  C   UNL     1      -3.478   1.422   7.359  1.00  0.00     0.010 A 
ATOM     34  C   UNL     1      -2.513   1.632   6.357  1.00  0.00    -0.014 A 
BRANCH  34  35
ATOM     35  C   UNL     1      -1.951   2.987   6.144  1.00  0.00     0.031 A 
ATOM     36  C   UNL     1      -0.893   3.486   7.089  1.00  0.00     0.074 A 
ATOM     37  C   UNL     1      -2.367   3.762   5.127  1.00  0.00     0.049 A 
ATOM     38  N   UNL     1      -0.306   4.654   7.138  1.00  0.00    -0.248 NA
ATOM     39  C   UNL     1      -0.438   2.537   8.119  1.00  0.00     0.031 C 
ATOM     40  C   UNL     1      -3.356   3.381   4.122  1.00  0.00     0.029 A 
ATOM     41  N   UNL     1      -2.012   5.043   4.786  1.00  0.00    -0.354 N 
ATOM     42  C   UNL     1       0.587   4.582   8.200  1.00  0.00     0.074 A 
ATOM     43  C   UNL     1       0.443   3.267   8.787  1.00  0.00     0.031 C 
ATOM     44  C   UNL     1      -3.546   4.418   3.286  1.00  0.00     0.029 A 
ATOM     45  C   UNL     1      -2.714   5.541   3.716  1.00  0.00     0.049 A 
ATOM     46  H   UNL     1      -1.321   5.556   5.263  1.00  0.00     0.167 HD
ATOM     47  C   UNL     1       1.454   5.522   8.641  1.00  0.00     0.037 A 
ATOM     48  C   UNL     1      -2.702   6.771   3.166  1.00  0.00     0.037 A 
ATOM     49  C   UNL     1       1.592   6.834   8.067  1.00  0.00     0.049 A 
ATOM     50  C   UNL     1      -1.786   7.828   3.727  1.00  0.00     0.074 A 
ATOM     51  C   UNL     1       2.447   7.855   8.443  1.00  0.00     0.029 A 
ATOM     52  N   UNL     1       0.847   7.308   6.998  1.00  0.00    -0.354 N 
ATOM     53  N   UNL     1      -0.930   7.743   4.716  1.00  0.00    -0.248 NA
ATOM     54  C   UNL     1      -1.835   9.153   3.091  1.00  0.00     0.031 C 
ATOM     55  C   UNL     1       2.189   8.963   7.629  1.00  0.00     0.029 A 
ATOM     56  C   UNL     1       1.208   8.615   6.715  1.00  0.00     0.049 A 
ATOM     57  H   UNL     1       0.164   6.792   6.512  1.00  0.00     0.167 HD
ATOM     58  C   UNL     1      -0.319   8.989   4.800  1.00  0.00     0.074 A 
ATOM     59  C   UNL     1      -0.894   9.809   3.756  1.00  0.00     0.031 C 
ATOM     60  C   UNL     1       0.635   9.415   5.664  1.00  0.00     0.037 A 
BRANCH  47  61
ATOM     61  C   UNL     1       2.310   5.170   9.820  1.00  0.00     0.057 A 
ATOM     62  C   UNL     1       3.381   4.273   9.711  1.00  0.00     0.134 A 
ATOM     63  C   UNL     1       2.082   5.758  11.070  1.00  0.00     0.134 A 
ATOM     64  F   UNL     1       3.642   3.665   8.545  1.00  0.00    -0.206 F 
ATOM     65  C   UNL     1       4.184   3.960  10.809  1.00  0.00     0.040 A 
ATOM     66  C   UNL     1       2.893   5.471  12.170  1.00  0.00     0.040 A 
ATOM     67  F   UNL     1       1.074   6.627  11.241  1.00  0.00    -0.206 F 
ATOM     68  C   UNL     1       3.945   4.566  12.042  1.00  0.00     0.006 A 
ENDBRANCH  47  61
BRANCH  48  69
ATOM     69  C   UNL     1      -3.603   7.088   2.030  1.00  0.00     0.057 A 
ATOM     70  C   UNL     1      -3.098   7.336   0.749  1.00  0.00     0.134 A 
ATOM     71  C   UNL     1      -4.988   7.193   2.208  1.00  0.00     0.134 A 
ATOM     72  F   UNL     1      -1.777   7.279   0.522  1.00  0.00    -0.206 F 
ATOM     73  C   UNL     1      -3.933   7.698  -0.310  1.00  0.00     0.040 A 
ATOM     74  C   UNL     1      -5.838   7.529   1.153  1.00  0.00     0.040 A 
ATOM     75  F   UNL     1      -5.535   6.970   3.412  1.00  0.00    -0.206 F 
ATOM     76  C   UNL     1      -5.309   7.791  -0.109  1.00  0.00     0.006 A 
ENDBRANCH  48  69
BRANCH  60  77
ATOM     77  C   UNL     1       1.149  10.816   5.493  1.00  0.00     0.057 A 
ATOM     78  C   UNL     1       0.383  11.934   5.846  1.00  0.00     0.134 A 
ATOM     79  C   UNL     1       2.445  11.045   5.012  1.00  0.00     0.134 A 
ATOM     80  F   UNL     1      -0.870  11.784   6.302  1.00  0.00    -0.206 F 
ATOM     81  C   UNL     1       0.881  13.231   5.708  1.00  0.00     0.040 A 
ATOM     82  C   UNL     1       2.962  12.335   4.894  1.00  0.00     0.040 A 
ATOM     83  F   UNL     1       3.234  10.017   4.665  1.00  0.00    -0.206 F 
ATOM     84  C   UNL     1       2.177  13.434   5.238  1.00  0.00     0.006 A 
ENDBRANCH  60  77
ENDBRANCH  34  35
ENDBRANCH  27  29
ENDBRANCH  26  27
ENDBRANCH  25  26
ENDBRANCH  24  25
ENDBRANCH  23  24
ENDBRANCH   1  23
TORSDOF 18
