REMARK SMILES O=C(OCCOCCOCCOC(=O)[C@@H]1CC(=O)N(c2ccc(Cl)cc2C(=O)c2ccccc2)C1)c1ccc(-c2c3nc(c(-c4c(F)cccc4F)c4ccc([nH]4)c(-c4c(F)cccc4F)c4nc(c(-c5c(F)cccc5F)c5ccc2[nH]5)C=C4)C=C3)cc1
REMARK SMILES IDX 8 1 7 2 6 3 5 4 4 5 3 6 2 7 1 8 36 9 37 10 89 11 38 12 88 13
REMARK SMILES IDX 39 14 40 15 41 16 82 17 42 18 87 19 81 20 83 21 43 22 86 23
REMARK SMILES IDX 80 24 79 25 44 27 70 28 53 29 69 30 54 31 57 32 68 33 84 34
REMARK SMILES IDX 55 35 56 36 67 38 85 39 58 40 45 41 46 42 51 43 47 44 48 45
REMARK SMILES IDX 50 46 52 47 49 48 71 49 72 50 77 51 73 52 74 53 76 54 78 55
REMARK SMILES IDX 75 56 59 57 60 58 65 59 61 60 62 61 64 62 66 63 63 64 9 65
REMARK SMILES IDX 10 66 11 67 12 68 13 69 14 70 15 71 16 72 35 73 17 74 19 75
REMARK SMILES IDX 18 76 20 77 21 78 26 79 22 80 25 81 23 82 24 83 27 84 28 85
REMARK SMILES IDX 29 86 30 87 34 88 31 89 33 90 32 91
REMARK H PARENT 83 26 57 37
REMARK Flexibility Score: inf
ROOT
ATOM      1  C   UNL     1       1.586   0.577   2.667  1.00  0.00     0.188 C 
ENDROOT
BRANCH   1   2
ATOM      2  C   UNL     1       2.350   0.633   1.340  1.00  0.00     0.188 C 
BRANCH   2   3
ATOM      3  O   UNL     1       3.715   0.199   1.370  1.00  0.00    -0.376 OA
BRANCH   3   4
ATOM      4  C   UNL     1       4.647   1.146   0.832  1.00  0.00     0.202 C 
BRANCH   4   5
ATOM      5  C   UNL     1       4.539   1.488  -0.668  1.00  0.00     0.261 C 
BRANCH   5   6
ATOM      6  O   UNL     1       3.254   1.262  -1.269  1.00  0.00    -0.460 OA
BRANCH   6   7
ATOM      7  C   UNL     1       2.676   0.132  -1.735  1.00  0.00     0.338 C 
ATOM      8  O   UNL     1       1.544   0.221  -2.209  1.00  0.00    -0.246 OA
BRANCH   7   9
ATOM      9  C   UNL     1       3.292  -1.232  -1.669  1.00  0.00     0.060 A 
ATOM     10  C   UNL     1       4.489  -1.553  -1.032  1.00  0.00     0.016 A 
ATOM     11  C   UNL     1       2.578  -2.283  -2.284  1.00  0.00     0.016 A 
ATOM     12  C   UNL     1       4.983  -2.850  -1.023  1.00  0.00     0.010 A 
ATOM     13  C   UNL     1       3.072  -3.591  -2.296  1.00  0.00     0.010 A 
ATOM     14  C   UNL     1       4.295  -3.864  -1.684  1.00  0.00    -0.014 A 
BRANCH  14  15
ATOM     15  C   UNL     1       5.010  -5.136  -1.869  1.00  0.00     0.031 A 
ATOM     16  C   UNL     1       5.856  -5.281  -3.095  1.00  0.00     0.074 A 
ATOM     17  C   UNL     1       5.029  -6.042  -0.878  1.00  0.00     0.049 A 
ATOM     18  N   UNL     1       6.646  -6.259  -3.440  1.00  0.00    -0.248 NA
ATOM     19  C   UNL     1       5.825  -4.160  -4.052  1.00  0.00     0.031 C 
ATOM     20  C   UNL     1       4.301  -5.914   0.382  1.00  0.00     0.029 A 
ATOM     21  N   UNL     1       5.715  -7.219  -0.754  1.00  0.00    -0.354 N 
ATOM     22  C   UNL     1       7.177  -5.890  -4.668  1.00  0.00     0.074 A 
ATOM     23  C   UNL     1       6.646  -4.588  -4.998  1.00  0.00     0.031 C 
ATOM     24  C   UNL     1       4.601  -6.963   1.165  1.00  0.00     0.029 A 
ATOM     25  C   UNL     1       5.519  -7.845   0.454  1.00  0.00     0.049 A 
ATOM     26  H   UNL     1       6.293  -7.584  -1.462  1.00  0.00     0.167 HD
ATOM     27  C   UNL     1       8.011  -6.601  -5.458  1.00  0.00     0.037 A 
ATOM     28  C   UNL     1       6.027  -9.004   0.915  1.00  0.00     0.037 A 
ATOM     29  C   UNL     1       8.503  -7.905  -5.110  1.00  0.00     0.049 A 
ATOM     30  C   UNL     1       6.923  -9.790  -0.010  1.00  0.00     0.074 A 
ATOM     31  C   UNL     1       9.291  -8.758  -5.858  1.00  0.00     0.029 A 
ATOM     32  N   UNL     1       8.241  -8.545  -3.906  1.00  0.00    -0.354 N 
ATOM     33  N   UNL     1       7.385  -9.458  -1.194  1.00  0.00    -0.248 NA
ATOM     34  C   UNL     1       7.337 -11.124   0.443  1.00  0.00     0.031 C 
ATOM     35  C   UNL     1       9.458  -9.939  -5.128  1.00  0.00     0.029 A 
ATOM     36  C   UNL     1       8.830  -9.795  -3.900  1.00  0.00     0.049 A 
ATOM     37  H   UNL     1       7.714  -8.164  -3.167  1.00  0.00     0.167 HD
ATOM     38  C   UNL     1       8.139 -10.541  -1.626  1.00  0.00     0.074 A 
ATOM     39  C   UNL     1       8.113 -11.518  -0.556  1.00  0.00     0.031 C 
ATOM     40  C   UNL     1       8.778 -10.732  -2.807  1.00  0.00     0.037 A 
BRANCH  27  41
ATOM     41  C   UNL     1       8.341  -6.027  -6.801  1.00  0.00     0.057 A 
ATOM     42  C   UNL     1       9.208  -4.940  -6.963  1.00  0.00     0.134 A 
ATOM     43  C   UNL     1       7.763  -6.572  -7.955  1.00  0.00     0.134 A 
ATOM     44  F   UNL     1       9.765  -4.348  -5.896  1.00  0.00    -0.206 F 
ATOM     45  C   UNL     1       9.481  -4.410  -8.226  1.00  0.00     0.040 A 
ATOM     46  C   UNL     1       8.046  -6.067  -9.223  1.00  0.00     0.040 A 
ATOM     47  F   UNL     1       6.911  -7.605  -7.866  1.00  0.00    -0.206 F 
ATOM     48  C   UNL     1       8.905  -4.979  -9.361  1.00  0.00     0.006 A 
ENDBRANCH  27  41
BRANCH  28  49
ATOM     49  C   UNL     1       5.680  -9.527   2.267  1.00  0.00     0.057 A 
ATOM     50  C   UNL     1       6.671  -9.791   3.222  1.00  0.00     0.134 A 
ATOM     51  C   UNL     1       4.361  -9.843   2.619  1.00  0.00     0.134 A 
ATOM     52  F   UNL     1       7.957  -9.525   2.949  1.00  0.00    -0.206 F 
ATOM     53  C   UNL     1       6.369 -10.388   4.449  1.00  0.00     0.040 A 
ATOM     54  C   UNL     1       4.040 -10.403   3.856  1.00  0.00     0.040 A 
ATOM     55  F   UNL     1       3.356  -9.612   1.760  1.00  0.00    -0.206 F 
ATOM     56  C   UNL     1       5.049 -10.697   4.767  1.00  0.00     0.006 A 
ENDBRANCH  28  49
BRANCH  40  57
ATOM     57  C   UNL     1       9.498 -12.035  -2.987  1.00  0.00     0.057 A 
ATOM     58  C   UNL     1       8.806 -13.240  -3.164  1.00  0.00     0.134 A 
ATOM     59  C   UNL     1      10.896 -12.074  -3.039  1.00  0.00     0.134 A 
ATOM     60  F   UNL     1       7.465 -13.268  -3.115  1.00  0.00    -0.206 F 
ATOM     61  C   UNL     1       9.482 -14.444  -3.362  1.00  0.00     0.040 A 
ATOM     62  C   UNL     1      11.582 -13.266  -3.269  1.00  0.00     0.040 A 
ATOM     63  F   UNL     1      11.616 -10.951  -2.891  1.00  0.00    -0.206 F 
ATOM     64  C   UNL     1      10.874 -14.456  -3.425  1.00  0.00     0.006 A 
ENDBRANCH  40  57
ENDBRANCH  14  15
ENDBRANCH   7   9
ENDBRANCH   6   7
ENDBRANCH   5   6
ENDBRANCH   4   5
ENDBRANCH   3   4
ENDBRANCH   2   3
ENDBRANCH   1   2
BRANCH   1  65
ATOM     65  O   UNL     1       2.063   1.398   3.726  1.00  0.00    -0.376 OA
BRANCH  65  66
ATOM     66  C   UNL     1       3.409   1.208   4.128  1.00  0.00     0.202 C 
BRANCH  66  67
ATOM     67  C   UNL     1       3.808  -0.172   4.656  1.00  0.00     0.261 C 
BRANCH  67  68
ATOM     68  O   UNL     1       3.362  -1.287   3.856  1.00  0.00    -0.463 OA
BRANCH  68  69
ATOM     69  C   UNL     1       2.811  -2.324   4.546  1.00  0.00     0.311 C 
ATOM     70  O   UNL     1       2.774  -2.393   5.768  1.00  0.00    -0.252 OA
BRANCH  69  71
ATOM     71  C   UNL     1       2.197  -3.375   3.625  1.00  0.00     0.128 C 
ATOM     72  C   UNL     1       0.812  -3.715   4.138  1.00  0.00     0.117 C 
ATOM     73  C   UNL     1       2.885  -4.732   3.716  1.00  0.00     0.141 C 
ATOM     74  C   UNL     1       1.124  -4.726   5.222  1.00  0.00     0.227 C 
ATOM     75  N   UNL     1       2.382  -5.336   4.917  1.00  0.00    -0.311 N 
ATOM     76  O   UNL     1       0.367  -4.938   6.149  1.00  0.00    -0.274 OA
BRANCH  75  77
ATOM     77  C   UNL     1       2.914  -6.449   5.665  1.00  0.00     0.055 A 
ATOM     78  C   UNL     1       1.910  -7.256   6.274  1.00  0.00     0.028 A 
ATOM     79  C   UNL     1       4.256  -6.866   5.896  1.00  0.00     0.048 A 
ATOM     80  C   UNL     1       2.162  -8.308   7.156  1.00  0.00     0.023 A 
ATOM     81  C   UNL     1       4.485  -7.907   6.851  1.00  0.00     0.035 A 
ATOM     82  C   UNL     1       3.462  -8.605   7.476  1.00  0.00     0.041 A 
ATOM     83  Cl  UNL     1       3.814  -9.863   8.590  1.00  0.00    -0.084 Cl
BRANCH  79  84
ATOM     84  C   UNL     1       5.573  -6.482   5.286  1.00  0.00     0.195 C 
ATOM     85  O   UNL     1       6.486  -7.313   5.269  1.00  0.00    -0.289 OA
BRANCH  84  86
ATOM     86  C   UNL     1       5.933  -5.214   4.674  1.00  0.00     0.023 A 
ATOM     87  C   UNL     1       6.498  -5.253   3.387  1.00  0.00     0.012 A 
ATOM     88  C   UNL     1       5.750  -4.006   5.331  1.00  0.00     0.012 A 
ATOM     89  C   UNL     1       6.716  -4.073   2.685  1.00  0.00     0.001 A 
ATOM     90  C   UNL     1       6.050  -2.832   4.646  1.00  0.00     0.001 A 
ATOM     91  C   UNL     1       6.464  -2.857   3.309  1.00  0.00     0.000 A 
ENDBRANCH  84  86
ENDBRANCH  79  84
ENDBRANCH  75  77
ENDBRANCH  69  71
ENDBRANCH  68  69
ENDBRANCH  67  68
ENDBRANCH  66  67
ENDBRANCH  65  66
ENDBRANCH   1  65
TORSDOF 20
