REMARK SMILES CC(C)c1nc(C(=O)OCCOCCOCCOC(=O)c2ccc(-c3c4nc(c(-c5c(F)cccc5F)c5ccc([nH]5)c(-c5c(F)cccc5F)c5nc(c(-c6c(F)cccc6F)c6ccc3[nH]6)C=C5)C=C4)cc2)nn1-c1ccccc1F
REMARK SMILES IDX 14 1 13 2 12 3 11 4 10 5 9 6 7 7 8 8 6 9 4 10 5 11 76 12
REMARK SMILES IDX 75 13 2 14 1 15 3 16 77 17 78 18 82 19 79 20 81 21 83 22
REMARK SMILES IDX 80 23 15 24 16 25 17 26 18 27 19 28 20 29 21 30 22 31 74 32
REMARK SMILES IDX 23 33 73 34 24 35 25 36 26 37 67 38 27 39 72 40 66 41 68 42
REMARK SMILES IDX 28 43 71 44 65 45 64 46 29 48 55 49 38 50 54 51 39 52 42 53
REMARK SMILES IDX 53 54 69 55 40 56 41 57 52 59 70 60 43 61 30 62 31 63 36 64
REMARK SMILES IDX 32 65 33 66 35 67 37 68 34 69 56 70 57 71 62 72 58 73 59 74
REMARK SMILES IDX 61 75 63 76 60 77 44 78 45 79 50 80 46 81 47 82 49 83 51 84
REMARK SMILES IDX 48 85
REMARK H PARENT 68 47 42 58
REMARK Flexibility Score: inf
ROOT
ATOM      1  C   UNL     1      -5.285  -0.131  -3.402  1.00  0.00     0.188 C 
ENDROOT
BRANCH   1   2
ATOM      2  C   UNL     1      -5.369  -1.574  -2.859  1.00  0.00     0.188 C 
BRANCH   2   3
ATOM      3  O   UNL     1      -6.592  -2.094  -2.350  1.00  0.00    -0.376 OA
BRANCH   3   4
ATOM      4  C   UNL     1      -7.428  -1.280  -1.536  1.00  0.00     0.202 C 
BRANCH   4   5
ATOM      5  C   UNL     1      -6.850  -0.676  -0.246  1.00  0.00     0.261 C 
BRANCH   5   6
ATOM      6  O   UNL     1      -5.674   0.128  -0.430  1.00  0.00    -0.457 OA
BRANCH   6   7
ATOM      7  C   UNL     1      -4.504  -0.394   0.060  1.00  0.00     0.378 C 
ATOM      8  O   UNL     1      -4.436  -1.444   0.693  1.00  0.00    -0.242 OA
BRANCH   7   9
ATOM      9  C   UNL     1      -3.309   0.363  -0.366  1.00  0.00     0.260 A 
ATOM     10  C   UNL     1      -1.314   0.703  -1.050  1.00  0.00     0.136 A 
ATOM     11  N   UNL     1      -2.144  -0.272  -0.736  1.00  0.00    -0.205 NA
ATOM     12  N   UNL     1      -1.986   1.915  -0.955  1.00  0.00    -0.214 N 
ATOM     13  N   UNL     1      -3.236   1.702  -0.455  1.00  0.00    -0.138 NA
BRANCH  10  14
ATOM     14  C   UNL     1       0.165   0.513  -1.241  1.00  0.00     0.051 C 
ATOM     15  C   UNL     1       0.759  -0.187  -0.013  1.00  0.00     0.016 C 
ATOM     16  C   UNL     1       0.456  -0.302  -2.502  1.00  0.00     0.016 C 
ENDBRANCH  10  14
BRANCH  12  17
ATOM     17  C   UNL     1      -1.543   3.236  -1.200  1.00  0.00     0.102 A 
ATOM     18  C   UNL     1      -2.030   4.279  -0.397  1.00  0.00     0.031 A 
ATOM     19  C   UNL     1      -0.637   3.533  -2.217  1.00  0.00     0.148 A 
ATOM     20  C   UNL     1      -1.547   5.580  -0.568  1.00  0.00     0.002 A 
ATOM     21  C   UNL     1      -0.167   4.832  -2.400  1.00  0.00     0.041 A 
ATOM     22  F   UNL     1      -0.244   2.599  -3.094  1.00  0.00    -0.205 F 
ATOM     23  C   UNL     1      -0.609   5.855  -1.563  1.00  0.00     0.003 A 
ENDBRANCH  12  17
ENDBRANCH   7   9
ENDBRANCH   6   7
ENDBRANCH   5   6
ENDBRANCH   4   5
ENDBRANCH   3   4
ENDBRANCH   2   3
ENDBRANCH   1   2
BRANCH   1  24
ATOM     24  O   UNL     1      -6.491   0.610  -3.298  1.00  0.00    -0.376 OA
BRANCH  24  25
ATOM     25  C   UNL     1      -7.007   1.124  -4.518  1.00  0.00     0.202 C 
BRANCH  25  26
ATOM     26  C   UNL     1      -7.732   0.095  -5.385  1.00  0.00     0.261 C 
BRANCH  26  27
ATOM     27  O   UNL     1      -7.046  -1.144  -5.555  1.00  0.00    -0.460 OA
BRANCH  27  28
ATOM     28  C   UNL     1      -5.989  -1.128  -6.392  1.00  0.00     0.338 C 
ATOM     29  O   UNL     1      -5.432  -0.143  -6.843  1.00  0.00    -0.246 OA
BRANCH  28  30
ATOM     30  C   UNL     1      -5.656  -2.516  -6.764  1.00  0.00     0.060 A 
ATOM     31  C   UNL     1      -4.479  -2.726  -7.484  1.00  0.00     0.016 A 
ATOM     32  C   UNL     1      -6.596  -3.546  -6.595  1.00  0.00     0.016 A 
ATOM     33  C   UNL     1      -4.330  -3.908  -8.188  1.00  0.00     0.010 A 
ATOM     34  C   UNL     1      -6.448  -4.726  -7.302  1.00  0.00     0.010 A 
ATOM     35  C   UNL     1      -5.360  -4.858  -8.162  1.00  0.00    -0.014 A 
BRANCH  35  36
ATOM     36  C   UNL     1      -5.319  -5.898  -9.178  1.00  0.00     0.031 A 
ATOM     37  C   UNL     1      -4.339  -6.992  -9.008  1.00  0.00     0.074 A 
ATOM     38  C   UNL     1      -6.152  -5.887 -10.236  1.00  0.00     0.049 A 
ATOM     39  N   UNL     1      -3.355  -7.308  -9.787  1.00  0.00    -0.248 NA
ATOM     40  C   UNL     1      -4.464  -7.833  -7.812  1.00  0.00     0.031 C 
ATOM     41  C   UNL     1      -7.361  -5.080 -10.429  1.00  0.00     0.029 A 
ATOM     42  N   UNL     1      -6.122  -6.682 -11.343  1.00  0.00    -0.354 N 
ATOM     43  C   UNL     1      -2.822  -8.482  -9.268  1.00  0.00     0.074 A 
ATOM     44  C   UNL     1      -3.488  -8.719  -8.010  1.00  0.00     0.031 C 
ATOM     45  C   UNL     1      -8.051  -5.567 -11.484  1.00  0.00     0.029 A 
ATOM     46  C   UNL     1      -7.272  -6.622 -12.110  1.00  0.00     0.049 A 
ATOM     47  H   UNL     1      -5.351  -7.248 -11.575  1.00  0.00     0.167 HD
ATOM     48  C   UNL     1      -1.981  -9.279  -9.979  1.00  0.00     0.037 A 
ATOM     49  C   UNL     1      -7.592  -7.431 -13.146  1.00  0.00     0.037 A 
ATOM     50  C   UNL     1      -1.385  -8.604 -11.096  1.00  0.00     0.049 A 
ATOM     51  C   UNL     1      -6.348  -8.056 -13.652  1.00  0.00     0.074 A 
ATOM     52  C   UNL     1      -0.566  -7.502 -11.244  1.00  0.00     0.029 A 
ATOM     53  N   UNL     1      -1.832  -8.903 -12.358  1.00  0.00    -0.354 N 
ATOM     54  N   UNL     1      -5.411  -7.428 -14.306  1.00  0.00    -0.248 NA
ATOM     55  C   UNL     1      -5.970  -9.358 -13.122  1.00  0.00     0.031 C 
ATOM     56  C   UNL     1      -0.929  -6.927 -12.496  1.00  0.00     0.029 A 
ATOM     57  C   UNL     1      -1.952  -7.713 -13.027  1.00  0.00     0.049 A 
ATOM     58  H   UNL     1      -2.028  -9.800 -12.714  1.00  0.00     0.167 HD
ATOM     59  C   UNL     1      -4.233  -8.060 -13.935  1.00  0.00     0.074 A 
ATOM     60  C   UNL     1      -4.651  -9.309 -13.312  1.00  0.00     0.031 C 
ATOM     61  C   UNL     1      -3.044  -7.391 -13.917  1.00  0.00     0.037 A 
BRANCH  48  62
ATOM     62  C   UNL     1      -1.908 -10.767  -9.806  1.00  0.00     0.057 A 
ATOM     63  C   UNL     1      -0.797 -11.483 -10.279  1.00  0.00     0.134 A 
ATOM     64  C   UNL     1      -3.016 -11.547  -9.418  1.00  0.00     0.134 A 
ATOM     65  F   UNL     1       0.296 -10.842 -10.722  1.00  0.00    -0.206 F 
ATOM     66  C   UNL     1      -0.796 -12.879 -10.376  1.00  0.00     0.040 A 
ATOM     67  C   UNL     1      -3.009 -12.943  -9.465  1.00  0.00     0.040 A 
ATOM     68  F   UNL     1      -4.181 -10.987  -9.064  1.00  0.00    -0.206 F 
ATOM     69  C   UNL     1      -1.903 -13.614  -9.965  1.00  0.00     0.006 A 
ENDBRANCH  48  62
BRANCH  49  70
ATOM     70  C   UNL     1      -8.937  -7.883 -13.556  1.00  0.00     0.057 A 
ATOM     71  C   UNL     1      -9.173  -8.406 -14.833  1.00  0.00     0.134 A 
ATOM     72  C   UNL     1      -9.975  -8.041 -12.620  1.00  0.00     0.134 A 
ATOM     73  F   UNL     1      -8.225  -8.348 -15.779  1.00  0.00    -0.206 F 
ATOM     74  C   UNL     1     -10.371  -9.055 -15.159  1.00  0.00     0.040 A 
ATOM     75  C   UNL     1     -11.180  -8.675 -12.935  1.00  0.00     0.040 A 
ATOM     76  F   UNL     1      -9.823  -7.660 -11.342  1.00  0.00    -0.206 F 
ATOM     77  C   UNL     1     -11.377  -9.195 -14.206  1.00  0.00     0.006 A 
ENDBRANCH  49  70
BRANCH  61  78
ATOM     78  C   UNL     1      -2.977  -6.061 -14.609  1.00  0.00     0.057 A 
ATOM     79  C   UNL     1      -3.684  -4.931 -14.175  1.00  0.00     0.134 A 
ATOM     80  C   UNL     1      -2.049  -5.876 -15.640  1.00  0.00     0.134 A 
ATOM     81  F   UNL     1      -4.517  -4.997 -13.127  1.00  0.00    -0.206 F 
ATOM     82  C   UNL     1      -3.505  -3.680 -14.771  1.00  0.00     0.040 A 
ATOM     83  C   UNL     1      -1.839  -4.624 -16.224  1.00  0.00     0.040 A 
ATOM     84  F   UNL     1      -1.291  -6.901 -16.062  1.00  0.00    -0.206 F 
ATOM     85  C   UNL     1      -2.575  -3.522 -15.796  1.00  0.00     0.006 A 
ENDBRANCH  61  78
ENDBRANCH  35  36
ENDBRANCH  28  30
ENDBRANCH  27  28
ENDBRANCH  26  27
ENDBRANCH  25  26
ENDBRANCH  24  25
ENDBRANCH   1  24
TORSDOF 19
