REMARK SMILES N#C/C(=C\c1cn(CC(=O)OCCOCCOCCOC(=O)c2ccc(-c3c4nc(c(-c5c(F)cccc5F)c5ccc([nH]5)c(-c5c(F)cccc5F)c5nc(c(-c6c(F)cccc6F)c6ccc3[nH]6)C=C5)C=C4)cc2)c2ccccc12)C(=O)N1CCCC[C@@H]1C#N
REMARK SMILES IDX 14 1 13 2 12 3 11 4 9 5 10 6 8 7 7 8 5 9 6 10 82 11 77 12
REMARK SMILES IDX 81 13 78 14 80 15 79 16 4 17 3 18 2 19 1 20 83 21 84 22
REMARK SMILES IDX 85 23 86 24 90 25 87 26 89 27 88 28 91 29 92 30 15 31 16 32
REMARK SMILES IDX 17 33 18 34 19 35 20 36 21 37 22 38 23 39 24 40 76 41 25 42
REMARK SMILES IDX 75 43 26 44 27 45 28 46 69 47 29 48 74 49 68 50 70 51 30 52
REMARK SMILES IDX 73 53 67 54 66 55 31 57 57 58 40 59 56 60 41 61 44 62 55 63
REMARK SMILES IDX 71 64 42 65 43 66 54 68 72 69 45 70 32 71 33 72 38 73 34 74
REMARK SMILES IDX 35 75 37 76 39 77 36 78 58 79 59 80 64 81 60 82 61 83 63 84
REMARK SMILES IDX 65 85 62 86 46 87 47 88 52 89 48 90 49 91 51 92 53 93 50 94
REMARK H PARENT 70 56 44 67
REMARK Flexibility Score: inf
ROOT
ATOM      1  O   UNL     1      -1.081   2.094  -6.741  1.00  0.00    -0.376 OA
ENDROOT
BRANCH   1   2
ATOM      2  C   UNL     1      -0.832   0.706  -6.766  1.00  0.00     0.202 C 
BRANCH   2   3
ATOM      3  C   UNL     1       0.636   0.263  -6.797  1.00  0.00     0.261 C 
BRANCH   3   4
ATOM      4  O   UNL     1       1.439   0.672  -5.647  1.00  0.00    -0.462 OA
BRANCH   4   5
ATOM      5  C   UNL     1       2.315   1.666  -5.915  1.00  0.00     0.326 C 
ATOM      6  O   UNL     1       2.513   2.003  -7.084  1.00  0.00    -0.250 OA
BRANCH   5   7
ATOM      7  C   UNL     1       2.925   2.491  -4.775  1.00  0.00     0.244 C 
BRANCH   7   8
ATOM      8  N   UNL     1       3.010   2.132  -3.355  1.00  0.00    -0.336 N 
ATOM      9  C   UNL     1       4.156   1.403  -1.697  1.00  0.00     0.002 A 
ATOM     10  C   UNL     1       4.030   1.277  -3.034  1.00  0.00     0.095 A 
ATOM     11  C   UNL     1       3.531   2.537  -1.169  1.00  0.00     0.007 A 
ATOM     12  C   UNL     1       2.639   2.840  -2.188  1.00  0.00     0.049 A 
ATOM     13  C   UNL     1       3.366   3.043   0.166  1.00  0.00     0.011 A 
ATOM     14  C   UNL     1       1.504   3.496  -1.716  1.00  0.00     0.027 A 
ATOM     15  C   UNL     1       2.340   3.922   0.484  1.00  0.00     0.001 A 
ATOM     16  C   UNL     1       1.411   4.173  -0.485  1.00  0.00     0.002 A 
BRANCH   9  17
ATOM     17  C   UNL     1       4.530   0.343  -0.919  1.00  0.00     0.035 C 
ATOM     18  C   UNL     1       3.738  -0.028   0.086  1.00  0.00     0.118 C 
BRANCH  18  19
ATOM     19  C   UNL     1       2.218  -0.028   0.086  1.00  0.00     0.105 C 
ATOM     20  N   UNL     1       0.957  -0.028   0.086  1.00  0.00    -0.192 NA
ENDBRANCH  18  19
BRANCH  18  21
ATOM     21  C   UNL     1       4.470  -1.028   0.962  1.00  0.00     0.265 C 
ATOM     22  O   UNL     1       3.842  -1.971   1.440  1.00  0.00    -0.268 OA
BRANCH  21  23
ATOM     23  N   UNL     1       5.873  -0.934   1.105  1.00  0.00    -0.322 N 
ATOM     24  C   UNL     1       6.624  -2.182   1.251  1.00  0.00     0.121 C 
ATOM     25  C   UNL     1       6.716   0.303   1.112  1.00  0.00     0.189 C 
ATOM     26  C   UNL     1       7.638  -2.306   0.110  1.00  0.00     0.022 C 
ATOM     27  C   UNL     1       7.837   0.222   0.041  1.00  0.00     0.041 C 
ATOM     28  C   UNL     1       8.591  -1.111   0.063  1.00  0.00     0.005 C 
BRANCH  25  29
ATOM     29  C   UNL     1       7.336   0.546   2.433  1.00  0.00     0.087 C 
ATOM     30  N   UNL     1       7.875   0.745   3.455  1.00  0.00    -0.196 NA
ENDBRANCH  25  29
ENDBRANCH  21  23
ENDBRANCH  18  21
ENDBRANCH   9  17
ENDBRANCH   7   8
ENDBRANCH   5   7
ENDBRANCH   4   5
ENDBRANCH   3   4
ENDBRANCH   2   3
ENDBRANCH   1   2
BRANCH   1  31
ATOM     31  C   UNL     1      -0.469   2.854  -5.730  1.00  0.00     0.188 C 
BRANCH  31  32
ATOM     32  C   UNL     1      -0.295   2.292  -4.317  1.00  0.00     0.188 C 
BRANCH  32  33
ATOM     33  O   UNL     1      -1.011   1.157  -3.949  1.00  0.00    -0.376 OA
BRANCH  33  34
ATOM     34  C   UNL     1      -2.280   1.396  -3.380  1.00  0.00     0.202 C 
BRANCH  34  35
ATOM     35  C   UNL     1      -2.791   2.846  -3.053  1.00  0.00     0.261 C 
BRANCH  35  36
ATOM     36  O   UNL     1      -2.367   3.957  -3.932  1.00  0.00    -0.460 OA
BRANCH  36  37
ATOM     37  C   UNL     1      -1.802   5.080  -3.360  1.00  0.00     0.338 C 
ATOM     38  O   UNL     1      -1.894   5.333  -2.163  1.00  0.00    -0.246 OA
BRANCH  37  39
ATOM     39  C   UNL     1      -0.669   5.706  -4.208  1.00  0.00     0.060 A 
ATOM     40  C   UNL     1      -0.592   6.096  -5.535  1.00  0.00     0.016 A 
ATOM     41  C   UNL     1       0.567   5.650  -3.582  1.00  0.00     0.016 A 
ATOM     42  C   UNL     1       0.708   6.177  -6.185  1.00  0.00     0.010 A 
ATOM     43  C   UNL     1       1.831   5.852  -4.147  1.00  0.00     0.010 A 
ATOM     44  C   UNL     1       1.947   5.945  -5.515  1.00  0.00    -0.014 A 
BRANCH  44  45
ATOM     45  C   UNL     1       3.346   6.185  -6.042  1.00  0.00     0.031 A 
ATOM     46  C   UNL     1       3.514   7.637  -6.011  1.00  0.00     0.074 A 
ATOM     47  C   UNL     1       4.460   5.479  -6.423  1.00  0.00     0.049 A 
ATOM     48  N   UNL     1       3.018   8.372  -6.945  1.00  0.00    -0.248 NA
ATOM     49  C   UNL     1       3.895   8.355  -4.793  1.00  0.00     0.031 C 
ATOM     50  C   UNL     1       4.674   4.060  -6.542  1.00  0.00     0.029 A 
ATOM     51  N   UNL     1       5.713   5.911  -6.852  1.00  0.00    -0.354 N 
ATOM     52  C   UNL     1       3.349   9.649  -6.581  1.00  0.00     0.074 A 
ATOM     53  C   UNL     1       3.558   9.599  -5.157  1.00  0.00     0.031 C 
ATOM     54  C   UNL     1       5.969   3.690  -6.659  1.00  0.00     0.029 A 
ATOM     55  C   UNL     1       6.710   4.898  -6.943  1.00  0.00     0.049 A 
ATOM     56  H   UNL     1       5.897   6.852  -7.077  1.00  0.00     0.167 HD
ATOM     57  C   UNL     1       3.821  10.475  -7.549  1.00  0.00     0.037 A 
ATOM     58  C   UNL     1       7.919   4.862  -7.587  1.00  0.00     0.037 A 
ATOM     59  C   UNL     1       3.595   9.896  -8.871  1.00  0.00     0.049 A 
ATOM     60  C   UNL     1       7.888   5.898  -8.634  1.00  0.00     0.074 A 
ATOM     61  C   UNL     1       2.498   9.419  -9.570  1.00  0.00     0.029 A 
ATOM     62  N   UNL     1       4.689   9.348  -9.497  1.00  0.00    -0.354 N 
ATOM     63  N   UNL     1       7.178   5.795  -9.720  1.00  0.00    -0.248 NA
ATOM     64  C   UNL     1       8.204   7.242  -8.199  1.00  0.00     0.031 C 
ATOM     65  C   UNL     1       2.968   8.283 -10.301  1.00  0.00     0.029 A 
ATOM     66  C   UNL     1       4.342   8.169 -10.102  1.00  0.00     0.049 A 
ATOM     67  H   UNL     1       5.590   9.745  -9.509  1.00  0.00     0.167 HD
ATOM     68  C   UNL     1       6.523   7.012  -9.798  1.00  0.00     0.074 A 
ATOM     69  C   UNL     1       7.241   7.885  -8.863  1.00  0.00     0.031 C 
ATOM     70  C   UNL     1       5.287   7.106 -10.373  1.00  0.00     0.037 A 
BRANCH  57  71
ATOM     71  C   UNL     1       4.903  11.493  -7.301  1.00  0.00     0.057 A 
ATOM     72  C   UNL     1       5.810  11.489  -6.219  1.00  0.00     0.134 A 
ATOM     73  C   UNL     1       5.242  12.347  -8.361  1.00  0.00     0.134 A 
ATOM     74  F   UNL     1       5.676  10.707  -5.144  1.00  0.00    -0.206 F 
ATOM     75  C   UNL     1       6.989  12.230  -6.219  1.00  0.00     0.040 A 
ATOM     76  C   UNL     1       6.445  13.054  -8.393  1.00  0.00     0.040 A 
ATOM     77  F   UNL     1       4.456  12.440  -9.445  1.00  0.00    -0.206 F 
ATOM     78  C   UNL     1       7.330  12.987  -7.325  1.00  0.00     0.006 A 
ENDBRANCH  57  71
BRANCH  58  79
ATOM     79  C   UNL     1       9.195   4.174  -7.223  1.00  0.00     0.057 A 
ATOM     80  C   UNL     1       9.455   3.782  -5.901  1.00  0.00     0.134 A 
ATOM     81  C   UNL     1      10.309   4.155  -8.088  1.00  0.00     0.134 A 
ATOM     82  F   UNL     1       8.477   3.780  -4.984  1.00  0.00    -0.206 F 
ATOM     83  C   UNL     1      10.744   3.461  -5.449  1.00  0.00     0.040 A 
ATOM     84  C   UNL     1      11.605   3.831  -7.649  1.00  0.00     0.040 A 
ATOM     85  F   UNL     1      10.184   4.519  -9.373  1.00  0.00    -0.206 F 
ATOM     86  C   UNL     1      11.829   3.504  -6.317  1.00  0.00     0.006 A 
ENDBRANCH  58  79
BRANCH  70  87
ATOM     87  C   UNL     1       4.828   5.959 -11.241  1.00  0.00     0.057 A 
ATOM     88  C   UNL     1       4.505   6.237 -12.575  1.00  0.00     0.134 A 
ATOM     89  C   UNL     1       4.627   4.637 -10.811  1.00  0.00     0.134 A 
ATOM     90  F   UNL     1       4.630   7.486 -13.051  1.00  0.00    -0.206 F 
ATOM     91  C   UNL     1       4.024   5.257 -13.446  1.00  0.00     0.040 A 
ATOM     92  C   UNL     1       4.171   3.637 -11.682  1.00  0.00     0.040 A 
ATOM     93  F   UNL     1       4.832   4.282  -9.536  1.00  0.00    -0.206 F 
ATOM     94  C   UNL     1       3.869   3.947 -13.005  1.00  0.00     0.006 A 
ENDBRANCH  70  87
ENDBRANCH  44  45
ENDBRANCH  37  39
ENDBRANCH  36  37
ENDBRANCH  35  36
ENDBRANCH  34  35
ENDBRANCH  33  34
ENDBRANCH  32  33
ENDBRANCH  31  32
ENDBRANCH   1  31
TORSDOF 23
