REMARK SMILES CC1(C)[C@H](C(=O)Nc2ccc(C(=O)Nc3cccnc3)c(Cl)c2)[C@H]1C(=O)OCCOCCOCCOC(=O)c1ccc(-c2c3nc(c(-c4c(F)cccc4F)c4ccc([nH]4)c(-c4c(F)cccc4F)c4nc(c(-c5c(F)cccc5F)c5ccc2[nH]5)C=C4)C=C3)cc1
REMARK SMILES IDX 31 1 30 2 29 3 28 4 27 5 25 6 26 7 24 8 1 9 2 10 3 11 4 12
REMARK SMILES IDX 5 13 6 14 7 15 8 17 9 18 23 19 10 20 21 21 11 22 22 23 12 24
REMARK SMILES IDX 13 25 14 26 15 28 16 29 20 30 17 31 19 32 18 33 32 34 33 35
REMARK SMILES IDX 34 36 35 37 36 38 37 39 38 40 39 41 40 42 92 43 41 44 91 45
REMARK SMILES IDX 42 46 43 47 44 48 85 49 45 50 90 51 84 52 86 53 46 54 89 55
REMARK SMILES IDX 83 56 82 57 47 59 73 60 56 61 72 62 57 63 60 64 71 65 87 66
REMARK SMILES IDX 58 67 59 68 70 70 88 71 61 72 48 73 49 74 54 75 50 76 51 77
REMARK SMILES IDX 53 78 55 79 52 80 74 81 75 82 80 83 76 84 77 85 79 86 81 87
REMARK SMILES IDX 78 88 62 89 63 90 68 91 64 92 65 93 67 94 69 95 66 96
REMARK H PARENT 7 16 14 27 86 58 60 69
REMARK Flexibility Score: inf
ROOT
ATOM      1  C   UNL     1      -1.247  -1.081   3.873  1.00  0.00     0.188 C 
ENDROOT
BRANCH   1   2
ATOM      2  O   UNL     1      -2.088  -2.097   4.413  1.00  0.00    -0.376 OA
BRANCH   2   3
ATOM      3  C   UNL     1      -2.407  -3.232   3.605  1.00  0.00     0.202 C 
BRANCH   3   4
ATOM      4  C   UNL     1      -2.921  -2.974   2.180  1.00  0.00     0.261 C 
BRANCH   4   5
ATOM      5  O   UNL     1      -1.959  -2.264   1.383  1.00  0.00    -0.463 OA
BRANCH   5   6
ATOM      6  C   UNL     1      -2.449  -1.283   0.578  1.00  0.00     0.310 C 
ATOM      7  O   UNL     1      -3.615  -1.069   0.333  1.00  0.00    -0.252 OA
BRANCH   6   8
ATOM      8  C   UNL     1      -1.385  -0.340   0.129  1.00  0.00     0.118 C 
ATOM      9  C   UNL     1       0.416  -2.176  -0.603  1.00  0.00     0.013 C 
ATOM     10  C   UNL     1       0.002  -0.732  -0.404  1.00  0.00    -0.009 C 
ATOM     11  C   UNL     1       1.168   0.080   0.102  1.00  0.00     0.013 C 
ATOM     12  C   UNL     1      -1.107  -0.251  -1.342  1.00  0.00     0.100 C 
BRANCH  12  13
ATOM     13  C   UNL     1      -1.275   0.980  -2.175  1.00  0.00     0.228 C 
ATOM     14  O   UNL     1      -1.310   0.823  -3.395  1.00  0.00    -0.274 OA
ATOM     15  N   UNL     1      -1.739   2.171  -1.659  1.00  0.00    -0.326 N 
ATOM     16  H   UNL     1      -2.681   2.386  -1.847  1.00  0.00     0.169 HD
BRANCH  15  17
ATOM     17  C   UNL     1      -1.032   3.114  -0.897  1.00  0.00     0.042 A 
ATOM     18  C   UNL     1       0.295   2.947  -0.556  1.00  0.00     0.027 A 
ATOM     19  C   UNL     1      -1.629   4.324  -0.561  1.00  0.00     0.047 A 
ATOM     20  C   UNL     1       0.881   3.727   0.439  1.00  0.00     0.017 A 
ATOM     21  C   UNL     1      -0.950   5.230   0.267  1.00  0.00     0.055 A 
ATOM     22  C   UNL     1       0.194   4.823   0.957  1.00  0.00     0.058 A 
ATOM     23  Cl  UNL     1      -1.470   6.877   0.203  1.00  0.00    -0.083 Cl
BRANCH  22  24
ATOM     24  C   UNL     1       0.755   5.431   2.199  1.00  0.00     0.257 C 
ATOM     25  O   UNL     1       1.972   5.386   2.379  1.00  0.00    -0.269 OA
ATOM     26  N   UNL     1      -0.043   5.992   3.177  1.00  0.00    -0.321 N 
ATOM     27  H   UNL     1       0.433   6.415   3.928  1.00  0.00     0.170 HD
BRANCH  26  28
ATOM     28  C   UNL     1      -1.441   6.035   3.239  1.00  0.00     0.059 A 
ATOM     29  C   UNL     1      -2.255   4.926   3.003  1.00  0.00     0.029 A 
ATOM     30  C   UNL     1      -2.052   7.270   3.401  1.00  0.00     0.137 A 
ATOM     31  C   UNL     1      -3.625   5.108   2.824  1.00  0.00     0.022 A 
ATOM     32  N   UNL     1      -3.368   7.473   3.175  1.00  0.00    -0.263 NA
ATOM     33  C   UNL     1      -4.122   6.396   2.880  1.00  0.00     0.111 A 
ENDBRANCH  26  28
ENDBRANCH  22  24
ENDBRANCH  15  17
ENDBRANCH  12  13
ENDBRANCH   6   8
ENDBRANCH   5   6
ENDBRANCH   4   5
ENDBRANCH   3   4
ENDBRANCH   2   3
ENDBRANCH   1   2
BRANCH   1  34
ATOM     34  C   UNL     1       0.086  -1.491   3.219  1.00  0.00     0.188 C 
BRANCH  34  35
ATOM     35  O   UNL     1       0.293  -2.882   3.174  1.00  0.00    -0.376 OA
BRANCH  35  36
ATOM     36  C   UNL     1       1.318  -3.438   3.974  1.00  0.00     0.202 C 
BRANCH  36  37
ATOM     37  C   UNL     1       1.459  -3.053   5.460  1.00  0.00     0.261 C 
BRANCH  37  38
ATOM     38  O   UNL     1       1.121  -1.708   5.835  1.00  0.00    -0.460 OA
BRANCH  38  39
ATOM     39  C   UNL     1       2.091  -0.772   5.712  1.00  0.00     0.338 C 
ATOM     40  O   UNL     1       3.212  -0.930   5.265  1.00  0.00    -0.246 OA
BRANCH  39  41
ATOM     41  C   UNL     1       1.509   0.545   6.053  1.00  0.00     0.060 A 
ATOM     42  C   UNL     1       1.321   1.491   5.038  1.00  0.00     0.016 A 
ATOM     43  C   UNL     1       1.201   0.864   7.378  1.00  0.00     0.016 A 
ATOM     44  C   UNL     1       0.849   2.768   5.351  1.00  0.00     0.010 A 
ATOM     45  C   UNL     1       0.746   2.152   7.692  1.00  0.00     0.010 A 
ATOM     46  C   UNL     1       0.596   3.122   6.685  1.00  0.00    -0.014 A 
BRANCH  46  47
ATOM     47  C   UNL     1       0.387   4.556   7.028  1.00  0.00     0.031 A 
ATOM     48  C   UNL     1       1.583   5.365   7.450  1.00  0.00     0.074 A 
ATOM     49  C   UNL     1      -0.821   5.144   6.921  1.00  0.00     0.049 A 
ATOM     50  N   UNL     1       1.662   6.636   7.752  1.00  0.00    -0.248 NA
ATOM     51  C   UNL     1       2.860   4.640   7.559  1.00  0.00     0.031 C 
ATOM     52  C   UNL     1      -2.042   4.467   6.501  1.00  0.00     0.029 A 
ATOM     53  N   UNL     1      -1.213   6.450   7.120  1.00  0.00    -0.354 N 
ATOM     54  C   UNL     1       2.978   6.846   8.149  1.00  0.00     0.074 A 
ATOM     55  C   UNL     1       3.668   5.582   8.022  1.00  0.00     0.031 C 
ATOM     56  C   UNL     1      -3.032   5.373   6.407  1.00  0.00     0.029 A 
ATOM     57  C   UNL     1      -2.531   6.694   6.790  1.00  0.00     0.049 A 
ATOM     58  H   UNL     1      -0.608   7.146   7.465  1.00  0.00     0.167 HD
ATOM     59  C   UNL     1       3.551   7.985   8.602  1.00  0.00     0.037 A 
ATOM     60  C   UNL     1      -3.228   7.855   6.766  1.00  0.00     0.037 A 
ATOM     61  C   UNL     1       2.871   9.249   8.699  1.00  0.00     0.049 A 
ATOM     62  C   UNL     1      -2.524   9.121   7.201  1.00  0.00     0.074 A 
ATOM     63  C   UNL     1       3.362  10.459   9.156  1.00  0.00     0.029 A 
ATOM     64  N   UNL     1       1.555   9.465   8.325  1.00  0.00    -0.354 N 
ATOM     65  N   UNL     1      -1.261   9.313   7.503  1.00  0.00    -0.248 NA
ATOM     66  C   UNL     1      -3.348  10.337   7.296  1.00  0.00     0.031 C 
ATOM     67  C   UNL     1       2.328  11.399   9.098  1.00  0.00     0.029 A 
ATOM     68  C   UNL     1       1.211  10.785   8.556  1.00  0.00     0.049 A 
ATOM     69  H   UNL     1       0.954   8.781   7.950  1.00  0.00     0.167 HD
ATOM     70  C   UNL     1      -1.145  10.668   7.801  1.00  0.00     0.074 A 
ATOM     71  C   UNL     1      -2.441  11.262   7.565  1.00  0.00     0.031 C 
ATOM     72  C   UNL     1      -0.077  11.359   8.272  1.00  0.00     0.037 A 
BRANCH  59  73
ATOM     73  C   UNL     1       4.965   7.900   9.096  1.00  0.00     0.057 A 
ATOM     74  C   UNL     1       6.056   7.752   8.232  1.00  0.00     0.134 A 
ATOM     75  C   UNL     1       5.234   7.996  10.468  1.00  0.00     0.134 A 
ATOM     76  F   UNL     1       5.865   7.634   6.909  1.00  0.00    -0.206 F 
ATOM     77  C   UNL     1       7.364   7.682   8.717  1.00  0.00     0.040 A 
ATOM     78  C   UNL     1       6.538   7.956  10.962  1.00  0.00     0.040 A 
ATOM     79  F   UNL     1       4.233   8.140  11.350  1.00  0.00    -0.206 F 
ATOM     80  C   UNL     1       7.608   7.793  10.085  1.00  0.00     0.006 A 
ENDBRANCH  59  73
BRANCH  60  81
ATOM     81  C   UNL     1      -4.631   7.927   6.237  1.00  0.00     0.057 A 
ATOM     82  C   UNL     1      -4.968   8.805   5.190  1.00  0.00     0.134 A 
ATOM     83  C   UNL     1      -5.676   7.146   6.743  1.00  0.00     0.134 A 
ATOM     84  F   UNL     1      -4.052   9.649   4.689  1.00  0.00    -0.206 F 
ATOM     85  C   UNL     1      -6.250   8.861   4.638  1.00  0.00     0.040 A 
ATOM     86  C   UNL     1      -6.961   7.176   6.189  1.00  0.00     0.040 A 
ATOM     87  F   UNL     1      -5.469   6.325   7.783  1.00  0.00    -0.206 F 
ATOM     88  C   UNL     1      -7.249   8.029   5.126  1.00  0.00     0.006 A 
ENDBRANCH  60  81
BRANCH  72  89
ATOM     89  C   UNL     1      -0.270  12.825   8.540  1.00  0.00     0.057 A 
ATOM     90  C   UNL     1      -1.088  13.282   9.584  1.00  0.00     0.134 A 
ATOM     91  C   UNL     1       0.391  13.791   7.771  1.00  0.00     0.134 A 
ATOM     92  F   UNL     1      -1.754  12.410  10.356  1.00  0.00    -0.206 F 
ATOM     93  C   UNL     1      -1.272  14.643   9.827  1.00  0.00     0.040 A 
ATOM     94  C   UNL     1       0.240  15.155   8.025  1.00  0.00     0.040 A 
ATOM     95  F   UNL     1       1.202  13.425   6.766  1.00  0.00    -0.206 F 
ATOM     96  C   UNL     1      -0.601  15.585   9.049  1.00  0.00     0.006 A 
ENDBRANCH  72  89
ENDBRANCH  46  47
ENDBRANCH  39  41
ENDBRANCH  38  39
ENDBRANCH  37  38
ENDBRANCH  36  37
ENDBRANCH  35  36
ENDBRANCH  34  35
ENDBRANCH   1  34
TORSDOF 21
