REMARK SMILES [NH3+][C@@]1(C(=O)OCCOCCOCCOC(=O)c2ccc(-c3c4nc(c(-c5c(F)cccc5F)c5ccc([nH]5)c(-c5c(F)cccc5F)c5nc(c(-c6c(F)cccc6F)c6ccc3[nH]6)C=C5)C=C4)cc2)CCC[C@@H](Oc2ccccc2[N+](=O)[O-])C1
REMARK SMILES IDX 9 1 8 2 7 3 6 4 5 5 3 6 4 7 2 8 71 9 85 10 72 11 74 12 73 13
REMARK SMILES IDX 1 14 75 18 76 19 77 20 81 21 78 22 80 23 79 24 82 25 83 26
REMARK SMILES IDX 84 27 10 28 11 29 12 30 13 31 14 32 15 33 16 34 17 35 18 36
REMARK SMILES IDX 70 37 19 38 69 39 20 40 21 41 22 42 63 43 23 44 68 45 62 46
REMARK SMILES IDX 64 47 24 48 67 49 61 50 60 51 25 53 51 54 34 55 50 56 35 57
REMARK SMILES IDX 38 58 49 59 65 60 36 61 37 62 48 64 66 65 39 66 26 67 27 68
REMARK SMILES IDX 32 69 28 70 29 71 31 72 33 73 30 74 52 75 53 76 58 77 54 78
REMARK SMILES IDX 55 79 57 80 59 81 56 82 40 83 41 84 46 85 42 86 43 87 45 88
REMARK SMILES IDX 47 89 44 90
REMARK H PARENT 1 15 1 16 1 17 64 52 38 63
REMARK Flexibility Score: inf
ROOT
ATOM      1  C   UNL     1      -3.511  -1.650   1.841  1.00  0.00     0.188 C 
ENDROOT
BRANCH   1   2
ATOM      2  O   UNL     1      -4.643  -0.832   2.108  1.00  0.00    -0.376 OA
BRANCH   2   3
ATOM      3  C   UNL     1      -5.325  -0.199   1.042  1.00  0.00     0.202 C 
BRANCH   3   4
ATOM      4  C   UNL     1      -4.568   0.878   0.261  1.00  0.00     0.261 C 
BRANCH   4   5
ATOM      5  O   UNL     1      -3.242   0.512  -0.136  1.00  0.00    -0.459 OA
BRANCH   5   6
ATOM      6  C   UNL     1      -2.189   0.939   0.633  1.00  0.00     0.368 C 
ATOM      7  O   UNL     1      -2.289   1.585   1.666  1.00  0.00    -0.245 OA
BRANCH   6   8
ATOM      8  C   UNL     1      -0.837   0.469  -0.003  1.00  0.00     0.196 C 
ATOM      9  C   UNL     1      -0.053  -0.527   0.870  1.00  0.00     0.081 C 
ATOM     10  C   UNL     1       0.016   1.734  -0.202  1.00  0.00     0.126 C 
ATOM     11  C   UNL     1       1.300  -0.897   0.243  1.00  0.00     0.011 C 
ATOM     12  C   UNL     1       1.432   1.503  -0.745  1.00  0.00     0.180 C 
ATOM     13  C   UNL     1       2.165   0.322  -0.081  1.00  0.00     0.046 C 
BRANCH   8  14
ATOM     14  N   UNL     1      -1.115  -0.204  -1.286  1.00  0.00    -0.343 N 
ATOM     15  H   UNL     1      -0.239  -0.513  -1.706  1.00  0.00     0.345 HD
ATOM     16  H   UNL     1      -1.584   0.447  -1.917  1.00  0.00     0.345 HD
ATOM     17  H   UNL     1      -1.717  -1.012  -1.123  1.00  0.00     0.345 HD
ENDBRANCH   8  14
BRANCH  12  18
ATOM     18  O   UNL     1       1.598   1.655  -2.175  1.00  0.00    -0.483 OA
BRANCH  18  19
ATOM     19  C   UNL     1       1.014   0.751  -3.010  1.00  0.00     0.197 A 
ATOM     20  C   UNL     1       1.718  -0.420  -3.303  1.00  0.00     0.054 A 
ATOM     21  C   UNL     1      -0.218   0.965  -3.649  1.00  0.00     0.310 A 
ATOM     22  C   UNL     1       1.145  -1.417  -4.100  1.00  0.00     0.004 A 
ATOM     23  C   UNL     1      -0.805  -0.041  -4.440  1.00  0.00     0.090 A 
ATOM     24  C   UNL     1      -0.127  -1.241  -4.644  1.00  0.00     0.007 A 
BRANCH  21  25
ATOM     25  N   UNL     1      -1.001   2.172  -3.406  1.00  0.00     0.066 N 
ATOM     26  O   UNL     1      -2.233   2.040  -3.296  1.00  0.00    -0.258 OA
ATOM     27  O   UNL     1      -0.407   3.258  -3.348  1.00  0.00    -0.258 OA
ENDBRANCH  21  25
ENDBRANCH  18  19
ENDBRANCH  12  18
ENDBRANCH   6   8
ENDBRANCH   5   6
ENDBRANCH   4   5
ENDBRANCH   3   4
ENDBRANCH   2   3
ENDBRANCH   1   2
BRANCH   1  28
ATOM     28  C   UNL     1      -3.356  -2.376   0.490  1.00  0.00     0.188 C 
BRANCH  28  29
ATOM     29  O   UNL     1      -4.587  -2.740  -0.105  1.00  0.00    -0.376 OA
BRANCH  29  30
ATOM     30  C   UNL     1      -4.806  -4.135  -0.217  1.00  0.00     0.202 C 
BRANCH  30  31
ATOM     31  C   UNL     1      -5.146  -4.811   1.118  1.00  0.00     0.261 C 
BRANCH  31  32
ATOM     32  O   UNL     1      -4.204  -4.608   2.197  1.00  0.00    -0.460 OA
BRANCH  32  33
ATOM     33  C   UNL     1      -2.987  -5.191   2.111  1.00  0.00     0.338 C 
ATOM     34  O   UNL     1      -2.593  -5.908   1.205  1.00  0.00    -0.246 OA
BRANCH  33  35
ATOM     35  C   UNL     1      -2.109  -4.648   3.188  1.00  0.00     0.060 A 
ATOM     36  C   UNL     1      -0.882  -4.069   2.833  1.00  0.00     0.016 A 
ATOM     37  C   UNL     1      -2.485  -4.685   4.534  1.00  0.00     0.016 A 
ATOM     38  C   UNL     1      -0.023  -3.557   3.817  1.00  0.00     0.010 A 
ATOM     39  C   UNL     1      -1.614  -4.188   5.521  1.00  0.00     0.010 A 
ATOM     40  C   UNL     1      -0.362  -3.643   5.175  1.00  0.00    -0.014 A 
BRANCH  40  41
ATOM     41  C   UNL     1       0.648  -3.308   6.225  1.00  0.00     0.031 A 
ATOM     42  C   UNL     1       1.408  -4.425   6.899  1.00  0.00     0.074 A 
ATOM     43  C   UNL     1       0.931  -2.035   6.568  1.00  0.00     0.049 A 
ATOM     44  N   UNL     1       2.326  -4.369   7.833  1.00  0.00    -0.248 NA
ATOM     45  C   UNL     1       1.088  -5.789   6.453  1.00  0.00     0.031 C 
ATOM     46  C   UNL     1       0.311  -0.844   5.994  1.00  0.00     0.029 A 
ATOM     47  N   UNL     1       1.819  -1.536   7.495  1.00  0.00    -0.354 N 
ATOM     48  C   UNL     1       2.692  -5.686   8.088  1.00  0.00     0.074 A 
ATOM     49  C   UNL     1       1.872  -6.519   7.233  1.00  0.00     0.031 C 
ATOM     50  C   UNL     1       0.833   0.247   6.584  1.00  0.00     0.029 A 
ATOM     51  C   UNL     1       1.802  -0.166   7.599  1.00  0.00     0.049 A 
ATOM     52  H   UNL     1       2.411  -2.109   8.034  1.00  0.00     0.167 HD
ATOM     53  C   UNL     1       3.628  -6.165   8.944  1.00  0.00     0.037 A 
ATOM     54  C   UNL     1       2.475   0.663   8.426  1.00  0.00     0.037 A 
ATOM     55  C   UNL     1       4.445  -5.353   9.810  1.00  0.00     0.049 A 
ATOM     56  C   UNL     1       3.457   0.101   9.426  1.00  0.00     0.074 A 
ATOM     57  C   UNL     1       5.430  -5.759  10.696  1.00  0.00     0.029 A 
ATOM     58  N   UNL     1       4.365  -3.973   9.913  1.00  0.00    -0.354 N 
ATOM     59  N   UNL     1       3.817  -1.143   9.630  1.00  0.00    -0.248 NA
ATOM     60  C   UNL     1       4.132   1.068  10.307  1.00  0.00     0.031 C 
ATOM     61  C   UNL     1       5.903  -4.632  11.377  1.00  0.00     0.029 A 
ATOM     62  C   UNL     1       5.262  -3.516  10.868  1.00  0.00     0.049 A 
ATOM     63  H   UNL     1       3.761  -3.402   9.386  1.00  0.00     0.167 HD
ATOM     64  C   UNL     1       4.777  -1.104  10.638  1.00  0.00     0.074 A 
ATOM     65  C   UNL     1       4.961   0.288  10.986  1.00  0.00     0.031 C 
ATOM     66  C   UNL     1       5.445  -2.130  11.221  1.00  0.00     0.037 A 
BRANCH  53  67
ATOM     67  C   UNL     1       3.802  -7.657   9.009  1.00  0.00     0.057 A 
ATOM     68  C   UNL     1       4.377  -8.385   7.959  1.00  0.00     0.134 A 
ATOM     69  C   UNL     1       3.420  -8.370  10.154  1.00  0.00     0.134 A 
ATOM     70  F   UNL     1       4.754  -7.767   6.830  1.00  0.00    -0.206 F 
ATOM     71  C   UNL     1       4.540  -9.770   8.033  1.00  0.00     0.040 A 
ATOM     72  C   UNL     1       3.606  -9.750  10.251  1.00  0.00     0.040 A 
ATOM     73  F   UNL     1       2.871  -7.736  11.200  1.00  0.00    -0.206 F 
ATOM     74  C   UNL     1       4.161 -10.455   9.185  1.00  0.00     0.006 A 
ENDBRANCH  53  67
BRANCH  54  75
ATOM     75  C   UNL     1       2.241   2.132   8.369  1.00  0.00     0.057 A 
ATOM     76  C   UNL     1       3.245   3.015   7.952  1.00  0.00     0.134 A 
ATOM     77  C   UNL     1       1.026   2.691   8.785  1.00  0.00     0.134 A 
ATOM     78  F   UNL     1       4.444   2.546   7.576  1.00  0.00    -0.206 F 
ATOM     79  C   UNL     1       3.057   4.399   7.969  1.00  0.00     0.040 A 
ATOM     80  C   UNL     1       0.814   4.071   8.777  1.00  0.00     0.040 A 
ATOM     81  F   UNL     1       0.028   1.902   9.208  1.00  0.00    -0.206 F 
ATOM     82  C   UNL     1       1.835   4.930   8.377  1.00  0.00     0.006 A 
ENDBRANCH  54  75
BRANCH  66  83
ATOM     83  C   UNL     1       6.467  -1.785  12.272  1.00  0.00     0.057 A 
ATOM     84  C   UNL     1       6.106  -1.258  13.520  1.00  0.00     0.134 A 
ATOM     85  C   UNL     1       7.834  -1.984  12.033  1.00  0.00     0.134 A 
ATOM     86  F   UNL     1       4.817  -1.032  13.816  1.00  0.00    -0.206 F 
ATOM     87  C   UNL     1       7.066  -0.902  14.471  1.00  0.00     0.040 A 
ATOM     88  C   UNL     1       8.801  -1.664  12.989  1.00  0.00     0.040 A 
ATOM     89  F   UNL     1       8.255  -2.498  10.868  1.00  0.00    -0.206 F 
ATOM     90  C   UNL     1       8.418  -1.108  14.207  1.00  0.00     0.006 A 
ENDBRANCH  66  83
ENDBRANCH  40  41
ENDBRANCH  33  35
ENDBRANCH  32  33
ENDBRANCH  31  32
ENDBRANCH  30  31
ENDBRANCH  29  30
ENDBRANCH  28  29
ENDBRANCH   1  28
TORSDOF 21
