REMARK SMILES O=C(OCCOCCOCCOC(=O)c1ccc(-c2c3nc(c(-c4c(F)cccc4F)c4ccc([nH]4)c(-c4c(F)cccc4F)c4nc(c(-c5c(F)cccc5F)c5ccc2[nH]5)C=C4)C=C3)cc1)C1=Cc2cc(Cl)cc(C#Cc3ccccc3)c2O[C@@H]1C(F)(F)F
REMARK SMILES IDX 7 1 6 2 5 3 4 4 3 5 2 6 1 7 69 8 70 9 87 10 71 11 86 12
REMARK SMILES IDX 72 13 85 14 73 15 76 16 74 17 75 18 88 19 89 20 90 21 91 22
REMARK SMILES IDX 77 23 78 24 79 25 80 26 84 27 81 28 83 29 82 30 8 31 9 32
REMARK SMILES IDX 10 33 11 34 12 35 13 36 14 37 15 38 16 39 68 40 17 41 67 42
REMARK SMILES IDX 18 43 19 44 20 45 61 46 21 47 66 48 60 49 62 50 22 51 65 52
REMARK SMILES IDX 59 53 58 54 23 56 49 57 32 58 48 59 33 60 36 61 47 62 63 63
REMARK SMILES IDX 34 64 35 65 46 67 64 68 37 69 24 70 25 71 30 72 26 73 27 74
REMARK SMILES IDX 29 75 31 76 28 77 50 78 51 79 56 80 52 81 53 82 55 83 57 84
REMARK SMILES IDX 54 85 38 86 39 87 44 88 40 89 41 90 43 91 45 92 42 93
REMARK H PARENT 62 55 36 66
REMARK Flexibility Score: inf
ROOT
ATOM      1  C   UNL     1       2.322  -1.061  -2.133  1.00  0.00     0.188 C 
ENDROOT
BRANCH   1   2
ATOM      2  O   UNL     1       3.725  -0.546  -2.053  1.00  0.00    -0.376 OA
BRANCH   2   3
ATOM      3  C   UNL     1       4.484   0.283  -0.731  1.00  0.00     0.202 C 
BRANCH   3   4
ATOM      4  C   UNL     1       3.820   0.121   1.339  1.00  0.00     0.261 C 
BRANCH   4   5
ATOM      5  O   UNL     1       2.839   1.053   2.039  1.00  0.00    -0.460 OA
BRANCH   5   6
ATOM      6  C   UNL     1       2.977   2.324   1.635  1.00  0.00     0.338 C 
ATOM      7  O   UNL     1       2.244   3.260   1.848  1.00  0.00    -0.246 OA
BRANCH   6   8
ATOM      8  C   UNL     1       3.866   2.050   0.518  1.00  0.00     0.087 C 
ATOM      9  C   UNL     1       5.261   1.796   0.840  1.00  0.00     0.027 C 
ATOM     10  C   UNL     1       2.667   0.762  -0.245  1.00  0.00     0.316 C 
ATOM     11  C   UNL     1       6.006   0.165   0.868  1.00  0.00     0.020 A 
ATOM     12  O   UNL     1       3.389  -1.050  -0.059  1.00  0.00    -0.474 OA
ATOM     13  C   UNL     1       7.310   0.058   1.269  1.00  0.00     0.032 A 
ATOM     14  C   UNL     1       5.117  -1.277   0.497  1.00  0.00     0.143 A 
ATOM     15  C   UNL     1       7.817  -1.247   1.290  1.00  0.00     0.043 A 
ATOM     16  C   UNL     1       5.709  -2.517   0.547  1.00  0.00     0.069 A 
ATOM     17  Cl  UNL     1       9.475  -1.433   1.766  1.00  0.00    -0.084 Cl
ATOM     18  C   UNL     1       7.075  -2.447   0.945  1.00  0.00     0.041 A 
BRANCH  10  19
ATOM     19  C   UNL     1       2.381   1.739  -1.608  1.00  0.00     0.430 C 
ATOM     20  F   UNL     1       2.658   1.316  -2.847  1.00  0.00    -0.167 F 
ATOM     21  F   UNL     1       1.088   2.147  -1.605  1.00  0.00    -0.167 F 
ATOM     22  F   UNL     1       3.109   2.901  -1.531  1.00  0.00    -0.167 F 
ENDBRANCH  10  19
BRANCH  16  23
ATOM     23  C   UNL     1       5.180  -3.794   0.227  1.00  0.00    -0.058 C 
ATOM     24  C   UNL     1       4.922  -4.940  -0.058  1.00  0.00    -0.062 C 
BRANCH  24  25
ATOM     25  C   UNL     1       4.652  -6.292  -0.443  1.00  0.00     0.025 A 
ATOM     26  C   UNL     1       3.402  -6.609  -0.977  1.00  0.00     0.017 A 
ATOM     27  C   UNL     1       5.618  -7.295  -0.304  1.00  0.00     0.017 A 
ATOM     28  C   UNL     1       3.106  -7.922  -1.347  1.00  0.00     0.001 A 
ATOM     29  C   UNL     1       5.320  -8.611  -0.675  1.00  0.00     0.001 A 
ATOM     30  C   UNL     1       4.062  -8.925  -1.190  1.00  0.00     0.000 A 
ENDBRANCH  24  25
ENDBRANCH  16  23
ENDBRANCH   6   8
ENDBRANCH   5   6
ENDBRANCH   4   5
ENDBRANCH   3   4
ENDBRANCH   2   3
ENDBRANCH   1   2
BRANCH   1  31
ATOM     31  C   UNL     1       1.996  -2.457  -2.685  1.00  0.00     0.188 C 
BRANCH  31  32
ATOM     32  O   UNL     1       2.918  -3.500  -2.506  1.00  0.00    -0.376 OA
BRANCH  32  33
ATOM     33  C   UNL     1       4.238  -3.240  -2.960  1.00  0.00     0.202 C 
BRANCH  33  34
ATOM     34  C   UNL     1       4.430  -2.814  -4.421  1.00  0.00     0.261 C 
BRANCH  34  35
ATOM     35  O   UNL     1       3.898  -1.513  -4.745  1.00  0.00    -0.460 OA
BRANCH  35  36
ATOM     36  C   UNL     1       2.853  -1.466  -5.607  1.00  0.00     0.338 C 
ATOM     37  O   UNL     1       2.276  -2.401  -6.133  1.00  0.00    -0.246 OA
BRANCH  36  38
ATOM     38  C   UNL     1       2.401  -0.066  -5.729  1.00  0.00     0.060 A 
ATOM     39  C   UNL     1       1.144   0.317  -5.237  1.00  0.00     0.016 A 
ATOM     40  C   UNL     1       3.223   0.861  -6.366  1.00  0.00     0.016 A 
ATOM     41  C   UNL     1       0.733   1.650  -5.333  1.00  0.00     0.010 A 
ATOM     42  C   UNL     1       2.789   2.179  -6.508  1.00  0.00     0.010 A 
ATOM     43  C   UNL     1       1.544   2.582  -5.993  1.00  0.00    -0.014 A 
BRANCH  43  44
ATOM     44  C   UNL     1       1.033   3.936  -6.313  1.00  0.00     0.031 A 
ATOM     45  C   UNL     1       0.361   4.141  -7.640  1.00  0.00     0.074 A 
ATOM     46  C   UNL     1       1.205   4.970  -5.470  1.00  0.00     0.049 A 
ATOM     47  N   UNL     1      -0.057   5.247  -8.196  1.00  0.00    -0.248 NA
ATOM     48  C   UNL     1       0.142   2.933  -8.454  1.00  0.00     0.031 C 
ATOM     49  C   UNL     1       1.820   4.885  -4.148  1.00  0.00     0.029 A 
ATOM     50  N   UNL     1       0.894   6.301  -5.611  1.00  0.00    -0.354 N 
ATOM     51  C   UNL     1      -0.572   4.873  -9.430  1.00  0.00     0.074 A 
ATOM     52  C   UNL     1      -0.404   3.442  -9.549  1.00  0.00     0.031 C 
ATOM     53  C   UNL     1       1.856   6.114  -3.603  1.00  0.00     0.029 A 
ATOM     54  C   UNL     1       1.311   7.079  -4.556  1.00  0.00     0.049 A 
ATOM     55  H   UNL     1       0.418   6.663  -6.393  1.00  0.00     0.167 HD
ATOM     56  C   UNL     1      -1.127   5.659 -10.380  1.00  0.00     0.037 A 
ATOM     57  C   UNL     1       1.289   8.419  -4.402  1.00  0.00     0.037 A 
ATOM     58  C   UNL     1      -1.276   7.084 -10.261  1.00  0.00     0.049 A 
ATOM     59  C   UNL     1       0.729   9.276  -5.514  1.00  0.00     0.074 A 
ATOM     60  C   UNL     1      -1.854   7.965 -11.158  1.00  0.00     0.029 A 
ATOM     61  N   UNL     1      -0.827   7.840  -9.189  1.00  0.00    -0.354 N 
ATOM     62  N   UNL     1       0.196   8.910  -6.656  1.00  0.00    -0.248 NA
ATOM     63  C   UNL     1       0.777  10.734  -5.321  1.00  0.00     0.031 C 
ATOM     64  C   UNL     1      -1.686   9.260 -10.665  1.00  0.00     0.029 A 
ATOM     65  C   UNL     1      -1.075   9.182  -9.424  1.00  0.00     0.049 A 
ATOM     66  H   UNL     1      -0.397   7.476  -8.381  1.00  0.00     0.167 HD
ATOM     67  C   UNL     1      -0.173  10.086  -7.301  1.00  0.00     0.074 A 
ATOM     68  C   UNL     1       0.167  11.175  -6.411  1.00  0.00     0.031 C 
ATOM     69  C   UNL     1      -0.734  10.253  -8.524  1.00  0.00     0.037 A 
BRANCH  56  70
ATOM     70  C   UNL     1      -1.581   5.007 -11.652  1.00  0.00     0.057 A 
ATOM     71  C   UNL     1      -2.705   4.174 -11.703  1.00  0.00     0.134 A 
ATOM     72  C   UNL     1      -0.920   5.276 -12.858  1.00  0.00     0.134 A 
ATOM     73  F   UNL     1      -3.373   3.864 -10.581  1.00  0.00    -0.206 F 
ATOM     74  C   UNL     1      -3.152   3.626 -12.906  1.00  0.00     0.040 A 
ATOM     75  C   UNL     1      -1.375   4.758 -14.071  1.00  0.00     0.040 A 
ATOM     76  F   UNL     1       0.164   6.066 -12.880  1.00  0.00    -0.206 F 
ATOM     77  C   UNL     1      -2.493   3.929 -14.097  1.00  0.00     0.006 A 
ENDBRANCH  56  70
BRANCH  57  78
ATOM     78  C   UNL     1       1.860   9.059  -3.183  1.00  0.00     0.057 A 
ATOM     79  C   UNL     1       1.067   9.827  -2.320  1.00  0.00     0.134 A 
ATOM     80  C   UNL     1       3.229   8.985  -2.893  1.00  0.00     0.134 A 
ATOM     81  F   UNL     1      -0.247   9.966  -2.555  1.00  0.00    -0.206 F 
ATOM     82  C   UNL     1       1.617  10.527  -1.243  1.00  0.00     0.040 A 
ATOM     83  C   UNL     1       3.785   9.648  -1.796  1.00  0.00     0.040 A 
ATOM     84  F   UNL     1       4.052   8.274  -3.676  1.00  0.00    -0.206 F 
ATOM     85  C   UNL     1       2.980  10.435  -0.977  1.00  0.00     0.006 A 
ENDBRANCH  57  78
BRANCH  69  86
ATOM     86  C   UNL     1      -1.044  11.658  -8.960  1.00  0.00     0.057 A 
ATOM     87  C   UNL     1      -0.035  12.578  -9.273  1.00  0.00     0.134 A 
ATOM     88  C   UNL     1      -2.372  12.080  -9.116  1.00  0.00     0.134 A 
ATOM     89  F   UNL     1       1.257  12.243  -9.139  1.00  0.00    -0.206 F 
ATOM     90  C   UNL     1      -0.335  13.874  -9.695  1.00  0.00     0.040 A 
ATOM     91  C   UNL     1      -2.683  13.361  -9.572  1.00  0.00     0.040 A 
ATOM     92  F   UNL     1      -3.389  11.246  -8.849  1.00  0.00    -0.206 F 
ATOM     93  C   UNL     1      -1.663  14.266  -9.855  1.00  0.00     0.006 A 
ENDBRANCH  69  86
ENDBRANCH  43  44
ENDBRANCH  36  38
ENDBRANCH  35  36
ENDBRANCH  34  35
ENDBRANCH  33  34
ENDBRANCH  32  33
ENDBRANCH  31  32
ENDBRANCH   1  31
TORSDOF 20
