REMARK SMILES O=C(OCCOCCOCCOC(=O)[C@H]1CCCN(c2cc(-c3ccccn3)nc(-c3ccccc3F)n2)C1)c1ccc(-c2c3nc(c(-c4c(F)cccc4F)c4ccc([nH]4)c(-c4c(F)cccc4F)c4nc(c(-c5c(F)cccc5F)c5ccc2[nH]5)C=C4)C=C3)cc1
REMARK SMILES IDX 7 1 6 2 5 3 4 4 3 5 2 6 1 7 40 8 41 9 93 10 42 11 92 12
REMARK SMILES IDX 43 13 44 14 45 15 86 16 46 17 91 18 85 19 87 20 47 21 90 22
REMARK SMILES IDX 84 23 83 24 48 26 74 27 57 28 73 29 58 30 61 31 72 32 88 33
REMARK SMILES IDX 59 34 60 35 71 37 89 38 62 39 49 40 50 41 55 42 51 43 52 44
REMARK SMILES IDX 54 45 56 46 53 47 75 48 76 49 81 50 77 51 78 52 80 53 82 54
REMARK SMILES IDX 79 55 63 56 64 57 69 58 65 59 66 60 68 61 70 62 67 63 8 64
REMARK SMILES IDX 9 65 10 66 11 67 12 68 13 69 14 70 15 71 16 72 39 73 17 74
REMARK SMILES IDX 19 75 18 76 20 77 21 78 38 79 22 80 30 81 29 82 23 83 24 84
REMARK SMILES IDX 28 85 25 86 27 87 26 88 31 89 32 90 36 91 33 92 35 93 37 94
REMARK SMILES IDX 34 95
REMARK H PARENT 87 25 61 36
REMARK Flexibility Score: inf
ROOT
ATOM      1  C   UNL     1       0.077   2.676   7.823  1.00  0.00     0.188 C 
ENDROOT
BRANCH   1   2
ATOM      2  O   UNL     1      -0.727   3.426   6.911  1.00  0.00    -0.376 OA
BRANCH   2   3
ATOM      3  C   UNL     1      -1.971   3.865   7.472  1.00  0.00     0.202 C 
BRANCH   3   4
ATOM      4  C   UNL     1      -3.097   2.813   7.430  1.00  0.00     0.261 C 
BRANCH   4   5
ATOM      5  O   UNL     1      -2.621   1.455   7.513  1.00  0.00    -0.460 OA
BRANCH   5   6
ATOM      6  C   UNL     1      -2.287   0.606   6.504  1.00  0.00     0.338 C 
ATOM      7  O   UNL     1      -2.044  -0.568   6.781  1.00  0.00    -0.246 OA
BRANCH   6   8
ATOM      8  C   UNL     1      -2.176   1.019   5.068  1.00  0.00     0.060 A 
ATOM      9  C   UNL     1      -2.219   2.338   4.631  1.00  0.00     0.016 A 
ATOM     10  C   UNL     1      -1.993   0.024   4.091  1.00  0.00     0.016 A 
ATOM     11  C   UNL     1      -2.181   2.687   3.302  1.00  0.00     0.010 A 
ATOM     12  C   UNL     1      -1.903   0.368   2.733  1.00  0.00     0.010 A 
ATOM     13  C   UNL     1      -2.030   1.710   2.343  1.00  0.00    -0.014 A 
BRANCH  13  14
ATOM     14  C   UNL     1      -2.179   2.181   0.959  1.00  0.00     0.031 A 
ATOM     15  C   UNL     1      -3.408   1.690   0.200  1.00  0.00     0.074 A 
ATOM     16  C   UNL     1      -1.240   3.031   0.478  1.00  0.00     0.049 A 
ATOM     17  N   UNL     1      -3.732   1.806  -1.060  1.00  0.00    -0.248 NA
ATOM     18  C   UNL     1      -4.425   0.961   0.987  1.00  0.00     0.031 C 
ATOM     19  C   UNL     1      -0.032   3.542   1.113  1.00  0.00     0.029 A 
ATOM     20  N   UNL     1      -1.091   3.502  -0.791  1.00  0.00    -0.354 N 
ATOM     21  C   UNL     1      -4.900   1.083  -1.246  1.00  0.00     0.074 A 
ATOM     22  C   UNL     1      -5.307   0.612   0.060  1.00  0.00     0.031 C 
ATOM     23  C   UNL     1       0.864   3.884   0.161  1.00  0.00     0.029 A 
ATOM     24  C   UNL     1       0.281   3.588  -1.169  1.00  0.00     0.049 A 
ATOM     25  H   UNL     1      -1.841   3.753  -1.377  1.00  0.00     0.167 HD
ATOM     26  C   UNL     1      -5.566   0.804  -2.395  1.00  0.00     0.037 A 
ATOM     27  C   UNL     1       0.994   3.192  -2.391  1.00  0.00     0.037 A 
ATOM     28  C   UNL     1      -5.072   1.071  -3.730  1.00  0.00     0.049 A 
ATOM     29  C   UNL     1       0.448   2.142  -4.212  1.00  0.00     0.074 A 
ATOM     30  C   UNL     1      -5.807   1.102  -4.902  1.00  0.00     0.029 A 
ATOM     31  N   UNL     1      -3.730   1.215  -4.101  1.00  0.00    -0.354 N 
ATOM     32  N   UNL     1      -0.720   1.408  -4.538  1.00  0.00    -0.248 NA
ATOM     33  C   UNL     1       1.071   2.069  -5.769  1.00  0.00     0.031 C 
ATOM     34  C   UNL     1      -4.918   1.213  -5.975  1.00  0.00     0.029 A 
ATOM     35  C   UNL     1      -3.622   1.340  -5.488  1.00  0.00     0.049 A 
ATOM     36  H   UNL     1      -2.971   1.226  -3.474  1.00  0.00     0.167 HD
ATOM     37  C   UNL     1      -1.125   1.541  -5.840  1.00  0.00     0.074 A 
ATOM     38  C   UNL     1       0.054   1.821  -6.587  1.00  0.00     0.031 C 
ATOM     39  C   UNL     1      -2.413   1.587  -6.277  1.00  0.00     0.037 A 
BRANCH  26  40
ATOM     40  C   UNL     1      -6.957   0.228  -2.246  1.00  0.00     0.057 A 
ATOM     41  C   UNL     1      -7.306  -1.028  -2.758  1.00  0.00     0.134 A 
ATOM     42  C   UNL     1      -7.984   0.974  -1.641  1.00  0.00     0.134 A 
ATOM     43  F   UNL     1      -6.387  -1.804  -3.351  1.00  0.00    -0.206 F 
ATOM     44  C   UNL     1      -8.616  -1.515  -2.676  1.00  0.00     0.040 A 
ATOM     45  C   UNL     1      -9.289   0.488  -1.531  1.00  0.00     0.040 A 
ATOM     46  F   UNL     1      -7.729   2.186  -1.124  1.00  0.00    -0.206 F 
ATOM     47  C   UNL     1      -9.611  -0.759  -2.058  1.00  0.00     0.006 A 
ENDBRANCH  26  40
BRANCH  27  48
ATOM     48  C   UNL     1       2.497   3.960  -1.995  1.00  0.00     0.057 A 
ATOM     49  C   UNL     1       3.650   3.288  -1.522  1.00  0.00     0.134 A 
ATOM     50  C   UNL     1       2.671   5.337  -2.278  1.00  0.00     0.134 A 
ATOM     51  F   UNL     1       3.592   2.035  -1.056  1.00  0.00    -0.206 F 
ATOM     52  C   UNL     1       4.923   3.864  -1.598  1.00  0.00     0.040 A 
ATOM     53  C   UNL     1       3.943   5.920  -2.344  1.00  0.00     0.040 A 
ATOM     54  F   UNL     1       1.624   6.116  -2.584  1.00  0.00    -0.206 F 
ATOM     55  C   UNL     1       5.077   5.166  -2.059  1.00  0.00     0.006 A 
ENDBRANCH  27  48
BRANCH  39  56
ATOM     56  C   UNL     1      -2.632   2.055  -7.692  1.00  0.00     0.057 A 
ATOM     57  C   UNL     1      -3.333   3.249  -7.939  1.00  0.00     0.134 A 
ATOM     58  C   UNL     1      -2.249   1.297  -8.800  1.00  0.00     0.134 A 
ATOM     59  F   UNL     1      -3.743   4.027  -6.924  1.00  0.00    -0.206 F 
ATOM     60  C   UNL     1      -3.660   3.655  -9.233  1.00  0.00     0.040 A 
ATOM     61  C   UNL     1      -2.534   1.714 -10.102  1.00  0.00     0.040 A 
ATOM     62  F   UNL     1      -1.580   0.146  -8.639  1.00  0.00    -0.206 F 
ATOM     63  C   UNL     1      -3.254   2.888 -10.321  1.00  0.00     0.006 A 
ENDBRANCH  39  56
ENDBRANCH  13  14
ENDBRANCH   6   8
ENDBRANCH   5   6
ENDBRANCH   4   5
ENDBRANCH   3   4
ENDBRANCH   2   3
ENDBRANCH   1   2
BRANCH   1  64
ATOM     64  C   UNL     1       1.577   2.879   7.589  1.00  0.00     0.188 C 
BRANCH  64  65
ATOM     65  O   UNL     1       2.061   4.214   7.700  1.00  0.00    -0.376 OA
BRANCH  65  66
ATOM     66  C   UNL     1       1.548   5.163   6.774  1.00  0.00     0.202 C 
BRANCH  66  67
ATOM     67  C   UNL     1       1.942   5.030   5.288  1.00  0.00     0.261 C 
BRANCH  67  68
ATOM     68  O   UNL     1       1.875   3.717   4.669  1.00  0.00    -0.463 OA
BRANCH  68  69
ATOM     69  C   UNL     1       3.093   3.197   4.351  1.00  0.00     0.310 C 
ATOM     70  O   UNL     1       4.152   3.719   4.699  1.00  0.00    -0.252 OA
BRANCH  69  71
ATOM     71  C   UNL     1       3.118   1.926   3.501  1.00  0.00     0.118 C 
ATOM     72  C   UNL     1       3.996   0.898   4.240  1.00  0.00     0.019 C 
ATOM     73  C   UNL     1       1.829   1.232   3.035  1.00  0.00     0.133 C 
ATOM     74  C   UNL     1       4.290  -0.305   3.350  1.00  0.00     0.022 C 
ATOM     75  N   UNL     1       2.171   0.070   2.181  1.00  0.00    -0.356 N 
ATOM     76  C   UNL     1       3.016  -0.949   2.803  1.00  0.00     0.118 C 
BRANCH  75  77
ATOM     77  C   UNL     1       1.482  -0.262   1.008  1.00  0.00     0.133 A 
ATOM     78  C   UNL     1       0.815  -1.474   0.924  1.00  0.00     0.077 A 
ATOM     79  N   UNL     1       1.534   0.539  -0.085  1.00  0.00    -0.211 NA
ATOM     80  C   UNL     1       0.249  -1.829  -0.291  1.00  0.00     0.095 A 
ATOM     81  C   UNL     1       0.982   0.096  -1.260  1.00  0.00     0.165 A 
ATOM     82  N   UNL     1       0.325  -1.052  -1.389  1.00  0.00    -0.226 NA
BRANCH  80  83
ATOM     83  C   UNL     1      -0.492  -3.080  -0.488  1.00  0.00     0.089 A 
ATOM     84  C   UNL     1      -1.767  -3.277   0.042  1.00  0.00     0.030 A 
ATOM     85  N   UNL     1       0.100  -3.989  -1.305  1.00  0.00    -0.255 NA
ATOM     86  C   UNL     1      -2.475  -4.422  -0.318  1.00  0.00     0.004 A 
ATOM     87  C   UNL     1      -0.620  -5.073  -1.658  1.00  0.00     0.112 A 
ATOM     88  C   UNL     1      -1.899  -5.330  -1.198  1.00  0.00     0.020 A 
ENDBRANCH  80  83
BRANCH  81  89
ATOM     89  C   UNL     1       0.867   1.027  -2.411  1.00  0.00     0.055 A 
ATOM     90  C   UNL     1       2.269   1.680  -3.312  1.00  0.00     0.015 A 
ATOM     91  C   UNL     1      -0.694   1.889  -2.519  1.00  0.00     0.134 A 
ATOM     92  C   UNL     1       2.177   3.281  -4.187  1.00  0.00     0.001 A 
ATOM     93  C   UNL     1      -0.855   3.497  -3.436  1.00  0.00     0.040 A 
ATOM     94  F   UNL     1      -1.769   1.250  -2.071  1.00  0.00    -0.206 F 
ATOM     95  C   UNL     1       0.604   4.197  -4.244  1.00  0.00     0.003 A 
ENDBRANCH  81  89
ENDBRANCH  75  77
ENDBRANCH  69  71
ENDBRANCH  68  69
ENDBRANCH  67  68
ENDBRANCH  66  67
ENDBRANCH  65  66
ENDBRANCH  64  65
ENDBRANCH   1  64
TORSDOF 20
