REMARK SMILES C=CCN(CC(=O)OCCOCCOCCOC(=O)c1ccc(-c2c3nc(c(-c4c(F)cccc4F)c4ccc([nH]4)c(-c4c(F)cccc4F)c4nc(c(-c5c(F)cccc5F)c5ccc2[nH]5)C=C4)C=C3)cc1)C(=O)N1CC[C@@H]([NH+]2CCCCC2)C1
REMARK SMILES IDX 12 1 11 2 10 3 9 4 8 5 6 6 7 7 5 8 4 9 3 10 2 11 1 12 74 13
REMARK SMILES IDX 75 14 76 15 77 16 86 17 78 18 79 19 80 20 81 21 85 22 82 24
REMARK SMILES IDX 84 25 83 26 13 27 14 28 15 29 16 30 17 31 18 32 19 33 20 34
REMARK SMILES IDX 21 35 73 36 22 37 72 38 23 39 24 40 25 41 66 42 26 43 71 44
REMARK SMILES IDX 65 45 67 46 27 47 70 48 64 49 63 50 28 52 54 53 37 54 53 55
REMARK SMILES IDX 38 56 41 57 52 58 68 59 39 60 40 61 51 63 69 64 42 65 29 66
REMARK SMILES IDX 30 67 35 68 31 69 32 70 34 71 36 72 33 73 55 74 56 75 61 76
REMARK SMILES IDX 57 77 58 78 60 79 62 80 59 81 43 82 44 83 49 84 45 85 46 86
REMARK SMILES IDX 48 87 50 88 47 89
REMARK H PARENT 80 23 67 51 41 62
REMARK Flexibility Score: inf
ROOT
ATOM      1  C   UNL     1      -5.357  -3.662   1.288  1.00  0.00     0.188 C 
ENDROOT
BRANCH   1   2
ATOM      2  O   UNL     1      -6.686  -3.249   1.017  1.00  0.00    -0.376 OA
BRANCH   2   3
ATOM      3  C   UNL     1      -6.800  -1.930   0.492  1.00  0.00     0.202 C 
BRANCH   3   4
ATOM      4  C   UNL     1      -6.286  -0.829   1.434  1.00  0.00     0.261 C 
BRANCH   4   5
ATOM      5  O   UNL     1      -4.834  -0.800   1.543  1.00  0.00    -0.462 OA
BRANCH   5   6
ATOM      6  C   UNL     1      -4.344  -0.599   2.799  1.00  0.00     0.325 C 
ATOM      7  O   UNL     1      -5.050  -0.379   3.781  1.00  0.00    -0.250 OA
BRANCH   6   8
ATOM      8  C   UNL     1      -2.810  -0.606   2.927  1.00  0.00     0.244 C 
BRANCH   8   9
ATOM      9  N   UNL     1      -1.952  -1.074   1.836  1.00  0.00    -0.310 N 
BRANCH   9  10
ATOM     10  C   UNL     1      -1.411  -0.026   0.960  1.00  0.00     0.149 C 
BRANCH  10  11
ATOM     11  C   UNL     1       0.078   0.121   1.156  1.00  0.00    -0.013 C 
ATOM     12  C   UNL     1       0.954   0.217   0.143  1.00  0.00     0.006 C 
ENDBRANCH  10  11
ENDBRANCH   9  10
BRANCH   9  13
ATOM     13  C   UNL     1      -1.625  -2.373   1.511  1.00  0.00     0.321 C 
ATOM     14  O   UNL     1      -0.946  -2.595   0.500  1.00  0.00    -0.248 OA
BRANCH  13  15
ATOM     15  N   UNL     1      -2.056  -3.448   2.255  1.00  0.00    -0.318 N 
ATOM     16  C   UNL     1      -2.634  -3.585   3.570  1.00  0.00     0.128 C 
ATOM     17  C   UNL     1      -1.649  -4.759   1.792  1.00  0.00     0.186 C 
ATOM     18  C   UNL     1      -2.919  -5.068   3.788  1.00  0.00     0.088 C 
ATOM     19  C   UNL     1      -2.409  -5.847   2.560  1.00  0.00     0.205 C 
BRANCH  19  20
ATOM     20  N   UNL     1      -3.480  -6.728   2.100  1.00  0.00    -0.331 N 
ATOM     21  C   UNL     1      -3.841  -7.048   0.741  1.00  0.00     0.262 C 
ATOM     22  C   UNL     1      -3.813  -7.868   2.950  1.00  0.00     0.262 C 
ATOM     23  H   UNL     1      -4.026  -5.872   2.198  1.00  0.00     0.348 HD
ATOM     24  C   UNL     1      -5.364  -7.069   0.620  1.00  0.00     0.062 C 
ATOM     25  C   UNL     1      -5.313  -7.780   3.149  1.00  0.00     0.062 C 
ATOM     26  C   UNL     1      -6.114  -7.604   1.849  1.00  0.00     0.012 C 
ENDBRANCH  19  20
ENDBRANCH  13  15
ENDBRANCH   9  13
ENDBRANCH   8   9
ENDBRANCH   6   8
ENDBRANCH   5   6
ENDBRANCH   4   5
ENDBRANCH   3   4
ENDBRANCH   2   3
ENDBRANCH   1   2
BRANCH   1  27
ATOM     27  C   UNL     1      -4.360  -3.582   0.121  1.00  0.00     0.188 C 
BRANCH  27  28
ATOM     28  O   UNL     1      -4.810  -4.037  -1.153  1.00  0.00    -0.376 OA
BRANCH  28  29
ATOM     29  C   UNL     1      -3.768  -3.904  -2.148  1.00  0.00     0.202 C 
BRANCH  29  30
ATOM     30  C   UNL     1      -2.981  -5.208  -2.408  1.00  0.00     0.261 C 
BRANCH  30  31
ATOM     31  O   UNL     1      -1.969  -5.474  -1.401  1.00  0.00    -0.460 OA
BRANCH  31  32
ATOM     32  C   UNL     1      -0.947  -6.322  -1.726  1.00  0.00     0.338 C 
ATOM     33  O   UNL     1      -0.620  -6.662  -2.838  1.00  0.00    -0.246 OA
BRANCH  32  34
ATOM     34  C   UNL     1      -0.419  -6.969  -0.476  1.00  0.00     0.060 A 
ATOM     35  C   UNL     1       0.577  -6.399   0.321  1.00  0.00     0.016 A 
ATOM     36  C   UNL     1      -0.974  -8.186  -0.068  1.00  0.00     0.016 A 
ATOM     37  C   UNL     1       0.932  -6.993   1.560  1.00  0.00     0.010 A 
ATOM     38  C   UNL     1      -0.655  -8.754   1.186  1.00  0.00     0.010 A 
ATOM     39  C   UNL     1       0.296  -8.158   2.035  1.00  0.00    -0.014 A 
BRANCH  39  40
ATOM     40  C   UNL     1       0.840  -8.883   3.243  1.00  0.00     0.031 A 
ATOM     41  C   UNL     1       1.912  -9.898   2.949  1.00  0.00     0.074 A 
ATOM     42  C   UNL     1       0.509  -8.670   4.542  1.00  0.00     0.049 A 
ATOM     43  N   UNL     1       2.712 -10.525   3.771  1.00  0.00    -0.248 NA
ATOM     44  C   UNL     1       2.116 -10.232   1.529  1.00  0.00     0.031 C 
ATOM     45  C   UNL     1      -0.520  -7.771   5.032  1.00  0.00     0.029 A 
ATOM     46  N   UNL     1       1.021  -9.194   5.718  1.00  0.00    -0.354 N 
ATOM     47  C   UNL     1       3.560 -11.263   2.960  1.00  0.00     0.074 A 
ATOM     48  C   UNL     1       3.121 -11.085   1.595  1.00  0.00     0.031 C 
ATOM     49  C   UNL     1      -0.559  -7.765   6.373  1.00  0.00     0.029 A 
ATOM     50  C   UNL     1       0.453  -8.678   6.872  1.00  0.00     0.049 A 
ATOM     51  H   UNL     1       1.729  -9.877   5.733  1.00  0.00     0.167 HD
ATOM     52  C   UNL     1       4.641 -11.996   3.306  1.00  0.00     0.037 A 
ATOM     53  C   UNL     1       0.714  -8.892   8.180  1.00  0.00     0.037 A 
ATOM     54  C   UNL     1       5.034 -12.269   4.655  1.00  0.00     0.049 A 
ATOM     55  C   UNL     1       1.836  -9.831   8.542  1.00  0.00     0.074 A 
ATOM     56  C   UNL     1       6.061 -13.077   5.106  1.00  0.00     0.029 A 
ATOM     57  N   UNL     1       4.392 -11.765   5.776  1.00  0.00    -0.354 N 
ATOM     58  N   UNL     1       2.681 -10.447   7.753  1.00  0.00    -0.248 NA
ATOM     59  C   UNL     1       2.051 -10.094   9.973  1.00  0.00     0.031 C 
ATOM     60  C   UNL     1       6.008 -13.104   6.503  1.00  0.00     0.029 A 
ATOM     61  C   UNL     1       4.988 -12.264   6.920  1.00  0.00     0.049 A 
ATOM     62  H   UNL     1       3.628 -11.145   5.760  1.00  0.00     0.167 HD
ATOM     63  C   UNL     1       3.550 -11.134   8.591  1.00  0.00     0.074 A 
ATOM     64  C   UNL     1       3.146 -10.839   9.949  1.00  0.00     0.031 C 
ATOM     65  C   UNL     1       4.587 -11.942   8.265  1.00  0.00     0.037 A 
BRANCH  52  66
ATOM     66  C   UNL     1       5.431 -12.562   2.168  1.00  0.00     0.057 A 
ATOM     67  C   UNL     1       6.201 -11.732   1.339  1.00  0.00     0.134 A 
ATOM     68  C   UNL     1       5.348 -13.918   1.840  1.00  0.00     0.134 A 
ATOM     69  F   UNL     1       6.284 -10.415   1.583  1.00  0.00    -0.206 F 
ATOM     70  C   UNL     1       6.832 -12.228   0.199  1.00  0.00     0.040 A 
ATOM     71  C   UNL     1       5.996 -14.430   0.716  1.00  0.00     0.040 A 
ATOM     72  F   UNL     1       4.612 -14.756   2.584  1.00  0.00    -0.206 F 
ATOM     73  C   UNL     1       6.730 -13.582  -0.114  1.00  0.00     0.006 A 
ENDBRANCH  52  66
BRANCH  53  74
ATOM     74  C   UNL     1      -0.061  -8.222   9.277  1.00  0.00     0.057 A 
ATOM     75  C   UNL     1       0.564  -7.361  10.193  1.00  0.00     0.134 A 
ATOM     76  C   UNL     1      -1.407  -8.526   9.520  1.00  0.00     0.134 A 
ATOM     77  F   UNL     1       1.858  -7.041  10.044  1.00  0.00    -0.206 F 
ATOM     78  C   UNL     1      -0.097  -6.878  11.329  1.00  0.00     0.040 A 
ATOM     79  C   UNL     1      -2.090  -8.024  10.634  1.00  0.00     0.040 A 
ATOM     80  F   UNL     1      -2.077  -9.339   8.691  1.00  0.00    -0.206 F 
ATOM     81  C   UNL     1      -1.429  -7.213  11.554  1.00  0.00     0.006 A 
ENDBRANCH  53  74
BRANCH  65  82
ATOM     82  C   UNL     1       5.387 -12.527   9.391  1.00  0.00     0.057 A 
ATOM     83  C   UNL     1       4.869 -13.513  10.239  1.00  0.00     0.134 A 
ATOM     84  C   UNL     1       6.715 -12.129   9.593  1.00  0.00     0.134 A 
ATOM     85  F   UNL     1       3.600 -13.928  10.106  1.00  0.00    -0.206 F 
ATOM     86  C   UNL     1       5.636 -14.066  11.265  1.00  0.00     0.040 A 
ATOM     87  C   UNL     1       7.502 -12.699  10.593  1.00  0.00     0.040 A 
ATOM     88  F   UNL     1       7.274 -11.195   8.810  1.00  0.00    -0.206 F 
ATOM     89  C   UNL     1       6.960 -13.666  11.437  1.00  0.00     0.006 A 
ENDBRANCH  65  82
ENDBRANCH  39  40
ENDBRANCH  32  34
ENDBRANCH  31  32
ENDBRANCH  30  31
ENDBRANCH  29  30
ENDBRANCH  28  29
ENDBRANCH  27  28
ENDBRANCH   1  27
TORSDOF 23
