REMARK SMILES Cc1c(CC(=O)OCCOCCOCCOC(=O)c2ccc(-c3c4nc(c(-c5c(F)cccc5F)c5ccc([nH]5)c(-c5c(F)cccc5F)c5nc(c(-c6c(F)cccc6F)c6ccc3[nH]6)C=C5)C=C4)cc2)c2cc(O)ccc2n1C(=O)c1ccc(Cl)cc1
REMARK SMILES IDX 11 1 10 2 9 3 8 4 7 5 5 6 6 7 4 8 3 9 1 10 2 11 80 12 73 13
REMARK SMILES IDX 79 14 74 15 78 16 75 17 77 18 81 19 82 20 83 21 84 22 89 23
REMARK SMILES IDX 85 24 88 25 86 26 87 27 76 28 12 30 13 31 14 32 15 33 16 34
REMARK SMILES IDX 17 35 18 36 19 37 20 38 72 39 21 40 71 41 22 42 23 43 24 44
REMARK SMILES IDX 65 45 25 46 70 47 64 48 66 49 26 50 69 51 63 52 62 53 27 55
REMARK SMILES IDX 53 56 36 57 52 58 37 59 40 60 51 61 67 62 38 63 39 64 50 66
REMARK SMILES IDX 68 67 41 68 28 69 29 70 34 71 30 72 31 73 33 74 35 75 32 76
REMARK SMILES IDX 54 77 55 78 60 79 56 80 57 81 59 82 61 83 58 84 42 85 43 86
REMARK SMILES IDX 48 87 44 88 45 89 47 90 49 91 46 92
REMARK H PARENT 76 29 66 54 40 65
REMARK Flexibility Score: inf
ROOT
ATOM      1  C   UNL     1       4.314  -5.010   1.094  1.00  0.00     0.188 C 
ENDROOT
BRANCH   1   2
ATOM      2  O   UNL     1       5.590  -4.671   1.581  1.00  0.00    -0.376 OA
BRANCH   2   3
ATOM      3  C   UNL     1       5.713  -3.545   2.425  1.00  0.00     0.202 C 
BRANCH   3   4
ATOM      4  C   UNL     1       5.299  -2.191   1.839  1.00  0.00     0.261 C 
BRANCH   4   5
ATOM      5  O   UNL     1       3.860  -2.025   1.681  1.00  0.00    -0.463 OA
BRANCH   5   6
ATOM      6  C   UNL     1       3.448  -2.020   0.394  1.00  0.00     0.310 C 
ATOM      7  O   UNL     1       4.271  -2.035  -0.523  1.00  0.00    -0.252 OA
BRANCH   6   8
ATOM      8  C   UNL     1       1.959  -2.178   0.075  1.00  0.00     0.160 C 
BRANCH   8   9
ATOM      9  C   UNL     1       0.759  -1.996   0.973  1.00  0.00    -0.008 A 
ATOM     10  C   UNL     1       0.697   0.580   0.734  1.00  0.00     0.065 C 
ATOM     11  C   UNL     1       0.172  -0.749   1.176  1.00  0.00     0.028 A 
ATOM     12  N   UNL     1      -1.056  -0.933   1.806  1.00  0.00    -0.280 N 
ATOM     13  C   UNL     1      -0.234  -2.977   1.378  1.00  0.00     0.008 A 
ATOM     14  C   UNL     1      -1.399  -2.284   1.694  1.00  0.00     0.057 A 
ATOM     15  C   UNL     1      -0.341  -4.390   1.414  1.00  0.00     0.056 A 
ATOM     16  C   UNL     1      -2.634  -2.971   1.863  1.00  0.00     0.031 A 
ATOM     17  C   UNL     1      -1.553  -5.068   1.575  1.00  0.00     0.116 A 
ATOM     18  C   UNL     1      -2.703  -4.359   1.787  1.00  0.00     0.048 A 
BRANCH  12  19
ATOM     19  C   UNL     1      -1.846   0.060   2.451  1.00  0.00     0.262 C 
ATOM     20  O   UNL     1      -1.658   1.228   2.236  1.00  0.00    -0.268 OA
BRANCH  19  21
ATOM     21  C   UNL     1      -2.900  -0.343   3.414  1.00  0.00     0.040 A 
ATOM     22  C   UNL     1      -2.535  -1.091   4.542  1.00  0.00     0.015 A 
ATOM     23  C   UNL     1      -4.234  -0.210   3.025  1.00  0.00     0.015 A 
ATOM     24  C   UNL     1      -3.520  -1.781   5.247  1.00  0.00     0.021 A 
ATOM     25  C   UNL     1      -5.211  -0.917   3.727  1.00  0.00     0.021 A 
ATOM     26  C   UNL     1      -4.848  -1.712   4.821  1.00  0.00     0.041 A 
ATOM     27  Cl  UNL     1      -6.039  -2.675   5.602  1.00  0.00    -0.084 Cl
ENDBRANCH  19  21
ENDBRANCH  12  19
BRANCH  17  28
ATOM     28  O   UNL     1      -1.667  -6.425   1.494  1.00  0.00    -0.508 OA
ATOM     29  H   UNL     1      -0.905  -6.952   1.350  1.00  0.00     0.293 HD
ENDBRANCH  17  28
ENDBRANCH   8   9
ENDBRANCH   6   8
ENDBRANCH   5   6
ENDBRANCH   4   5
ENDBRANCH   3   4
ENDBRANCH   2   3
ENDBRANCH   1   2
BRANCH   1  30
ATOM     30  C   UNL     1       3.060  -4.767   1.939  1.00  0.00     0.188 C 
BRANCH  30  31
ATOM     31  O   UNL     1       3.083  -4.885   3.336  1.00  0.00    -0.376 OA
BRANCH  31  32
ATOM     32  C   UNL     1       3.309  -6.187   3.843  1.00  0.00     0.202 C 
BRANCH  32  33
ATOM     33  C   UNL     1       2.567  -7.365   3.157  1.00  0.00     0.261 C 
BRANCH  33  34
ATOM     34  O   UNL     1       2.918  -7.559   1.747  1.00  0.00    -0.460 OA
BRANCH  34  35
ATOM     35  C   UNL     1       1.875  -7.699   0.869  1.00  0.00     0.338 C 
ATOM     36  O   UNL     1       0.725  -7.965   1.202  1.00  0.00    -0.246 OA
BRANCH  35  37
ATOM     37  C   UNL     1       2.142  -7.032  -0.461  1.00  0.00     0.060 A 
ATOM     38  C   UNL     1       3.303  -7.071  -1.230  1.00  0.00     0.016 A 
ATOM     39  C   UNL     1       1.133  -6.151  -0.874  1.00  0.00     0.016 A 
ATOM     40  C   UNL     1       3.477  -6.117  -2.273  1.00  0.00     0.010 A 
ATOM     41  C   UNL     1       1.294  -5.219  -1.893  1.00  0.00     0.010 A 
ATOM     42  C   UNL     1       2.502  -5.125  -2.558  1.00  0.00    -0.014 A 
BRANCH  42  43
ATOM     43  C   UNL     1       2.527  -4.277  -3.774  1.00  0.00     0.031 A 
ATOM     44  C   UNL     1       2.232  -5.110  -4.937  1.00  0.00     0.074 A 
ATOM     45  C   UNL     1       2.591  -2.945  -4.021  1.00  0.00     0.049 A 
ATOM     46  N   UNL     1       3.131  -5.777  -5.568  1.00  0.00    -0.248 NA
ATOM     47  C   UNL     1       0.848  -5.443  -5.284  1.00  0.00     0.031 C 
ATOM     48  C   UNL     1       2.643  -1.865  -3.076  1.00  0.00     0.029 A 
ATOM     49  N   UNL     1       2.643  -2.250  -5.208  1.00  0.00    -0.354 N 
ATOM     50  C   UNL     1       2.454  -6.377  -6.599  1.00  0.00     0.074 A 
ATOM     51  C   UNL     1       1.066  -6.385  -6.208  1.00  0.00     0.031 C 
ATOM     52  C   UNL     1       2.527  -0.650  -3.646  1.00  0.00     0.029 A 
ATOM     53  C   UNL     1       2.600  -0.855  -5.074  1.00  0.00     0.049 A 
ATOM     54  H   UNL     1       2.706  -2.698  -6.082  1.00  0.00     0.167 HD
ATOM     55  C   UNL     1       3.066  -6.473  -7.807  1.00  0.00     0.037 A 
ATOM     56  C   UNL     1       2.817   0.123  -5.991  1.00  0.00     0.037 A 
ATOM     57  C   UNL     1       4.487  -6.171  -7.698  1.00  0.00     0.049 A 
ATOM     58  C   UNL     1       3.662  -0.473  -7.044  1.00  0.00     0.074 A 
ATOM     59  C   UNL     1       5.532  -6.641  -6.920  1.00  0.00     0.029 A 
ATOM     60  N   UNL     1       4.915  -4.956  -8.179  1.00  0.00    -0.354 N 
ATOM     61  N   UNL     1       4.911  -0.802  -6.872  1.00  0.00    -0.248 NA
ATOM     62  C   UNL     1       2.980  -1.138  -8.138  1.00  0.00     0.031 C 
ATOM     63  C   UNL     1       6.331  -5.496  -6.615  1.00  0.00     0.029 A 
ATOM     64  C   UNL     1       5.780  -4.396  -7.271  1.00  0.00     0.049 A 
ATOM     65  H   UNL     1       4.646  -4.553  -9.036  1.00  0.00     0.167 HD
ATOM     66  C   UNL     1       5.029  -2.034  -7.499  1.00  0.00     0.074 A 
ATOM     67  C   UNL     1       3.841  -2.137  -8.345  1.00  0.00     0.031 C 
ATOM     68  C   UNL     1       5.925  -2.968  -7.062  1.00  0.00     0.037 A 
BRANCH  55  69
ATOM     69  C   UNL     1       2.320  -6.404  -9.108  1.00  0.00     0.057 A 
ATOM     70  C   UNL     1       1.045  -5.824  -9.292  1.00  0.00     0.134 A 
ATOM     71  C   UNL     1       3.022  -6.695 -10.286  1.00  0.00     0.134 A 
ATOM     72  F   UNL     1       0.279  -5.403  -8.280  1.00  0.00    -0.206 F 
ATOM     73  C   UNL     1       0.518  -5.543 -10.552  1.00  0.00     0.040 A 
ATOM     74  C   UNL     1       2.529  -6.362 -11.549  1.00  0.00     0.040 A 
ATOM     75  F   UNL     1       4.249  -7.236 -10.237  1.00  0.00    -0.206 F 
ATOM     76  C   UNL     1       1.275  -5.779 -11.685  1.00  0.00     0.006 A 
ENDBRANCH  55  69
BRANCH  56  77
ATOM     77  C   UNL     1       2.265   1.499  -6.072  1.00  0.00     0.057 A 
ATOM     78  C   UNL     1       1.019   1.813  -5.503  1.00  0.00     0.134 A 
ATOM     79  C   UNL     1       2.797   2.463  -6.944  1.00  0.00     0.134 A 
ATOM     80  F   UNL     1       0.396   0.949  -4.689  1.00  0.00    -0.206 F 
ATOM     81  C   UNL     1       0.323   2.988  -5.814  1.00  0.00     0.040 A 
ATOM     82  C   UNL     1       2.109   3.643  -7.267  1.00  0.00     0.040 A 
ATOM     83  F   UNL     1       3.970   2.256  -7.559  1.00  0.00    -0.206 F 
ATOM     84  C   UNL     1       0.858   3.900  -6.716  1.00  0.00     0.006 A 
ENDBRANCH  56  77
BRANCH  68  85
ATOM     85  C   UNL     1       7.029  -2.511  -6.138  1.00  0.00     0.057 A 
ATOM     86  C   UNL     1       8.356  -2.722  -6.536  1.00  0.00     0.134 A 
ATOM     87  C   UNL     1       6.837  -1.984  -4.851  1.00  0.00     0.134 A 
ATOM     88  F   UNL     1       8.622  -3.259  -7.738  1.00  0.00    -0.206 F 
ATOM     89  C   UNL     1       9.440  -2.425  -5.706  1.00  0.00     0.040 A 
ATOM     90  C   UNL     1       7.917  -1.655  -4.019  1.00  0.00     0.040 A 
ATOM     91  F   UNL     1       5.609  -1.813  -4.346  1.00  0.00    -0.206 F 
ATOM     92  C   UNL     1       9.223  -1.881  -4.444  1.00  0.00     0.006 A 
ENDBRANCH  68  85
ENDBRANCH  42  43
ENDBRANCH  35  37
ENDBRANCH  34  35
ENDBRANCH  33  34
ENDBRANCH  32  33
ENDBRANCH  31  32
ENDBRANCH  30  31
ENDBRANCH   1  30
TORSDOF 21
