REMARK SMILES COc1ccc(-c2nn(-c3ccccc3)cc2/C=C2\SC(=S)N(CCC(=O)OCCOCCOCCOC(=O)c3ccc(-c4c5nc(c(-c6c(F)cccc6F)c6ccc([nH]6)c(-c6c(F)cccc6F)c6nc(c(-c7c(F)cccc7F)c7ccc4[nH]7)C=C6)C=C5)cc3)C2=O)c(C)c1
REMARK SMILES IDX 31 1 30 2 29 3 28 4 26 5 27 6 25 7 24 8 23 9 18 10 19 11
REMARK SMILES IDX 20 12 94 13 21 14 95 15 22 16 17 17 7 18 8 19 9 20 16 21
REMARK SMILES IDX 6 22 3 23 4 24 98 25 5 26 96 27 97 28 2 29 1 30 10 31 11 32
REMARK SMILES IDX 15 33 12 34 14 35 13 36 32 37 33 38 34 39 35 40 36 41 37 42
REMARK SMILES IDX 38 43 39 44 40 45 41 46 93 47 42 48 92 49 43 50 44 51 45 52
REMARK SMILES IDX 86 53 46 54 91 55 85 56 87 57 47 58 90 59 84 60 83 61 48 63
REMARK SMILES IDX 74 64 57 65 73 66 58 67 61 68 72 69 88 70 59 71 60 72 71 74
REMARK SMILES IDX 89 75 62 76 49 77 50 78 55 79 51 80 52 81 54 82 56 83 53 84
REMARK SMILES IDX 75 85 76 86 81 87 77 88 78 89 80 90 82 91 79 92 63 93 64 94
REMARK SMILES IDX 69 95 65 96 66 97 68 98 70 99 67 100
REMARK H PARENT 87 62 61 73
REMARK Flexibility Score: inf
ROOT
ATOM      1  O   UNL     1       3.294  -7.869  -1.953  1.00  0.00    -0.376 OA
ENDROOT
BRANCH   1   2
ATOM      2  C   UNL     1       3.046  -7.123  -3.167  1.00  0.00     0.202 C 
BRANCH   2   3
ATOM      3  C   UNL     1       3.920  -5.810  -3.363  1.00  0.00     0.261 C 
BRANCH   3   4
ATOM      4  O   UNL     1       5.320  -5.572  -4.307  1.00  0.00    -0.463 OA
BRANCH   4   5
ATOM      5  C   UNL     1       6.713  -5.378  -4.085  1.00  0.00     0.307 C 
ATOM      6  O   UNL     1       7.336  -5.436  -3.027  1.00  0.00    -0.252 OA
BRANCH   5   7
ATOM      7  C   UNL     1       7.661  -4.882  -5.123  1.00  0.00     0.144 C 
BRANCH   7   8
ATOM      8  C   UNL     1       7.651  -5.568  -6.454  1.00  0.00     0.139 C 
BRANCH   8   9
ATOM      9  N   UNL     1       6.589  -4.925  -7.181  1.00  0.00    -0.292 N 
ATOM     10  C   UNL     1       3.153  -4.484  -6.393  1.00  0.00     0.033 C 
ATOM     11  C   UNL     1       4.375  -4.332  -6.926  1.00  0.00     0.081 C 
ATOM     12  S   UNL     1       5.061  -2.937  -7.674  1.00  0.00    -0.054 SA
ATOM     13  C   UNL     1       5.332  -5.444  -6.958  1.00  0.00     0.266 C 
ATOM     14  C   UNL     1       6.675  -3.624  -7.646  1.00  0.00     0.148 C 
ATOM     15  O   UNL     1       5.047  -6.612  -6.735  1.00  0.00    -0.268 OA
ATOM     16  S   UNL     1       8.046  -2.745  -8.007  1.00  0.00    -0.052 S 
BRANCH  10  17
ATOM     17  C   UNL     1       2.108  -3.621  -6.764  1.00  0.00     0.022 A 
ATOM     18  C   UNL     1       1.288  -2.631  -6.181  1.00  0.00     0.100 A 
ATOM     19  N   UNL     1       0.676  -1.932  -7.168  1.00  0.00    -0.167 NA
ATOM     20  N   UNL     1       0.913  -2.648  -8.294  1.00  0.00    -0.240 N 
ATOM     21  C   UNL     1       1.702  -3.724  -8.062  1.00  0.00     0.123 A 
BRANCH  18  22
ATOM     22  C   UNL     1       1.015  -2.359  -4.763  1.00  0.00     0.006 A 
ATOM     23  C   UNL     1       0.464  -1.835  -2.037  1.00  0.00     0.119 A 
ATOM     24  C   UNL     1       1.752  -1.660  -2.537  1.00  0.00     0.047 A 
ATOM     25  C   UNL     1      -0.534  -2.313  -2.878  1.00  0.00     0.050 A 
ATOM     26  C   UNL     1       2.026  -1.911  -3.896  1.00  0.00     0.014 A 
ATOM     27  C   UNL     1      -0.277  -2.589  -4.234  1.00  0.00    -0.038 A 
ATOM     28  C   UNL     1      -1.433  -3.089  -5.058  1.00  0.00     0.045 C 
BRANCH  23  29
ATOM     29  O   UNL     1       0.093  -1.640  -0.736  1.00  0.00    -0.497 OA
ATOM     30  C   UNL     1       0.585  -0.438  -0.153  1.00  0.00     0.278 C 
ENDBRANCH  23  29
ENDBRANCH  18  22
BRANCH  20  31
ATOM     31  C   UNL     1       0.568  -2.283  -9.607  1.00  0.00     0.065 A 
ATOM     32  C   UNL     1       0.753  -0.972 -10.034  1.00  0.00     0.028 A 
ATOM     33  C   UNL     1       0.274  -3.312 -10.521  1.00  0.00     0.028 A 
ATOM     34  C   UNL     1       0.690  -0.708 -11.404  1.00  0.00     0.002 A 
ATOM     35  C   UNL     1       0.178  -3.031 -11.876  1.00  0.00     0.002 A 
ATOM     36  C   UNL     1       0.402  -1.731 -12.318  1.00  0.00     0.000 A 
ENDBRANCH  20  31
ENDBRANCH  10  17
ENDBRANCH   8   9
ENDBRANCH   7   8
ENDBRANCH   5   7
ENDBRANCH   4   5
ENDBRANCH   3   4
ENDBRANCH   2   3
ENDBRANCH   1   2
BRANCH   1  37
ATOM     37  C   UNL     1       3.599  -9.274  -1.925  1.00  0.00     0.188 C 
BRANCH  37  38
ATOM     38  C   UNL     1       3.210 -10.167  -3.097  1.00  0.00     0.188 C 
BRANCH  38  39
ATOM     39  O   UNL     1       3.788  -9.610  -4.260  1.00  0.00    -0.376 OA
BRANCH  39  40
ATOM     40  C   UNL     1       3.601 -10.309  -5.472  1.00  0.00     0.202 C 
BRANCH  40  41
ATOM     41  C   UNL     1       4.676 -11.394  -5.650  1.00  0.00     0.261 C 
BRANCH  41  42
ATOM     42  O   UNL     1       6.006 -10.825  -5.486  1.00  0.00    -0.460 OA
BRANCH  42  43
ATOM     43  C   UNL     1       6.696 -11.092  -4.328  1.00  0.00     0.338 C 
ATOM     44  O   UNL     1       6.784 -12.198  -3.809  1.00  0.00    -0.246 OA
BRANCH  43  45
ATOM     45  C   UNL     1       7.113  -9.810  -3.646  1.00  0.00     0.060 A 
ATOM     46  C   UNL     1       7.717  -9.664  -2.381  1.00  0.00     0.016 A 
ATOM     47  C   UNL     1       6.498  -8.702  -4.116  1.00  0.00     0.016 A 
ATOM     48  C   UNL     1       7.538  -8.455  -1.565  1.00  0.00     0.010 A 
ATOM     49  C   UNL     1       6.109  -7.780  -3.153  1.00  0.00     0.010 A 
ATOM     50  C   UNL     1       6.620  -7.460  -1.896  1.00  0.00    -0.014 A 
BRANCH  50  51
ATOM     51  C   UNL     1       6.019  -6.232  -1.022  1.00  0.00     0.031 A 
ATOM     52  C   UNL     1       6.058  -4.557  -1.221  1.00  0.00     0.074 A 
ATOM     53  C   UNL     1       5.291  -6.628   0.036  1.00  0.00     0.049 A 
ATOM     54  N   UNL     1       6.629  -3.653  -0.442  1.00  0.00    -0.248 NA
ATOM     55  C   UNL     1       5.463  -3.771  -2.350  1.00  0.00     0.031 C 
ATOM     56  C   UNL     1       4.413  -5.824   0.869  1.00  0.00     0.029 A 
ATOM     57  N   UNL     1       5.332  -7.876   0.666  1.00  0.00    -0.354 N 
ATOM     58  C   UNL     1       6.345  -2.369  -1.008  1.00  0.00     0.074 A 
ATOM     59  C   UNL     1       6.049  -2.588  -2.368  1.00  0.00     0.031 C 
ATOM     60  C   UNL     1       4.256  -6.465   2.041  1.00  0.00     0.029 A 
ATOM     61  C   UNL     1       5.166  -7.601   2.032  1.00  0.00     0.049 A 
ATOM     62  H   UNL     1       5.451  -8.757   0.243  1.00  0.00     0.167 HD
ATOM     63  C   UNL     1       5.732  -1.313  -0.368  1.00  0.00     0.037 A 
ATOM     64  C   UNL     1       6.199  -7.812   2.900  1.00  0.00     0.037 A 
ATOM     65  C   UNL     1       5.321  -1.762   0.930  1.00  0.00     0.049 A 
ATOM     66  C   UNL     1       6.614  -6.564   3.648  1.00  0.00     0.074 A 
ATOM     67  C   UNL     1       4.113  -2.185   1.456  1.00  0.00     0.029 A 
ATOM     68  N   UNL     1       6.304  -2.146   1.798  1.00  0.00    -0.354 N 
ATOM     69  N   UNL     1       6.264  -5.357   3.302  1.00  0.00    -0.248 NA
ATOM     70  C   UNL     1       7.451  -6.565   4.843  1.00  0.00     0.031 C 
ATOM     71  C   UNL     1       4.390  -2.812   2.697  1.00  0.00     0.029 A 
ATOM     72  C   UNL     1       5.756  -2.753   2.895  1.00  0.00     0.049 A 
ATOM     73  H   UNL     1       7.268  -2.005   1.655  1.00  0.00     0.167 HD
ATOM     74  C   UNL     1       6.821  -4.441   4.158  1.00  0.00     0.074 A 
ATOM     75  C   UNL     1       7.525  -5.251   5.126  1.00  0.00     0.031 C 
ATOM     76  C   UNL     1       6.674  -3.100   3.953  1.00  0.00     0.037 A 
BRANCH  63  77
ATOM     77  C   UNL     1       5.109  -0.059  -1.034  1.00  0.00     0.057 A 
ATOM     78  C   UNL     1       4.148   0.718  -0.353  1.00  0.00     0.134 A 
ATOM     79  C   UNL     1       5.378   0.421  -2.335  1.00  0.00     0.134 A 
ATOM     80  F   UNL     1       3.887   0.526   0.946  1.00  0.00    -0.206 F 
ATOM     81  C   UNL     1       3.394   1.736  -0.966  1.00  0.00     0.040 A 
ATOM     82  C   UNL     1       4.588   1.391  -2.985  1.00  0.00     0.040 A 
ATOM     83  F   UNL     1       6.441  -0.003  -3.035  1.00  0.00    -0.206 F 
ATOM     84  C   UNL     1       3.569   2.036  -2.305  1.00  0.00     0.006 A 
ENDBRANCH  63  77
BRANCH  64  85
ATOM     85  C   UNL     1       7.081  -8.957   2.510  1.00  0.00     0.057 A 
ATOM     86  C   UNL     1       6.491 -10.225   2.319  1.00  0.00     0.134 A 
ATOM     87  C   UNL     1       8.373  -8.793   2.002  1.00  0.00     0.134 A 
ATOM     88  F   UNL     1       5.253 -10.467   2.780  1.00  0.00    -0.206 F 
ATOM     89  C   UNL     1       7.099 -11.232   1.561  1.00  0.00     0.040 A 
ATOM     90  C   UNL     1       9.009  -9.811   1.267  1.00  0.00     0.040 A 
ATOM     91  F   UNL     1       8.998  -7.611   2.092  1.00  0.00    -0.206 F 
ATOM     92  C   UNL     1       8.355 -11.017   1.010  1.00  0.00     0.006 A 
ENDBRANCH  64  85
BRANCH  76  93
ATOM     93  C   UNL     1       7.414  -1.932   4.582  1.00  0.00     0.057 A 
ATOM     94  C   UNL     1       8.671  -2.023   5.182  1.00  0.00     0.134 A 
ATOM     95  C   UNL     1       6.956  -0.601   4.361  1.00  0.00     0.134 A 
ATOM     96  F   UNL     1       9.266  -3.201   5.396  1.00  0.00    -0.206 F 
ATOM     97  C   UNL     1       9.416  -0.887   5.532  1.00  0.00     0.040 A 
ATOM     98  C   UNL     1       7.726   0.533   4.628  1.00  0.00     0.040 A 
ATOM     99  F   UNL     1       5.753  -0.341   3.825  1.00  0.00    -0.206 F 
ATOM    100  C   UNL     1       8.963   0.392   5.227  1.00  0.00     0.006 A 
ENDBRANCH  76  93
ENDBRANCH  50  51
ENDBRANCH  43  45
ENDBRANCH  42  43
ENDBRANCH  41  42
ENDBRANCH  40  41
ENDBRANCH  39  40
ENDBRANCH  38  39
ENDBRANCH  37  38
ENDBRANCH   1  37
TORSDOF 23
