REMARK SMILES CCOC(=O)c1cccc(Nc2c(-c3ccc(C(=O)OCCOCCOCCOC(=O)c4ccc(-c5c6nc(c(-c7c(F)cccc7F)c7ccc([nH]7)c(-c7c(F)cccc7F)c7nc(c(-c8c(F)cccc8F)c8ccc5[nH]8)C=C7)C=C6)cc4)cc3)nc3cnccn23)c1
REMARK SMILES IDX 22 1 21 2 20 3 18 4 19 5 17 6 14 7 15 8 87 9 16 10 86 11
REMARK SMILES IDX 13 12 12 13 94 14 88 15 89 16 93 17 90 18 92 19 91 20 11 21
REMARK SMILES IDX 10 23 6 24 7 25 95 26 8 27 9 28 4 29 5 30 3 31 2 32 1 33
REMARK SMILES IDX 23 34 24 35 25 36 26 37 27 38 28 39 29 40 30 41 31 42 32 43
REMARK SMILES IDX 33 44 85 45 34 46 84 47 35 48 36 49 37 50 78 51 38 52 83 53
REMARK SMILES IDX 77 54 79 55 39 56 82 57 76 58 75 59 40 61 66 62 49 63 65 64
REMARK SMILES IDX 50 65 53 66 64 67 80 68 51 69 52 70 63 72 81 73 54 74 41 75
REMARK SMILES IDX 42 76 47 77 43 78 44 79 46 80 48 81 45 82 67 83 68 84 73 85
REMARK SMILES IDX 69 86 70 87 72 88 74 89 71 90 55 91 56 92 61 93 57 94 58 95
REMARK SMILES IDX 60 96 62 97 59 98
REMARK H PARENT 11 22 79 60 53 71
REMARK Flexibility Score: inf
ROOT
ATOM      1  C   UNL     1       4.337   2.700 -13.948  1.00  0.00     0.202 C 
ENDROOT
BRANCH   1   2
ATOM      2  C   UNL     1       4.721   1.273 -14.368  1.00  0.00     0.261 C 
BRANCH   2   3
ATOM      3  O   UNL     1       4.232   0.226 -13.521  1.00  0.00    -0.460 OA
BRANCH   3   4
ATOM      4  C   UNL     1       5.186  -0.450 -12.832  1.00  0.00     0.338 C 
ATOM      5  O   UNL     1       6.391  -0.270 -12.885  1.00  0.00    -0.246 OA
BRANCH   4   6
ATOM      6  C   UNL     1       4.558  -1.346 -11.835  1.00  0.00     0.060 A 
ATOM      7  C   UNL     1       3.572  -3.146  -9.930  1.00  0.00     0.004 A 
ATOM      8  C   UNL     1       4.627  -2.291  -9.598  1.00  0.00     0.011 A 
ATOM      9  C   UNL     1       2.971  -3.047 -11.196  1.00  0.00     0.011 A 
ATOM     10  C   UNL     1       5.127  -1.402 -10.554  1.00  0.00     0.016 A 
ATOM     11  C   UNL     1       3.451  -2.139 -12.146  1.00  0.00     0.016 A 
BRANCH   7  12
ATOM     12  C   UNL     1       3.251  -4.279  -9.085  1.00  0.00     0.114 A 
ATOM     13  C   UNL     1       2.854  -4.284  -7.749  1.00  0.00     0.143 A 
ATOM     14  N   UNL     1       2.742  -5.636  -7.447  1.00  0.00    -0.283 N 
ATOM     15  N   UNL     1       3.457  -5.554  -9.566  1.00  0.00    -0.225 NA
ATOM     16  C   UNL     1       3.178  -6.328  -8.549  1.00  0.00     0.157 A 
ATOM     17  C   UNL     1       2.297  -6.348  -6.342  1.00  0.00     0.115 A 
ATOM     18  C   UNL     1       3.252  -7.760  -8.491  1.00  0.00     0.158 A 
ATOM     19  C   UNL     1       2.373  -7.692  -6.368  1.00  0.00     0.129 A 
ATOM     20  N   UNL     1       2.870  -8.425  -7.434  1.00  0.00    -0.259 NA
BRANCH  13  21
ATOM     21  N   UNL     1       2.542  -3.276  -6.883  1.00  0.00    -0.339 N 
ATOM     22  H   UNL     1       1.909  -2.598  -7.212  1.00  0.00     0.168 HD
BRANCH  21  23
ATOM     23  C   UNL     1       3.026  -3.095  -5.561  1.00  0.00     0.040 A 
ATOM     24  C   UNL     1       2.933  -1.883  -3.450  1.00  0.00     0.062 A 
ATOM     25  C   UNL     1       3.968  -2.663  -2.932  1.00  0.00     0.016 A 
ATOM     26  C   UNL     1       2.444  -2.109  -4.745  1.00  0.00     0.041 A 
ATOM     27  C   UNL     1       4.517  -3.675  -3.710  1.00  0.00     0.003 A 
ATOM     28  C   UNL     1       4.056  -3.878  -5.015  1.00  0.00     0.026 A 
BRANCH  24  29
ATOM     29  C   UNL     1       2.469  -0.741  -2.641  1.00  0.00     0.338 C 
ATOM     30  O   UNL     1       3.235   0.091  -2.186  1.00  0.00    -0.246 OA
BRANCH  29  31
ATOM     31  O   UNL     1       1.131  -0.811  -2.448  1.00  0.00    -0.462 OA
BRANCH  31  32
ATOM     32  C   UNL     1       0.594   0.236  -1.619  1.00  0.00     0.230 C 
ATOM     33  C   UNL     1       0.867  -0.018  -0.145  1.00  0.00     0.049 C 
ENDBRANCH  31  32
ENDBRANCH  29  31
ENDBRANCH  24  29
ENDBRANCH  21  23
ENDBRANCH  13  21
ENDBRANCH   7  12
ENDBRANCH   4   6
ENDBRANCH   3   4
ENDBRANCH   2   3
ENDBRANCH   1   2
BRANCH   1  34
ATOM     34  O   UNL     1       4.418   3.151 -12.606  1.00  0.00    -0.376 OA
BRANCH  34  35
ATOM     35  C   UNL     1       4.018   2.313 -11.540  1.00  0.00     0.188 C 
BRANCH  35  36
ATOM     36  C   UNL     1       2.604   1.698 -11.510  1.00  0.00     0.188 C 
BRANCH  36  37
ATOM     37  O   UNL     1       1.748   1.895 -12.608  1.00  0.00    -0.376 OA
BRANCH  37  38
ATOM     38  C   UNL     1       1.118   3.144 -12.831  1.00  0.00     0.202 C 
BRANCH  38  39
ATOM     39  C   UNL     1       1.034   4.312 -11.830  1.00  0.00     0.261 C 
BRANCH  39  40
ATOM     40  O   UNL     1       1.964   4.341 -10.747  1.00  0.00    -0.460 OA
BRANCH  40  41
ATOM     41  C   UNL     1       1.445   4.031  -9.532  1.00  0.00     0.338 C 
ATOM     42  O   UNL     1       0.309   3.692  -9.273  1.00  0.00    -0.246 OA
BRANCH  41  43
ATOM     43  C   UNL     1       2.543   3.997  -8.547  1.00  0.00     0.060 A 
ATOM     44  C   UNL     1       2.882   2.768  -7.965  1.00  0.00     0.016 A 
ATOM     45  C   UNL     1       3.196   5.171  -8.172  1.00  0.00     0.016 A 
ATOM     46  C   UNL     1       3.871   2.714  -6.984  1.00  0.00     0.010 A 
ATOM     47  C   UNL     1       4.172   5.117  -7.174  1.00  0.00     0.010 A 
ATOM     48  C   UNL     1       4.493   3.894  -6.558  1.00  0.00    -0.014 A 
BRANCH  48  49
ATOM     49  C   UNL     1       5.356   3.877  -5.353  1.00  0.00     0.031 A 
ATOM     50  C   UNL     1       4.764   4.296  -4.037  1.00  0.00     0.074 A 
ATOM     51  C   UNL     1       6.641   3.487  -5.424  1.00  0.00     0.049 A 
ATOM     52  N   UNL     1       5.339   4.431  -2.870  1.00  0.00    -0.248 NA
ATOM     53  C   UNL     1       3.327   4.615  -4.043  1.00  0.00     0.031 C 
ATOM     54  C   UNL     1       7.319   3.019  -6.630  1.00  0.00     0.029 A 
ATOM     55  N   UNL     1       7.606   3.436  -4.450  1.00  0.00    -0.354 N 
ATOM     56  C   UNL     1       4.336   4.847  -2.003  1.00  0.00     0.074 A 
ATOM     57  C   UNL     1       3.128   4.984  -2.787  1.00  0.00     0.031 C 
ATOM     58  C   UNL     1       8.599   2.738  -6.327  1.00  0.00     0.029 A 
ATOM     59  C   UNL     1       8.835   3.040  -4.916  1.00  0.00     0.049 A 
ATOM     60  H   UNL     1       7.434   3.662  -3.507  1.00  0.00     0.167 HD
ATOM     61  C   UNL     1       4.413   5.087  -0.673  1.00  0.00     0.037 A 
ATOM     62  C   UNL     1      10.020   2.956  -4.279  1.00  0.00     0.037 A 
ATOM     63  C   UNL     1       5.619   4.956   0.103  1.00  0.00     0.049 A 
ATOM     64  C   UNL     1      10.102   3.312  -2.817  1.00  0.00     0.074 A 
ATOM     65  C   UNL     1       5.801   5.174   1.458  1.00  0.00     0.029 A 
ATOM     66  N   UNL     1       6.851   4.579  -0.411  1.00  0.00    -0.354 N 
ATOM     67  N   UNL     1       9.149   3.694  -2.001  1.00  0.00    -0.248 NA
ATOM     68  C   UNL     1      11.428   3.225  -2.187  1.00  0.00     0.031 C 
ATOM     69  C   UNL     1       7.155   4.984   1.752  1.00  0.00     0.029 A 
ATOM     70  C   UNL     1       7.805   4.589   0.594  1.00  0.00     0.049 A 
ATOM     71  H   UNL     1       7.022   4.340  -1.350  1.00  0.00     0.167 HD
ATOM     72  C   UNL     1       9.750   3.859  -0.759  1.00  0.00     0.074 A 
ATOM     73  C   UNL     1      11.150   3.527  -0.926  1.00  0.00     0.031 C 
ATOM     74  C   UNL     1       9.194   4.247   0.415  1.00  0.00     0.037 A 
BRANCH  61  75
ATOM     75  C   UNL     1       3.164   5.555   0.016  1.00  0.00     0.057 A 
ATOM     76  C   UNL     1       2.064   4.711   0.222  1.00  0.00     0.134 A 
ATOM     77  C   UNL     1       3.067   6.868   0.493  1.00  0.00     0.134 A 
ATOM     78  F   UNL     1       2.079   3.446  -0.226  1.00  0.00    -0.206 F 
ATOM     79  C   UNL     1       0.905   5.165   0.856  1.00  0.00     0.040 A 
ATOM     80  C   UNL     1       1.925   7.325   1.152  1.00  0.00     0.040 A 
ATOM     81  F   UNL     1       4.083   7.730   0.330  1.00  0.00    -0.206 F 
ATOM     82  C   UNL     1       0.837   6.474   1.329  1.00  0.00     0.006 A 
ENDBRANCH  61  75
BRANCH  62  83
ATOM     83  C   UNL     1      11.234   2.526  -5.018  1.00  0.00     0.057 A 
ATOM     84  C   UNL     1      11.858   1.305  -4.740  1.00  0.00     0.134 A 
ATOM     85  C   UNL     1      11.815   3.337  -6.001  1.00  0.00     0.134 A 
ATOM     86  F   UNL     1      11.365   0.496  -3.791  1.00  0.00    -0.206 F 
ATOM     87  C   UNL     1      13.024   0.912  -5.399  1.00  0.00     0.040 A 
ATOM     88  C   UNL     1      12.965   2.945  -6.687  1.00  0.00     0.040 A 
ATOM     89  F   UNL     1      11.268   4.522  -6.312  1.00  0.00    -0.206 F 
ATOM     90  C   UNL     1      13.578   1.732  -6.381  1.00  0.00     0.006 A 
ENDBRANCH  62  83
BRANCH  74  91
ATOM     91  C   UNL     1      10.087   4.292   1.623  1.00  0.00     0.057 A 
ATOM     92  C   UNL     1      11.075   5.272   1.783  1.00  0.00     0.134 A 
ATOM     93  C   UNL     1       9.924   3.366   2.662  1.00  0.00     0.134 A 
ATOM     94  F   UNL     1      11.291   6.183   0.822  1.00  0.00    -0.206 F 
ATOM     95  C   UNL     1      11.885   5.313   2.919  1.00  0.00     0.040 A 
ATOM     96  C   UNL     1      10.708   3.415   3.816  1.00  0.00     0.040 A 
ATOM     97  F   UNL     1       8.989   2.407   2.580  1.00  0.00    -0.206 F 
ATOM     98  C   UNL     1      11.697   4.387   3.943  1.00  0.00     0.006 A 
ENDBRANCH  74  91
ENDBRANCH  48  49
ENDBRANCH  41  43
ENDBRANCH  40  41
ENDBRANCH  39  40
ENDBRANCH  38  39
ENDBRANCH  37  38
ENDBRANCH  36  37
ENDBRANCH  35  36
ENDBRANCH  34  35
ENDBRANCH   1  34
TORSDOF 23
