REMARK SMILES O=C(OCCOCCOCCOC(=O)c1cc(N2CCN(c3ccc(F)cc3)CC2)ccc1NC(=O)C1CCCC1)c1ccc(-c2c3nc(c(-c4c(F)cccc4F)c4ccc([nH]4)c(-c4c(F)cccc4F)c4nc(c(-c5c(F)cccc5F)c5ccc2[nH]5)C=C4)C=C3)cc1
REMARK SMILES IDX 7 1 6 2 5 3 4 4 3 5 2 6 1 7 42 8 43 9 95 10 44 11 94 12
REMARK SMILES IDX 45 13 46 14 47 15 88 16 48 17 93 18 87 19 89 20 49 21 92 22
REMARK SMILES IDX 86 23 85 24 50 26 76 27 59 28 75 29 60 30 63 31 74 32 90 33
REMARK SMILES IDX 61 34 62 35 73 37 91 38 64 39 51 40 52 41 57 42 53 43 54 44
REMARK SMILES IDX 56 45 58 46 55 47 77 48 78 49 83 50 79 51 80 52 82 53 84 54
REMARK SMILES IDX 81 55 65 56 66 57 71 58 67 59 68 60 70 61 72 62 69 63 8 64
REMARK SMILES IDX 9 65 10 66 11 67 12 68 13 69 14 70 15 71 16 72 33 73 17 74
REMARK SMILES IDX 32 75 31 76 34 77 35 78 36 80 37 81 38 82 41 83 39 84 40 85
REMARK SMILES IDX 18 86 19 87 30 88 20 89 29 90 21 91 22 92 23 93 28 94 24 95
REMARK SMILES IDX 27 96 25 97 26 98
REMARK H PARENT 89 25 63 36 34 79
REMARK Flexibility Score: inf
ROOT
ATOM      1  C   UNL     1       2.451   0.343  -2.128  1.00  0.00     0.188 C 
ENDROOT
BRANCH   1   2
ATOM      2  O   UNL     1       3.750   0.533  -1.551  1.00  0.00    -0.376 OA
BRANCH   2   3
ATOM      3  C   UNL     1       4.588  -0.622  -1.661  1.00  0.00     0.202 C 
BRANCH   3   4
ATOM      4  C   UNL     1       4.409  -1.632  -0.519  1.00  0.00     0.261 C 
BRANCH   4   5
ATOM      5  O   UNL     1       3.048  -1.703  -0.062  1.00  0.00    -0.460 OA
BRANCH   5   6
ATOM      6  C   UNL     1       2.447  -0.989   0.923  1.00  0.00     0.338 C 
ATOM      7  O   UNL     1       1.253  -1.193   1.144  1.00  0.00    -0.246 OA
BRANCH   6   8
ATOM      8  C   UNL     1       3.155  -0.007   1.807  1.00  0.00     0.060 A 
ATOM      9  C   UNL     1       4.349   0.646   1.505  1.00  0.00     0.016 A 
ATOM     10  C   UNL     1       2.546   0.289   3.042  1.00  0.00     0.016 A 
ATOM     11  C   UNL     1       5.006   1.424   2.452  1.00  0.00     0.010 A 
ATOM     12  C   UNL     1       3.164   1.129   3.975  1.00  0.00     0.010 A 
ATOM     13  C   UNL     1       4.434   1.645   3.704  1.00  0.00    -0.014 A 
BRANCH  13  14
ATOM     14  C   UNL     1       5.265   2.284   4.747  1.00  0.00     0.031 A 
ATOM     15  C   UNL     1       5.852   1.421   5.825  1.00  0.00     0.074 A 
ATOM     16  C   UNL     1       5.619   3.576   4.631  1.00  0.00     0.049 A 
ATOM     17  N   UNL     1       6.672   1.745   6.790  1.00  0.00    -0.248 NA
ATOM     18  C   UNL     1       5.487  -0.006   5.797  1.00  0.00     0.031 C 
ATOM     19  C   UNL     1       5.200   4.464   3.548  1.00  0.00     0.029 A 
ATOM     20  N   UNL     1       6.443   4.354   5.400  1.00  0.00    -0.354 N 
ATOM     21  C   UNL     1       6.918   0.567   7.481  1.00  0.00     0.074 A 
ATOM     22  C   UNL     1       6.142  -0.475   6.847  1.00  0.00     0.031 C 
ATOM     23  C   UNL     1       5.791   5.659   3.704  1.00  0.00     0.029 A 
ATOM     24  C   UNL     1       6.591   5.633   4.922  1.00  0.00     0.049 A 
ATOM     25  H   UNL     1       6.886   4.028   6.216  1.00  0.00     0.167 HD
ATOM     26  C   UNL     1       7.730   0.370   8.546  1.00  0.00     0.037 A 
ATOM     27  C   UNL     1       7.293   6.668   5.418  1.00  0.00     0.037 A 
ATOM     28  C   UNL     1       8.498   1.412   9.168  1.00  0.00     0.049 A 
ATOM     29  C   UNL     1       8.105   6.449   6.662  1.00  0.00     0.074 A 
ATOM     30  C   UNL     1       9.310   1.342  10.284  1.00  0.00     0.029 A 
ATOM     31  N   UNL     1       8.546   2.723   8.714  1.00  0.00    -0.354 N 
ATOM     32  N   UNL     1       8.292   5.340   7.338  1.00  0.00    -0.248 NA
ATOM     33  C   UNL     1       8.801   7.618   7.213  1.00  0.00     0.031 C 
ATOM     34  C   UNL     1       9.822   2.623  10.527  1.00  0.00     0.029 A 
ATOM     35  C   UNL     1       9.358   3.479   9.540  1.00  0.00     0.049 A 
ATOM     36  H   UNL     1       8.071   3.065   7.922  1.00  0.00     0.167 HD
ATOM     37  C   UNL     1       9.146   5.671   8.381  1.00  0.00     0.074 A 
ATOM     38  C   UNL     1       9.447   7.082   8.240  1.00  0.00     0.031 C 
ATOM     39  C   UNL     1       9.638   4.881   9.366  1.00  0.00     0.037 A 
BRANCH  26  40
ATOM     40  C   UNL     1       7.764  -1.015   9.117  1.00  0.00     0.057 A 
ATOM     41  C   UNL     1       8.428  -2.068   8.474  1.00  0.00     0.134 A 
ATOM     42  C   UNL     1       7.077  -1.309  10.301  1.00  0.00     0.134 A 
ATOM     43  F   UNL     1       9.077  -1.858   7.319  1.00  0.00    -0.206 F 
ATOM     44  C   UNL     1       8.383  -3.371   8.974  1.00  0.00     0.040 A 
ATOM     45  C   UNL     1       7.042  -2.603  10.822  1.00  0.00     0.040 A 
ATOM     46  F   UNL     1       6.414  -0.347  10.959  1.00  0.00    -0.206 F 
ATOM     47  C   UNL     1       7.688  -3.641  10.152  1.00  0.00     0.006 A 
ENDBRANCH  26  40
BRANCH  27  48
ATOM     48  C   UNL     1       7.244   7.995   4.756  1.00  0.00     0.057 A 
ATOM     49  C   UNL     1       8.363   8.533   4.112  1.00  0.00     0.134 A 
ATOM     50  C   UNL     1       6.076   8.769   4.774  1.00  0.00     0.134 A 
ATOM     51  F   UNL     1       9.515   7.848   4.077  1.00  0.00    -0.206 F 
ATOM     52  C   UNL     1       8.329   9.800   3.526  1.00  0.00     0.040 A 
ATOM     53  C   UNL     1       6.024  10.030   4.180  1.00  0.00     0.040 A 
ATOM     54  F   UNL     1       4.963   8.304   5.361  1.00  0.00    -0.206 F 
ATOM     55  C   UNL     1       7.157  10.553   3.561  1.00  0.00     0.006 A 
ENDBRANCH  27  48
BRANCH  39  56
ATOM     56  C   UNL     1      10.568   5.529  10.344  1.00  0.00     0.057 A 
ATOM     57  C   UNL     1      10.099   6.383  11.348  1.00  0.00     0.134 A 
ATOM     58  C   UNL     1      11.943   5.268  10.296  1.00  0.00     0.134 A 
ATOM     59  F   UNL     1       8.794   6.681  11.432  1.00  0.00    -0.206 F 
ATOM     60  C   UNL     1      10.971   6.973  12.263  1.00  0.00     0.040 A 
ATOM     61  C   UNL     1      12.821   5.835  11.219  1.00  0.00     0.040 A 
ATOM     62  F   UNL     1      12.450   4.452   9.359  1.00  0.00    -0.206 F 
ATOM     63  C   UNL     1      12.335   6.694  12.203  1.00  0.00     0.006 A 
ENDBRANCH  39  56
ENDBRANCH  13  14
ENDBRANCH   6   8
ENDBRANCH   5   6
ENDBRANCH   4   5
ENDBRANCH   3   4
ENDBRANCH   2   3
ENDBRANCH   1   2
BRANCH   1  64
ATOM     64  C   UNL     1       1.995   1.577  -2.906  1.00  0.00     0.188 C 
BRANCH  64  65
ATOM     65  O   UNL     1       2.745   1.866  -4.084  1.00  0.00    -0.376 OA
BRANCH  65  66
ATOM     66  C   UNL     1       4.082   2.332  -3.908  1.00  0.00     0.202 C 
BRANCH  66  67
ATOM     67  C   UNL     1       4.242   3.784  -3.439  1.00  0.00     0.261 C 
BRANCH  67  68
ATOM     68  O   UNL     1       3.795   4.024  -2.090  1.00  0.00    -0.460 OA
BRANCH  68  69
ATOM     69  C   UNL     1       2.674   4.785  -1.980  1.00  0.00     0.340 C 
ATOM     70  O   UNL     1       1.995   5.241  -2.881  1.00  0.00    -0.246 OA
BRANCH  69  71
ATOM     71  C   UNL     1       2.325   4.958  -0.558  1.00  0.00     0.085 A 
ATOM     72  C   UNL     1       1.063   4.507  -0.153  1.00  0.00     0.043 A 
ATOM     73  C   UNL     1       3.107   5.742   0.298  1.00  0.00     0.055 A 
ATOM     74  C   UNL     1       0.585   4.757   1.137  1.00  0.00     0.038 A 
ATOM     75  C   UNL     1       2.651   5.952   1.603  1.00  0.00     0.029 A 
ATOM     76  C   UNL     1       1.410   5.452   2.020  1.00  0.00     0.028 A 
BRANCH  73  77
ATOM     77  N   UNL     1       4.305   6.301  -0.177  1.00  0.00    -0.325 N 
ATOM     78  C   UNL     1       4.863   7.531   0.019  1.00  0.00     0.227 C 
ATOM     79  H   UNL     1       4.833   5.702  -0.751  1.00  0.00     0.169 HD
ATOM     80  O   UNL     1       5.999   7.712  -0.431  1.00  0.00    -0.274 OA
BRANCH  78  81
ATOM     81  C   UNL     1       4.116   8.645   0.746  1.00  0.00     0.079 C 
ATOM     82  C   UNL     1       4.778  10.008   0.494  1.00  0.00     0.013 C 
ATOM     83  C   UNL     1       2.697   8.937   0.257  1.00  0.00     0.013 C 
ATOM     84  C   UNL     1       3.731  11.038   0.901  1.00  0.00     0.001 C 
ATOM     85  C   UNL     1       2.390  10.316   0.826  1.00  0.00     0.001 C 
ENDBRANCH  78  81
ENDBRANCH  73  77
BRANCH  74  86
ATOM     86  N   UNL     1      -0.701   4.390   1.461  1.00  0.00    -0.368 N 
ATOM     87  C   UNL     1      -0.992   3.453   2.557  1.00  0.00     0.138 C 
ATOM     88  C   UNL     1      -1.800   5.280   1.046  1.00  0.00     0.138 C 
ATOM     89  C   UNL     1      -1.687   4.140   3.759  1.00  0.00     0.138 C 
ATOM     90  C   UNL     1      -2.453   5.970   2.263  1.00  0.00     0.138 C 
ATOM     91  N   UNL     1      -2.802   4.995   3.310  1.00  0.00    -0.368 N 
BRANCH  91  92
ATOM     92  C   UNL     1      -4.107   4.676   3.619  1.00  0.00     0.037 A 
ATOM     93  C   UNL     1      -4.481   4.421   4.949  1.00  0.00     0.029 A 
ATOM     94  C   UNL     1      -5.114   4.612   2.643  1.00  0.00     0.029 A 
ATOM     95  C   UNL     1      -5.804   4.125   5.295  1.00  0.00     0.041 A 
ATOM     96  C   UNL     1      -6.437   4.302   2.978  1.00  0.00     0.041 A 
ATOM     97  C   UNL     1      -6.770   4.066   4.303  1.00  0.00     0.123 A 
ATOM     98  F   UNL     1      -8.038   3.782   4.627  1.00  0.00    -0.207 F 
ENDBRANCH  91  92
ENDBRANCH  74  86
ENDBRANCH  69  71
ENDBRANCH  68  69
ENDBRANCH  67  68
ENDBRANCH  66  67
ENDBRANCH  65  66
ENDBRANCH  64  65
ENDBRANCH   1  64
TORSDOF 21
