REMARK SMILES COc1cc(OC)cc(-c2ccc([C@@H](C)C(=O)OCCOCCOCCOC(=O)c3ccc(-c4c5nc(c(-c6c(F)cccc6F)c6ccc([nH]6)c(-c6c(F)cccc6F)c6nc(c(-c7c(F)cccc7F)c7ccc4[nH]7)C=C6)C=C5)cc3)cc2F)c1
REMARK SMILES IDX 22 1 21 2 20 3 19 4 18 5 16 6 17 7 14 8 15 9 13 10 10 11
REMARK SMILES IDX 11 12 85 13 12 14 84 15 86 16 9 17 3 18 4 19 87 20 5 21 8 22
REMARK SMILES IDX 2 23 1 24 6 25 7 26 23 27 24 28 25 29 26 30 27 31 28 32
REMARK SMILES IDX 29 33 30 34 31 35 83 36 32 37 82 38 33 39 34 40 35 41 76 42
REMARK SMILES IDX 36 43 81 44 75 45 77 46 37 47 80 48 74 49 73 50 38 52 64 53
REMARK SMILES IDX 47 54 63 55 48 56 51 57 62 58 78 59 49 60 50 61 61 63 79 64
REMARK SMILES IDX 52 65 39 66 40 67 45 68 41 69 42 70 44 71 46 72 43 73 65 74
REMARK SMILES IDX 66 75 71 76 67 77 68 78 70 79 72 80 69 81 53 82 54 83 59 84
REMARK SMILES IDX 55 85 56 86 58 87 60 88 57 89
REMARK H PARENT 77 51 51 62
REMARK Flexibility Score: inf
ROOT
ATOM      1  C   UNL     1       8.818  -2.305  -3.233  1.00  0.00     0.188 C 
ENDROOT
BRANCH   1   2
ATOM      2  O   UNL     1       9.438  -2.018  -4.481  1.00  0.00    -0.376 OA
BRANCH   2   3
ATOM      3  C   UNL     1       8.921  -2.608  -5.669  1.00  0.00     0.202 C 
BRANCH   3   4
ATOM      4  C   UNL     1       8.787  -4.139  -5.732  1.00  0.00     0.261 C 
BRANCH   4   5
ATOM      5  O   UNL     1       7.989  -4.746  -4.688  1.00  0.00    -0.463 OA
BRANCH   5   6
ATOM      6  C   UNL     1       8.611  -5.660  -3.901  1.00  0.00     0.313 C 
ATOM      7  O   UNL     1       9.777  -6.013  -4.071  1.00  0.00    -0.252 OA
BRANCH   6   8
ATOM      8  C   UNL     1       7.787  -6.236  -2.743  1.00  0.00     0.126 C 
ATOM      9  C   UNL     1       7.695  -7.752  -2.910  1.00  0.00     0.025 C 
BRANCH   8  10
ATOM     10  C   UNL     1       6.422  -5.656  -2.372  1.00  0.00    -0.031 A 
ATOM     11  C   UNL     1       3.903  -4.543  -1.560  1.00  0.00     0.018 A 
ATOM     12  C   UNL     1       4.134  -4.967  -2.882  1.00  0.00     0.012 A 
ATOM     13  C   UNL     1       4.963  -4.680  -0.660  1.00  0.00     0.131 A 
ATOM     14  C   UNL     1       5.365  -5.524  -3.281  1.00  0.00     0.005 A 
ATOM     15  C   UNL     1       6.191  -5.234  -1.046  1.00  0.00     0.044 A 
ATOM     16  F   UNL     1       4.818  -4.306   0.621  1.00  0.00    -0.206 F 
BRANCH  11  17
ATOM     17  C   UNL     1       2.562  -4.096  -1.127  1.00  0.00    -0.008 A 
ATOM     18  C   UNL     1       1.029  -2.494  -0.115  1.00  0.00     0.123 A 
ATOM     19  C   UNL     1      -0.014  -3.413  -0.229  1.00  0.00     0.092 A 
ATOM     20  C   UNL     1       2.317  -2.835  -0.550  1.00  0.00     0.055 A 
ATOM     21  C   UNL     1       0.204  -4.667  -0.792  1.00  0.00     0.123 A 
ATOM     22  C   UNL     1       1.482  -4.994  -1.248  1.00  0.00     0.055 A 
BRANCH  18  23
ATOM     23  O   UNL     1       0.702  -1.327   0.523  1.00  0.00    -0.497 OA
ATOM     24  C   UNL     1       1.273  -0.152  -0.041  1.00  0.00     0.278 C 
ENDBRANCH  18  23
BRANCH  21  25
ATOM     25  O   UNL     1      -0.891  -5.485  -0.839  1.00  0.00    -0.497 OA
ATOM     26  C   UNL     1      -0.643  -6.855  -1.136  1.00  0.00     0.278 C 
ENDBRANCH  21  25
ENDBRANCH  11  17
ENDBRANCH   8  10
ENDBRANCH   6   8
ENDBRANCH   5   6
ENDBRANCH   4   5
ENDBRANCH   3   4
ENDBRANCH   2   3
ENDBRANCH   1   2
BRANCH   1  27
ATOM     27  C   UNL     1       7.291  -2.442  -3.170  1.00  0.00     0.188 C 
BRANCH  27  28
ATOM     28  O   UNL     1       6.621  -2.085  -4.356  1.00  0.00    -0.376 OA
BRANCH  28  29
ATOM     29  C   UNL     1       5.635  -1.077  -4.269  1.00  0.00     0.202 C 
BRANCH  29  30
ATOM     30  C   UNL     1       6.118   0.310  -3.821  1.00  0.00     0.261 C 
BRANCH  30  31
ATOM     31  O   UNL     1       6.968   0.344  -2.659  1.00  0.00    -0.460 OA
BRANCH  31  32
ATOM     32  C   UNL     1       6.382   0.141  -1.454  1.00  0.00     0.338 C 
ATOM     33  O   UNL     1       5.203  -0.052  -1.236  1.00  0.00    -0.246 OA
BRANCH  32  34
ATOM     34  C   UNL     1       7.469  -0.029  -0.456  1.00  0.00     0.060 A 
ATOM     35  C   UNL     1       7.560  -1.231   0.262  1.00  0.00     0.016 A 
ATOM     36  C   UNL     1       8.402   0.988  -0.241  1.00  0.00     0.016 A 
ATOM     37  C   UNL     1       8.567  -1.406   1.216  1.00  0.00     0.010 A 
ATOM     38  C   UNL     1       9.394   0.820   0.730  1.00  0.00     0.010 A 
ATOM     39  C   UNL     1       9.465  -0.365   1.486  1.00  0.00    -0.014 A 
BRANCH  39  40
ATOM     40  C   UNL     1      10.348  -0.421   2.680  1.00  0.00     0.031 A 
ATOM     41  C   UNL     1       9.917   0.310   3.923  1.00  0.00     0.074 A 
ATOM     42  C   UNL     1      11.511  -1.097   2.674  1.00  0.00     0.049 A 
ATOM     43  N   UNL     1      10.553   0.486   5.053  1.00  0.00    -0.248 NA
ATOM     44  C   UNL     1       8.585   0.934   3.877  1.00  0.00     0.031 C 
ATOM     45  C   UNL     1      12.027  -1.887   1.560  1.00  0.00     0.029 A 
ATOM     46  N   UNL     1      12.476  -1.212   3.646  1.00  0.00    -0.354 N 
ATOM     47  C   UNL     1       9.703   1.246   5.848  1.00  0.00     0.074 A 
ATOM     48  C   UNL     1       8.525   1.530   5.057  1.00  0.00     0.031 C 
ATOM     49  C   UNL     1      13.222  -2.399   1.907  1.00  0.00     0.029 A 
ATOM     50  C   UNL     1      13.572  -1.940   3.252  1.00  0.00     0.049 A 
ATOM     51  H   UNL     1      12.389  -0.811   4.541  1.00  0.00     0.167 HD
ATOM     52  C   UNL     1       9.881   1.664   7.124  1.00  0.00     0.037 A 
ATOM     53  C   UNL     1      14.732  -2.185   3.893  1.00  0.00     0.037 A 
ATOM     54  C   UNL     1      11.057   1.393   7.909  1.00  0.00     0.049 A 
ATOM     55  C   UNL     1      14.953  -1.625   5.276  1.00  0.00     0.074 A 
ATOM     56  C   UNL     1      11.330   1.769   9.213  1.00  0.00     0.029 A 
ATOM     57  N   UNL     1      12.163   0.688   7.457  1.00  0.00    -0.354 N 
ATOM     58  N   UNL     1      14.140  -0.920   6.026  1.00  0.00    -0.248 NA
ATOM     59  C   UNL     1      16.257  -1.895   5.901  1.00  0.00     0.031 C 
ATOM     60  C   UNL     1      12.623   1.341   9.530  1.00  0.00     0.029 A 
ATOM     61  C   UNL     1      13.131   0.642   8.447  1.00  0.00     0.049 A 
ATOM     62  H   UNL     1      12.247   0.280   6.565  1.00  0.00     0.167 HD
ATOM     63  C   UNL     1      14.817  -0.697   7.221  1.00  0.00     0.074 A 
ATOM     64  C   UNL     1      16.104  -1.348   7.098  1.00  0.00     0.031 C 
ATOM     65  C   UNL     1      14.407  -0.018   8.321  1.00  0.00     0.037 A 
BRANCH  52  66
ATOM     66  C   UNL     1       8.785   2.490   7.735  1.00  0.00     0.057 A 
ATOM     67  C   UNL     1       7.532   1.945   8.049  1.00  0.00     0.134 A 
ATOM     68  C   UNL     1       8.987   3.846   8.019  1.00  0.00     0.134 A 
ATOM     69  F   UNL     1       7.266   0.656   7.790  1.00  0.00    -0.206 F 
ATOM     70  C   UNL     1       6.510   2.728   8.589  1.00  0.00     0.040 A 
ATOM     71  C   UNL     1       7.984   4.631   8.589  1.00  0.00     0.040 A 
ATOM     72  F   UNL     1      10.164   4.431   7.749  1.00  0.00    -0.206 F 
ATOM     73  C   UNL     1       6.737   4.075   8.866  1.00  0.00     0.006 A 
ENDBRANCH  52  66
BRANCH  53  74
ATOM     74  C   UNL     1      15.790  -2.998   3.238  1.00  0.00     0.057 A 
ATOM     75  C   UNL     1      16.139  -4.261   3.729  1.00  0.00     0.134 A 
ATOM     76  C   UNL     1      16.499  -2.521   2.128  1.00  0.00     0.134 A 
ATOM     77  F   UNL     1      15.518  -4.761   4.808  1.00  0.00    -0.206 F 
ATOM     78  C   UNL     1      17.162  -5.015   3.151  1.00  0.00     0.040 A 
ATOM     79  C   UNL     1      17.506  -3.276   1.523  1.00  0.00     0.040 A 
ATOM     80  F   UNL     1      16.219  -1.316   1.611  1.00  0.00    -0.206 F 
ATOM     81  C   UNL     1      17.845  -4.525   2.040  1.00  0.00     0.006 A 
ENDBRANCH  53  74
BRANCH  65  82
ATOM     82  C   UNL     1      15.335   0.015   9.504  1.00  0.00     0.057 A 
ATOM     83  C   UNL     1      16.527   0.750   9.499  1.00  0.00     0.134 A 
ATOM     84  C   UNL     1      15.006  -0.667  10.684  1.00  0.00     0.134 A 
ATOM     85  F   UNL     1      16.909   1.419   8.400  1.00  0.00    -0.206 F 
ATOM     86  C   UNL     1      17.370   0.784  10.612  1.00  0.00     0.040 A 
ATOM     87  C   UNL     1      15.825  -0.616  11.813  1.00  0.00     0.040 A 
ATOM     88  F   UNL     1      13.873  -1.382  10.764  1.00  0.00    -0.206 F 
ATOM     89  C   UNL     1      17.015   0.105  11.776  1.00  0.00     0.006 A 
ENDBRANCH  65  82
ENDBRANCH  39  40
ENDBRANCH  32  34
ENDBRANCH  31  32
ENDBRANCH  30  31
ENDBRANCH  29  30
ENDBRANCH  28  29
ENDBRANCH  27  28
ENDBRANCH   1  27
TORSDOF 21
