REMARK SMILES COc1cc(OC)cc(-c2cc3nc(C)c(CCC(=O)OCCOCCOCCOC(=O)c4ccc(-c5c6nc(c(-c7c(F)cccc7F)c7ccc([nH]7)c(-c7c(F)cccc7F)c7nc(c(-c8c(F)cccc8F)c8ccc5[nH]8)C=C7)C=C6)cc4)c(C)n3n2)c1
REMARK SMILES IDX 25 1 24 2 23 3 22 4 21 5 19 6 20 7 18 8 17 9 16 10 10 11
REMARK SMILES IDX 11 12 90 13 12 14 89 15 13 16 87 17 14 18 88 19 15 20 9 21
REMARK SMILES IDX 3 22 4 23 91 24 5 25 8 26 2 27 1 28 6 29 7 30 26 31 27 32
REMARK SMILES IDX 28 33 29 34 30 35 31 36 32 37 33 38 34 39 86 40 35 41 85 42
REMARK SMILES IDX 36 43 37 44 38 45 79 46 39 47 84 48 78 49 80 50 40 51 83 52
REMARK SMILES IDX 77 53 76 54 41 56 67 57 50 58 66 59 51 60 54 61 65 62 81 63
REMARK SMILES IDX 52 64 53 65 64 67 82 68 55 69 42 70 43 71 48 72 44 73 45 74
REMARK SMILES IDX 47 75 49 76 46 77 68 78 69 79 74 80 70 81 71 82 73 83 75 84
REMARK SMILES IDX 72 85 56 86 57 87 62 88 58 89 59 90 61 91 63 92 60 93
REMARK H PARENT 80 55 54 66
REMARK Flexibility Score: inf
ROOT
ATOM      1  C   UNL     1       9.865  -0.975   4.087  1.00  0.00     0.188 C 
ENDROOT
BRANCH   1   2
ATOM      2  O   UNL     1       9.131   0.240   4.105  1.00  0.00    -0.376 OA
BRANCH   2   3
ATOM      3  C   UNL     1       8.062   0.372   3.171  1.00  0.00     0.202 C 
BRANCH   3   4
ATOM      4  C   UNL     1       8.435   0.331   1.666  1.00  0.00     0.261 C 
BRANCH   4   5
ATOM      5  O   UNL     1       8.683  -1.008   1.146  1.00  0.00    -0.463 OA
BRANCH   5   6
ATOM      6  C   UNL     1       9.947  -1.404   0.877  1.00  0.00     0.306 C 
ATOM      7  O   UNL     1      10.908  -0.644   0.880  1.00  0.00    -0.252 OA
BRANCH   6   8
ATOM      8  C   UNL     1      10.078  -2.903   0.577  1.00  0.00     0.127 C 
BRANCH   8   9
ATOM      9  C   UNL     1       9.524  -3.990   1.541  1.00  0.00     0.051 C 
BRANCH   9  10
ATOM     10  C   UNL     1       8.109  -4.518   1.323  1.00  0.00    -0.005 A 
ATOM     11  C   UNL     1       3.609  -4.397   1.355  1.00  0.00     0.095 A 
ATOM     12  C   UNL     1       4.103  -5.662   0.936  1.00  0.00     0.080 A 
ATOM     13  N   UNL     1       4.617  -3.569   1.595  1.00  0.00    -0.166 NA
ATOM     14  C   UNL     1       5.486  -5.552   0.935  1.00  0.00     0.156 A 
ATOM     15  N   UNL     1       5.732  -4.288   1.409  1.00  0.00    -0.219 N 
ATOM     16  N   UNL     1       6.529  -6.393   0.664  1.00  0.00    -0.234 NA
ATOM     17  C   UNL     1       7.006  -3.824   1.664  1.00  0.00     0.046 A 
ATOM     18  C   UNL     1       7.747  -5.939   0.863  1.00  0.00     0.045 A 
ATOM     19  C   UNL     1       6.954  -2.549   2.399  1.00  0.00     0.067 C 
ATOM     20  C   UNL     1       8.846  -6.964   0.657  1.00  0.00     0.067 C 
BRANCH  11  21
ATOM     21  C   UNL     1       2.279  -3.860   1.608  1.00  0.00     0.009 A 
ATOM     22  C   UNL     1       0.779  -1.942   1.511  1.00  0.00     0.123 A 
ATOM     23  C   UNL     1      -0.090  -2.612   2.372  1.00  0.00     0.092 A 
ATOM     24  C   UNL     1       1.968  -2.563   1.143  1.00  0.00     0.057 A 
ATOM     25  C   UNL     1       0.223  -3.882   2.869  1.00  0.00     0.123 A 
ATOM     26  C   UNL     1       1.404  -4.514   2.476  1.00  0.00     0.057 A 
BRANCH  22  27
ATOM     27  O   UNL     1       0.392  -0.679   1.155  1.00  0.00    -0.497 OA
ATOM     28  C   UNL     1       1.004  -0.132  -0.008  1.00  0.00     0.278 C 
ENDBRANCH  22  27
BRANCH  25  29
ATOM     29  O   UNL     1      -0.700  -4.400   3.738  1.00  0.00    -0.497 OA
ATOM     30  C   UNL     1      -0.242  -5.452   4.579  1.00  0.00     0.278 C 
ENDBRANCH  25  29
ENDBRANCH  11  21
ENDBRANCH   9  10
ENDBRANCH   8   9
ENDBRANCH   6   8
ENDBRANCH   5   6
ENDBRANCH   4   5
ENDBRANCH   3   4
ENDBRANCH   2   3
ENDBRANCH   1   2
BRANCH   1  31
ATOM     31  C   UNL     1       9.497  -1.955   5.189  1.00  0.00     0.188 C 
BRANCH  31  32
ATOM     32  O   UNL     1       8.306  -2.731   5.010  1.00  0.00    -0.376 OA
BRANCH  32  33
ATOM     33  C   UNL     1       7.113  -2.250   5.641  1.00  0.00     0.202 C 
BRANCH  33  34
ATOM     34  C   UNL     1       6.915  -2.574   7.117  1.00  0.00     0.261 C 
BRANCH  34  35
ATOM     35  O   UNL     1       8.116  -2.407   7.822  1.00  0.00    -0.460 OA
BRANCH  35  36
ATOM     36  C   UNL     1       9.013  -3.412   7.651  1.00  0.00     0.338 C 
ATOM     37  O   UNL     1       8.819  -4.531   7.239  1.00  0.00    -0.246 OA
BRANCH  36  38
ATOM     38  C   UNL     1      10.302  -2.874   8.131  1.00  0.00     0.060 A 
ATOM     39  C   UNL     1      11.242  -3.836   8.474  1.00  0.00     0.016 A 
ATOM     40  C   UNL     1      10.268  -1.599   8.708  1.00  0.00     0.016 A 
ATOM     41  C   UNL     1      11.819  -3.696   9.707  1.00  0.00     0.010 A 
ATOM     42  C   UNL     1      10.724  -1.516   9.980  1.00  0.00     0.010 A 
ATOM     43  C   UNL     1      11.417  -2.610  10.488  1.00  0.00    -0.014 A 
BRANCH  43  44
ATOM     44  C   UNL     1      11.892  -2.502  11.839  1.00  0.00     0.031 A 
ATOM     45  C   UNL     1      13.228  -1.874  11.816  1.00  0.00     0.074 A 
ATOM     46  C   UNL     1      11.099  -2.808  12.881  1.00  0.00     0.049 A 
ATOM     47  N   UNL     1      14.368  -2.484  11.843  1.00  0.00    -0.248 NA
ATOM     48  C   UNL     1      13.318  -0.480  11.328  1.00  0.00     0.031 C 
ATOM     49  C   UNL     1       9.671  -3.152  12.859  1.00  0.00     0.029 A 
ATOM     50  N   UNL     1      11.384  -2.760  14.211  1.00  0.00    -0.354 N 
ATOM     51  C   UNL     1      15.298  -1.457  11.701  1.00  0.00     0.074 A 
ATOM     52  C   UNL     1      14.609  -0.416  11.007  1.00  0.00     0.031 C 
ATOM     53  C   UNL     1       9.167  -3.056  14.111  1.00  0.00     0.029 A 
ATOM     54  C   UNL     1      10.251  -2.768  15.030  1.00  0.00     0.049 A 
ATOM     55  H   UNL     1      12.303  -2.724  14.563  1.00  0.00     0.167 HD
ATOM     56  C   UNL     1      16.299  -1.341  12.618  1.00  0.00     0.037 A 
ATOM     57  C   UNL     1      10.260  -2.457  16.352  1.00  0.00     0.037 A 
ATOM     58  C   UNL     1      16.447  -2.604  13.314  1.00  0.00     0.049 A 
ATOM     59  C   UNL     1      11.672  -2.566  16.801  1.00  0.00     0.074 A 
ATOM     60  C   UNL     1      16.823  -3.889  12.984  1.00  0.00     0.029 A 
ATOM     61  N   UNL     1      15.702  -2.682  14.465  1.00  0.00    -0.354 N 
ATOM     62  N   UNL     1      12.326  -3.694  16.860  1.00  0.00    -0.248 NA
ATOM     63  C   UNL     1      12.501  -1.367  16.766  1.00  0.00     0.031 C 
ATOM     64  C   UNL     1      16.115  -4.748  13.877  1.00  0.00     0.029 A 
ATOM     65  C   UNL     1      15.386  -3.971  14.778  1.00  0.00     0.049 A 
ATOM     66  H   UNL     1      15.430  -1.902  14.999  1.00  0.00     0.167 HD
ATOM     67  C   UNL     1      13.605  -3.377  16.429  1.00  0.00     0.074 A 
ATOM     68  C   UNL     1      13.693  -1.923  16.536  1.00  0.00     0.031 C 
ATOM     69  C   UNL     1      14.340  -4.290  15.728  1.00  0.00     0.037 A 
BRANCH  56  70
ATOM     70  C   UNL     1      16.669  -0.021  13.309  1.00  0.00     0.057 A 
ATOM     71  C   UNL     1      17.596  -0.084  14.368  1.00  0.00     0.134 A 
ATOM     72  C   UNL     1      15.984   1.214  13.222  1.00  0.00     0.134 A 
ATOM     73  F   UNL     1      18.363  -1.170  14.547  1.00  0.00    -0.206 F 
ATOM     74  C   UNL     1      17.717   0.923  15.335  1.00  0.00     0.040 A 
ATOM     75  C   UNL     1      16.107   2.230  14.174  1.00  0.00     0.040 A 
ATOM     76  F   UNL     1      15.120   1.525  12.254  1.00  0.00    -0.206 F 
ATOM     77  C   UNL     1      16.949   2.074  15.257  1.00  0.00     0.006 A 
ENDBRANCH  56  70
BRANCH  57  78
ATOM     78  C   UNL     1       9.233  -1.777  17.175  1.00  0.00     0.057 A 
ATOM     79  C   UNL     1       9.306  -1.786  18.577  1.00  0.00     0.134 A 
ATOM     80  C   UNL     1       8.330  -0.858  16.613  1.00  0.00     0.134 A 
ATOM     81  F   UNL     1      10.166  -2.599  19.207  1.00  0.00    -0.206 F 
ATOM     82  C   UNL     1       8.553  -0.911  19.372  1.00  0.00     0.040 A 
ATOM     83  C   UNL     1       7.569   0.018  17.396  1.00  0.00     0.040 A 
ATOM     84  F   UNL     1       8.228  -0.713  15.285  1.00  0.00    -0.206 F 
ATOM     85  C   UNL     1       7.690   0.006  18.780  1.00  0.00     0.006 A 
ENDBRANCH  57  78
BRANCH  69  86
ATOM     86  C   UNL     1      13.947  -5.734  15.844  1.00  0.00     0.057 A 
ATOM     87  C   UNL     1      12.759  -6.288  15.348  1.00  0.00     0.134 A 
ATOM     88  C   UNL     1      14.888  -6.619  16.383  1.00  0.00     0.134 A 
ATOM     89  F   UNL     1      11.836  -5.526  14.746  1.00  0.00    -0.206 F 
ATOM     90  C   UNL     1      12.512  -7.664  15.414  1.00  0.00     0.040 A 
ATOM     91  C   UNL     1      14.671  -7.995  16.420  1.00  0.00     0.040 A 
ATOM     92  F   UNL     1      16.064  -6.157  16.838  1.00  0.00    -0.206 F 
ATOM     93  C   UNL     1      13.475  -8.522  15.942  1.00  0.00     0.006 A 
ENDBRANCH  69  86
ENDBRANCH  43  44
ENDBRANCH  36  38
ENDBRANCH  35  36
ENDBRANCH  34  35
ENDBRANCH  33  34
ENDBRANCH  32  33
ENDBRANCH  31  32
ENDBRANCH   1  31
TORSDOF 22
