REMARK SMILES CN(CC(=O)N1C[C@@H](O)C[C@H]1C(=O)OCCOCCOCCOC(=O)c1ccc(-c2c3nc(c(-c4c(F)cccc4F)c4ccc([nH]4)c(-c4c(F)cccc4F)c4nc(c(-c5c(F)cccc5F)c5ccc2[nH]5)C=C4)C=C3)cc1)C(=O)c1cccs1
REMARK SMILES IDX 17 1 16 2 15 3 14 4 12 5 13 6 11 7 6 8 7 9 8 10 10 11 4 12
REMARK SMILES IDX 5 13 3 14 2 15 1 16 80 17 81 18 82 19 83 20 86 21 84 22
REMARK SMILES IDX 85 23 9 24 18 26 19 27 20 28 21 29 22 30 23 31 24 32 25 33
REMARK SMILES IDX 26 34 27 35 79 36 28 37 78 38 29 39 30 40 31 41 72 42 32 43
REMARK SMILES IDX 77 44 71 45 73 46 33 47 76 48 70 49 69 50 34 52 60 53 43 54
REMARK SMILES IDX 59 55 44 56 47 57 58 58 74 59 45 60 46 61 57 63 75 64 48 65
REMARK SMILES IDX 35 66 36 67 41 68 37 69 38 70 40 71 42 72 39 73 61 74 62 75
REMARK SMILES IDX 67 76 63 77 64 78 66 79 68 80 65 81 49 82 50 83 55 84 51 85
REMARK SMILES IDX 52 86 54 87 56 88 53 89
REMARK H PARENT 9 25 73 51 47 62
REMARK Flexibility Score: inf
ROOT
ATOM      1  O   UNL     1      -5.976   0.612  -4.909  1.00  0.00    -0.376 OA
ENDROOT
BRANCH   1   2
ATOM      2  C   UNL     1      -5.966   1.988  -4.594  1.00  0.00     0.202 C 
BRANCH   2   3
ATOM      3  C   UNL     1      -5.987   2.343  -3.108  1.00  0.00     0.261 C 
BRANCH   3   4
ATOM      4  O   UNL     1      -4.923   1.754  -2.335  1.00  0.00    -0.462 OA
BRANCH   4   5
ATOM      5  C   UNL     1      -5.278   0.683  -1.572  1.00  0.00     0.329 C 
ATOM      6  O   UNL     1      -6.415   0.219  -1.526  1.00  0.00    -0.250 OA
BRANCH   5   7
ATOM      7  C   UNL     1      -4.194   0.259  -0.563  1.00  0.00     0.197 C 
ATOM      8  N   UNL     1      -2.740   0.493  -0.777  1.00  0.00    -0.325 N 
ATOM      9  C   UNL     1      -2.268   1.506   0.145  1.00  0.00     0.152 C 
ATOM     10  C   UNL     1      -3.173   1.318   1.357  1.00  0.00     0.136 C 
ATOM     11  C   UNL     1      -4.525   1.032   0.727  1.00  0.00     0.070 C 
BRANCH   8  12
ATOM     12  C   UNL     1      -2.007  -0.436  -1.483  1.00  0.00     0.243 C 
ATOM     13  O   UNL     1      -2.624  -1.296  -2.131  1.00  0.00    -0.273 OA
BRANCH  12  14
ATOM     14  C   UNL     1      -0.449  -0.551  -1.461  1.00  0.00     0.219 C 
BRANCH  14  15
ATOM     15  N   UNL     1       0.451   0.414  -0.823  1.00  0.00    -0.332 N 
ATOM     16  C   UNL     1       0.899   0.089   0.528  1.00  0.00     0.147 C 
BRANCH  15  17
ATOM     17  C   UNL     1       1.165   1.446  -1.462  1.00  0.00     0.264 C 
ATOM     18  O   UNL     1       1.905   2.168  -0.788  1.00  0.00    -0.268 OA
BRANCH  17  19
ATOM     19  C   UNL     1       1.081   1.597  -2.907  1.00  0.00     0.092 A 
ATOM     20  C   UNL     1       0.008   1.548  -3.772  1.00  0.00     0.025 A 
ATOM     21  S   UNL     1       2.538   1.928  -3.765  1.00  0.00    -0.139 S 
ATOM     22  C   UNL     1       0.400   1.647  -5.138  1.00  0.00     0.012 A 
ATOM     23  C   UNL     1       1.750   1.866  -5.277  1.00  0.00     0.065 A 
ENDBRANCH  17  19
ENDBRANCH  15  17
ENDBRANCH  14  15
ENDBRANCH  12  14
ENDBRANCH   8  12
BRANCH  10  24
ATOM     24  O   UNL     1      -3.215   2.445   2.208  1.00  0.00    -0.391 OA
ATOM     25  H   UNL     1      -3.522   3.217   1.707  1.00  0.00     0.211 HD
ENDBRANCH  10  24
ENDBRANCH   5   7
ENDBRANCH   4   5
ENDBRANCH   3   4
ENDBRANCH   2   3
ENDBRANCH   1   2
BRANCH   1  26
ATOM     26  C   UNL     1      -4.780  -0.148  -4.811  1.00  0.00     0.188 C 
BRANCH  26  27
ATOM     27  C   UNL     1      -3.399   0.505  -4.623  1.00  0.00     0.188 C 
BRANCH  27  28
ATOM     28  O   UNL     1      -2.982   1.644  -5.352  1.00  0.00    -0.376 OA
BRANCH  28  29
ATOM     29  C   UNL     1      -3.128   1.712  -6.756  1.00  0.00     0.202 C 
BRANCH  29  30
ATOM     30  C   UNL     1      -2.645   0.575  -7.663  1.00  0.00     0.261 C 
BRANCH  30  31
ATOM     31  O   UNL     1      -2.934  -0.746  -7.198  1.00  0.00    -0.460 OA
BRANCH  31  32
ATOM     32  C   UNL     1      -1.869  -1.486  -6.824  1.00  0.00     0.338 C 
ATOM     33  O   UNL     1      -0.687  -1.149  -6.803  1.00  0.00    -0.246 OA
BRANCH  32  34
ATOM     34  C   UNL     1      -2.347  -2.790  -6.352  1.00  0.00     0.060 A 
ATOM     35  C   UNL     1      -2.358  -3.071  -4.982  1.00  0.00     0.016 A 
ATOM     36  C   UNL     1      -2.742  -3.752  -7.280  1.00  0.00     0.016 A 
ATOM     37  C   UNL     1      -2.775  -4.321  -4.528  1.00  0.00     0.010 A 
ATOM     38  C   UNL     1      -3.143  -5.009  -6.826  1.00  0.00     0.010 A 
ATOM     39  C   UNL     1      -3.148  -5.306  -5.450  1.00  0.00    -0.014 A 
BRANCH  39  40
ATOM     40  C   UNL     1      -3.421  -6.694  -5.013  1.00  0.00     0.031 A 
ATOM     41  C   UNL     1      -2.378  -7.745  -5.263  1.00  0.00     0.074 A 
ATOM     42  C   UNL     1      -4.591  -7.024  -4.441  1.00  0.00     0.049 A 
ATOM     43  N   UNL     1      -2.467  -9.046  -5.162  1.00  0.00    -0.248 NA
ATOM     44  C   UNL     1      -1.057  -7.260  -5.695  1.00  0.00     0.031 C 
ATOM     45  C   UNL     1      -5.657  -6.089  -4.090  1.00  0.00     0.029 A 
ATOM     46  N   UNL     1      -5.085  -8.252  -4.078  1.00  0.00    -0.354 N 
ATOM     47  C   UNL     1      -1.227  -9.537  -5.548  1.00  0.00     0.074 A 
ATOM     48  C   UNL     1      -0.406  -8.396  -5.895  1.00  0.00     0.031 C 
ATOM     49  C   UNL     1      -6.692  -6.780  -3.581  1.00  0.00     0.029 A 
ATOM     50  C   UNL     1      -6.379  -8.207  -3.620  1.00  0.00     0.049 A 
ATOM     51  H   UNL     1      -4.562  -9.085  -4.140  1.00  0.00     0.167 HD
ATOM     52  C   UNL     1      -0.813 -10.825  -5.611  1.00  0.00     0.037 A 
ATOM     53  C   UNL     1      -7.225  -9.208  -3.309  1.00  0.00     0.037 A 
ATOM     54  C   UNL     1      -1.629 -11.954  -5.253  1.00  0.00     0.049 A 
ATOM     55  C   UNL     1      -6.767 -10.635  -3.454  1.00  0.00     0.074 A 
ATOM     56  C   UNL     1      -1.302 -13.298  -5.275  1.00  0.00     0.029 A 
ATOM     57  N   UNL     1      -2.939 -11.867  -4.804  1.00  0.00    -0.354 N 
ATOM     58  N   UNL     1      -5.602 -11.097  -3.839  1.00  0.00    -0.248 NA
ATOM     59  C   UNL     1      -7.748 -11.682  -3.130  1.00  0.00     0.031 C 
ATOM     60  C   UNL     1      -2.428 -14.028  -4.878  1.00  0.00     0.029 A 
ATOM     61  C   UNL     1      -3.440 -13.136  -4.563  1.00  0.00     0.049 A 
ATOM     62  H   UNL     1      -3.439 -11.029  -4.677  1.00  0.00     0.167 HD
ATOM     63  C   UNL     1      -5.700 -12.482  -3.778  1.00  0.00     0.074 A 
ATOM     64  C   UNL     1      -7.035 -12.786  -3.309  1.00  0.00     0.031 C 
ATOM     65  C   UNL     1      -4.769 -13.418  -4.084  1.00  0.00     0.037 A 
BRANCH  52  66
ATOM     66  C   UNL     1       0.575 -11.078  -6.119  1.00  0.00     0.057 A 
ATOM     67  C   UNL     1       1.711 -10.775  -5.359  1.00  0.00     0.134 A 
ATOM     68  C   UNL     1       0.775 -11.649  -7.382  1.00  0.00     0.134 A 
ATOM     69  F   UNL     1       1.589 -10.209  -4.149  1.00  0.00    -0.206 F 
ATOM     70  C   UNL     1       2.998 -11.011  -5.846  1.00  0.00     0.040 A 
ATOM     71  C   UNL     1       2.056 -11.913  -7.870  1.00  0.00     0.040 A 
ATOM     72  F   UNL     1      -0.271 -11.965  -8.161  1.00  0.00    -0.206 F 
ATOM     73  C   UNL     1       3.172 -11.587  -7.103  1.00  0.00     0.006 A 
ENDBRANCH  52  66
BRANCH  53  74
ATOM     74  C   UNL     1      -8.608  -8.903  -2.862  1.00  0.00     0.057 A 
ATOM     75  C   UNL     1      -9.015  -9.157  -1.548  1.00  0.00     0.134 A 
ATOM     76  C   UNL     1      -9.561  -8.375  -3.742  1.00  0.00     0.134 A 
ATOM     77  F   UNL     1      -8.155  -9.689  -0.666  1.00  0.00    -0.206 F 
ATOM     78  C   UNL     1     -10.323  -8.913  -1.127  1.00  0.00     0.040 A 
ATOM     79  C   UNL     1     -10.865  -8.101  -3.328  1.00  0.00     0.040 A 
ATOM     80  F   UNL     1      -9.235  -8.113  -5.016  1.00  0.00    -0.206 F 
ATOM     81  C   UNL     1     -11.252  -8.377  -2.018  1.00  0.00     0.006 A 
ENDBRANCH  53  74
BRANCH  65  82
ATOM     82  C   UNL     1      -5.145 -14.856  -3.878  1.00  0.00     0.057 A 
ATOM     83  C   UNL     1      -6.026 -15.522  -4.739  1.00  0.00     0.134 A 
ATOM     84  C   UNL     1      -4.583 -15.595  -2.828  1.00  0.00     0.134 A 
ATOM     85  F   UNL     1      -6.608 -14.868  -5.755  1.00  0.00    -0.206 F 
ATOM     86  C   UNL     1      -6.350 -16.867  -4.551  1.00  0.00     0.040 A 
ATOM     87  C   UNL     1      -4.880 -16.946  -2.646  1.00  0.00     0.040 A 
ATOM     88  F   UNL     1      -3.724 -15.019  -1.974  1.00  0.00    -0.206 F 
ATOM     89  C   UNL     1      -5.771 -17.584  -3.506  1.00  0.00     0.006 A 
ENDBRANCH  65  82
ENDBRANCH  39  40
ENDBRANCH  32  34
ENDBRANCH  31  32
ENDBRANCH  30  31
ENDBRANCH  29  30
ENDBRANCH  28  29
ENDBRANCH  27  28
ENDBRANCH  26  27
ENDBRANCH   1  26
TORSDOF 23
