REMARK SMILES C[NH2+][C@]1(C(=O)OCCOCCOCCOC(=O)c2ccc(-c3c4nc(c(-c5c(F)cccc5F)c5ccc([nH]5)c(-c5c(F)cccc5F)c5nc(c(-c6c(F)cccc6F)c6ccc3[nH]6)C=C5)C=C4)cc2)CCC[C@@H]1CCSc1cccc(Cl)c1
REMARK SMILES IDX 10 1 9 2 8 3 7 4 6 5 4 6 5 7 3 8 72 9 75 10 73 11 74 12 2 13
REMARK SMILES IDX 1 14 76 17 77 18 78 19 79 20 80 21 85 22 81 23 83 24 82 25
REMARK SMILES IDX 84 26 11 27 12 28 13 29 14 30 15 31 16 32 17 33 18 34 19 35
REMARK SMILES IDX 71 36 20 37 70 38 21 39 22 40 23 41 64 42 24 43 69 44 63 45
REMARK SMILES IDX 65 46 25 47 68 48 62 49 61 50 26 52 52 53 35 54 51 55 36 56
REMARK SMILES IDX 39 57 50 58 66 59 37 60 38 61 49 63 67 64 40 65 27 66 28 67
REMARK SMILES IDX 33 68 29 69 30 70 32 71 34 72 31 73 53 74 54 75 59 76 55 77
REMARK SMILES IDX 56 78 58 79 60 80 57 81 41 82 42 83 47 84 43 85 44 86 46 87
REMARK SMILES IDX 48 88 45 89
REMARK H PARENT 2 15 2 16 65 51 39 62
REMARK Flexibility Score: inf
ROOT
ATOM      1  C   UNL     1       1.969   1.784  -0.791  1.00  0.00     0.188 C 
ENDROOT
BRANCH   1   2
ATOM      2  O   UNL     1       3.173   1.027  -0.770  1.00  0.00    -0.376 OA
BRANCH   2   3
ATOM      3  C   UNL     1       3.454   0.121  -1.825  1.00  0.00     0.202 C 
BRANCH   3   4
ATOM      4  C   UNL     1       2.446  -0.996  -2.145  1.00  0.00     0.261 C 
BRANCH   4   5
ATOM      5  O   UNL     1       1.048  -0.642  -2.102  1.00  0.00    -0.459 OA
BRANCH   5   6
ATOM      6  C   UNL     1       0.353  -1.089  -1.019  1.00  0.00     0.368 C 
ATOM      7  O   UNL     1       0.864  -1.805  -0.162  1.00  0.00    -0.245 OA
BRANCH   6   8
ATOM      8  C   UNL     1      -1.172  -0.689  -1.019  1.00  0.00     0.197 C 
ATOM      9  C   UNL     1      -1.646   0.495  -1.903  1.00  0.00     0.081 C 
ATOM     10  C   UNL     1      -1.916  -1.803  -1.793  1.00  0.00     0.063 C 
ATOM     11  C   UNL     1      -3.132   0.247  -2.202  1.00  0.00     0.008 C 
ATOM     12  C   UNL     1      -3.327  -1.259  -2.053  1.00  0.00     0.011 C 
BRANCH   8  13
ATOM     13  N   UNL     1      -1.754  -0.430   0.331  1.00  0.00    -0.334 N 
ATOM     14  C   UNL     1      -0.842  -0.376   1.462  1.00  0.00     0.331 C 
ATOM     15  H   UNL     1      -2.237   0.467   0.287  1.00  0.00     0.347 HD
ATOM     16  H   UNL     1      -2.346  -1.240   0.516  1.00  0.00     0.347 HD
ENDBRANCH   8  13
BRANCH  10  17
ATOM     17  C   UNL     1      -1.883  -3.216  -1.220  1.00  0.00     0.022 C 
BRANCH  17  18
ATOM     18  C   UNL     1      -2.001  -4.299  -2.305  1.00  0.00     0.075 C 
BRANCH  18  19
ATOM     19  S   UNL     1      -0.488  -4.566  -3.336  1.00  0.00    -0.126 SA
BRANCH  19  20
ATOM     20  C   UNL     1      -0.480  -3.242  -4.544  1.00  0.00     0.009 A 
ATOM     21  C   UNL     1      -1.637  -2.672  -5.086  1.00  0.00     0.015 A 
ATOM     22  C   UNL     1       0.765  -2.736  -4.944  1.00  0.00     0.035 A 
ATOM     23  C   UNL     1      -1.559  -1.556  -5.928  1.00  0.00     0.003 A 
ATOM     24  C   UNL     1       0.840  -1.639  -5.806  1.00  0.00     0.042 A 
ATOM     25  C   UNL     1      -0.318  -1.033  -6.283  1.00  0.00     0.020 A 
ATOM     26  Cl  UNL     1       2.377  -1.017  -6.275  1.00  0.00    -0.084 Cl
ENDBRANCH  19  20
ENDBRANCH  18  19
ENDBRANCH  17  18
ENDBRANCH  10  17
ENDBRANCH   6   8
ENDBRANCH   5   6
ENDBRANCH   4   5
ENDBRANCH   3   4
ENDBRANCH   2   3
ENDBRANCH   1   2
BRANCH   1  27
ATOM     27  C   UNL     1       1.319   2.178  -2.130  1.00  0.00     0.188 C 
BRANCH  27  28
ATOM     28  O   UNL     1       2.157   2.046  -3.245  1.00  0.00    -0.376 OA
BRANCH  28  29
ATOM     29  C   UNL     1       2.699   3.196  -3.844  1.00  0.00     0.202 C 
BRANCH  29  30
ATOM     30  C   UNL     1       3.154   4.416  -3.021  1.00  0.00     0.261 C 
BRANCH  30  31
ATOM     31  O   UNL     1       2.601   4.604  -1.708  1.00  0.00    -0.460 OA
BRANCH  31  32
ATOM     32  C   UNL     1       1.451   5.308  -1.606  1.00  0.00     0.338 C 
ATOM     33  O   UNL     1       0.800   5.786  -2.526  1.00  0.00    -0.246 OA
BRANCH  32  34
ATOM     34  C   UNL     1       0.979   5.249  -0.202  1.00  0.00     0.060 A 
ATOM     35  C   UNL     1      -0.243   4.625   0.093  1.00  0.00     0.016 A 
ATOM     36  C   UNL     1       1.733   5.828   0.820  1.00  0.00     0.016 A 
ATOM     37  C   UNL     1      -0.732   4.614   1.405  1.00  0.00     0.010 A 
ATOM     38  C   UNL     1       1.232   5.833   2.128  1.00  0.00     0.010 A 
ATOM     39  C   UNL     1      -0.018   5.258   2.424  1.00  0.00    -0.014 A 
BRANCH  39  40
ATOM     40  C   UNL     1      -0.641   5.503   3.753  1.00  0.00     0.031 A 
ATOM     41  C   UNL     1      -1.207   6.870   4.039  1.00  0.00     0.074 A 
ATOM     42  C   UNL     1      -0.694   4.552   4.703  1.00  0.00     0.049 A 
ATOM     43  N   UNL     1      -1.687   7.360   5.154  1.00  0.00    -0.248 NA
ATOM     44  C   UNL     1      -1.225   7.814   2.910  1.00  0.00     0.031 C 
ATOM     45  C   UNL     1      -0.229   3.176   4.553  1.00  0.00     0.029 A 
ATOM     46  N   UNL     1      -1.148   4.616   6.000  1.00  0.00    -0.354 N 
ATOM     47  C   UNL     1      -2.048   8.671   4.866  1.00  0.00     0.074 A 
ATOM     48  C   UNL     1      -1.706   8.909   3.481  1.00  0.00     0.031 C 
ATOM     49  C   UNL     1      -0.401   2.529   5.720  1.00  0.00     0.029 A 
ATOM     50  C   UNL     1      -0.951   3.456   6.710  1.00  0.00     0.049 A 
ATOM     51  H   UNL     1      -1.574   5.416   6.383  1.00  0.00     0.167 HD
ATOM     52  C   UNL     1      -2.619   9.593   5.678  1.00  0.00     0.037 A 
ATOM     53  C   UNL     1      -1.160   3.184   8.014  1.00  0.00     0.037 A 
ATOM     54  C   UNL     1      -2.959   9.362   7.058  1.00  0.00     0.049 A 
ATOM     55  C   UNL     1      -1.716   4.253   8.922  1.00  0.00     0.074 A 
ATOM     56  C   UNL     1      -3.558  10.230   7.955  1.00  0.00     0.029 A 
ATOM     57  N   UNL     1      -2.722   8.181   7.744  1.00  0.00    -0.354 N 
ATOM     58  N   UNL     1      -2.075   5.481   8.637  1.00  0.00    -0.248 NA
ATOM     59  C   UNL     1      -1.898   3.894  10.338  1.00  0.00     0.031 C 
ATOM     60  C   UNL     1      -3.627   9.596   9.199  1.00  0.00     0.029 A 
ATOM     61  C   UNL     1      -3.135   8.309   9.061  1.00  0.00     0.049 A 
ATOM     62  H   UNL     1      -2.319   7.372   7.354  1.00  0.00     0.167 HD
ATOM     63  C   UNL     1      -2.556   6.026   9.824  1.00  0.00     0.074 A 
ATOM     64  C   UNL     1      -2.453   4.992  10.830  1.00  0.00     0.031 C 
ATOM     65  C   UNL     1      -3.042   7.271  10.056  1.00  0.00     0.037 A 
BRANCH  52  66
ATOM     66  C   UNL     1      -2.882  10.955   5.102  1.00  0.00     0.057 A 
ATOM     67  C   UNL     1      -3.872  11.175   4.135  1.00  0.00     0.134 A 
ATOM     68  C   UNL     1      -2.155  12.068   5.544  1.00  0.00     0.134 A 
ATOM     69  F   UNL     1      -4.596  10.151   3.658  1.00  0.00    -0.206 F 
ATOM     70  C   UNL     1      -4.111  12.447   3.611  1.00  0.00     0.040 A 
ATOM     71  C   UNL     1      -2.406  13.349   5.050  1.00  0.00     0.040 A 
ATOM     72  F   UNL     1      -1.197  11.931   6.473  1.00  0.00    -0.206 F 
ATOM     73  C   UNL     1      -3.382  13.539   4.075  1.00  0.00     0.006 A 
ENDBRANCH  52  66
BRANCH  53  74
ATOM     74  C   UNL     1      -0.824   1.843   8.561  1.00  0.00     0.057 A 
ATOM     75  C   UNL     1      -1.821   0.976   9.024  1.00  0.00     0.134 A 
ATOM     76  C   UNL     1       0.504   1.411   8.672  1.00  0.00     0.134 A 
ATOM     77  F   UNL     1      -3.110   1.343   8.975  1.00  0.00    -0.206 F 
ATOM     78  C   UNL     1      -1.511  -0.260   9.595  1.00  0.00     0.040 A 
ATOM     79  C   UNL     1       0.827   0.165   9.213  1.00  0.00     0.040 A 
ATOM     80  F   UNL     1       1.509   2.194   8.252  1.00  0.00    -0.206 F 
ATOM     81  C   UNL     1      -0.183  -0.671   9.685  1.00  0.00     0.006 A 
ENDBRANCH  53  74
BRANCH  65  82
ATOM     82  C   UNL     1      -3.551   7.575  11.439  1.00  0.00     0.057 A 
ATOM     83  C   UNL     1      -2.693   7.710  12.538  1.00  0.00     0.134 A 
ATOM     84  C   UNL     1      -4.919   7.782  11.662  1.00  0.00     0.134 A 
ATOM     85  F   UNL     1      -1.373   7.516  12.399  1.00  0.00    -0.206 F 
ATOM     86  C   UNL     1      -3.180   8.013  13.812  1.00  0.00     0.040 A 
ATOM     87  C   UNL     1      -5.414   8.116  12.924  1.00  0.00     0.040 A 
ATOM     88  F   UNL     1      -5.798   7.681  10.652  1.00  0.00    -0.206 F 
ATOM     89  C   UNL     1      -4.544   8.225  14.005  1.00  0.00     0.006 A 
ENDBRANCH  65  82
ENDBRANCH  39  40
ENDBRANCH  32  34
ENDBRANCH  31  32
ENDBRANCH  30  31
ENDBRANCH  29  30
ENDBRANCH  28  29
ENDBRANCH  27  28
ENDBRANCH   1  27
TORSDOF 22
