REMARK SMILES Cc1ccccc1[C@H](C(=O)NC[C@H]1CC[C@@H](C(=O)OCCOCCOCCOC(=O)c2ccc(-c3c4nc(c(-c5c(F)cccc5F)c5ccc([nH]5)c(-c5c(F)cccc5F)c5nc(c(-c6c(F)cccc6F)c6ccc3[nH]6)C=C5)C=C4)cc2)CC1)[NH+](C)C
REMARK SMILES IDX 23 1 22 2 21 3 20 4 19 5 17 6 18 7 16 8 13 9 14 10 86 11
REMARK SMILES IDX 15 12 85 13 12 14 11 15 9 16 10 17 8 19 7 20 1 21 2 22 3 23
REMARK SMILES IDX 4 24 6 25 5 26 87 27 88 28 89 29 24 31 25 32 26 33 27 34
REMARK SMILES IDX 28 35 29 36 30 37 31 38 32 39 84 40 33 41 83 42 34 43 35 44
REMARK SMILES IDX 36 45 77 46 37 47 82 48 76 49 78 50 38 51 81 52 75 53 74 54
REMARK SMILES IDX 39 56 65 57 48 58 64 59 49 60 52 61 63 62 79 63 50 64 51 65
REMARK SMILES IDX 62 67 80 68 53 69 40 70 41 71 46 72 42 73 43 74 45 75 47 76
REMARK SMILES IDX 44 77 66 78 67 79 72 80 68 81 69 82 71 83 73 84 70 85 54 86
REMARK SMILES IDX 55 87 60 88 56 89 57 90 59 91 61 92 58 93
REMARK H PARENT 11 18 87 30 78 55 52 66
REMARK Flexibility Score: inf
ROOT
ATOM      1  C   UNL     1       4.522  -2.202  -6.252  1.00  0.00     0.188 C 
ENDROOT
BRANCH   1   2
ATOM      2  O   UNL     1       4.836  -0.982  -5.621  1.00  0.00    -0.376 OA
BRANCH   2   3
ATOM      3  C   UNL     1       4.116   0.172  -6.059  1.00  0.00     0.202 C 
BRANCH   3   4
ATOM      4  C   UNL     1       2.559   0.091  -6.306  1.00  0.00     0.261 C 
BRANCH   4   5
ATOM      5  O   UNL     1       1.627   1.337  -6.964  1.00  0.00    -0.463 OA
BRANCH   5   6
ATOM      6  C   UNL     1       0.567   2.255  -7.098  1.00  0.00     0.309 C 
ATOM      7  O   UNL     1       0.722   3.045  -8.044  1.00  0.00    -0.252 OA
BRANCH   6   8
ATOM      8  C   UNL     1      -0.922   2.525  -6.245  1.00  0.00     0.099 C 
ATOM      9  C   UNL     1      -2.523   2.939  -3.428  1.00  0.00     0.008 C 
ATOM     10  C   UNL     1      -2.086   4.114  -4.358  1.00  0.00     0.006 C 
ATOM     11  C   UNL     1      -2.293   1.583  -4.097  1.00  0.00     0.006 C 
ATOM     12  C   UNL     1      -1.110   3.923  -5.582  1.00  0.00     0.015 C 
ATOM     13  C   UNL     1      -2.045   1.598  -5.647  1.00  0.00     0.015 C 
BRANCH   9  14
ATOM     14  C   UNL     1      -2.296   3.073  -1.808  1.00  0.00     0.119 C 
BRANCH  14  15
ATOM     15  N   UNL     1      -1.665   1.944  -1.056  1.00  0.00    -0.350 N 
ATOM     16  C   UNL     1      -0.916   1.679   0.067  1.00  0.00     0.283 C 
ATOM     17  O   UNL     1      -1.166   0.520   0.473  1.00  0.00    -0.268 OA
ATOM     18  H   UNL     1      -1.850   1.100  -1.527  1.00  0.00     0.163 HD
BRANCH  16  19
ATOM     19  C   UNL     1       0.203   2.490   0.908  1.00  0.00     0.305 C 
BRANCH  19  20
ATOM     20  C   UNL     1       1.585   2.823   0.283  1.00  0.00     0.022 A 
ATOM     21  C   UNL     1       2.360   0.363   0.256  1.00  0.00     0.045 C 
ATOM     22  C   UNL     1       2.529   1.824  -0.073  1.00  0.00    -0.041 A 
ATOM     23  C   UNL     1       3.707   2.169  -0.776  1.00  0.00     0.004 A 
ATOM     24  C   UNL     1       4.039   3.494  -1.010  1.00  0.00     0.000 A 
ATOM     25  C   UNL     1       2.006   4.157   0.106  1.00  0.00     0.011 A 
ATOM     26  C   UNL     1       3.212   4.491  -0.526  1.00  0.00     0.001 A 
ENDBRANCH  19  20
BRANCH  19  27
ATOM     27  N   UNL     1      -0.310   3.357   2.004  1.00  0.00    -0.326 N 
ATOM     28  C   UNL     1       0.712   3.951   2.867  1.00  0.00     0.333 C 
ATOM     29  C   UNL     1      -1.395   4.253   1.692  1.00  0.00     0.333 C 
ATOM     30  H   UNL     1      -0.771   2.651   2.578  1.00  0.00     0.348 HD
ENDBRANCH  19  27
ENDBRANCH  16  19
ENDBRANCH  14  15
ENDBRANCH   9  14
ENDBRANCH   6   8
ENDBRANCH   5   6
ENDBRANCH   4   5
ENDBRANCH   3   4
ENDBRANCH   2   3
ENDBRANCH   1   2
BRANCH   1  31
ATOM     31  C   UNL     1       3.379  -2.917  -5.531  1.00  0.00     0.188 C 
BRANCH  31  32
ATOM     32  O   UNL     1       3.125  -2.318  -4.263  1.00  0.00    -0.376 OA
BRANCH  32  33
ATOM     33  C   UNL     1       3.489  -3.111  -3.137  1.00  0.00     0.202 C 
BRANCH  33  34
ATOM     34  C   UNL     1       2.392  -4.138  -2.839  1.00  0.00     0.261 C 
BRANCH  34  35
ATOM     35  O   UNL     1       1.206  -3.424  -2.432  1.00  0.00    -0.460 OA
BRANCH  35  36
ATOM     36  C   UNL     1       0.413  -3.062  -3.482  1.00  0.00     0.338 C 
ATOM     37  O   UNL     1       0.095  -3.761  -4.399  1.00  0.00    -0.246 OA
BRANCH  36  38
ATOM     38  C   UNL     1       0.290  -1.567  -3.483  1.00  0.00     0.060 A 
ATOM     39  C   UNL     1      -0.026  -0.987  -4.671  1.00  0.00     0.016 A 
ATOM     40  C   UNL     1       0.737  -0.714  -2.488  1.00  0.00     0.016 A 
ATOM     41  C   UNL     1       0.317   0.376  -4.870  1.00  0.00     0.010 A 
ATOM     42  C   UNL     1       1.082   0.653  -2.762  1.00  0.00     0.010 A 
ATOM     43  C   UNL     1       1.004   1.272  -4.000  1.00  0.00    -0.014 A 
BRANCH  43  44
ATOM     44  C   UNL     1       1.798   2.666  -4.219  1.00  0.00     0.031 A 
ATOM     45  C   UNL     1       1.361   3.962  -3.565  1.00  0.00     0.074 A 
ATOM     46  C   UNL     1       2.949   3.005  -4.901  1.00  0.00     0.049 A 
ATOM     47  N   UNL     1       1.605   5.191  -3.945  1.00  0.00    -0.248 NA
ATOM     48  C   UNL     1       0.486   3.932  -2.439  1.00  0.00     0.031 C 
ATOM     49  C   UNL     1       3.968   3.979  -4.449  1.00  0.00     0.029 A 
ATOM     50  N   UNL     1       3.473   2.654  -6.134  1.00  0.00    -0.354 N 
ATOM     51  C   UNL     1       1.175   6.041  -2.941  1.00  0.00     0.074 A 
ATOM     52  C   UNL     1       0.331   5.218  -2.129  1.00  0.00     0.031 C 
ATOM     53  C   UNL     1       4.941   4.122  -5.362  1.00  0.00     0.029 A 
ATOM     54  C   UNL     1       4.599   3.351  -6.540  1.00  0.00     0.049 A 
ATOM     55  H   UNL     1       3.069   1.950  -6.690  1.00  0.00     0.167 HD
ATOM     56  C   UNL     1       1.726   7.274  -2.713  1.00  0.00     0.037 A 
ATOM     57  C   UNL     1       5.014   3.528  -7.827  1.00  0.00     0.037 A 
ATOM     58  C   UNL     1       2.798   7.579  -3.656  1.00  0.00     0.049 A 
ATOM     59  C   UNL     1       4.957   4.991  -8.150  1.00  0.00     0.074 A 
ATOM     60  C   UNL     1       4.177   7.580  -3.518  1.00  0.00     0.029 A 
ATOM     61  N   UNL     1       2.547   7.712  -5.019  1.00  0.00    -0.354 N 
ATOM     62  N   UNL     1       4.659   5.885  -7.256  1.00  0.00    -0.248 NA
ATOM     63  C   UNL     1       5.111   5.567  -9.480  1.00  0.00     0.031 C 
ATOM     64  C   UNL     1       4.756   7.756  -4.792  1.00  0.00     0.029 A 
ATOM     65  C   UNL     1       3.734   7.852  -5.719  1.00  0.00     0.049 A 
ATOM     66  H   UNL     1       1.651   7.707  -5.427  1.00  0.00     0.167 HD
ATOM     67  C   UNL     1       4.370   7.062  -7.871  1.00  0.00     0.074 A 
ATOM     68  C   UNL     1       4.762   6.846  -9.249  1.00  0.00     0.031 C 
ATOM     69  C   UNL     1       3.758   8.056  -7.166  1.00  0.00     0.037 A 
BRANCH  56  70
ATOM     70  C   UNL     1       1.562   7.998  -1.365  1.00  0.00     0.057 A 
ATOM     71  C   UNL     1       2.595   8.782  -0.810  1.00  0.00     0.134 A 
ATOM     72  C   UNL     1       0.441   7.883  -0.522  1.00  0.00     0.134 A 
ATOM     73  F   UNL     1       3.642   9.191  -1.535  1.00  0.00    -0.206 F 
ATOM     74  C   UNL     1       2.605   9.211   0.527  1.00  0.00     0.040 A 
ATOM     75  C   UNL     1       0.456   8.251   0.836  1.00  0.00     0.040 A 
ATOM     76  F   UNL     1      -0.737   7.445  -0.988  1.00  0.00    -0.206 F 
ATOM     77  C   UNL     1       1.560   8.889   1.377  1.00  0.00     0.006 A 
ENDBRANCH  56  70
BRANCH  57  78
ATOM     78  C   UNL     1       4.772   2.432  -8.813  1.00  0.00     0.057 A 
ATOM     79  C   UNL     1       5.639   1.325  -8.843  1.00  0.00     0.134 A 
ATOM     80  C   UNL     1       3.563   2.284  -9.493  1.00  0.00     0.134 A 
ATOM     81  F   UNL     1       6.825   1.382  -8.217  1.00  0.00    -0.206 F 
ATOM     82  C   UNL     1       5.240   0.077  -9.355  1.00  0.00     0.040 A 
ATOM     83  C   UNL     1       3.138   1.040  -9.986  1.00  0.00     0.040 A 
ATOM     84  F   UNL     1       2.742   3.331  -9.627  1.00  0.00    -0.206 F 
ATOM     85  C   UNL     1       3.959  -0.081  -9.876  1.00  0.00     0.006 A 
ENDBRANCH  57  78
BRANCH  69  86
ATOM     86  C   UNL     1       3.219   9.326  -7.751  1.00  0.00     0.057 A 
ATOM     87  C   UNL     1       2.757   9.461  -9.066  1.00  0.00     0.134 A 
ATOM     88  C   UNL     1       3.061  10.466  -6.934  1.00  0.00     0.134 A 
ATOM     89  F   UNL     1       2.729   8.425  -9.915  1.00  0.00    -0.206 F 
ATOM     90  C   UNL     1       2.248  10.668  -9.559  1.00  0.00     0.040 A 
ATOM     91  C   UNL     1       2.503  11.657  -7.399  1.00  0.00     0.040 A 
ATOM     92  F   UNL     1       3.429  10.466  -5.643  1.00  0.00    -0.206 F 
ATOM     93  C   UNL     1       2.114  11.769  -8.723  1.00  0.00     0.006 A 
ENDBRANCH  69  86
ENDBRANCH  43  44
ENDBRANCH  36  38
ENDBRANCH  35  36
ENDBRANCH  34  35
ENDBRANCH  33  34
ENDBRANCH  32  33
ENDBRANCH  31  32
ENDBRANCH   1  31
TORSDOF 22
