REMARK SMILES C[C@@H]1CN(S(=O)(=O)[C@@H](C)C(=O)OCCOCCOCCOC(=O)c2ccc(-c3c4nc(c(-c5c(F)cccc5F)c5ccc([nH]5)c(-c5c(F)cccc5F)c5nc(c(-c6c(F)cccc6F)c6ccc3[nH]6)C=C5)C=C4)cc2)CC[C@@H]1[NH3+]
REMARK SMILES IDX 16 1 15 2 14 3 13 4 12 5 10 6 11 7 8 8 9 9 5 10 6 11 7 12
REMARK SMILES IDX 4 13 1 14 2 15 3 16 80 17 79 18 78 19 81 20 17 24 18 25
REMARK SMILES IDX 19 26 20 27 21 28 22 29 23 30 24 31 25 32 77 33 26 34 76 35
REMARK SMILES IDX 27 36 28 37 29 38 70 39 30 40 75 41 69 42 71 43 31 44 74 45
REMARK SMILES IDX 68 46 67 47 32 49 58 50 41 51 57 52 42 53 45 54 56 55 72 56
REMARK SMILES IDX 43 57 44 58 55 60 73 61 46 62 33 63 34 64 39 65 35 66 36 67
REMARK SMILES IDX 38 68 40 69 37 70 59 71 60 72 65 73 61 74 62 75 64 76 66 77
REMARK SMILES IDX 63 78 47 79 48 80 53 81 49 82 50 83 52 84 54 85 51 86
REMARK H PARENT 81 21 81 22 81 23 71 48 45 59
REMARK Flexibility Score: inf
ROOT
ATOM      1  C   UNL     1      -3.523  -3.240   3.650  1.00  0.00     0.188 C 
ENDROOT
BRANCH   1   2
ATOM      2  O   UNL     1      -2.372  -4.017   3.965  1.00  0.00    -0.376 OA
BRANCH   2   3
ATOM      3  C   UNL     1      -1.204  -3.769   3.172  1.00  0.00     0.202 C 
BRANCH   3   4
ATOM      4  C   UNL     1      -1.424  -3.672   1.655  1.00  0.00     0.261 C 
BRANCH   4   5
ATOM      5  O   UNL     1      -1.973  -2.395   1.214  1.00  0.00    -0.462 OA
BRANCH   5   6
ATOM      6  C   UNL     1      -2.971  -2.426   0.309  1.00  0.00     0.325 C 
ATOM      7  O   UNL     1      -3.546  -3.476   0.011  1.00  0.00    -0.251 OA
BRANCH   6   8
ATOM      8  C   UNL     1      -3.297  -1.174  -0.448  1.00  0.00     0.230 C 
ATOM      9  C   UNL     1      -2.849  -1.281  -1.897  1.00  0.00     0.039 C 
BRANCH   8  10
ATOM     10  S   UNL     1      -3.061   0.445   0.246  1.00  0.00     0.227 S 
ATOM     11  O   UNL     1      -3.493   0.456   1.626  1.00  0.00    -0.211 OA
ATOM     12  O   UNL     1      -3.725   1.350  -0.679  1.00  0.00    -0.211 OA
BRANCH  10  13
ATOM     13  N   UNL     1      -1.403   0.904   0.208  1.00  0.00    -0.200 NA
ATOM     14  C   UNL     1       1.533   0.121  -0.222  1.00  0.00     0.015 C 
ATOM     15  C   UNL     1       0.927   0.597   1.104  1.00  0.00     0.059 C 
ATOM     16  C   UNL     1      -0.544   0.193   1.194  1.00  0.00     0.111 C 
ATOM     17  C   UNL     1       1.044   2.103   1.362  1.00  0.00     0.186 C 
ATOM     18  C   UNL     1       0.181   2.883   0.373  1.00  0.00     0.082 C 
ATOM     19  C   UNL     1      -1.272   2.404   0.400  1.00  0.00     0.108 C 
BRANCH  17  20
ATOM     20  N   UNL     1       2.439   2.546   1.315  1.00  0.00    -0.355 N 
ATOM     21  H   UNL     1       2.819   2.373   0.384  1.00  0.00     0.344 HD
ATOM     22  H   UNL     1       2.983   2.030   2.006  1.00  0.00     0.344 HD
ATOM     23  H   UNL     1       2.486   3.544   1.521  1.00  0.00     0.344 HD
ENDBRANCH  17  20
ENDBRANCH  10  13
ENDBRANCH   8  10
ENDBRANCH   6   8
ENDBRANCH   5   6
ENDBRANCH   4   5
ENDBRANCH   3   4
ENDBRANCH   2   3
ENDBRANCH   1   2
BRANCH   1  24
ATOM     24  C   UNL     1      -3.403  -1.742   3.948  1.00  0.00     0.188 C 
BRANCH  24  25
ATOM     25  O   UNL     1      -2.059  -1.301   3.914  1.00  0.00    -0.376 OA
BRANCH  25  26
ATOM     26  C   UNL     1      -1.603  -0.278   4.789  1.00  0.00     0.202 C 
BRANCH  26  27
ATOM     27  C   UNL     1      -2.031  -0.309   6.263  1.00  0.00     0.261 C 
BRANCH  27  28
ATOM     28  O   UNL     1      -3.440  -0.184   6.505  1.00  0.00    -0.460 OA
BRANCH  28  29
ATOM     29  C   UNL     1      -4.115   0.807   5.877  1.00  0.00     0.338 C 
ATOM     30  O   UNL     1      -3.645   1.807   5.364  1.00  0.00    -0.246 OA
BRANCH  29  31
ATOM     31  C   UNL     1      -5.514   0.331   5.724  1.00  0.00     0.060 A 
ATOM     32  C   UNL     1      -6.176   0.544   4.508  1.00  0.00     0.016 A 
ATOM     33  C   UNL     1      -6.123  -0.426   6.732  1.00  0.00     0.016 A 
ATOM     34  C   UNL     1      -7.464   0.030   4.315  1.00  0.00     0.010 A 
ATOM     35  C   UNL     1      -7.401  -0.945   6.536  1.00  0.00     0.010 A 
ATOM     36  C   UNL     1      -8.093  -0.690   5.341  1.00  0.00    -0.014 A 
BRANCH  36  37
ATOM     37  C   UNL     1      -9.543  -0.993   5.282  1.00  0.00     0.031 A 
ATOM     38  C   UNL     1     -10.479  -0.066   6.008  1.00  0.00     0.074 A 
ATOM     39  C   UNL     1     -10.023  -2.077   4.648  1.00  0.00     0.049 A 
ATOM     40  N   UNL     1     -11.772  -0.152   6.183  1.00  0.00    -0.248 NA
ATOM     41  C   UNL     1      -9.862   1.114   6.637  1.00  0.00     0.031 C 
ATOM     42  C   UNL     1      -9.228  -3.043   3.893  1.00  0.00     0.029 A 
ATOM     43  N   UNL     1     -11.309  -2.550   4.554  1.00  0.00    -0.354 N 
ATOM     44  C   UNL     1     -12.119   0.952   6.950  1.00  0.00     0.074 A 
ATOM     45  C   UNL     1     -10.899   1.672   7.239  1.00  0.00     0.031 C 
ATOM     46  C   UNL     1     -10.047  -3.996   3.410  1.00  0.00     0.029 A 
ATOM     47  C   UNL     1     -11.415  -3.725   3.850  1.00  0.00     0.049 A 
ATOM     48  H   UNL     1     -12.082  -2.090   4.953  1.00  0.00     0.167 HD
ATOM     49  C   UNL     1     -13.346   1.339   7.371  1.00  0.00     0.037 A 
ATOM     50  C   UNL     1     -12.494  -4.495   3.605  1.00  0.00     0.037 A 
ATOM     51  C   UNL     1     -14.559   0.625   7.084  1.00  0.00     0.049 A 
ATOM     52  C   UNL     1     -13.840  -4.082   4.145  1.00  0.00     0.074 A 
ATOM     53  C   UNL     1     -15.857   0.957   7.429  1.00  0.00     0.029 A 
ATOM     54  N   UNL     1     -14.621  -0.576   6.394  1.00  0.00    -0.354 N 
ATOM     55  N   UNL     1     -14.169  -3.011   4.827  1.00  0.00    -0.248 NA
ATOM     56  C   UNL     1     -14.967  -4.990   3.881  1.00  0.00     0.031 C 
ATOM     57  C   UNL     1     -16.699  -0.073   6.996  1.00  0.00     0.029 A 
ATOM     58  C   UNL     1     -15.932  -1.017   6.332  1.00  0.00     0.049 A 
ATOM     59  H   UNL     1     -13.847  -1.045   6.006  1.00  0.00     0.167 HD
ATOM     60  C   UNL     1     -15.540  -3.098   5.041  1.00  0.00     0.074 A 
ATOM     61  C   UNL     1     -15.983  -4.324   4.413  1.00  0.00     0.031 C 
ATOM     62  C   UNL     1     -16.360  -2.236   5.694  1.00  0.00     0.037 A 
BRANCH  49  63
ATOM     63  C   UNL     1     -13.418   2.576   8.217  1.00  0.00     0.057 A 
ATOM     64  C   UNL     1     -13.174   3.852   7.691  1.00  0.00     0.134 A 
ATOM     65  C   UNL     1     -13.730   2.487   9.579  1.00  0.00     0.134 A 
ATOM     66  F   UNL     1     -12.849   4.004   6.398  1.00  0.00    -0.206 F 
ATOM     67  C   UNL     1     -13.204   4.991   8.497  1.00  0.00     0.040 A 
ATOM     68  C   UNL     1     -13.793   3.622  10.388  1.00  0.00     0.040 A 
ATOM     69  F   UNL     1     -13.976   1.296  10.146  1.00  0.00    -0.206 F 
ATOM     70  C   UNL     1     -13.520   4.877   9.850  1.00  0.00     0.006 A 
ENDBRANCH  49  63
BRANCH  50  71
ATOM     71  C   UNL     1     -12.361  -5.737   2.800  1.00  0.00     0.057 A 
ATOM     72  C   UNL     1     -12.925  -5.829   1.522  1.00  0.00     0.134 A 
ATOM     73  C   UNL     1     -11.701  -6.867   3.295  1.00  0.00     0.134 A 
ATOM     74  F   UNL     1     -13.596  -4.789   1.005  1.00  0.00    -0.206 F 
ATOM     75  C   UNL     1     -12.850  -7.003   0.770  1.00  0.00     0.040 A 
ATOM     76  C   UNL     1     -11.598  -8.040   2.545  1.00  0.00     0.040 A 
ATOM     77  F   UNL     1     -11.145  -6.847   4.515  1.00  0.00    -0.206 F 
ATOM     78  C   UNL     1     -12.179  -8.112   1.280  1.00  0.00     0.006 A 
ENDBRANCH  50  71
BRANCH  62  79
ATOM     79  C   UNL     1     -17.826  -2.562   5.725  1.00  0.00     0.057 A 
ATOM     80  C   UNL     1     -18.340  -3.600   6.511  1.00  0.00     0.134 A 
ATOM     81  C   UNL     1     -18.740  -1.789   4.997  1.00  0.00     0.134 A 
ATOM     82  F   UNL     1     -17.518  -4.385   7.224  1.00  0.00    -0.206 F 
ATOM     83  C   UNL     1     -19.709  -3.872   6.556  1.00  0.00     0.040 A 
ATOM     84  C   UNL     1     -20.113  -2.033   5.055  1.00  0.00     0.040 A 
ATOM     85  F   UNL     1     -18.316  -0.771   4.232  1.00  0.00    -0.206 F 
ATOM     86  C   UNL     1     -20.601  -3.081   5.832  1.00  0.00     0.006 A 
ENDBRANCH  62  79
ENDBRANCH  36  37
ENDBRANCH  29  31
ENDBRANCH  28  29
ENDBRANCH  27  28
ENDBRANCH  26  27
ENDBRANCH  25  26
ENDBRANCH  24  25
ENDBRANCH   1  24
TORSDOF 20
