REMARK SMILES C[NH2+][C@@]1(C(=O)OCCOCCOCCOC(=O)c2ccc(-c3c4nc(c(-c5c(F)cccc5F)c5ccc([nH]5)c(-c5c(F)cccc5F)c5nc(c(-c6c(F)cccc6F)c6ccc3[nH]6)C=C5)C=C4)cc2)CC[C@H]([NH+]2CC[NH+](C)CC2)C1
REMARK SMILES IDX 11 1 10 2 9 3 8 4 7 5 6 6 4 7 5 8 3 9 72 10 82 11 73 12
REMARK SMILES IDX 74 13 2 14 1 15 75 18 76 19 81 20 77 22 80 23 78 24 79 25
REMARK SMILES IDX 12 27 13 28 14 29 15 30 16 31 17 32 18 33 19 34 71 35 20 36
REMARK SMILES IDX 70 37 21 38 22 39 23 40 64 41 24 42 69 43 63 44 65 45 25 46
REMARK SMILES IDX 68 47 62 48 61 49 26 51 52 52 35 53 51 54 36 55 39 56 50 57
REMARK SMILES IDX 66 58 37 59 38 60 49 62 67 63 40 64 27 65 28 66 33 67 29 68
REMARK SMILES IDX 30 69 32 70 34 71 31 72 53 73 54 74 59 75 55 76 56 77 58 78
REMARK SMILES IDX 60 79 57 80 41 81 42 82 47 83 43 84 44 85 46 86 48 87 45 88
REMARK H PARENT 2 16 2 17 75 21 78 26 65 50 39 61
REMARK Flexibility Score: inf
ROOT
ATOM      1  C   UNL     1      -1.064  -1.244   2.483  1.00  0.00     0.188 C 
ENDROOT
BRANCH   1   2
ATOM      2  C   UNL     1      -0.236  -0.507   3.543  1.00  0.00     0.188 C 
BRANCH   2   3
ATOM      3  O   UNL     1      -0.901   0.027   4.673  1.00  0.00    -0.376 OA
BRANCH   3   4
ATOM      4  C   UNL     1      -1.996   0.909   4.440  1.00  0.00     0.202 C 
BRANCH   4   5
ATOM      5  C   UNL     1      -1.763   2.067   3.463  1.00  0.00     0.261 C 
BRANCH   5   6
ATOM      6  O   UNL     1      -1.703   1.617   2.088  1.00  0.00    -0.459 OA
BRANCH   6   7
ATOM      7  C   UNL     1      -1.126   2.490   1.224  1.00  0.00     0.368 C 
ATOM      8  O   UNL     1      -0.686   3.582   1.581  1.00  0.00    -0.245 OA
BRANCH   7   9
ATOM      9  C   UNL     1      -0.957   1.970  -0.250  1.00  0.00     0.200 C 
ATOM     10  C   UNL     1      -1.523   3.057  -1.187  1.00  0.00     0.087 C 
ATOM     11  C   UNL     1      -1.771   0.744  -0.710  1.00  0.00     0.146 C 
ATOM     12  C   UNL     1      -3.020   2.773  -1.241  1.00  0.00     0.072 C 
ATOM     13  C   UNL     1      -3.139   1.245  -1.220  1.00  0.00     0.191 C 
BRANCH   9  14
ATOM     14  N   UNL     1       0.508   1.901  -0.514  1.00  0.00    -0.334 N 
ATOM     15  C   UNL     1       1.132   0.600  -0.362  1.00  0.00     0.331 C 
ATOM     16  H   UNL     1       0.665   2.209  -1.474  1.00  0.00     0.347 HD
ATOM     17  H   UNL     1       0.939   2.492   0.196  1.00  0.00     0.347 HD
ENDBRANCH   9  14
BRANCH  13  18
ATOM     18  N   UNL     1      -4.314   0.584  -0.637  1.00  0.00    -0.323 N 
ATOM     19  C   UNL     1      -5.606   1.001  -1.203  1.00  0.00     0.324 C 
ATOM     20  C   UNL     1      -4.445   0.555   0.825  1.00  0.00     0.324 C 
ATOM     21  H   UNL     1      -4.090  -0.369  -0.923  1.00  0.00     0.348 HD
ATOM     22  C   UNL     1      -6.198   2.300  -0.605  1.00  0.00     0.324 C 
ATOM     23  C   UNL     1      -4.941   1.865   1.462  1.00  0.00     0.324 C 
ATOM     24  N   UNL     1      -6.187   2.378   0.870  1.00  0.00    -0.328 N 
ATOM     25  C   UNL     1      -6.425   3.754   1.308  1.00  0.00     0.333 C 
ATOM     26  H   UNL     1      -6.942   1.777   1.201  1.00  0.00     0.348 HD
ENDBRANCH  13  18
ENDBRANCH   7   9
ENDBRANCH   6   7
ENDBRANCH   5   6
ENDBRANCH   4   5
ENDBRANCH   3   4
ENDBRANCH   2   3
ENDBRANCH   1   2
BRANCH   1  27
ATOM     27  O   UNL     1      -2.419  -1.575   2.671  1.00  0.00    -0.376 OA
BRANCH  27  28
ATOM     28  C   UNL     1      -2.825  -2.483   3.678  1.00  0.00     0.202 C 
BRANCH  28  29
ATOM     29  C   UNL     1      -2.032  -3.754   4.024  1.00  0.00     0.261 C 
BRANCH  29  30
ATOM     30  O   UNL     1      -0.611  -3.639   3.932  1.00  0.00    -0.460 OA
BRANCH  30  31
ATOM     31  C   UNL     1      -0.046  -4.312   2.897  1.00  0.00     0.338 C 
ATOM     32  O   UNL     1      -0.598  -5.032   2.081  1.00  0.00    -0.246 OA
BRANCH  31  33
ATOM     33  C   UNL     1       1.345  -3.847   2.757  1.00  0.00     0.060 A 
ATOM     34  C   UNL     1       1.730  -3.267   1.538  1.00  0.00     0.016 A 
ATOM     35  C   UNL     1       2.245  -3.953   3.816  1.00  0.00     0.016 A 
ATOM     36  C   UNL     1       3.028  -2.795   1.373  1.00  0.00     0.010 A 
ATOM     37  C   UNL     1       3.557  -3.514   3.636  1.00  0.00     0.010 A 
ATOM     38  C   UNL     1       3.956  -2.958   2.408  1.00  0.00    -0.014 A 
BRANCH  38  39
ATOM     39  C   UNL     1       5.396  -2.772   2.129  1.00  0.00     0.031 A 
ATOM     40  C   UNL     1       6.182  -3.974   1.692  1.00  0.00     0.074 A 
ATOM     41  C   UNL     1       5.988  -1.573   2.255  1.00  0.00     0.049 A 
ATOM     42  N   UNL     1       7.466  -4.097   1.488  1.00  0.00    -0.248 NA
ATOM     43  C   UNL     1       5.409  -5.205   1.453  1.00  0.00     0.031 C 
ATOM     44  C   UNL     1       5.316  -0.325   2.609  1.00  0.00     0.029 A 
ATOM     45  N   UNL     1       7.305  -1.220   2.106  1.00  0.00    -0.354 N 
ATOM     46  C   UNL     1       7.657  -5.419   1.106  1.00  0.00     0.074 A 
ATOM     47  C   UNL     1       6.362  -6.062   1.123  1.00  0.00     0.031 C 
ATOM     48  C   UNL     1       6.232   0.658   2.670  1.00  0.00     0.029 A 
ATOM     49  C   UNL     1       7.555   0.098   2.397  1.00  0.00     0.049 A 
ATOM     50  H   UNL     1       8.004  -1.851   1.819  1.00  0.00     0.167 HD
ATOM     51  C   UNL     1       8.810  -6.042   0.773  1.00  0.00     0.037 A 
ATOM     52  C   UNL     1       8.727   0.760   2.466  1.00  0.00     0.037 A 
ATOM     53  C   UNL     1      10.097  -5.405   0.774  1.00  0.00     0.049 A 
ATOM     54  C   UNL     1      10.010   0.020   2.182  1.00  0.00     0.074 A 
ATOM     55  C   UNL     1      11.330  -5.952   0.467  1.00  0.00     0.029 A 
ATOM     56  N   UNL     1      10.316  -4.078   1.108  1.00  0.00    -0.354 N 
ATOM     57  N   UNL     1      10.186  -1.230   1.826  1.00  0.00    -0.248 NA
ATOM     58  C   UNL     1      11.259   0.784   2.319  1.00  0.00     0.031 C 
ATOM     59  C   UNL     1      12.302  -4.964   0.657  1.00  0.00     0.029 A 
ATOM     60  C   UNL     1      11.668  -3.791   1.035  1.00  0.00     0.049 A 
ATOM     61  H   UNL     1       9.614  -3.435   1.359  1.00  0.00     0.167 HD
ATOM     62  C   UNL     1      11.557  -1.394   1.669  1.00  0.00     0.074 A 
ATOM     63  C   UNL     1      12.167  -0.113   1.959  1.00  0.00     0.031 C 
ATOM     64  C   UNL     1      12.252  -2.504   1.316  1.00  0.00     0.037 A 
BRANCH  51  65
ATOM     65  C   UNL     1       8.721  -7.496   0.424  1.00  0.00     0.057 A 
ATOM     66  C   UNL     1       8.162  -7.934  -0.784  1.00  0.00     0.134 A 
ATOM     67  C   UNL     1       9.198  -8.470   1.309  1.00  0.00     0.134 A 
ATOM     68  F   UNL     1       7.665  -7.051  -1.663  1.00  0.00    -0.206 F 
ATOM     69  C   UNL     1       8.061  -9.293  -1.088  1.00  0.00     0.040 A 
ATOM     70  C   UNL     1       9.125  -9.829   1.005  1.00  0.00     0.040 A 
ATOM     71  F   UNL     1       9.740  -8.115   2.484  1.00  0.00    -0.206 F 
ATOM     72  C   UNL     1       8.549 -10.244  -0.194  1.00  0.00     0.006 A 
ENDBRANCH  51  65
BRANCH  52  73
ATOM     73  C   UNL     1       8.756   2.194   2.850  1.00  0.00     0.057 A 
ATOM     74  C   UNL     1       9.132   3.183   1.934  1.00  0.00     0.134 A 
ATOM     75  C   UNL     1       8.449   2.605   4.153  1.00  0.00     0.134 A 
ATOM     76  F   UNL     1       9.465   2.848   0.679  1.00  0.00    -0.206 F 
ATOM     77  C   UNL     1       9.221   4.526   2.303  1.00  0.00     0.040 A 
ATOM     78  C   UNL     1       8.509   3.948   4.529  1.00  0.00     0.040 A 
ATOM     79  F   UNL     1       8.086   1.707   5.079  1.00  0.00    -0.206 F 
ATOM     80  C   UNL     1       8.905   4.912   3.604  1.00  0.00     0.006 A 
ENDBRANCH  52  73
BRANCH  64  81
ATOM     81  C   UNL     1      13.741  -2.374   1.182  1.00  0.00     0.057 A 
ATOM     82  C   UNL     1      14.577  -2.265   2.299  1.00  0.00     0.134 A 
ATOM     83  C   UNL     1      14.346  -2.416  -0.081  1.00  0.00     0.134 A 
ATOM     84  F   UNL     1      14.059  -2.210   3.535  1.00  0.00    -0.206 F 
ATOM     85  C   UNL     1      15.964  -2.184   2.164  1.00  0.00     0.040 A 
ATOM     86  C   UNL     1      15.733  -2.361  -0.227  1.00  0.00     0.040 A 
ATOM     87  F   UNL     1      13.601  -2.530  -1.190  1.00  0.00    -0.206 F 
ATOM     88  C   UNL     1      16.546  -2.240   0.898  1.00  0.00     0.006 A 
ENDBRANCH  64  81
ENDBRANCH  38  39
ENDBRANCH  31  33
ENDBRANCH  30  31
ENDBRANCH  29  30
ENDBRANCH  28  29
ENDBRANCH  27  28
ENDBRANCH   1  27
TORSDOF 19
