REMARK SMILES Cc1ccc(N2C(=O)C[C@H](Sc3ccccc3C(=O)OCCOCCOCCOC(=O)c3ccc(-c4c5nc(c(-c6c(F)cccc6F)c6ccc([nH]6)c(-c6c(F)cccc6F)c6nc(c(-c7c(F)cccc7F)c7ccc4[nH]7)C=C6)C=C5)cc3)C2=O)cc1
REMARK SMILES IDX 24 1 23 2 22 3 21 4 20 5 18 6 19 7 17 8 12 9 13 10 14 11
REMARK SMILES IDX 16 12 15 13 11 14 10 15 6 16 7 17 86 18 8 19 9 20 87 21 5 22
REMARK SMILES IDX 1 23 2 24 3 25 89 26 4 27 88 28 25 29 26 30 27 31 28 32
REMARK SMILES IDX 29 33 30 34 31 35 32 36 33 37 85 38 34 39 84 40 35 41 36 42
REMARK SMILES IDX 37 43 78 44 38 45 83 46 77 47 79 48 39 49 82 50 76 51 75 52
REMARK SMILES IDX 40 54 66 55 49 56 65 57 50 58 53 59 64 60 80 61 51 62 52 63
REMARK SMILES IDX 63 65 81 66 54 67 41 68 42 69 47 70 43 71 44 72 46 73 48 74
REMARK SMILES IDX 45 75 67 76 68 77 73 78 69 79 70 80 72 81 74 82 71 83 55 84
REMARK SMILES IDX 56 85 61 86 57 87 58 88 60 89 62 90 59 91
REMARK H PARENT 79 53 53 64
REMARK Flexibility Score: inf
ROOT
ATOM      1  C   UNL     1      -4.378  -0.711  -3.284  1.00  0.00     0.188 C 
ENDROOT
BRANCH   1   2
ATOM      2  O   UNL     1      -5.554  -0.379  -3.988  1.00  0.00    -0.376 OA
BRANCH   2   3
ATOM      3  C   UNL     1      -6.233   0.754  -3.460  1.00  0.00     0.202 C 
BRANCH   3   4
ATOM      4  C   UNL     1      -5.624   1.582  -2.299  1.00  0.00     0.261 C 
BRANCH   4   5
ATOM      5  O   UNL     1      -5.656   1.488  -0.786  1.00  0.00    -0.460 OA
BRANCH   5   6
ATOM      6  C   UNL     1      -6.450   0.978   0.192  1.00  0.00     0.339 C 
ATOM      7  O   UNL     1      -7.305   0.179  -0.025  1.00  0.00    -0.246 OA
BRANCH   6   8
ATOM      8  C   UNL     1      -6.227   1.543   1.563  1.00  0.00     0.073 A 
ATOM      9  C   UNL     1      -5.706   0.777   2.611  1.00  0.00     0.023 A 
ATOM     10  C   UNL     1      -5.341   1.411   3.815  1.00  0.00     0.016 A 
ATOM     11  C   UNL     1      -5.568   2.771   4.015  1.00  0.00     0.001 A 
ATOM     12  C   UNL     1      -6.646   2.850   1.864  1.00  0.00     0.017 A 
ATOM     13  C   UNL     1      -6.276   3.481   3.058  1.00  0.00     0.001 A 
BRANCH   9  14
ATOM     14  S   UNL     1      -5.804  -1.006   2.683  1.00  0.00    -0.111 SA
BRANCH  14  15
ATOM     15  C   UNL     1      -4.345  -1.536   1.796  1.00  0.00     0.151 C 
ATOM     16  N   UNL     1      -2.244  -1.026   1.059  1.00  0.00    -0.250 N 
ATOM     17  C   UNL     1      -2.955  -1.471  -0.034  1.00  0.00     0.235 C 
ATOM     18  C   UNL     1      -3.029  -0.908   2.187  1.00  0.00     0.247 C 
ATOM     19  O   UNL     1      -2.566  -1.816  -1.139  1.00  0.00    -0.274 OA
ATOM     20  C   UNL     1      -4.381  -1.286   0.315  1.00  0.00     0.126 C 
ATOM     21  O   UNL     1      -2.710  -0.519   3.299  1.00  0.00    -0.273 OA
BRANCH  16  22
ATOM     22  C   UNL     1      -0.870  -0.804   0.990  1.00  0.00     0.052 A 
ATOM     23  C   UNL     1       3.217  -0.069  -0.027  1.00  0.00     0.044 C 
ATOM     24  C   UNL     1       1.800  -0.319   0.384  1.00  0.00    -0.051 A 
ATOM     25  C   UNL     1       1.255  -1.585   0.165  1.00  0.00     0.005 A 
ATOM     26  C   UNL     1       1.018   0.683   0.979  1.00  0.00     0.005 A 
ATOM     27  C   UNL     1      -0.079  -1.817   0.447  1.00  0.00     0.027 A 
ATOM     28  C   UNL     1      -0.318   0.438   1.305  1.00  0.00     0.027 A 
ENDBRANCH  16  22
ENDBRANCH  14  15
ENDBRANCH   9  14
ENDBRANCH   6   8
ENDBRANCH   5   6
ENDBRANCH   4   5
ENDBRANCH   3   4
ENDBRANCH   2   3
ENDBRANCH   1   2
BRANCH   1  29
ATOM     29  C   UNL     1      -3.181   0.227  -3.545  1.00  0.00     0.188 C 
BRANCH  29  30
ATOM     30  O   UNL     1      -3.582   1.448  -4.171  1.00  0.00    -0.376 OA
BRANCH  30  31
ATOM     31  C   UNL     1      -2.741   1.998  -5.166  1.00  0.00     0.202 C 
BRANCH  31  32
ATOM     32  C   UNL     1      -1.323   2.319  -4.686  1.00  0.00     0.261 C 
BRANCH  32  33
ATOM     33  O   UNL     1      -1.373   3.459  -3.806  1.00  0.00    -0.460 OA
BRANCH  33  34
ATOM     34  C   UNL     1      -1.499   3.172  -2.487  1.00  0.00     0.338 C 
ATOM     35  O   UNL     1      -0.871   2.324  -1.876  1.00  0.00    -0.246 OA
BRANCH  34  36
ATOM     36  C   UNL     1      -2.703   3.873  -1.954  1.00  0.00     0.060 A 
ATOM     37  C   UNL     1      -3.168   3.544  -0.685  1.00  0.00     0.016 A 
ATOM     38  C   UNL     1      -3.515   4.652  -2.782  1.00  0.00     0.016 A 
ATOM     39  C   UNL     1      -4.495   3.851  -0.336  1.00  0.00     0.010 A 
ATOM     40  C   UNL     1      -4.865   4.843  -2.466  1.00  0.00     0.010 A 
ATOM     41  C   UNL     1      -5.419   4.319  -1.288  1.00  0.00    -0.014 A 
BRANCH  41  42
ATOM     42  C   UNL     1      -6.936   4.372  -1.177  1.00  0.00     0.031 A 
ATOM     43  C   UNL     1      -7.410   5.588  -0.478  1.00  0.00     0.074 A 
ATOM     44  C   UNL     1      -7.949   3.538  -1.641  1.00  0.00     0.049 A 
ATOM     45  N   UNL     1      -8.556   5.698   0.113  1.00  0.00    -0.248 NA
ATOM     46  C   UNL     1      -6.515   6.723  -0.230  1.00  0.00     0.031 C 
ATOM     47  C   UNL     1      -9.193   4.027  -2.247  1.00  0.00     0.029 A 
ATOM     48  N   UNL     1      -8.129   2.153  -1.821  1.00  0.00    -0.354 N 
ATOM     49  C   UNL     1      -8.695   7.043   0.353  1.00  0.00     0.074 A 
ATOM     50  C   UNL     1      -7.343   7.530   0.429  1.00  0.00     0.031 C 
ATOM     51  C   UNL     1      -9.984   2.997  -2.624  1.00  0.00     0.029 A 
ATOM     52  C   UNL     1      -9.399   1.730  -2.199  1.00  0.00     0.049 A 
ATOM     53  H   UNL     1      -7.391   1.515  -1.687  1.00  0.00     0.167 HD
ATOM     54  C   UNL     1      -9.892   7.640   0.078  1.00  0.00     0.037 A 
ATOM     55  C   UNL     1     -10.034   0.569  -1.794  1.00  0.00     0.037 A 
ATOM     56  C   UNL     1     -10.936   6.641  -0.221  1.00  0.00     0.049 A 
ATOM     57  C   UNL     1     -11.187   0.987  -0.920  1.00  0.00     0.074 A 
ATOM     58  C   UNL     1     -11.578   6.293  -1.401  1.00  0.00     0.029 A 
ATOM     59  N   UNL     1     -11.259   5.635   0.695  1.00  0.00    -0.354 N 
ATOM     60  N   UNL     1     -11.333   2.225  -0.560  1.00  0.00    -0.248 NA
ATOM     61  C   UNL     1     -12.177   0.111  -0.297  1.00  0.00     0.031 C 
ATOM     62  C   UNL     1     -12.300   5.099  -1.188  1.00  0.00     0.029 A 
ATOM     63  C   UNL     1     -12.096   4.695   0.119  1.00  0.00     0.049 A 
ATOM     64  H   UNL     1     -10.935   5.600   1.624  1.00  0.00     0.167 HD
ATOM     65  C   UNL     1     -12.343   2.335   0.331  1.00  0.00     0.074 A 
ATOM     66  C   UNL     1     -12.843   0.983   0.483  1.00  0.00     0.031 C 
ATOM     67  C   UNL     1     -12.626   3.554   0.860  1.00  0.00     0.037 A 
BRANCH  54  68
ATOM     68  C   UNL     1      -9.990   9.110  -0.350  1.00  0.00     0.057 A 
ATOM     69  C   UNL     1     -11.087   9.567  -1.109  1.00  0.00     0.134 A 
ATOM     70  C   UNL     1      -9.017  10.107  -0.134  1.00  0.00     0.134 A 
ATOM     71  F   UNL     1     -12.182   8.820  -1.291  1.00  0.00    -0.206 F 
ATOM     72  C   UNL     1     -11.138  10.833  -1.713  1.00  0.00     0.040 A 
ATOM     73  C   UNL     1      -9.035  11.365  -0.758  1.00  0.00     0.040 A 
ATOM     74  F   UNL     1      -8.027   9.964   0.749  1.00  0.00    -0.206 F 
ATOM     75  C   UNL     1     -10.093  11.728  -1.568  1.00  0.00     0.006 A 
ENDBRANCH  54  68
BRANCH  55  76
ATOM     76  C   UNL     1      -9.359  -0.781  -1.602  1.00  0.00     0.057 A 
ATOM     77  C   UNL     1      -8.699  -1.398  -2.678  1.00  0.00     0.134 A 
ATOM     78  C   UNL     1      -9.240  -1.472  -0.379  1.00  0.00     0.134 A 
ATOM     79  F   UNL     1      -8.876  -0.932  -3.925  1.00  0.00    -0.206 F 
ATOM     80  C   UNL     1      -7.809  -2.479  -2.520  1.00  0.00     0.040 A 
ATOM     81  C   UNL     1      -8.368  -2.572  -0.205  1.00  0.00     0.040 A 
ATOM     82  F   UNL     1      -9.859  -1.028   0.725  1.00  0.00    -0.206 F 
ATOM     83  C   UNL     1      -7.611  -3.048  -1.269  1.00  0.00     0.006 A 
ENDBRANCH  55  76
BRANCH  67  84
ATOM     84  C   UNL     1     -13.567   3.754   1.993  1.00  0.00     0.057 A 
ATOM     85  C   UNL     1     -13.723   2.841   3.043  1.00  0.00     0.134 A 
ATOM     86  C   UNL     1     -14.291   4.954   2.097  1.00  0.00     0.134 A 
ATOM     87  F   UNL     1     -12.994   1.717   3.111  1.00  0.00    -0.206 F 
ATOM     88  C   UNL     1     -14.617   3.069   4.090  1.00  0.00     0.040 A 
ATOM     89  C   UNL     1     -15.148   5.215   3.162  1.00  0.00     0.040 A 
ATOM     90  F   UNL     1     -14.188   5.921   1.174  1.00  0.00    -0.206 F 
ATOM     91  C   UNL     1     -15.332   4.260   4.152  1.00  0.00     0.006 A 
ENDBRANCH  67  84
ENDBRANCH  41  42
ENDBRANCH  34  36
ENDBRANCH  33  34
ENDBRANCH  32  33
ENDBRANCH  31  32
ENDBRANCH  30  31
ENDBRANCH  29  30
ENDBRANCH   1  29
TORSDOF 20
