REMARK SMILES NS(=O)(=O)c1ccc(-n2nc(C(=O)NCCCC(=O)OCCOCCOCCOC(=O)c3ccc(-c4c5nc(c(-c6c(F)cccc6F)c6ccc([nH]6)c(-c6c(F)cccc6F)c6nc(c(-c7c(F)cccc7F)c7ccc4[nH]7)C=C6)C=C5)cc3)cc2-c2ccccc2)cc1
REMARK SMILES IDX 22 1 21 2 20 3 18 4 19 5 17 6 16 7 15 8 14 9 12 10 13 11
REMARK SMILES IDX 11 13 9 14 10 15 87 16 86 17 8 18 5 19 6 20 95 21 7 22 94 23
REMARK SMILES IDX 2 24 3 25 4 26 1 27 88 30 89 31 93 32 90 33 92 34 91 35
REMARK SMILES IDX 23 36 24 37 25 38 26 39 27 40 28 41 29 42 30 43 31 44 32 45
REMARK SMILES IDX 33 46 85 47 34 48 84 49 35 50 36 51 37 52 78 53 38 54 83 55
REMARK SMILES IDX 77 56 79 57 39 58 82 59 76 60 75 61 40 63 66 64 49 65 65 66
REMARK SMILES IDX 50 67 53 68 64 69 80 70 51 71 52 72 63 74 81 75 54 76 41 77
REMARK SMILES IDX 42 78 47 79 43 80 44 81 46 82 48 83 45 84 67 85 68 86 73 87
REMARK SMILES IDX 69 88 70 89 72 90 74 91 71 92 55 93 56 94 61 95 57 96 58 97
REMARK SMILES IDX 60 98 62 99 59 100
REMARK H PARENT 14 12 1 28 1 29 79 62 53 73
REMARK Flexibility Score: inf
ROOT
ATOM      1  C   UNL     1       2.094 -12.400 -10.376  1.00  0.00     0.202 C 
ENDROOT
BRANCH   1   2
ATOM      2  C   UNL     1       3.459 -11.959  -9.822  1.00  0.00     0.261 C 
BRANCH   2   3
ATOM      3  O   UNL     1       3.586 -10.536  -9.636  1.00  0.00    -0.463 OA
BRANCH   3   4
ATOM      4  C   UNL     1       4.592  -9.919 -10.298  1.00  0.00     0.305 C 
ATOM      5  O   UNL     1       5.433 -10.498 -10.977  1.00  0.00    -0.252 OA
BRANCH   4   6
ATOM      6  C   UNL     1       4.576  -8.405 -10.196  1.00  0.00     0.124 C 
BRANCH   6   7
ATOM      7  C   UNL     1       3.491  -7.670  -9.416  1.00  0.00     0.033 C 
BRANCH   7   8
ATOM      8  C   UNL     1       3.223  -8.095  -7.979  1.00  0.00     0.117 C 
BRANCH   8   9
ATOM      9  N   UNL     1       4.308  -7.763  -7.083  1.00  0.00    -0.351 N 
ATOM     10  C   UNL     1       4.358  -6.986  -5.948  1.00  0.00     0.271 C 
ATOM     11  O   UNL     1       5.483  -6.816  -5.470  1.00  0.00    -0.267 OA
ATOM     12  H   UNL     1       5.170  -8.168  -7.331  1.00  0.00     0.163 HD
BRANCH  10  13
ATOM     13  C   UNL     1       3.144  -6.406  -5.327  1.00  0.00     0.151 A 
ATOM     14  N   UNL     1       2.029  -5.194  -3.952  1.00  0.00    -0.232 N 
ATOM     15  N   UNL     1       3.255  -5.348  -4.495  1.00  0.00    -0.162 NA
ATOM     16  C   UNL     1       1.062  -5.906  -4.642  1.00  0.00     0.075 A 
ATOM     17  C   UNL     1       1.779  -6.794  -5.417  1.00  0.00     0.065 A 
BRANCH  14  18
ATOM     18  C   UNL     1       1.827  -4.366  -2.821  1.00  0.00     0.065 A 
ATOM     19  C   UNL     1       1.150  -2.607  -0.786  1.00  0.00     0.082 A 
ATOM     20  C   UNL     1       0.587  -3.885  -0.801  1.00  0.00     0.024 A 
ATOM     21  C   UNL     1       2.088  -2.222  -1.752  1.00  0.00     0.024 A 
ATOM     22  C   UNL     1       0.922  -4.766  -1.824  1.00  0.00     0.030 A 
ATOM     23  C   UNL     1       2.454  -3.118  -2.759  1.00  0.00     0.030 A 
BRANCH  19  24
ATOM     24  S   UNL     1       0.598  -1.494   0.469  1.00  0.00     0.238 S 
ATOM     25  O   UNL     1       1.225  -1.867   1.715  1.00  0.00    -0.207 OA
ATOM     26  O   UNL     1      -0.830  -1.327   0.330  1.00  0.00    -0.207 OA
BRANCH  24  27
ATOM     27  N   UNL     1       1.260  -0.009   0.048  1.00  0.00    -0.225 NA
ATOM     28  H   UNL     1       0.983   0.694   0.734  1.00  0.00     0.137 HD
ATOM     29  H   UNL     1       0.922   0.265  -0.874  1.00  0.00     0.137 HD
ENDBRANCH  24  27
ENDBRANCH  19  24
ENDBRANCH  14  18
BRANCH  16  30
ATOM     30  C   UNL     1      -0.385  -5.690  -4.549  1.00  0.00     0.000 A 
ATOM     31  C   UNL     1      -0.920  -4.390  -4.552  1.00  0.00     0.010 A 
ATOM     32  C   UNL     1      -1.261  -6.777  -4.466  1.00  0.00     0.010 A 
ATOM     33  C   UNL     1      -2.294  -4.182  -4.425  1.00  0.00     0.001 A 
ATOM     34  C   UNL     1      -2.637  -6.568  -4.352  1.00  0.00     0.001 A 
ATOM     35  C   UNL     1      -3.152  -5.273  -4.322  1.00  0.00     0.000 A 
ENDBRANCH  16  30
ENDBRANCH  10  13
ENDBRANCH   8   9
ENDBRANCH   7   8
ENDBRANCH   6   7
ENDBRANCH   4   6
ENDBRANCH   3   4
ENDBRANCH   2   3
ENDBRANCH   1   2
BRANCH   1  36
ATOM     36  O   UNL     1       1.615 -11.774 -11.560  1.00  0.00    -0.376 OA
BRANCH  36  37
ATOM     37  C   UNL     1       1.508 -10.355 -11.559  1.00  0.00     0.188 C 
BRANCH  37  38
ATOM     38  C   UNL     1       0.607  -9.720 -10.493  1.00  0.00     0.188 C 
BRANCH  38  39
ATOM     39  O   UNL     1       0.914 -10.024  -9.148  1.00  0.00    -0.376 OA
BRANCH  39  40
ATOM     40  C   UNL     1       0.015 -10.633  -8.223  1.00  0.00     0.202 C 
BRANCH  40  41
ATOM     41  C   UNL     1      -1.425 -11.101  -8.476  1.00  0.00     0.261 C 
BRANCH  41  42
ATOM     42  O   UNL     1      -2.006 -10.793  -9.717  1.00  0.00    -0.460 OA
BRANCH  42  43
ATOM     43  C   UNL     1      -2.365  -9.498  -9.881  1.00  0.00     0.338 C 
ATOM     44  O   UNL     1      -2.192  -8.583  -9.114  1.00  0.00    -0.246 OA
BRANCH  43  45
ATOM     45  C   UNL     1      -3.005  -9.411 -11.206  1.00  0.00     0.060 A 
ATOM     46  C   UNL     1      -3.360  -8.144 -11.664  1.00  0.00     0.016 A 
ATOM     47  C   UNL     1      -3.413 -10.584 -11.863  1.00  0.00     0.016 A 
ATOM     48  C   UNL     1      -4.349  -8.061 -12.616  1.00  0.00     0.010 A 
ATOM     49  C   UNL     1      -4.411 -10.502 -12.794  1.00  0.00     0.010 A 
ATOM     50  C   UNL     1      -4.937  -9.247 -13.070  1.00  0.00    -0.014 A 
BRANCH  50  51
ATOM     51  C   UNL     1      -6.106  -9.157 -13.910  1.00  0.00     0.031 A 
ATOM     52  C   UNL     1      -5.765  -8.749 -15.283  1.00  0.00     0.074 A 
ATOM     53  C   UNL     1      -7.327  -9.508 -13.461  1.00  0.00     0.049 A 
ATOM     54  N   UNL     1      -6.013  -7.611 -15.834  1.00  0.00    -0.248 NA
ATOM     55  C   UNL     1      -4.860  -9.614 -16.060  1.00  0.00     0.031 C 
ATOM     56  C   UNL     1      -7.664 -10.148 -12.184  1.00  0.00     0.029 A 
ATOM     57  N   UNL     1      -8.530  -9.450 -14.094  1.00  0.00    -0.354 N 
ATOM     58  C   UNL     1      -5.535  -7.733 -17.131  1.00  0.00     0.074 A 
ATOM     59  C   UNL     1      -4.639  -8.858 -17.136  1.00  0.00     0.031 C 
ATOM     60  C   UNL     1      -8.930 -10.621 -12.240  1.00  0.00     0.029 A 
ATOM     61  C   UNL     1      -9.532 -10.210 -13.496  1.00  0.00     0.049 A 
ATOM     62  H   UNL     1      -8.679  -8.916 -14.908  1.00  0.00     0.167 HD
ATOM     63  C   UNL     1      -6.206  -7.136 -18.150  1.00  0.00     0.037 A 
ATOM     64  C   UNL     1     -10.736 -10.521 -14.041  1.00  0.00     0.037 A 
ATOM     65  C   UNL     1      -7.050  -6.071 -17.661  1.00  0.00     0.049 A 
ATOM     66  C   UNL     1     -10.991  -9.548 -15.132  1.00  0.00     0.074 A 
ATOM     67  C   UNL     1      -6.845  -4.916 -16.931  1.00  0.00     0.029 A 
ATOM     68  N   UNL     1      -8.395  -6.332 -17.584  1.00  0.00    -0.354 N 
ATOM     69  N   UNL     1     -11.237  -8.285 -14.934  1.00  0.00    -0.248 NA
ATOM     70  C   UNL     1     -10.525  -9.889 -16.467  1.00  0.00     0.031 C 
ATOM     71  C   UNL     1      -7.997  -4.787 -16.097  1.00  0.00     0.029 A 
ATOM     72  C   UNL     1      -8.878  -5.823 -16.408  1.00  0.00     0.049 A 
ATOM     73  H   UNL     1      -8.926  -6.807 -18.263  1.00  0.00     0.167 HD
ATOM     74  C   UNL     1     -10.522  -7.631 -15.926  1.00  0.00     0.074 A 
ATOM     75  C   UNL     1     -10.201  -8.669 -16.904  1.00  0.00     0.031 C 
ATOM     76  C   UNL     1     -10.007  -6.386 -15.701  1.00  0.00     0.037 A 
BRANCH  63  77
ATOM     77  C   UNL     1      -6.458  -7.830 -19.468  1.00  0.00     0.057 A 
ATOM     78  C   UNL     1      -7.035  -7.097 -20.517  1.00  0.00     0.134 A 
ATOM     79  C   UNL     1      -6.448  -9.231 -19.652  1.00  0.00     0.134 A 
ATOM     80  F   UNL     1      -7.137  -5.761 -20.444  1.00  0.00    -0.206 F 
ATOM     81  C   UNL     1      -7.613  -7.715 -21.632  1.00  0.00     0.040 A 
ATOM     82  C   UNL     1      -6.970  -9.853 -20.787  1.00  0.00     0.040 A 
ATOM     83  F   UNL     1      -6.036 -10.086 -18.710  1.00  0.00    -0.206 F 
ATOM     84  C   UNL     1      -7.585  -9.097 -21.768  1.00  0.00     0.006 A 
ENDBRANCH  63  77
BRANCH  64  85
ATOM     85  C   UNL     1     -11.524 -11.773 -13.923  1.00  0.00     0.057 A 
ATOM     86  C   UNL     1     -12.843 -11.842 -14.402  1.00  0.00     0.134 A 
ATOM     87  C   UNL     1     -10.918 -13.005 -13.623  1.00  0.00     0.134 A 
ATOM     88  F   UNL     1     -13.499 -10.726 -14.753  1.00  0.00    -0.206 F 
ATOM     89  C   UNL     1     -13.502 -13.062 -14.609  1.00  0.00     0.040 A 
ATOM     90  C   UNL     1     -11.568 -14.229 -13.817  1.00  0.00     0.040 A 
ATOM     91  F   UNL     1      -9.641 -13.071 -13.221  1.00  0.00    -0.206 F 
ATOM     92  C   UNL     1     -12.858 -14.262 -14.329  1.00  0.00     0.006 A 
ENDBRANCH  64  85
BRANCH  76  93
ATOM     93  C   UNL     1     -10.523  -5.630 -14.503  1.00  0.00     0.057 A 
ATOM     94  C   UNL     1     -10.405  -6.057 -13.170  1.00  0.00     0.134 A 
ATOM     95  C   UNL     1     -11.093  -4.369 -14.710  1.00  0.00     0.134 A 
ATOM     96  F   UNL     1      -9.780  -7.200 -12.857  1.00  0.00    -0.206 F 
ATOM     97  C   UNL     1     -10.894  -5.293 -12.104  1.00  0.00     0.040 A 
ATOM     98  C   UNL     1     -11.549  -3.580 -13.653  1.00  0.00     0.040 A 
ATOM     99  F   UNL     1     -11.190  -3.867 -15.951  1.00  0.00    -0.206 F 
ATOM    100  C   UNL     1     -11.468  -4.049 -12.345  1.00  0.00     0.006 A 
ENDBRANCH  76  93
ENDBRANCH  50  51
ENDBRANCH  43  45
ENDBRANCH  42  43
ENDBRANCH  41  42
ENDBRANCH  40  41
ENDBRANCH  39  40
ENDBRANCH  38  39
ENDBRANCH  37  38
ENDBRANCH  36  37
ENDBRANCH   1  36
TORSDOF 25
