REMARK SMILES C[NH+]1CCC([NH+]2CCC(Oc3ccc4ccccc4c3)(C(=O)OCCOCCOCCOC(=O)c3ccc(-c4c5nc(c(-c6c(F)cccc6F)c6ccc([nH]6)c(-c6c(F)cccc6F)c6nc(c(-c7c(F)cccc7F)c7ccc4[nH]7)C=C6)C=C5)cc3)CC2)CC1
REMARK SMILES IDX 27 1 26 2 25 3 24 4 23 5 21 6 22 7 9 8 6 9 7 10 90 11 8 13
REMARK SMILES IDX 89 14 5 15 1 16 2 17 3 18 92 19 4 21 91 22 10 23 11 24 12 25
REMARK SMILES IDX 20 26 13 27 19 28 14 29 18 30 15 31 17 32 16 33 28 34 29 35
REMARK SMILES IDX 30 36 31 37 32 38 33 39 34 40 35 41 36 42 88 43 37 44 87 45
REMARK SMILES IDX 38 46 39 47 40 48 81 49 41 50 86 51 80 52 82 53 42 54 85 55
REMARK SMILES IDX 79 56 78 57 43 59 69 60 52 61 68 62 53 63 56 64 67 65 83 66
REMARK SMILES IDX 54 67 55 68 66 70 84 71 57 72 44 73 45 74 50 75 46 76 47 77
REMARK SMILES IDX 49 78 51 79 48 80 70 81 71 82 76 83 72 84 73 85 75 86 77 87
REMARK SMILES IDX 74 88 58 89 59 90 64 91 60 92 61 93 63 94 65 95 62 96
REMARK H PARENT 6 12 2 20 82 58 56 69
REMARK Flexibility Score: inf
ROOT
ATOM      1  C   UNL     1       3.123  -4.237   2.554  1.00  0.00     0.188 C 
ENDROOT
BRANCH   1   2
ATOM      2  O   UNL     1       3.757  -4.980   3.584  1.00  0.00    -0.376 OA
BRANCH   2   3
ATOM      3  C   UNL     1       4.651  -4.295   4.457  1.00  0.00     0.202 C 
BRANCH   3   4
ATOM      4  C   UNL     1       5.906  -3.714   3.800  1.00  0.00     0.261 C 
BRANCH   4   5
ATOM      5  O   UNL     1       5.741  -2.326   3.424  1.00  0.00    -0.460 OA
BRANCH   5   6
ATOM      6  C   UNL     1       5.782  -2.024   2.091  1.00  0.00     0.351 C 
ATOM      7  O   UNL     1       5.797  -2.878   1.209  1.00  0.00    -0.247 OA
BRANCH   6   8
ATOM      8  C   UNL     1       5.879  -0.503   1.820  1.00  0.00     0.216 C 
ATOM      9  N   UNL     1       3.441   0.724   0.609  1.00  0.00    -0.332 N 
ATOM     10  C   UNL     1       3.509   0.578   2.067  1.00  0.00     0.267 C 
ATOM     11  C   UNL     1       4.191  -0.344  -0.067  1.00  0.00     0.267 C 
ATOM     12  H   UNL     1       3.889   1.616   0.398  1.00  0.00     0.348 HD
ATOM     13  C   UNL     1       4.916   0.375   2.642  1.00  0.00     0.122 C 
ATOM     14  C   UNL     1       5.673  -0.266   0.312  1.00  0.00     0.122 C 
BRANCH   9  15
ATOM     15  C   UNL     1       2.051   0.850   0.073  1.00  0.00     0.195 C 
ATOM     16  C   UNL     1      -2.210   1.439  -0.305  1.00  0.00     0.332 C 
ATOM     17  N   UNL     1      -0.849   1.334   0.221  1.00  0.00    -0.337 N 
ATOM     18  C   UNL     1       0.043   2.343  -0.368  1.00  0.00     0.268 C 
ATOM     19  C   UNL     1      -0.326  -0.014   0.003  1.00  0.00     0.268 C 
ATOM     20  H   UNL     1      -0.887   1.514   1.224  1.00  0.00     0.347 HD
ATOM     21  C   UNL     1       1.466   2.266   0.223  1.00  0.00     0.126 C 
ATOM     22  C   UNL     1       1.044  -0.148   0.654  1.00  0.00     0.126 C 
ENDBRANCH   9  15
BRANCH   8  23
ATOM     23  O   UNL     1       7.245  -0.337   2.313  1.00  0.00    -0.475 OA
BRANCH  23  24
ATOM     24  C   UNL     1       7.994   0.653   1.758  1.00  0.00     0.121 A 
ATOM     25  C   UNL     1       7.867   1.970   2.180  1.00  0.00     0.047 A 
ATOM     26  C   UNL     1       8.985   0.294   0.847  1.00  0.00     0.055 A 
ATOM     27  C   UNL     1       8.668   2.960   1.616  1.00  0.00     0.012 A 
ATOM     28  C   UNL     1       9.823   1.274   0.295  1.00  0.00    -0.015 A 
ATOM     29  C   UNL     1       9.647   2.627   0.671  1.00  0.00    -0.018 A 
ATOM     30  C   UNL     1      10.840   0.944  -0.614  1.00  0.00     0.009 A 
ATOM     31  C   UNL     1      10.469   3.613   0.111  1.00  0.00     0.009 A 
ATOM     32  C   UNL     1      11.662   1.936  -1.151  1.00  0.00     0.001 A 
ATOM     33  C   UNL     1      11.472   3.268  -0.795  1.00  0.00     0.001 A 
ENDBRANCH  23  24
ENDBRANCH   8  23
ENDBRANCH   6   8
ENDBRANCH   5   6
ENDBRANCH   4   5
ENDBRANCH   3   4
ENDBRANCH   2   3
ENDBRANCH   1   2
BRANCH   1  34
ATOM     34  C   UNL     1       2.633  -2.828   2.905  1.00  0.00     0.188 C 
BRANCH  34  35
ATOM     35  O   UNL     1       2.025  -2.610   4.168  1.00  0.00    -0.376 OA
BRANCH  35  36
ATOM     36  C   UNL     1       0.961  -3.489   4.509  1.00  0.00     0.202 C 
BRANCH  36  37
ATOM     37  C   UNL     1      -0.281  -3.342   3.629  1.00  0.00     0.261 C 
BRANCH  37  38
ATOM     38  O   UNL     1      -0.000  -3.740   2.273  1.00  0.00    -0.460 OA
BRANCH  38  39
ATOM     39  C   UNL     1      -1.076  -3.785   1.459  1.00  0.00     0.338 C 
ATOM     40  O   UNL     1      -2.248  -3.738   1.823  1.00  0.00    -0.246 OA
BRANCH  39  41
ATOM     41  C   UNL     1      -0.671  -3.753   0.027  1.00  0.00     0.060 A 
ATOM     42  C   UNL     1       0.626  -3.421  -0.373  1.00  0.00     0.016 A 
ATOM     43  C   UNL     1      -1.654  -3.896  -0.953  1.00  0.00     0.016 A 
ATOM     44  C   UNL     1       0.899  -3.071  -1.698  1.00  0.00     0.010 A 
ATOM     45  C   UNL     1      -1.348  -3.665  -2.300  1.00  0.00     0.010 A 
ATOM     46  C   UNL     1      -0.078  -3.203  -2.688  1.00  0.00    -0.014 A 
BRANCH  46  47
ATOM     47  C   UNL     1       0.184  -2.849  -4.114  1.00  0.00     0.031 A 
ATOM     48  C   UNL     1      -0.755  -1.921  -4.842  1.00  0.00     0.074 A 
ATOM     49  C   UNL     1       1.232  -3.365  -4.789  1.00  0.00     0.049 A 
ATOM     50  N   UNL     1      -0.953  -1.780  -6.128  1.00  0.00    -0.248 NA
ATOM     51  C   UNL     1      -1.583  -1.036  -4.007  1.00  0.00     0.031 C 
ATOM     52  C   UNL     1       2.305  -4.180  -4.221  1.00  0.00     0.029 A 
ATOM     53  N   UNL     1       1.546  -3.295  -6.127  1.00  0.00    -0.354 N 
ATOM     54  C   UNL     1      -1.972  -0.844  -6.254  1.00  0.00     0.074 A 
ATOM     55  C   UNL     1      -2.334  -0.428  -4.916  1.00  0.00     0.031 C 
ATOM     56  C   UNL     1       3.159  -4.528  -5.193  1.00  0.00     0.029 A 
ATOM     57  C   UNL     1       2.623  -4.078  -6.471  1.00  0.00     0.049 A 
ATOM     58  H   UNL     1       1.051  -2.740  -6.773  1.00  0.00     0.167 HD
ATOM     59  C   UNL     1      -2.565  -0.393  -7.386  1.00  0.00     0.037 A 
ATOM     60  C   UNL     1       3.075  -4.481  -7.673  1.00  0.00     0.037 A 
ATOM     61  C   UNL     1      -2.175  -0.786  -8.715  1.00  0.00     0.049 A 
ATOM     62  C   UNL     1       2.336  -4.075  -8.913  1.00  0.00     0.074 A 
ATOM     63  C   UNL     1      -2.729  -0.411  -9.928  1.00  0.00     0.029 A 
ATOM     64  N   UNL     1      -1.119  -1.635  -9.005  1.00  0.00    -0.354 N 
ATOM     65  N   UNL     1       1.284  -3.303  -9.031  1.00  0.00    -0.248 NA
ATOM     66  C   UNL     1       2.821  -4.632 -10.184  1.00  0.00     0.031 C 
ATOM     67  C   UNL     1      -2.028  -1.062 -10.950  1.00  0.00     0.029 A 
ATOM     68  C   UNL     1      -1.014  -1.810 -10.374  1.00  0.00     0.049 A 
ATOM     69  H   UNL     1      -0.530  -2.053  -8.335  1.00  0.00     0.167 HD
ATOM     70  C   UNL     1       0.985  -3.275 -10.386  1.00  0.00     0.074 A 
ATOM     71  C   UNL     1       1.976  -4.095 -11.052  1.00  0.00     0.031 C 
ATOM     72  C   UNL     1      -0.025  -2.632 -11.021  1.00  0.00     0.037 A 
BRANCH  59  73
ATOM     73  C   UNL     1      -3.739   0.529  -7.239  1.00  0.00     0.057 A 
ATOM     74  C   UNL     1      -3.593   1.880  -6.904  1.00  0.00     0.134 A 
ATOM     75  C   UNL     1      -5.036   0.060  -7.488  1.00  0.00     0.134 A 
ATOM     76  F   UNL     1      -2.381   2.387  -6.637  1.00  0.00    -0.206 F 
ATOM     77  C   UNL     1      -4.698   2.730  -6.811  1.00  0.00     0.040 A 
ATOM     78  C   UNL     1      -6.146   0.903  -7.417  1.00  0.00     0.040 A 
ATOM     79  F   UNL     1      -5.244  -1.224  -7.816  1.00  0.00    -0.206 F 
ATOM     80  C   UNL     1      -5.978   2.243  -7.075  1.00  0.00     0.006 A 
ENDBRANCH  59  73
BRANCH  60  81
ATOM     81  C   UNL     1       4.227  -5.417  -7.745  1.00  0.00     0.057 A 
ATOM     82  C   UNL     1       5.463  -5.007  -8.253  1.00  0.00     0.134 A 
ATOM     83  C   UNL     1       4.121  -6.737  -7.286  1.00  0.00     0.134 A 
ATOM     84  F   UNL     1       5.616  -3.765  -8.735  1.00  0.00    -0.206 F 
ATOM     85  C   UNL     1       6.556  -5.875  -8.298  1.00  0.00     0.040 A 
ATOM     86  C   UNL     1       5.212  -7.606  -7.297  1.00  0.00     0.040 A 
ATOM     87  F   UNL     1       2.961  -7.192  -6.790  1.00  0.00    -0.206 F 
ATOM     88  C   UNL     1       6.435  -7.175  -7.808  1.00  0.00     0.006 A 
ENDBRANCH  60  81
BRANCH  72  89
ATOM     89  C   UNL     1      -0.086  -2.768 -12.511  1.00  0.00     0.057 A 
ATOM     90  C   UNL     1      -0.551  -3.938 -13.123  1.00  0.00     0.134 A 
ATOM     91  C   UNL     1       0.305  -1.711 -13.341  1.00  0.00     0.134 A 
ATOM     92  F   UNL     1      -0.924  -4.992 -12.381  1.00  0.00    -0.206 F 
ATOM     93  C   UNL     1      -0.607  -4.059 -14.512  1.00  0.00     0.040 A 
ATOM     94  C   UNL     1       0.235  -1.812 -14.730  1.00  0.00     0.040 A 
ATOM     95  F   UNL     1       0.755  -0.562 -12.813  1.00  0.00    -0.206 F 
ATOM     96  C   UNL     1      -0.218  -2.991 -15.320  1.00  0.00     0.006 A 
ENDBRANCH  72  89
ENDBRANCH  46  47
ENDBRANCH  39  41
ENDBRANCH  38  39
ENDBRANCH  37  38
ENDBRANCH  36  37
ENDBRANCH  35  36
ENDBRANCH  34  35
ENDBRANCH   1  34
TORSDOF 20
