REMARK SMILES C[C@H]1CCC[C@@H]([NH2+]Cc2ccc(C(=O)OCCOCCOCCOC(=O)c3ccc(-c4c5nc(c(-c6c(F)cccc6F)c6ccc([nH]6)c(-c6c(F)cccc6F)c6nc(c(-c7c(F)cccc7F)c7ccc4[nH]7)C=C6)C=C5)cc3)cn2)C1
REMARK SMILES IDX 19 1 18 2 17 3 16 4 15 5 13 6 14 7 12 8 9 9 10 10 82 11
REMARK SMILES IDX 11 12 81 13 8 14 7 15 6 18 1 19 2 20 3 21 83 22 4 23 5 24
REMARK SMILES IDX 20 25 21 26 22 27 23 28 24 29 25 30 26 31 27 32 28 33 80 34
REMARK SMILES IDX 29 35 79 36 30 37 31 38 32 39 73 40 33 41 78 42 72 43 74 44
REMARK SMILES IDX 34 45 77 46 71 47 70 48 35 50 61 51 44 52 60 53 45 54 48 55
REMARK SMILES IDX 59 56 75 57 46 58 47 59 58 61 76 62 49 63 36 64 37 65 42 66
REMARK SMILES IDX 38 67 39 68 41 69 43 70 40 71 62 72 63 73 68 74 64 75 65 76
REMARK SMILES IDX 67 77 69 78 66 79 50 80 51 81 56 82 52 83 53 84 55 85 57 86
REMARK SMILES IDX 54 87
REMARK H PARENT 7 16 7 17 74 49 48 60
REMARK Flexibility Score: inf
ROOT
ATOM      1  C   UNL     1      -7.224  -7.970  -1.556  1.00  0.00     0.188 C 
ENDROOT
BRANCH   1   2
ATOM      2  O   UNL     1      -7.616  -9.048  -2.385  1.00  0.00    -0.376 OA
BRANCH   2   3
ATOM      3  C   UNL     1      -6.652  -9.774  -3.134  1.00  0.00     0.202 C 
BRANCH   3   4
ATOM      4  C   UNL     1      -5.463  -9.100  -3.839  1.00  0.00     0.261 C 
BRANCH   4   5
ATOM      5  O   UNL     1      -4.786  -8.085  -3.089  1.00  0.00    -0.460 OA
BRANCH   5   6
ATOM      6  C   UNL     1      -4.926  -6.822  -3.565  1.00  0.00     0.339 C 
ATOM      7  O   UNL     1      -5.520  -6.482  -4.573  1.00  0.00    -0.246 OA
BRANCH   6   8
ATOM      8  C   UNL     1      -4.419  -5.855  -2.578  1.00  0.00     0.078 A 
ATOM      9  C   UNL     1      -3.636  -3.894  -0.813  1.00  0.00     0.094 A 
ATOM     10  C   UNL     1      -2.905  -5.085  -0.885  1.00  0.00     0.031 A 
ATOM     11  N   UNL     1      -4.777  -3.707  -1.524  1.00  0.00    -0.254 NA
ATOM     12  C   UNL     1      -3.296  -6.075  -1.786  1.00  0.00     0.019 A 
ATOM     13  C   UNL     1      -5.133  -4.680  -2.396  1.00  0.00     0.127 A 
BRANCH   9  14
ATOM     14  C   UNL     1      -3.127  -2.713   0.006  1.00  0.00     0.318 C 
BRANCH  14  15
ATOM     15  N   UNL     1      -1.736  -2.404  -0.342  1.00  0.00    -0.339 N 
ATOM     16  H   UNL     1      -1.157  -3.188  -0.042  1.00  0.00     0.346 HD
ATOM     17  H   UNL     1      -1.733  -2.245  -1.350  1.00  0.00     0.346 HD
BRANCH  15  18
ATOM     18  C   UNL     1      -1.183  -1.186   0.252  1.00  0.00     0.182 C 
ATOM     19  C   UNL     1       2.502   0.038  -0.090  1.00  0.00     0.008 C 
ATOM     20  C   UNL     1       1.043   0.072   0.365  1.00  0.00    -0.008 C 
ATOM     21  C   UNL     1       0.344   1.335  -0.147  1.00  0.00     0.004 C 
ATOM     22  C   UNL     1       0.313  -1.185  -0.117  1.00  0.00     0.068 C 
ATOM     23  C   UNL     1      -1.134   1.347   0.231  1.00  0.00     0.006 C 
ATOM     24  C   UNL     1      -1.857   0.095  -0.262  1.00  0.00     0.065 C 
ENDBRANCH  15  18
ENDBRANCH  14  15
ENDBRANCH   9  14
ENDBRANCH   6   8
ENDBRANCH   5   6
ENDBRANCH   4   5
ENDBRANCH   3   4
ENDBRANCH   2   3
ENDBRANCH   1   2
BRANCH   1  25
ATOM     25  C   UNL     1      -6.164  -8.176  -0.455  1.00  0.00     0.188 C 
BRANCH  25  26
ATOM     26  O   UNL     1      -5.464  -9.395  -0.463  1.00  0.00    -0.376 OA
BRANCH  26  27
ATOM     27  C   UNL     1      -6.020 -10.544   0.155  1.00  0.00     0.202 C 
BRANCH  27  28
ATOM     28  C   UNL     1      -7.399 -10.639   0.843  1.00  0.00     0.261 C 
BRANCH  28  29
ATOM     29  O   UNL     1      -8.303  -9.537   0.730  1.00  0.00    -0.460 OA
BRANCH  29  30
ATOM     30  C   UNL     1      -8.411  -8.750   1.829  1.00  0.00     0.338 C 
ATOM     31  O   UNL     1      -7.801  -8.850   2.876  1.00  0.00    -0.246 OA
BRANCH  30  32
ATOM     32  C   UNL     1      -9.283  -7.604   1.504  1.00  0.00     0.060 A 
ATOM     33  C   UNL     1      -8.714  -6.326   1.419  1.00  0.00     0.016 A 
ATOM     34  C   UNL     1     -10.654  -7.786   1.327  1.00  0.00     0.016 A 
ATOM     35  C   UNL     1      -9.524  -5.217   1.174  1.00  0.00     0.010 A 
ATOM     36  C   UNL     1     -11.467  -6.671   1.104  1.00  0.00     0.010 A 
ATOM     37  C   UNL     1     -10.910  -5.379   1.056  1.00  0.00    -0.014 A 
BRANCH  37  38
ATOM     38  C   UNL     1     -11.797  -4.190   1.061  1.00  0.00     0.031 A 
ATOM     39  C   UNL     1     -12.475  -3.804   2.347  1.00  0.00     0.074 A 
ATOM     40  C   UNL     1     -11.995  -3.460  -0.050  1.00  0.00     0.049 A 
ATOM     41  N   UNL     1     -13.345  -2.855   2.578  1.00  0.00    -0.248 NA
ATOM     42  C   UNL     1     -12.127  -4.605   3.532  1.00  0.00     0.031 C 
ATOM     43  C   UNL     1     -11.364  -3.701  -1.345  1.00  0.00     0.029 A 
ATOM     44  N   UNL     1     -12.801  -2.369  -0.263  1.00  0.00    -0.354 N 
ATOM     45  C   UNL     1     -13.655  -2.950   3.929  1.00  0.00     0.074 A 
ATOM     46  C   UNL     1     -12.907  -4.069   4.458  1.00  0.00     0.031 C 
ATOM     47  C   UNL     1     -11.819  -2.792  -2.225  1.00  0.00     0.029 A 
ATOM     48  C   UNL     1     -12.799  -1.931  -1.565  1.00  0.00     0.049 A 
ATOM     49  H   UNL     1     -13.330  -1.941   0.449  1.00  0.00     0.167 HD
ATOM     50  C   UNL     1     -14.484  -2.171   4.664  1.00  0.00     0.037 A 
ATOM     51  C   UNL     1     -13.525  -0.963  -2.158  1.00  0.00     0.037 A 
ATOM     52  C   UNL     1     -15.233  -1.062   4.133  1.00  0.00     0.049 A 
ATOM     53  C   UNL     1     -14.504  -0.162  -1.338  1.00  0.00     0.074 A 
ATOM     54  C   UNL     1     -16.087  -0.201   4.801  1.00  0.00     0.029 A 
ATOM     55  N   UNL     1     -15.228  -0.668   2.803  1.00  0.00    -0.354 N 
ATOM     56  N   UNL     1     -14.774  -0.241  -0.057  1.00  0.00    -0.248 NA
ATOM     57  C   UNL     1     -15.278   0.867  -2.048  1.00  0.00     0.031 C 
ATOM     58  C   UNL     1     -16.645   0.674   3.864  1.00  0.00     0.029 A 
ATOM     59  C   UNL     1     -16.087   0.404   2.624  1.00  0.00     0.049 A 
ATOM     60  H   UNL     1     -14.692  -1.088   2.092  1.00  0.00     0.167 HD
ATOM     61  C   UNL     1     -15.719   0.747   0.198  1.00  0.00     0.074 A 
ATOM     62  C   UNL     1     -15.968   1.419  -1.060  1.00  0.00     0.031 C 
ATOM     63  C   UNL     1     -16.322   1.071   1.368  1.00  0.00     0.037 A 
BRANCH  50  64
ATOM     64  C   UNL     1     -14.649  -2.517   6.115  1.00  0.00     0.057 A 
ATOM     65  C   UNL     1     -13.617  -2.338   7.046  1.00  0.00     0.134 A 
ATOM     66  C   UNL     1     -15.866  -3.021   6.593  1.00  0.00     0.134 A 
ATOM     67  F   UNL     1     -12.421  -1.874   6.654  1.00  0.00    -0.206 F 
ATOM     68  C   UNL     1     -13.780  -2.674   8.392  1.00  0.00     0.040 A 
ATOM     69  C   UNL     1     -16.051  -3.331   7.941  1.00  0.00     0.040 A 
ATOM     70  F   UNL     1     -16.899  -3.213   5.758  1.00  0.00    -0.206 F 
ATOM     71  C   UNL     1     -15.003  -3.166   8.843  1.00  0.00     0.006 A 
ENDBRANCH  50  64
BRANCH  51  72
ATOM     72  C   UNL     1     -13.370  -0.702  -3.612  1.00  0.00     0.057 A 
ATOM     73  C   UNL     1     -12.816   0.495  -4.081  1.00  0.00     0.134 A 
ATOM     74  C   UNL     1     -13.797  -1.631  -4.570  1.00  0.00     0.134 A 
ATOM     75  F   UNL     1     -12.415   1.437  -3.215  1.00  0.00    -0.206 F 
ATOM     76  C   UNL     1     -12.708   0.766  -5.446  1.00  0.00     0.040 A 
ATOM     77  C   UNL     1     -13.668  -1.385  -5.938  1.00  0.00     0.040 A 
ATOM     78  F   UNL     1     -14.340  -2.797  -4.188  1.00  0.00    -0.206 F 
ATOM     79  C   UNL     1     -13.129  -0.179  -6.379  1.00  0.00     0.006 A 
ENDBRANCH  51  72
BRANCH  63  80
ATOM     80  C   UNL     1     -17.276   2.233   1.360  1.00  0.00     0.057 A 
ATOM     81  C   UNL     1     -18.528   2.168   0.736  1.00  0.00     0.134 A 
ATOM     82  C   UNL     1     -16.952   3.422   2.028  1.00  0.00     0.134 A 
ATOM     83  F   UNL     1     -18.899   1.064   0.070  1.00  0.00    -0.206 F 
ATOM     84  C   UNL     1     -19.411   3.250   0.753  1.00  0.00     0.040 A 
ATOM     85  C   UNL     1     -17.838   4.499   2.080  1.00  0.00     0.040 A 
ATOM     86  F   UNL     1     -15.774   3.551   2.659  1.00  0.00    -0.206 F 
ATOM     87  C   UNL     1     -19.069   4.417   1.434  1.00  0.00     0.006 A 
ENDBRANCH  63  80
ENDBRANCH  37  38
ENDBRANCH  30  32
ENDBRANCH  29  30
ENDBRANCH  28  29
ENDBRANCH  27  28
ENDBRANCH  26  27
ENDBRANCH  25  26
ENDBRANCH   1  25
TORSDOF 20
