REMARK SMILES CN1C(=O)C(=Cc2ccc(OCc3cccc(C(=O)OCCOCCOCCOC(=O)c4ccc(-c5c6nc(c(-c7c(F)cccc7F)c7ccc([nH]7)c(-c7c(F)cccc7F)c7nc(c(-c8c(F)cccc8F)c8ccc5[nH]8)C=C7)C=C6)cc4)c3)c(Cl)c2)C(=O)N(C)C1=S
REMARK SMILES IDX 24 1 23 2 22 3 21 4 20 5 18 6 19 7 17 8 13 9 14 10 86 11
REMARK SMILES IDX 15 12 16 13 12 14 11 15 10 16 7 17 8 18 89 19 9 20 87 21
REMARK SMILES IDX 88 22 6 23 1 24 2 25 3 26 94 27 4 28 5 29 92 30 95 31 90 32
REMARK SMILES IDX 93 33 91 34 25 35 26 36 27 37 28 38 29 39 30 40 31 41 32 42
REMARK SMILES IDX 33 43 85 44 34 45 84 46 35 47 36 48 37 49 78 50 38 51 83 52
REMARK SMILES IDX 77 53 79 54 39 55 82 56 76 57 75 58 40 60 66 61 49 62 65 63
REMARK SMILES IDX 50 64 53 65 64 66 80 67 51 68 52 69 63 71 81 72 54 73 41 74
REMARK SMILES IDX 42 75 47 76 43 77 44 78 46 79 48 80 45 81 67 82 68 83 73 84
REMARK SMILES IDX 69 85 70 86 72 87 74 88 71 89 55 90 56 91 61 92 57 93 58 94
REMARK SMILES IDX 60 95 62 96 59 97
REMARK H PARENT 79 59 53 70
REMARK Flexibility Score: inf
ROOT
ATOM      1  C   UNL     1       9.018  -4.144  -7.232  1.00  0.00     0.188 C 
ENDROOT
BRANCH   1   2
ATOM      2  O   UNL     1      10.374  -3.757  -7.387  1.00  0.00    -0.376 OA
BRANCH   2   3
ATOM      3  C   UNL     1      10.764  -3.335  -8.686  1.00  0.00     0.202 C 
BRANCH   3   4
ATOM      4  C   UNL     1      10.005  -2.198  -9.405  1.00  0.00     0.261 C 
BRANCH   4   5
ATOM      5  O   UNL     1       8.584  -2.127  -9.210  1.00  0.00    -0.460 OA
BRANCH   5   6
ATOM      6  C   UNL     1       7.798  -2.880 -10.011  1.00  0.00     0.338 C 
ATOM      7  O   UNL     1       8.172  -3.619 -10.905  1.00  0.00    -0.246 OA
BRANCH   6   8
ATOM      8  C   UNL     1       6.410  -2.853  -9.475  1.00  0.00     0.060 A 
ATOM      9  C   UNL     1       4.492  -1.714  -8.471  1.00  0.00    -0.010 A 
ATOM     10  C   UNL     1       3.849  -2.960  -8.397  1.00  0.00     0.007 A 
ATOM     11  C   UNL     1       5.797  -1.677  -9.002  1.00  0.00     0.023 A 
ATOM     12  C   UNL     1       4.468  -4.133  -8.830  1.00  0.00     0.001 A 
ATOM     13  C   UNL     1       5.741  -4.079  -9.383  1.00  0.00     0.016 A 
BRANCH   9  14
ATOM     14  C   UNL     1       3.765  -0.432  -8.086  1.00  0.00     0.265 C 
BRANCH  14  15
ATOM     15  O   UNL     1       3.684  -0.105  -6.695  1.00  0.00    -0.487 OA
BRANCH  15  16
ATOM     16  C   UNL     1       2.991  -0.897  -5.824  1.00  0.00     0.138 A 
ATOM     17  C   UNL     1       1.991  -2.609  -3.828  1.00  0.00    -0.023 A 
ATOM     18  C   UNL     1       3.082  -1.781  -3.556  1.00  0.00     0.012 A 
ATOM     19  C   UNL     1       1.345  -2.508  -5.059  1.00  0.00     0.032 A 
ATOM     20  C   UNL     1       3.579  -0.939  -4.552  1.00  0.00     0.048 A 
ATOM     21  C   UNL     1       1.802  -1.606  -6.029  1.00  0.00     0.083 A 
ATOM     22  Cl  UNL     1       0.754  -1.374  -7.385  1.00  0.00    -0.080 Cl
BRANCH  17  23
ATOM     23  C   UNL     1       1.487  -3.531  -2.810  1.00  0.00     0.027 C 
ATOM     24  C   UNL     1       0.430   0.035   0.070  1.00  0.00     0.156 C 
ATOM     25  N   UNL     1       0.364  -1.417  -0.134  1.00  0.00    -0.288 N 
ATOM     26  C   UNL     1       0.363  -1.781  -1.476  1.00  0.00     0.265 C 
ATOM     27  C   UNL     1       0.360  -2.323   0.948  1.00  0.00     0.185 C 
ATOM     28  O   UNL     1       0.054  -1.025  -2.394  1.00  0.00    -0.268 OA
ATOM     29  C   UNL     1       0.774  -3.165  -1.729  1.00  0.00     0.106 C 
ATOM     30  N   UNL     1       0.517  -3.684   0.603  1.00  0.00    -0.288 N 
ATOM     31  S   UNL     1       0.163  -1.812   2.553  1.00  0.00    -0.040 S 
ATOM     32  C   UNL     1       0.567  -4.183  -0.697  1.00  0.00     0.265 C 
ATOM     33  C   UNL     1       0.701  -4.736   1.607  1.00  0.00     0.156 C 
ATOM     34  O   UNL     1       0.514  -5.379  -0.979  1.00  0.00    -0.268 OA
ENDBRANCH  17  23
ENDBRANCH  15  16
ENDBRANCH  14  15
ENDBRANCH   9  14
ENDBRANCH   6   8
ENDBRANCH   5   6
ENDBRANCH   4   5
ENDBRANCH   3   4
ENDBRANCH   2   3
ENDBRANCH   1   2
BRANCH   1  35
ATOM     35  C   UNL     1       8.221  -3.089  -6.446  1.00  0.00     0.188 C 
BRANCH  35  36
ATOM     36  O   UNL     1       8.875  -1.865  -6.179  1.00  0.00    -0.376 OA
BRANCH  36  37
ATOM     37  C   UNL     1      10.011  -1.837  -5.328  1.00  0.00     0.202 C 
BRANCH  37  38
ATOM     38  C   UNL     1      10.487  -2.979  -4.393  1.00  0.00     0.261 C 
BRANCH  38  39
ATOM     39  O   UNL     1       9.884  -4.273  -4.492  1.00  0.00    -0.460 OA
BRANCH  39  40
ATOM     40  C   UNL     1       8.871  -4.546  -3.641  1.00  0.00     0.338 C 
ATOM     41  O   UNL     1       8.383  -3.802  -2.802  1.00  0.00    -0.246 OA
BRANCH  40  42
ATOM     42  C   UNL     1       8.309  -5.862  -4.007  1.00  0.00     0.060 A 
ATOM     43  C   UNL     1       7.018  -5.928  -4.552  1.00  0.00     0.016 A 
ATOM     44  C   UNL     1       9.049  -7.028  -3.805  1.00  0.00     0.016 A 
ATOM     45  C   UNL     1       6.456  -7.163  -4.877  1.00  0.00     0.010 A 
ATOM     46  C   UNL     1       8.475  -8.267  -4.111  1.00  0.00     0.010 A 
ATOM     47  C   UNL     1       7.166  -8.344  -4.622  1.00  0.00    -0.014 A 
BRANCH  47  48
ATOM     48  C   UNL     1       6.485  -9.659  -4.728  1.00  0.00     0.031 A 
ATOM     49  C   UNL     1       5.986 -10.317  -3.471  1.00  0.00     0.074 A 
ATOM     50  C   UNL     1       6.301 -10.260  -5.917  1.00  0.00     0.049 A 
ATOM     51  N   UNL     1       5.420 -11.486  -3.310  1.00  0.00    -0.248 NA
ATOM     52  C   UNL     1       6.154  -9.553  -2.225  1.00  0.00     0.031 C 
ATOM     53  C   UNL     1       6.701  -9.715  -7.213  1.00  0.00     0.029 A 
ATOM     54  N   UNL     1       5.739 -11.476  -6.221  1.00  0.00    -0.354 N 
ATOM     55  C   UNL     1       5.173 -11.601  -1.948  1.00  0.00     0.074 A 
ATOM     56  C   UNL     1       5.680 -10.399  -1.323  1.00  0.00     0.031 C 
ATOM     57  C   UNL     1       6.384 -10.601  -8.173  1.00  0.00     0.029 A 
ATOM     58  C   UNL     1       5.793 -11.789  -7.558  1.00  0.00     0.049 A 
ATOM     59  H   UNL     1       5.336 -12.068  -5.545  1.00  0.00     0.167 HD
ATOM     60  C   UNL     1       4.570 -12.612  -1.278  1.00  0.00     0.037 A 
ATOM     61  C   UNL     1       5.430 -12.915  -8.204  1.00  0.00     0.037 A 
ATOM     62  C   UNL     1       4.071 -13.812  -1.898  1.00  0.00     0.049 A 
ATOM     63  C   UNL     1       4.838 -14.063  -7.426  1.00  0.00     0.074 A 
ATOM     64  C   UNL     1       3.426 -14.884  -1.305  1.00  0.00     0.029 A 
ATOM     65  N   UNL     1       4.173 -14.105  -3.250  1.00  0.00    -0.354 N 
ATOM     66  N   UNL     1       4.578 -14.149  -6.143  1.00  0.00    -0.248 NA
ATOM     67  C   UNL     1       4.487 -15.271  -8.188  1.00  0.00     0.031 C 
ATOM     68  C   UNL     1       3.194 -15.852  -2.287  1.00  0.00     0.029 A 
ATOM     69  C   UNL     1       3.632 -15.355  -3.504  1.00  0.00     0.049 A 
ATOM     70  H   UNL     1       4.570 -13.512  -3.928  1.00  0.00     0.167 HD
ATOM     71  C   UNL     1       4.006 -15.402  -5.952  1.00  0.00     0.074 A 
ATOM     72  C   UNL     1       3.943 -16.036  -7.252  1.00  0.00     0.031 C 
ATOM     73  C   UNL     1       3.568 -15.976  -4.803  1.00  0.00     0.037 A 
BRANCH  60  74
ATOM     74  C   UNL     1       4.446 -12.477   0.213  1.00  0.00     0.057 A 
ATOM     75  C   UNL     1       3.582 -11.547   0.806  1.00  0.00     0.134 A 
ATOM     76  C   UNL     1       5.181 -13.310   1.066  1.00  0.00     0.134 A 
ATOM     77  F   UNL     1       2.861 -10.708   0.047  1.00  0.00    -0.206 F 
ATOM     78  C   UNL     1       3.473 -11.433   2.193  1.00  0.00     0.040 A 
ATOM     79  C   UNL     1       5.058 -13.226   2.454  1.00  0.00     0.040 A 
ATOM     80  F   UNL     1       6.023 -14.227   0.566  1.00  0.00    -0.206 F 
ATOM     81  C   UNL     1       4.207 -12.280   3.021  1.00  0.00     0.006 A 
ENDBRANCH  60  74
BRANCH  61  82
ATOM     82  C   UNL     1       5.630 -13.029  -9.673  1.00  0.00     0.057 A 
ATOM     83  C   UNL     1       4.541 -13.104 -10.551  1.00  0.00     0.134 A 
ATOM     84  C   UNL     1       6.912 -13.102 -10.232  1.00  0.00     0.134 A 
ATOM     85  F   UNL     1       3.288 -13.068 -10.075  1.00  0.00    -0.206 F 
ATOM     86  C   UNL     1       4.719 -13.266 -11.926  1.00  0.00     0.040 A 
ATOM     87  C   UNL     1       7.105 -13.235 -11.607  1.00  0.00     0.040 A 
ATOM     88  F   UNL     1       7.997 -13.040  -9.446  1.00  0.00    -0.206 F 
ATOM     89  C   UNL     1       6.005 -13.327 -12.458  1.00  0.00     0.006 A 
ENDBRANCH  61  82
BRANCH  73  90
ATOM     90  C   UNL     1       2.943 -17.340  -4.901  1.00  0.00     0.057 A 
ATOM     91  C   UNL     1       3.696 -18.486  -5.187  1.00  0.00     0.134 A 
ATOM     92  C   UNL     1       1.573 -17.513  -4.660  1.00  0.00     0.134 A 
ATOM     93  F   UNL     1       5.010 -18.392  -5.437  1.00  0.00    -0.206 F 
ATOM     94  C   UNL     1       3.104 -19.750  -5.257  1.00  0.00     0.040 A 
ATOM     95  C   UNL     1       0.977 -18.775  -4.696  1.00  0.00     0.040 A 
ATOM     96  F   UNL     1       0.794 -16.461  -4.369  1.00  0.00    -0.206 F 
ATOM     97  C   UNL     1       1.742 -19.897  -5.003  1.00  0.00     0.006 A 
ENDBRANCH  73  90
ENDBRANCH  47  48
ENDBRANCH  40  42
ENDBRANCH  39  40
ENDBRANCH  38  39
ENDBRANCH  37  38
ENDBRANCH  36  37
ENDBRANCH  35  36
ENDBRANCH   1  35
TORSDOF 21
