REMARK SMILES CS(=O)(=O)Nc1ccc(-c2cc(Cl)cc3c2O[C@H](C(F)(F)F)C(C(=O)OCCOCCOCCOC(=O)c2ccc(-c4c5nc(c(-c6c(F)cccc6F)c6ccc([nH]6)c(-c6c(F)cccc6F)c6nc(c(-c7c(F)cccc7F)c7ccc4[nH]7)C=C6)C=C5)cc2)=C3)cc1
REMARK SMILES IDX 30 1 29 2 28 3 27 4 26 5 24 6 25 7 23 8 10 9 11 10 16 11
REMARK SMILES IDX 12 12 15 13 17 14 13 15 14 16 92 17 18 18 9 19 6 20 7 21
REMARK SMILES IDX 94 22 8 23 93 24 5 25 2 27 1 28 3 29 4 30 19 31 20 32 21 33
REMARK SMILES IDX 22 34 31 35 32 36 33 37 34 38 35 39 36 40 37 41 38 42 39 43
REMARK SMILES IDX 91 44 40 45 90 46 41 47 42 48 43 49 84 50 44 51 89 52 83 53
REMARK SMILES IDX 85 54 45 55 88 56 82 57 81 58 46 60 72 61 55 62 71 63 56 64
REMARK SMILES IDX 59 65 70 66 86 67 57 68 58 69 69 71 87 72 60 73 47 74 48 75
REMARK SMILES IDX 53 76 49 77 50 78 52 79 54 80 51 81 73 82 74 83 79 84 75 85
REMARK SMILES IDX 76 86 78 87 80 88 77 89 61 90 62 91 67 92 63 93 64 94 66 95
REMARK SMILES IDX 68 96 65 97
REMARK H PARENT 5 26 85 59 59 70
REMARK Flexibility Score: inf
ROOT
ATOM      1  C   UNL     1       6.635  -9.235   2.810  1.00  0.00     0.188 C 
ENDROOT
BRANCH   1   2
ATOM      2  O   UNL     1       6.414 -10.495   2.207  1.00  0.00    -0.376 OA
BRANCH   2   3
ATOM      3  C   UNL     1       7.012 -10.703   0.930  1.00  0.00     0.202 C 
BRANCH   3   4
ATOM      4  C   UNL     1       8.504 -10.351   0.796  1.00  0.00     0.261 C 
BRANCH   4   5
ATOM      5  O   UNL     1       8.774  -8.938   1.002  1.00  0.00    -0.460 OA
BRANCH   5   6
ATOM      6  C   UNL     1       8.680  -8.164  -0.100  1.00  0.00     0.338 C 
ATOM      7  O   UNL     1       8.485  -8.596  -1.229  1.00  0.00    -0.246 OA
BRANCH   6   8
ATOM      8  C   UNL     1       8.710  -6.705   0.209  1.00  0.00     0.087 C 
ATOM      9  C   UNL     1       5.505  -4.640   1.820  1.00  0.00     0.026 A 
ATOM     10  C   UNL     1       4.409  -5.487   1.528  1.00  0.00     0.033 A 
ATOM     11  C   UNL     1       6.711  -5.020   1.214  1.00  0.00     0.135 A 
ATOM     12  C   UNL     1       4.447  -6.484   0.552  1.00  0.00     0.042 A 
ATOM     13  C   UNL     1       6.674  -5.839   0.065  1.00  0.00     0.019 A 
ATOM     14  O   UNL     1       7.979  -4.844   1.771  1.00  0.00    -0.475 OA
ATOM     15  Cl  UNL     1       3.093  -7.498   0.268  1.00  0.00    -0.084 Cl
ATOM     16  C   UNL     1       5.560  -6.604  -0.248  1.00  0.00     0.032 A 
ATOM     17  C   UNL     1       7.943  -6.034  -0.665  1.00  0.00     0.027 C 
ATOM     18  C   UNL     1       8.815  -6.106   1.612  1.00  0.00     0.316 C 
BRANCH   9  19
ATOM     19  C   UNL     1       5.076  -3.279   2.299  1.00  0.00    -0.014 A 
ATOM     20  C   UNL     1       3.164  -1.135   2.493  1.00  0.00     0.048 A 
ATOM     21  C   UNL     1       3.262  -2.100   3.492  1.00  0.00     0.027 A 
ATOM     22  C   UNL     1       4.104  -1.169   1.464  1.00  0.00     0.027 A 
ATOM     23  C   UNL     1       4.221  -3.131   3.409  1.00  0.00     0.011 A 
ATOM     24  C   UNL     1       5.050  -2.218   1.374  1.00  0.00     0.011 A 
BRANCH  20  25
ATOM     25  N   UNL     1       1.963  -0.360   2.434  1.00  0.00    -0.284 N 
ATOM     26  H   UNL     1       1.125  -0.792   2.716  1.00  0.00     0.180 HD
BRANCH  25  27
ATOM     27  S   UNL     1       1.881   1.227   1.918  1.00  0.00     0.229 S 
ATOM     28  C   UNL     1       1.911   1.110   0.134  1.00  0.00     0.183 C 
ATOM     29  O   UNL     1       3.064   1.933   2.355  1.00  0.00    -0.207 OA
ATOM     30  O   UNL     1       0.557   1.688   2.287  1.00  0.00    -0.207 OA
ENDBRANCH  25  27
ENDBRANCH  20  25
ENDBRANCH   9  19
BRANCH  18  31
ATOM     31  C   UNL     1      10.299  -5.879   1.928  1.00  0.00     0.430 C 
ATOM     32  F   UNL     1      10.867  -4.989   1.084  1.00  0.00    -0.167 F 
ATOM     33  F   UNL     1      10.487  -5.438   3.190  1.00  0.00    -0.167 F 
ATOM     34  F   UNL     1      10.995  -7.039   1.810  1.00  0.00    -0.167 F 
ENDBRANCH  18  31
ENDBRANCH   6   8
ENDBRANCH   5   6
ENDBRANCH   4   5
ENDBRANCH   3   4
ENDBRANCH   2   3
ENDBRANCH   1   2
BRANCH   1  35
ATOM     35  C   UNL     1       7.765  -9.216   3.864  1.00  0.00     0.188 C 
BRANCH  35  36
ATOM     36  O   UNL     1       8.519 -10.389   4.124  1.00  0.00    -0.376 OA
BRANCH  36  37
ATOM     37  C   UNL     1       7.843 -11.620   4.339  1.00  0.00     0.202 C 
BRANCH  37  38
ATOM     38  C   UNL     1       6.697 -11.695   5.360  1.00  0.00     0.261 C 
BRANCH  38  39
ATOM     39  O   UNL     1       5.638 -10.733   5.184  1.00  0.00    -0.460 OA
BRANCH  39  40
ATOM     40  C   UNL     1       5.516  -9.811   6.168  1.00  0.00     0.338 C 
ATOM     41  O   UNL     1       6.219  -9.695   7.165  1.00  0.00    -0.246 OA
BRANCH  40  42
ATOM     42  C   UNL     1       4.497  -8.805   5.815  1.00  0.00     0.060 A 
ATOM     43  C   UNL     1       4.904  -7.475   5.675  1.00  0.00     0.016 A 
ATOM     44  C   UNL     1       3.143  -9.134   5.729  1.00  0.00     0.016 A 
ATOM     45  C   UNL     1       3.953  -6.473   5.473  1.00  0.00     0.010 A 
ATOM     46  C   UNL     1       2.190  -8.121   5.531  1.00  0.00     0.010 A 
ATOM     47  C   UNL     1       2.584  -6.778   5.413  1.00  0.00    -0.014 A 
BRANCH  47  48
ATOM     48  C   UNL     1       1.576  -5.677   5.389  1.00  0.00     0.031 A 
ATOM     49  C   UNL     1       1.195  -5.022   6.680  1.00  0.00     0.074 A 
ATOM     50  C   UNL     1       1.005  -5.257   4.244  1.00  0.00     0.049 A 
ATOM     51  N   UNL     1       0.400  -4.006   6.887  1.00  0.00    -0.248 NA
ATOM     52  C   UNL     1       1.758  -5.616   7.900  1.00  0.00     0.031 C 
ATOM     53  C   UNL     1       1.266  -5.852   2.947  1.00  0.00     0.029 A 
ATOM     54  N   UNL     1       0.141  -4.222   3.962  1.00  0.00    -0.354 N 
ATOM     55  C   UNL     1       0.301  -3.889   8.267  1.00  0.00     0.074 A 
ATOM     56  C   UNL     1       1.159  -4.903   8.841  1.00  0.00     0.031 C 
ATOM     57  C   UNL     1       0.705  -5.094   1.991  1.00  0.00     0.029 A 
ATOM     58  C   UNL     1      -0.064  -4.019   2.610  1.00  0.00     0.049 A 
ATOM     59  H   UNL     1      -0.291  -3.677   4.659  1.00  0.00     0.167 HD
ATOM     60  C   UNL     1      -0.477  -3.046   8.985  1.00  0.00     0.037 A 
ATOM     61  C   UNL     1      -0.780  -3.074   1.955  1.00  0.00     0.037 A 
ATOM     62  C   UNL     1      -1.337  -2.048   8.406  1.00  0.00     0.049 A 
ATOM     63  C   UNL     1      -1.553  -2.078   2.796  1.00  0.00     0.074 A 
ATOM     64  C   UNL     1      -2.178  -1.158   9.050  1.00  0.00     0.029 A 
ATOM     65  N   UNL     1      -1.475  -1.815   7.045  1.00  0.00    -0.354 N 
ATOM     66  N   UNL     1      -1.508  -1.877   4.093  1.00  0.00    -0.248 NA
ATOM     67  C   UNL     1      -2.479  -1.181   2.088  1.00  0.00     0.031 C 
ATOM     68  C   UNL     1      -2.863  -0.424   8.078  1.00  0.00     0.029 A 
ATOM     69  C   UNL     1      -2.407  -0.814   6.829  1.00  0.00     0.049 A 
ATOM     70  H   UNL     1      -0.982  -2.291   6.338  1.00  0.00     0.167 HD
ATOM     71  C   UNL     1      -2.386  -0.825   4.348  1.00  0.00     0.074 A 
ATOM     72  C   UNL     1      -2.866  -0.369   3.061  1.00  0.00     0.031 C 
ATOM     73  C   UNL     1      -2.804  -0.316   5.534  1.00  0.00     0.037 A 
BRANCH  60  74
ATOM     74  C   UNL     1      -0.502  -3.243  10.472  1.00  0.00     0.057 A 
ATOM     75  C   UNL     1       0.586  -2.921  11.292  1.00  0.00     0.134 A 
ATOM     76  C   UNL     1      -1.641  -3.780  11.089  1.00  0.00     0.134 A 
ATOM     77  F   UNL     1       1.715  -2.428  10.760  1.00  0.00    -0.206 F 
ATOM     78  C   UNL     1       0.554  -3.155  12.668  1.00  0.00     0.040 A 
ATOM     79  C   UNL     1      -1.696  -3.990  12.466  1.00  0.00     0.040 A 
ATOM     80  F   UNL     1      -2.717  -4.113  10.360  1.00  0.00    -0.206 F 
ATOM     81  C   UNL     1      -0.592  -3.685  13.259  1.00  0.00     0.006 A 
ENDBRANCH  60  74
BRANCH  61  82
ATOM     82  C   UNL     1      -0.751  -2.955   0.455  1.00  0.00     0.057 A 
ATOM     83  C   UNL     1      -0.430  -1.735  -0.159  1.00  0.00     0.134 A 
ATOM     84  C   UNL     1      -1.021  -4.015  -0.420  1.00  0.00     0.134 A 
ATOM     85  F   UNL     1      -0.232  -0.642   0.588  1.00  0.00    -0.206 F 
ATOM     86  C   UNL     1      -0.346  -1.575  -1.546  1.00  0.00     0.040 A 
ATOM     87  C   UNL     1      -0.891  -3.889  -1.810  1.00  0.00     0.040 A 
ATOM     88  F   UNL     1      -1.407  -5.208   0.054  1.00  0.00    -0.206 F 
ATOM     89  C   UNL     1      -0.550  -2.666  -2.378  1.00  0.00     0.006 A 
ENDBRANCH  61  82
BRANCH  73  90
ATOM     90  C   UNL     1      -3.791   0.823   5.502  1.00  0.00     0.057 A 
ATOM     91  C   UNL     1      -5.105   0.656   5.043  1.00  0.00     0.134 A 
ATOM     92  C   UNL     1      -3.444   2.086   6.004  1.00  0.00     0.134 A 
ATOM     93  F   UNL     1      -5.510  -0.527   4.556  1.00  0.00    -0.206 F 
ATOM     94  C   UNL     1      -6.024   1.708   5.048  1.00  0.00     0.040 A 
ATOM     95  C   UNL     1      -4.365   3.135   6.047  1.00  0.00     0.040 A 
ATOM     96  F   UNL     1      -2.215   2.313   6.489  1.00  0.00    -0.206 F 
ATOM     97  C   UNL     1      -5.657   2.950   5.559  1.00  0.00     0.006 A 
ENDBRANCH  73  90
ENDBRANCH  47  48
ENDBRANCH  40  42
ENDBRANCH  39  40
ENDBRANCH  38  39
ENDBRANCH  37  38
ENDBRANCH  36  37
ENDBRANCH  35  36
ENDBRANCH   1  35
TORSDOF 21
