REMARK SMILES CCOc1ccc([C@H](C)[C@](O)(C(=O)OCCOCCOCCOC(=O)c2ccc(-c3c4nc(c(-c5c(F)cccc5F)c5ccc([nH]5)c(-c5c(F)cccc5F)c5nc(c(-c6c(F)cccc6F)c6ccc3[nH]6)C=C5)C=C4)cc2)C(C)C)cc1
REMARK SMILES IDX 18 1 17 2 16 3 15 4 14 5 12 6 13 7 10 8 8 9 9 10 7 11 4 12
REMARK SMILES IDX 5 13 84 14 6 15 83 16 3 17 2 18 1 19 80 20 81 21 82 22 11 23
REMARK SMILES IDX 19 25 20 26 21 27 22 28 23 29 24 30 25 31 26 32 27 33 79 34
REMARK SMILES IDX 28 35 78 36 29 37 30 38 31 39 72 40 32 41 77 42 71 43 73 44
REMARK SMILES IDX 33 45 76 46 70 47 69 48 34 50 60 51 43 52 59 53 44 54 47 55
REMARK SMILES IDX 58 56 74 57 45 58 46 59 57 61 75 62 48 63 35 64 36 65 41 66
REMARK SMILES IDX 37 67 38 68 40 69 42 70 39 71 61 72 62 73 67 74 63 75 64 76
REMARK SMILES IDX 66 77 68 78 65 79 49 80 50 81 55 82 51 83 52 84 54 85 56 86
REMARK SMILES IDX 53 87
REMARK H PARENT 11 24 73 49 47 60
REMARK Flexibility Score: inf
ROOT
ATOM      1  C   UNL     1       9.854   3.473   4.464  1.00  0.00     0.188 C 
ENDROOT
BRANCH   1   2
ATOM      2  O   UNL     1      11.220   3.299   4.183  1.00  0.00    -0.376 OA
BRANCH   2   3
ATOM      3  C   UNL     1      11.678   2.067   3.651  1.00  0.00     0.202 C 
BRANCH   3   4
ATOM      4  C   UNL     1      10.822   0.804   3.415  1.00  0.00     0.261 C 
BRANCH   4   5
ATOM      5  O   UNL     1       9.408   0.948   3.240  1.00  0.00    -0.461 OA
BRANCH   5   6
ATOM      6  C   UNL     1       8.612   0.412   4.224  1.00  0.00     0.339 C 
ATOM      7  O   UNL     1       9.032  -0.088   5.259  1.00  0.00    -0.249 OA
BRANCH   6   8
ATOM      8  C   UNL     1       7.114   0.469   3.805  1.00  0.00     0.170 C 
BRANCH   8   9
ATOM      9  C   UNL     1       6.711  -0.959   3.246  1.00  0.00     0.060 C 
ATOM     10  C   UNL     1       7.870  -1.785   2.657  1.00  0.00     0.016 C 
BRANCH   9  11
ATOM     11  C   UNL     1       5.880  -1.773   4.214  1.00  0.00    -0.041 A 
ATOM     12  C   UNL     1       4.153  -2.582   6.261  1.00  0.00     0.119 A 
ATOM     13  C   UNL     1       5.537  -2.668   6.429  1.00  0.00     0.047 A 
ATOM     14  C   UNL     1       3.638  -2.204   5.026  1.00  0.00     0.047 A 
ATOM     15  C   UNL     1       6.405  -2.285   5.405  1.00  0.00     0.008 A 
ATOM     16  C   UNL     1       4.497  -1.825   4.001  1.00  0.00     0.008 A 
BRANCH  12  17
ATOM     17  O   UNL     1       3.408  -2.795   7.385  1.00  0.00    -0.494 OA
BRANCH  17  18
ATOM     18  C   UNL     1       2.053  -3.210   7.213  1.00  0.00     0.226 C 
ATOM     19  C   UNL     1       1.076  -2.044   7.138  1.00  0.00     0.049 C 
ENDBRANCH  17  18
ENDBRANCH  12  17
ENDBRANCH   9  11
ENDBRANCH   8   9
BRANCH   8  20
ATOM     20  C   UNL     1       6.242   1.044   5.007  1.00  0.00     0.027 C 
ATOM     21  C   UNL     1       6.845   2.254   5.742  1.00  0.00     0.011 C 
ATOM     22  C   UNL     1       4.824   1.485   4.606  1.00  0.00     0.011 C 
ENDBRANCH   8  20
BRANCH   8  23
ATOM     23  O   UNL     1       6.897   1.366   2.696  1.00  0.00    -0.377 OA
ATOM     24  H   UNL     1       7.124   2.271   2.962  1.00  0.00     0.212 HD
ENDBRANCH   8  23
ENDBRANCH   6   8
ENDBRANCH   5   6
ENDBRANCH   4   5
ENDBRANCH   3   4
ENDBRANCH   2   3
ENDBRANCH   1   2
BRANCH   1  25
ATOM     25  C   UNL     1       8.940   3.786   3.268  1.00  0.00     0.188 C 
BRANCH  25  26
ATOM     26  O   UNL     1       9.468   3.844   1.962  1.00  0.00    -0.376 OA
BRANCH  26  27
ATOM     27  C   UNL     1      10.521   4.758   1.709  1.00  0.00     0.202 C 
BRANCH  27  28
ATOM     28  C   UNL     1      10.584   6.160   2.358  1.00  0.00     0.261 C 
BRANCH  28  29
ATOM     29  O   UNL     1      10.034   6.309   3.679  1.00  0.00    -0.460 OA
BRANCH  29  30
ATOM     30  C   UNL     1       8.858   6.982   3.764  1.00  0.00     0.338 C 
ATOM     31  O   UNL     1       8.250   7.517   2.845  1.00  0.00    -0.246 OA
BRANCH  30  32
ATOM     32  C   UNL     1       8.271   6.808   5.113  1.00  0.00     0.060 A 
ATOM     33  C   UNL     1       7.040   6.143   5.228  1.00  0.00     0.016 A 
ATOM     34  C   UNL     1       8.892   7.321   6.252  1.00  0.00     0.016 A 
ATOM     35  C   UNL     1       6.423   5.998   6.474  1.00  0.00     0.010 A 
ATOM     36  C   UNL     1       8.253   7.208   7.497  1.00  0.00     0.010 A 
ATOM     37  C   UNL     1       7.005   6.567   7.613  1.00  0.00    -0.014 A 
BRANCH  37  38
ATOM     38  C   UNL     1       6.213   6.673   8.869  1.00  0.00     0.031 A 
ATOM     39  C   UNL     1       5.432   7.937   9.117  1.00  0.00     0.074 A 
ATOM     40  C   UNL     1       6.145   5.667   9.761  1.00  0.00     0.049 A 
ATOM     41  N   UNL     1       4.720   8.289  10.158  1.00  0.00    -0.248 NA
ATOM     42  C   UNL     1       5.456   8.937   8.037  1.00  0.00     0.031 C 
ATOM     43  C   UNL     1       6.784   4.362   9.622  1.00  0.00     0.029 A 
ATOM     44  N   UNL     1       5.501   5.599  10.975  1.00  0.00    -0.354 N 
ATOM     45  C   UNL     1       4.204   9.543   9.855  1.00  0.00     0.074 A 
ATOM     46  C   UNL     1       4.715   9.907   8.551  1.00  0.00     0.031 C 
ATOM     47  C   UNL     1       6.515   3.627  10.717  1.00  0.00     0.029 A 
ATOM     48  C   UNL     1       5.716   4.421  11.650  1.00  0.00     0.049 A 
ATOM     49  H   UNL     1       4.938   6.327  11.327  1.00  0.00     0.167 HD
ATOM     50  C   UNL     1       3.372  10.321  10.588  1.00  0.00     0.037 A 
ATOM     51  C   UNL     1       5.335   4.043  12.888  1.00  0.00     0.037 A 
ATOM     52  C   UNL     1       2.878   9.980  11.896  1.00  0.00     0.049 A 
ATOM     53  C   UNL     1       4.516   4.984  13.740  1.00  0.00     0.074 A 
ATOM     54  C   UNL     1       2.056  10.722  12.728  1.00  0.00     0.029 A 
ATOM     55  N   UNL     1       3.165   8.802  12.568  1.00  0.00    -0.354 N 
ATOM     56  N   UNL     1       4.034   6.168  13.447  1.00  0.00    -0.248 NA
ATOM     57  C   UNL     1       4.188   4.532  15.102  1.00  0.00     0.031 C 
ATOM     58  C   UNL     1       1.887  10.015  13.922  1.00  0.00     0.029 A 
ATOM     59  C   UNL     1       2.553   8.806  13.811  1.00  0.00     0.049 A 
ATOM     60  H   UNL     1       3.722   8.071  12.214  1.00  0.00     0.167 HD
ATOM     61  C   UNL     1       3.313   6.577  14.565  1.00  0.00     0.074 A 
ATOM     62  C   UNL     1       3.410   5.512  15.538  1.00  0.00     0.031 C 
ATOM     63  C   UNL     1       2.632   7.732  14.767  1.00  0.00     0.037 A 
BRANCH  50  64
ATOM     64  C   UNL     1       2.963  11.638   9.996  1.00  0.00     0.057 A 
ATOM     65  C   UNL     1       2.082  11.715   8.909  1.00  0.00     0.134 A 
ATOM     66  C   UNL     1       3.432  12.842  10.535  1.00  0.00     0.134 A 
ATOM     67  F   UNL     1       1.609  10.598   8.336  1.00  0.00    -0.206 F 
ATOM     68  C   UNL     1       1.700  12.942   8.365  1.00  0.00     0.040 A 
ATOM     69  C   UNL     1       3.034  14.076  10.018  1.00  0.00     0.040 A 
ATOM     70  F   UNL     1       4.274  12.840  11.579  1.00  0.00    -0.206 F 
ATOM     71  C   UNL     1       2.171  14.128   8.926  1.00  0.00     0.006 A 
ENDBRANCH  50  64
BRANCH  51  72
ATOM     72  C   UNL     1       5.744   2.721  13.438  1.00  0.00     0.057 A 
ATOM     73  C   UNL     1       4.797   1.740  13.757  1.00  0.00     0.134 A 
ATOM     74  C   UNL     1       7.083   2.443  13.743  1.00  0.00     0.134 A 
ATOM     75  F   UNL     1       3.494   1.957  13.523  1.00  0.00    -0.206 F 
ATOM     76  C   UNL     1       5.160   0.548  14.390  1.00  0.00     0.040 A 
ATOM     77  C   UNL     1       7.463   1.242  14.346  1.00  0.00     0.040 A 
ATOM     78  F   UNL     1       8.041   3.342  13.473  1.00  0.00    -0.206 F 
ATOM     79  C   UNL     1       6.498   0.296  14.684  1.00  0.00     0.006 A 
ENDBRANCH  51  72
BRANCH  63  80
ATOM     80  C   UNL     1       1.883   7.884  16.062  1.00  0.00     0.057 A 
ATOM     81  C   UNL     1       2.536   8.051  17.290  1.00  0.00     0.134 A 
ATOM     82  C   UNL     1       0.481   7.900  16.074  1.00  0.00     0.134 A 
ATOM     83  F   UNL     1       3.876   8.036  17.355  1.00  0.00    -0.206 F 
ATOM     84  C   UNL     1       1.825   8.198  18.483  1.00  0.00     0.040 A 
ATOM     85  C   UNL     1      -0.241   8.079  17.255  1.00  0.00     0.040 A 
ATOM     86  F   UNL     1      -0.212   7.758  14.934  1.00  0.00    -0.206 F 
ATOM     87  C   UNL     1       0.431   8.220  18.467  1.00  0.00     0.006 A 
ENDBRANCH  63  80
ENDBRANCH  37  38
ENDBRANCH  30  32
ENDBRANCH  29  30
ENDBRANCH  28  29
ENDBRANCH  27  28
ENDBRANCH  26  27
ENDBRANCH  25  26
ENDBRANCH   1  25
TORSDOF 23
