REMARK SMILES C=CCN(CC(=O)OCCOCCOCCOC(=O)c1ccc(-c2c3nc(c(-c4c(F)cccc4F)c4ccc([nH]4)c(-c4c(F)cccc4F)c4nc(c(-c5c(F)cccc5F)c5ccc2[nH]5)C=C4)C=C3)cc1)C(=O)[C@@H]1Oc2ccccc2O[C@H]1C
REMARK SMILES IDX 12 1 11 2 10 3 9 4 8 5 6 6 7 7 5 8 4 9 3 10 2 11 1 12 74 13
REMARK SMILES IDX 75 14 76 15 77 16 85 17 78 18 84 19 86 20 79 21 83 22 80 23
REMARK SMILES IDX 82 24 81 25 13 26 14 27 15 28 16 29 17 30 18 31 19 32 20 33
REMARK SMILES IDX 21 34 73 35 22 36 72 37 23 38 24 39 25 40 66 41 26 42 71 43
REMARK SMILES IDX 65 44 67 45 27 46 70 47 64 48 63 49 28 51 54 52 37 53 53 54
REMARK SMILES IDX 38 55 41 56 52 57 68 58 39 59 40 60 51 62 69 63 42 64 29 65
REMARK SMILES IDX 30 66 35 67 31 68 32 69 34 70 36 71 33 72 55 73 56 74 61 75
REMARK SMILES IDX 57 76 58 77 60 78 62 79 59 80 43 81 44 82 49 83 45 84 46 85
REMARK SMILES IDX 48 86 50 87 47 88
REMARK H PARENT 67 50 41 61
REMARK Flexibility Score: inf
ROOT
ATOM      1  C   UNL     1      -6.109   1.816  -3.487  1.00  0.00     0.188 C 
ENDROOT
BRANCH   1   2
ATOM      2  O   UNL     1      -7.203   0.917  -3.321  1.00  0.00    -0.376 OA
BRANCH   2   3
ATOM      3  C   UNL     1      -7.066  -0.063  -2.292  1.00  0.00     0.202 C 
BRANCH   3   4
ATOM      4  C   UNL     1      -6.081  -1.214  -2.569  1.00  0.00     0.261 C 
BRANCH   4   5
ATOM      5  O   UNL     1      -4.667  -0.880  -2.586  1.00  0.00    -0.462 OA
BRANCH   5   6
ATOM      6  C   UNL     1      -3.909  -1.938  -3.033  1.00  0.00     0.325 C 
ATOM      7  O   UNL     1      -4.399  -3.020  -3.355  1.00  0.00    -0.250 OA
BRANCH   6   8
ATOM      8  C   UNL     1      -2.423  -1.641  -3.311  1.00  0.00     0.242 C 
BRANCH   8   9
ATOM      9  N   UNL     1      -1.643  -0.776  -2.423  1.00  0.00    -0.325 N 
BRANCH   9  10
ATOM     10  C   UNL     1      -1.362  -1.260  -1.074  1.00  0.00     0.147 C 
BRANCH  10  11
ATOM     11  C   UNL     1       0.104  -1.588  -0.967  1.00  0.00    -0.014 C 
ATOM     12  C   UNL     1       0.893  -1.271   0.068  1.00  0.00     0.006 C 
ENDBRANCH  10  11
ENDBRANCH   9  10
BRANCH   9  13
ATOM     13  C   UNL     1      -0.849   0.218  -3.003  1.00  0.00     0.268 C 
ATOM     14  O   UNL     1      -0.391   0.095  -4.142  1.00  0.00    -0.270 OA
BRANCH  13  15
ATOM     15  C   UNL     1      -0.851   1.590  -2.310  1.00  0.00     0.302 C 
ATOM     16  O   UNL     1      -0.369   1.597  -0.965  1.00  0.00    -0.473 OA
ATOM     17  C   UNL     1      -2.306   2.052  -2.497  1.00  0.00     0.221 C 
ATOM     18  C   UNL     1      -1.252   2.094  -0.044  1.00  0.00     0.162 A 
ATOM     19  O   UNL     1      -2.559   3.211  -1.706  1.00  0.00    -0.482 OA
ATOM     20  C   UNL     1      -2.655   2.300  -3.966  1.00  0.00     0.057 C 
ATOM     21  C   UNL     1      -1.054   1.740   1.286  1.00  0.00     0.050 A 
ATOM     22  C   UNL     1      -2.382   2.821  -0.402  1.00  0.00     0.161 A 
ATOM     23  C   UNL     1      -2.065   1.965   2.220  1.00  0.00     0.004 A 
ATOM     24  C   UNL     1      -3.381   3.085   0.530  1.00  0.00     0.050 A 
ATOM     25  C   UNL     1      -3.241   2.610   1.834  1.00  0.00     0.004 A 
ENDBRANCH  13  15
ENDBRANCH   9  13
ENDBRANCH   8   9
ENDBRANCH   6   8
ENDBRANCH   5   6
ENDBRANCH   4   5
ENDBRANCH   3   4
ENDBRANCH   2   3
ENDBRANCH   1   2
BRANCH   1  26
ATOM     26  C   UNL     1      -5.808   2.710  -2.271  1.00  0.00     0.188 C 
BRANCH  26  27
ATOM     27  O   UNL     1      -6.501   3.960  -2.228  1.00  0.00    -0.376 OA
BRANCH  27  28
ATOM     28  C   UNL     1      -5.975   4.965  -3.104  1.00  0.00     0.202 C 
BRANCH  28  29
ATOM     29  C   UNL     1      -4.645   5.606  -2.659  1.00  0.00     0.261 C 
BRANCH  29  30
ATOM     30  O   UNL     1      -3.785   5.639  -3.817  1.00  0.00    -0.460 OA
BRANCH  30  31
ATOM     31  C   UNL     1      -2.475   5.920  -3.623  1.00  0.00     0.338 C 
ATOM     32  O   UNL     1      -1.924   6.229  -2.582  1.00  0.00    -0.246 OA
BRANCH  31  33
ATOM     33  C   UNL     1      -1.785   5.640  -4.905  1.00  0.00     0.060 A 
ATOM     34  C   UNL     1      -0.626   4.856  -4.903  1.00  0.00     0.016 A 
ATOM     35  C   UNL     1      -2.341   6.063  -6.118  1.00  0.00     0.016 A 
ATOM     36  C   UNL     1      -0.089   4.402  -6.113  1.00  0.00     0.010 A 
ATOM     37  C   UNL     1      -1.766   5.664  -7.326  1.00  0.00     0.010 A 
ATOM     38  C   UNL     1      -0.648   4.816  -7.332  1.00  0.00    -0.014 A 
BRANCH  38  39
ATOM     39  C   UNL     1       0.052   4.547  -8.612  1.00  0.00     0.031 A 
ATOM     40  C   UNL     1       1.214   5.429  -8.966  1.00  0.00     0.074 A 
ATOM     41  C   UNL     1      -0.353   3.584  -9.461  1.00  0.00     0.049 A 
ATOM     42  N   UNL     1       1.933   5.463 -10.056  1.00  0.00    -0.248 NA
ATOM     43  C   UNL     1       1.616   6.410  -7.944  1.00  0.00     0.031 C 
ATOM     44  C   UNL     1      -1.435   2.633  -9.217  1.00  0.00     0.029 A 
ATOM     45  N   UNL     1       0.100   3.260 -10.718  1.00  0.00    -0.354 N 
ATOM     46  C   UNL     1       2.876   6.460  -9.848  1.00  0.00     0.074 A 
ATOM     47  C   UNL     1       2.635   7.012  -8.534  1.00  0.00     0.031 C 
ATOM     48  C   UNL     1      -1.576   1.845 -10.300  1.00  0.00     0.029 A 
ATOM     49  C   UNL     1      -0.616   2.255 -11.323  1.00  0.00     0.049 A 
ATOM     50  H   UNL     1       0.867   3.707 -11.145  1.00  0.00     0.167 HD
ATOM     51  C   UNL     1       3.848   6.894 -10.682  1.00  0.00     0.037 A 
ATOM     52  C   UNL     1      -0.518   1.748 -12.570  1.00  0.00     0.037 A 
ATOM     53  C   UNL     1       4.050   6.396 -12.012  1.00  0.00     0.049 A 
ATOM     54  C   UNL     1       0.517   2.308 -13.515  1.00  0.00     0.074 A 
ATOM     55  C   UNL     1       4.977   6.800 -12.954  1.00  0.00     0.029 A 
ATOM     56  N   UNL     1       3.291   5.393 -12.595  1.00  0.00    -0.354 N 
ATOM     57  N   UNL     1       1.413   3.242 -13.304  1.00  0.00    -0.248 NA
ATOM     58  C   UNL     1       0.546   1.752 -14.878  1.00  0.00     0.031 C 
ATOM     59  C   UNL     1       4.752   6.068 -14.125  1.00  0.00     0.029 A 
ATOM     60  C   UNL     1       3.713   5.178 -13.894  1.00  0.00     0.049 A 
ATOM     61  H   UNL     1       2.560   4.906 -12.150  1.00  0.00     0.167 HD
ATOM     62  C   UNL     1       2.123   3.370 -14.493  1.00  0.00     0.074 A 
ATOM     63  C   UNL     1       1.562   2.409 -15.420  1.00  0.00     0.031 C 
ATOM     64  C   UNL     1       3.145   4.208 -14.793  1.00  0.00     0.037 A 
BRANCH  51  65
ATOM     65  C   UNL     1       4.709   8.008 -10.176  1.00  0.00     0.057 A 
ATOM     66  C   UNL     1       5.685   7.796  -9.193  1.00  0.00     0.134 A 
ATOM     67  C   UNL     1       4.519   9.317 -10.633  1.00  0.00     0.134 A 
ATOM     68  F   UNL     1       5.890   6.569  -8.693  1.00  0.00    -0.206 F 
ATOM     69  C   UNL     1       6.422   8.855  -8.661  1.00  0.00     0.040 A 
ATOM     70  C   UNL     1       5.265  10.380 -10.124  1.00  0.00     0.040 A 
ATOM     71  F   UNL     1       3.591   9.586 -11.564  1.00  0.00    -0.206 F 
ATOM     72  C   UNL     1       6.213  10.152  -9.128  1.00  0.00     0.006 A 
ENDBRANCH  51  65
BRANCH  52  73
ATOM     73  C   UNL     1      -1.440   0.673 -13.025  1.00  0.00     0.057 A 
ATOM     74  C   UNL     1      -0.974  -0.619 -13.298  1.00  0.00     0.134 A 
ATOM     75  C   UNL     1      -2.799   0.925 -13.252  1.00  0.00     0.134 A 
ATOM     76  F   UNL     1       0.324  -0.917 -13.134  1.00  0.00    -0.206 F 
ATOM     77  C   UNL     1      -1.819  -1.615 -13.794  1.00  0.00     0.040 A 
ATOM     78  C   UNL     1      -3.660  -0.068 -13.727  1.00  0.00     0.040 A 
ATOM     79  F   UNL     1      -3.310   2.143 -13.022  1.00  0.00    -0.206 F 
ATOM     80  C   UNL     1      -3.168  -1.341 -14.007  1.00  0.00     0.006 A 
ENDBRANCH  52  73
BRANCH  64  81
ATOM     81  C   UNL     1       3.744   4.107 -16.165  1.00  0.00     0.057 A 
ATOM     82  C   UNL     1       3.094   4.622 -17.293  1.00  0.00     0.134 A 
ATOM     83  C   UNL     1       5.019   3.556 -16.344  1.00  0.00     0.134 A 
ATOM     84  F   UNL     1       1.867   5.155 -17.187  1.00  0.00    -0.206 F 
ATOM     85  C   UNL     1       3.688   4.583 -18.555  1.00  0.00     0.040 A 
ATOM     86  C   UNL     1       5.632   3.531 -17.597  1.00  0.00     0.040 A 
ATOM     87  F   UNL     1       5.698   3.056 -15.301  1.00  0.00    -0.206 F 
ATOM     88  C   UNL     1       4.965   4.044 -18.708  1.00  0.00     0.006 A 
ENDBRANCH  64  81
ENDBRANCH  38  39
ENDBRANCH  31  33
ENDBRANCH  30  31
ENDBRANCH  29  30
ENDBRANCH  28  29
ENDBRANCH  27  28
ENDBRANCH  26  27
ENDBRANCH   1  26
TORSDOF 22
