REMARK SMILES O=C(OCCOCCOCCOC(=O)c1cn(-c2ccccc2)c2c1N=C(O)C[C@@H]2c1cccs1)c1ccc(-c2c3nc(c(-c4c(F)cccc4F)c4ccc([nH]4)c(-c4c(F)cccc4F)c4nc(c(-c5c(F)cccc5F)c5ccc2[nH]5)C=C4)C=C3)cc1
REMARK SMILES IDX 7 1 6 2 5 3 4 4 3 5 2 6 1 7 36 8 37 9 89 10 38 11 88 12
REMARK SMILES IDX 39 13 40 14 41 15 82 16 42 17 87 18 81 19 83 20 43 21 86 22
REMARK SMILES IDX 80 23 79 24 44 26 70 27 53 28 69 29 54 30 57 31 68 32 84 33
REMARK SMILES IDX 55 34 56 35 67 37 85 38 58 39 45 40 46 41 51 42 47 43 48 44
REMARK SMILES IDX 50 45 52 46 49 47 71 48 72 49 77 50 73 51 74 52 76 53 78 54
REMARK SMILES IDX 75 55 59 56 60 57 65 58 61 59 62 60 64 61 66 62 63 63 8 64
REMARK SMILES IDX 9 65 10 66 11 67 12 68 13 69 14 70 15 71 16 72 25 73 17 74
REMARK SMILES IDX 24 75 26 76 30 77 27 78 29 79 18 80 19 81 23 82 20 83 22 84
REMARK SMILES IDX 21 85 31 86 32 87 35 88 33 89 34 90 28 91
REMARK H PARENT 83 25 57 36 28 92
REMARK Flexibility Score: inf
ROOT
ATOM      1  C   UNL     1       3.308  -1.479   0.585  1.00  0.00     0.188 C 
ENDROOT
BRANCH   1   2
ATOM      2  O   UNL     1       4.662  -1.240   0.887  1.00  0.00    -0.376 OA
BRANCH   2   3
ATOM      3  C   UNL     1       5.339  -0.091   0.430  1.00  0.00     0.202 C 
BRANCH   3   4
ATOM      4  C   UNL     1       4.705   1.305   0.486  1.00  0.00     0.261 C 
BRANCH   4   5
ATOM      5  O   UNL     1       3.288   1.361   0.665  1.00  0.00    -0.460 OA
BRANCH   5   6
ATOM      6  C   UNL     1       2.283   1.459  -0.224  1.00  0.00     0.338 C 
ATOM      7  O   UNL     1       1.169   1.780   0.186  1.00  0.00    -0.246 OA
BRANCH   6   8
ATOM      8  C   UNL     1       2.396   1.079  -1.660  1.00  0.00     0.060 A 
ATOM      9  C   UNL     1       3.575   0.963  -2.399  1.00  0.00     0.016 A 
ATOM     10  C   UNL     1       1.165   0.860  -2.311  1.00  0.00     0.016 A 
ATOM     11  C   UNL     1       3.518   0.852  -3.779  1.00  0.00     0.010 A 
ATOM     12  C   UNL     1       1.102   0.721  -3.683  1.00  0.00     0.010 A 
ATOM     13  C   UNL     1       2.278   0.824  -4.413  1.00  0.00    -0.014 A 
BRANCH  13  14
ATOM     14  C   UNL     1       2.254   0.916  -5.861  1.00  0.00     0.031 A 
ATOM     15  C   UNL     1       2.849  -0.243  -6.573  1.00  0.00     0.074 A 
ATOM     16  C   UNL     1       1.656   1.955  -6.478  1.00  0.00     0.049 A 
ATOM     17  N   UNL     1       3.857  -0.260  -7.382  1.00  0.00    -0.248 NA
ATOM     18  C   UNL     1       2.325  -1.577  -6.241  1.00  0.00     0.031 C 
ATOM     19  C   UNL     1       0.830   3.010  -5.879  1.00  0.00     0.029 A 
ATOM     20  N   UNL     1       1.584   2.236  -7.806  1.00  0.00    -0.354 N 
ATOM     21  C   UNL     1       3.966  -1.578  -7.820  1.00  0.00     0.074 A 
ATOM     22  C   UNL     1       3.106  -2.366  -6.977  1.00  0.00     0.031 C 
ATOM     23  C   UNL     1       0.157   3.660  -6.854  1.00  0.00     0.029 A 
ATOM     24  C   UNL     1       0.607   3.165  -8.142  1.00  0.00     0.049 A 
ATOM     25  H   UNL     1       2.173   1.816  -8.473  1.00  0.00     0.167 HD
ATOM     26  C   UNL     1       4.574  -1.887  -8.998  1.00  0.00     0.037 A 
ATOM     27  C   UNL     1       0.159   3.439  -9.392  1.00  0.00     0.037 A 
ATOM     28  C   UNL     1       5.471  -0.845  -9.421  1.00  0.00     0.049 A 
ATOM     29  C   UNL     1       1.178   2.939 -10.349  1.00  0.00     0.074 A 
ATOM     30  C   UNL     1       6.598  -0.263  -8.874  1.00  0.00     0.029 A 
ATOM     31  N   UNL     1       5.050   0.017 -10.403  1.00  0.00    -0.354 N 
ATOM     32  N   UNL     1       2.364   3.462 -10.483  1.00  0.00    -0.248 NA
ATOM     33  C   UNL     1       1.045   1.566 -10.815  1.00  0.00     0.031 C 
ATOM     34  C   UNL     1       6.490   1.121  -9.197  1.00  0.00     0.029 A 
ATOM     35  C   UNL     1       5.346   1.287  -9.977  1.00  0.00     0.049 A 
ATOM     36  H   UNL     1       4.618  -0.230 -11.253  1.00  0.00     0.167 HD
ATOM     37  C   UNL     1       3.215   2.378 -10.643  1.00  0.00     0.074 A 
ATOM     38  C   UNL     1       2.337   1.241 -10.913  1.00  0.00     0.031 C 
ATOM     39  C   UNL     1       4.523   2.440 -10.258  1.00  0.00     0.037 A 
BRANCH  26  40
ATOM     40  C   UNL     1       4.072  -2.961  -9.927  1.00  0.00     0.057 A 
ATOM     41  C   UNL     1       4.848  -3.345 -11.034  1.00  0.00     0.134 A 
ATOM     42  C   UNL     1       2.739  -3.423  -9.940  1.00  0.00     0.134 A 
ATOM     43  F   UNL     1       6.123  -2.945 -11.152  1.00  0.00    -0.206 F 
ATOM     44  C   UNL     1       4.318  -4.083 -12.100  1.00  0.00     0.040 A 
ATOM     45  C   UNL     1       2.214  -4.202 -10.974  1.00  0.00     0.040 A 
ATOM     46  F   UNL     1       1.846  -3.061  -9.010  1.00  0.00    -0.206 F 
ATOM     47  C   UNL     1       2.996  -4.511 -12.074  1.00  0.00     0.006 A 
ENDBRANCH  26  40
BRANCH  27  48
ATOM     48  C   UNL     1      -1.224   3.771  -9.805  1.00  0.00     0.057 A 
ATOM     49  C   UNL     1      -1.495   4.316 -11.068  1.00  0.00     0.134 A 
ATOM     50  C   UNL     1      -2.340   3.313  -9.081  1.00  0.00     0.134 A 
ATOM     51  F   UNL     1      -0.494   4.738 -11.855  1.00  0.00    -0.206 F 
ATOM     52  C   UNL     1      -2.795   4.384 -11.588  1.00  0.00     0.040 A 
ATOM     53  C   UNL     1      -3.643   3.382  -9.583  1.00  0.00     0.040 A 
ATOM     54  F   UNL     1      -2.195   2.699  -7.898  1.00  0.00    -0.206 F 
ATOM     55  C   UNL     1      -3.874   3.907 -10.848  1.00  0.00     0.006 A 
ENDBRANCH  27  48
BRANCH  39  56
ATOM     56  C   UNL     1       5.075   3.782  -9.857  1.00  0.00     0.057 A 
ATOM     57  C   UNL     1       4.617   4.521  -8.754  1.00  0.00     0.134 A 
ATOM     58  C   UNL     1       6.209   4.270 -10.514  1.00  0.00     0.134 A 
ATOM     59  F   UNL     1       3.606   4.082  -7.996  1.00  0.00    -0.206 F 
ATOM     60  C   UNL     1       5.231   5.713  -8.356  1.00  0.00     0.040 A 
ATOM     61  C   UNL     1       6.853   5.441 -10.105  1.00  0.00     0.040 A 
ATOM     62  F   UNL     1       6.742   3.587 -11.539  1.00  0.00    -0.206 F 
ATOM     63  C   UNL     1       6.358   6.173  -9.030  1.00  0.00     0.006 A 
ENDBRANCH  39  56
ENDBRANCH  13  14
ENDBRANCH   6   8
ENDBRANCH   5   6
ENDBRANCH   4   5
ENDBRANCH   3   4
ENDBRANCH   2   3
ENDBRANCH   1   2
BRANCH   1  64
ATOM     64  C   UNL     1       2.329  -1.304   1.772  1.00  0.00     0.188 C 
BRANCH  64  65
ATOM     65  O   UNL     1       2.765  -1.244   3.127  1.00  0.00    -0.376 OA
BRANCH  65  66
ATOM     66  C   UNL     1       4.061  -1.673   3.498  1.00  0.00     0.202 C 
BRANCH  66  67
ATOM     67  C   UNL     1       4.350  -3.176   3.433  1.00  0.00     0.261 C 
BRANCH  67  68
ATOM     68  O   UNL     1       4.032  -3.820   2.196  1.00  0.00    -0.460 OA
BRANCH  68  69
ATOM     69  C   UNL     1       2.804  -4.414   2.114  1.00  0.00     0.342 C 
ATOM     70  O   UNL     1       1.925  -4.348   2.954  1.00  0.00    -0.246 OA
BRANCH  69  71
ATOM     71  C   UNL     1       2.648  -5.125   0.858  1.00  0.00     0.104 A 
ATOM     72  C   UNL     1       1.795  -4.838  -0.201  1.00  0.00     0.109 A 
ATOM     73  C   UNL     1       3.356  -6.265   0.469  1.00  0.00     0.103 A 
ATOM     74  N   UNL     1       1.931  -5.820  -1.171  1.00  0.00    -0.317 N 
ATOM     75  C   UNL     1       2.900  -6.711  -0.743  1.00  0.00     0.058 A 
ATOM     76  N   UNL     1       4.384  -6.845   1.201  1.00  0.00    -0.215 NA
ATOM     77  C   UNL     1       3.464  -7.891  -1.455  1.00  0.00     0.088 C 
ATOM     78  C   UNL     1       4.791  -7.975   0.734  1.00  0.00     0.187 C 
ATOM     79  C   UNL     1       4.225  -8.759  -0.426  1.00  0.00     0.112 C 
BRANCH  74  80
ATOM     80  C   UNL     1       1.214  -5.863  -2.392  1.00  0.00     0.045 A 
ATOM     81  C   UNL     1       0.500  -7.015  -2.735  1.00  0.00     0.026 A 
ATOM     82  C   UNL     1       1.249  -4.766  -3.261  1.00  0.00     0.026 A 
ATOM     83  C   UNL     1      -0.167  -7.078  -3.959  1.00  0.00     0.002 A 
ATOM     84  C   UNL     1       0.610  -4.855  -4.502  1.00  0.00     0.002 A 
ATOM     85  C   UNL     1      -0.098  -6.007  -4.849  1.00  0.00     0.000 A 
ENDBRANCH  74  80
BRANCH  77  86
ATOM     86  C   UNL     1       4.341  -7.602  -2.667  1.00  0.00     0.014 A 
ATOM     87  C   UNL     1       4.833  -8.546  -3.555  1.00  0.00     0.016 A 
ATOM     88  S   UNL     1       4.850  -6.027  -3.124  1.00  0.00    -0.148 S 
ATOM     89  C   UNL     1       5.604  -7.976  -4.606  1.00  0.00     0.012 A 
ATOM     90  C   UNL     1       5.662  -6.606  -4.510  1.00  0.00     0.065 A 
ENDBRANCH  77  86
BRANCH  78  91
ATOM     91  O   UNL     1       5.783  -8.602   1.398  1.00  0.00    -0.496 OA
ATOM     92  H   UNL     1       6.191  -8.186   2.132  1.00  0.00     0.294 HD
ENDBRANCH  78  91
ENDBRANCH  69  71
ENDBRANCH  68  69
ENDBRANCH  67  68
ENDBRANCH  66  67
ENDBRANCH  65  66
ENDBRANCH  64  65
ENDBRANCH   1  64
TORSDOF 20
