REMARK SMILES Cc1nonc1C[C@@H](C(=O)OCCOCCOCCOC(=O)c1ccc(-c2c3nc(c(-c4c(F)cccc4F)c4ccc([nH]4)c(-c4c(F)cccc4F)c4nc(c(-c5c(F)cccc5F)c5ccc2[nH]5)C=C4)C=C3)cc1)c1ccccc1Br
REMARK SMILES IDX 15 1 14 2 13 3 12 4 11 5 9 6 10 7 8 8 7 9 6 10 1 11 2 12
REMARK SMILES IDX 3 13 4 14 5 15 77 16 78 17 82 18 79 19 81 20 83 21 80 22
REMARK SMILES IDX 16 23 17 24 18 25 19 26 20 27 21 28 22 29 23 30 24 31 76 32
REMARK SMILES IDX 25 33 75 34 26 35 27 36 28 37 69 38 29 39 74 40 68 41 70 42
REMARK SMILES IDX 30 43 73 44 67 45 66 46 31 48 57 49 40 50 56 51 41 52 44 53
REMARK SMILES IDX 55 54 71 55 42 56 43 57 54 59 72 60 45 61 32 62 33 63 38 64
REMARK SMILES IDX 34 65 35 66 37 67 39 68 36 69 58 70 59 71 64 72 60 73 61 74
REMARK SMILES IDX 63 75 65 76 62 77 46 78 47 79 52 80 48 81 49 82 51 83 53 84
REMARK SMILES IDX 50 85
REMARK H PARENT 70 47 44 58
REMARK Flexibility Score: inf
ROOT
ATOM      1  C   UNL     1      -3.636   4.217   0.253  1.00  0.00     0.188 C 
ENDROOT
BRANCH   1   2
ATOM      2  O   UNL     1      -4.806   3.551  -0.190  1.00  0.00    -0.376 OA
BRANCH   2   3
ATOM      3  C   UNL     1      -4.669   2.346  -0.936  1.00  0.00     0.202 C 
BRANCH   3   4
ATOM      4  C   UNL     1      -3.691   2.319  -2.110  1.00  0.00     0.261 C 
BRANCH   4   5
ATOM      5  O   UNL     1      -2.362   2.650  -1.684  1.00  0.00    -0.463 OA
BRANCH   5   6
ATOM      6  C   UNL     1      -1.388   2.468  -2.608  1.00  0.00     0.313 C 
ATOM      7  O   UNL     1      -1.571   1.997  -3.726  1.00  0.00    -0.252 OA
BRANCH   6   8
ATOM      8  C   UNL     1      -0.031   2.961  -2.125  1.00  0.00     0.136 C 
BRANCH   8   9
ATOM      9  C   UNL     1       0.496   2.112  -0.936  1.00  0.00     0.082 C 
BRANCH   9  10
ATOM     10  C   UNL     1       0.267   0.643  -0.855  1.00  0.00     0.109 A 
ATOM     11  C   UNL     1       2.591  -0.236  -0.015  1.00  0.00     0.073 C 
ATOM     12  C   UNL     1       1.171  -0.350  -0.411  1.00  0.00     0.105 A 
ATOM     13  N   UNL     1       0.543  -1.525  -0.343  1.00  0.00    -0.055 NA
ATOM     14  O   UNL     1      -0.767  -1.255  -0.721  1.00  0.00    -0.244 OA
ATOM     15  N   UNL     1      -0.933   0.090  -1.027  1.00  0.00    -0.055 NA
ENDBRANCH   9  10
ENDBRANCH   8   9
BRANCH   8  16
ATOM     16  C   UNL     1       0.106   4.492  -1.844  1.00  0.00    -0.019 A 
ATOM     17  C   UNL     1       1.161   4.922  -0.991  1.00  0.00     0.006 A 
ATOM     18  C   UNL     1      -0.659   5.528  -2.423  1.00  0.00     0.022 A 
ATOM     19  C   UNL     1       1.394   6.265  -0.676  1.00  0.00     0.000 A 
ATOM     20  C   UNL     1      -0.434   6.879  -2.082  1.00  0.00     0.016 A 
ATOM     21  Br  UNL     1      -1.990   5.302  -3.760  1.00  0.00    -0.051 Br
ATOM     22  C   UNL     1       0.584   7.247  -1.210  1.00  0.00     0.001 A 
ENDBRANCH   8  16
ENDBRANCH   6   8
ENDBRANCH   5   6
ENDBRANCH   4   5
ENDBRANCH   3   4
ENDBRANCH   2   3
ENDBRANCH   1   2
BRANCH   1  23
ATOM     23  C   UNL     1      -2.558   3.459   1.046  1.00  0.00     0.188 C 
BRANCH  23  24
ATOM     24  O   UNL     1      -2.751   2.163   1.576  1.00  0.00    -0.376 OA
BRANCH  24  25
ATOM     25  C   UNL     1      -3.890   1.881   2.372  1.00  0.00     0.202 C 
BRANCH  25  26
ATOM     26  C   UNL     1      -4.142   2.662   3.666  1.00  0.00     0.261 C 
BRANCH  26  27
ATOM     27  O   UNL     1      -3.886   4.065   3.567  1.00  0.00    -0.460 OA
BRANCH  27  28
ATOM     28  C   UNL     1      -2.752   4.477   4.189  1.00  0.00     0.338 C 
ATOM     29  O   UNL     1      -1.984   3.817   4.862  1.00  0.00    -0.246 OA
BRANCH  28  30
ATOM     30  C   UNL     1      -2.456   5.850   3.737  1.00  0.00     0.060 A 
ATOM     31  C   UNL     1      -1.198   6.092   3.167  1.00  0.00     0.016 A 
ATOM     32  C   UNL     1      -3.403   6.869   3.843  1.00  0.00     0.016 A 
ATOM     33  C   UNL     1      -0.876   7.365   2.710  1.00  0.00     0.010 A 
ATOM     34  C   UNL     1      -3.067   8.154   3.416  1.00  0.00     0.010 A 
ATOM     35  C   UNL     1      -1.795   8.409   2.873  1.00  0.00    -0.014 A 
BRANCH  35  36
ATOM     36  C   UNL     1      -1.344   9.803   2.680  1.00  0.00     0.031 A 
ATOM     37  C   UNL     1      -0.807  10.538   3.875  1.00  0.00     0.074 A 
ATOM     38  C   UNL     1      -1.393  10.397   1.477  1.00  0.00     0.049 A 
ATOM     39  N   UNL     1      -0.402  11.777   3.974  1.00  0.00    -0.248 NA
ATOM     40  C   UNL     1      -0.717   9.769   5.127  1.00  0.00     0.031 C 
ATOM     41  C   UNL     1      -1.855   9.772   0.240  1.00  0.00     0.029 A 
ATOM     42  N   UNL     1      -1.052  11.673   1.107  1.00  0.00    -0.354 N 
ATOM     43  C   UNL     1      -0.018  11.938   5.299  1.00  0.00     0.074 A 
ATOM     44  C   UNL     1      -0.254  10.678   5.970  1.00  0.00     0.031 C 
ATOM     45  C   UNL     1      -1.779  10.673  -0.756  1.00  0.00     0.029 A 
ATOM     46  C   UNL     1      -1.296  11.944  -0.217  1.00  0.00     0.049 A 
ATOM     47  H   UNL     1      -0.670  12.332   1.730  1.00  0.00     0.167 HD
ATOM     48  C   UNL     1       0.486  13.038   5.903  1.00  0.00     0.037 A 
ATOM     49  C   UNL     1      -1.167  13.098  -0.900  1.00  0.00     0.037 A 
ATOM     50  C   UNL     1       0.704  14.294   5.241  1.00  0.00     0.049 A 
ATOM     51  C   UNL     1      -0.679  14.332  -0.185  1.00  0.00     0.074 A 
ATOM     52  C   UNL     1       1.213  15.468   5.766  1.00  0.00     0.029 A 
ATOM     53  N   UNL     1       0.413  14.541   3.909  1.00  0.00    -0.354 N 
ATOM     54  N   UNL     1      -0.299  14.472   1.063  1.00  0.00    -0.248 NA
ATOM     55  C   UNL     1      -0.611  15.572  -0.973  1.00  0.00     0.031 C 
ATOM     56  C   UNL     1       1.188  16.440   4.761  1.00  0.00     0.029 A 
ATOM     57  C   UNL     1       0.708  15.857   3.598  1.00  0.00     0.049 A 
ATOM     58  H   UNL     1       0.050  13.879   3.277  1.00  0.00     0.167 HD
ATOM     59  C   UNL     1       0.072  15.805   1.202  1.00  0.00     0.074 A 
ATOM     60  C   UNL     1      -0.113  16.427  -0.092  1.00  0.00     0.031 C 
ATOM     61  C   UNL     1       0.524  16.457   2.302  1.00  0.00     0.037 A 
BRANCH  48  62
ATOM     62  C   UNL     1       0.797  12.931   7.364  1.00  0.00     0.057 A 
ATOM     63  C   UNL     1       1.898  12.203   7.833  1.00  0.00     0.134 A 
ATOM     64  C   UNL     1      -0.012  13.568   8.312  1.00  0.00     0.134 A 
ATOM     65  F   UNL     1       2.697  11.550   6.976  1.00  0.00    -0.206 F 
ATOM     66  C   UNL     1       2.172  12.097   9.198  1.00  0.00     0.040 A 
ATOM     67  C   UNL     1       0.265  13.489   9.677  1.00  0.00     0.040 A 
ATOM     68  F   UNL     1      -1.084  14.277   7.927  1.00  0.00    -0.206 F 
ATOM     69  C   UNL     1       1.357  12.747  10.123  1.00  0.00     0.006 A 
ENDBRANCH  48  62
BRANCH  49  70
ATOM     70  C   UNL     1      -1.526  13.159  -2.339  1.00  0.00     0.057 A 
ATOM     71  C   UNL     1      -0.548  13.350  -3.321  1.00  0.00     0.134 A 
ATOM     72  C   UNL     1      -2.858  13.070  -2.762  1.00  0.00     0.134 A 
ATOM     73  F   UNL     1       0.742  13.469  -2.974  1.00  0.00    -0.206 F 
ATOM     74  C   UNL     1      -0.882  13.469  -4.672  1.00  0.00     0.040 A 
ATOM     75  C   UNL     1      -3.203  13.162  -4.111  1.00  0.00     0.040 A 
ATOM     76  F   UNL     1      -3.842  12.890  -1.869  1.00  0.00    -0.206 F 
ATOM     77  C   UNL     1      -2.214  13.371  -5.070  1.00  0.00     0.006 A 
ENDBRANCH  49  70
BRANCH  61  78
ATOM     78  C   UNL     1       0.878  17.907   2.149  1.00  0.00     0.057 A 
ATOM     79  C   UNL     1      -0.104  18.897   2.019  1.00  0.00     0.134 A 
ATOM     80  C   UNL     1       2.216  18.322   2.186  1.00  0.00     0.134 A 
ATOM     81  F   UNL     1      -1.402  18.565   1.966  1.00  0.00    -0.206 F 
ATOM     82  C   UNL     1       0.234  20.248   1.912  1.00  0.00     0.040 A 
ATOM     83  C   UNL     1       2.564  19.670   2.105  1.00  0.00     0.040 A 
ATOM     84  F   UNL     1       3.204  17.424   2.319  1.00  0.00    -0.206 F 
ATOM     85  C   UNL     1       1.571  20.638   1.962  1.00  0.00     0.006 A 
ENDBRANCH  61  78
ENDBRANCH  35  36
ENDBRANCH  28  30
ENDBRANCH  27  28
ENDBRANCH  26  27
ENDBRANCH  25  26
ENDBRANCH  24  25
ENDBRANCH  23  24
ENDBRANCH   1  23
TORSDOF 20
