REMARK SMILES O=C(Cc1ccccc1Nc1c(Cl)cccc1C(F)(F)F)OCCOCCOCCOC(=O)c1ccc(-c2c3nc(c(-c4c(F)cccc4F)c4ccc([nH]4)c(-c4c(F)cccc4F)c4nc(c(-c5c(F)cccc5F)c5ccc2[nH]5)C=C4)C=C3)cc1
REMARK SMILES IDX 26 1 25 2 24 3 23 4 22 5 2 6 1 7 3 8 4 9 5 10 9 11 6 12 8 13
REMARK SMILES IDX 7 14 10 15 11 17 12 18 17 19 13 20 14 21 16 22 15 23 18 24
REMARK SMILES IDX 19 25 20 26 21 27 27 28 28 29 29 30 30 31 31 32 32 33 33 34
REMARK SMILES IDX 34 35 35 36 87 37 36 38 86 39 37 40 38 41 39 42 80 43 40 44
REMARK SMILES IDX 85 45 79 46 81 47 41 48 84 49 78 50 77 51 42 53 68 54 51 55
REMARK SMILES IDX 67 56 52 57 55 58 66 59 82 60 53 61 54 62 65 64 83 65 56 66
REMARK SMILES IDX 43 67 44 68 49 69 45 70 46 71 48 72 50 73 47 74 69 75 70 76
REMARK SMILES IDX 75 77 71 78 72 79 74 80 76 81 73 82 57 83 58 84 63 85 59 86
REMARK SMILES IDX 60 87 62 88 64 89 61 90
REMARK H PARENT 10 16 81 52 55 63
REMARK Flexibility Score: inf
ROOT
ATOM      1  C   UNL     1       3.013  -0.441  -1.983  1.00  0.00     0.188 C 
ENDROOT
BRANCH   1   2
ATOM      2  O   UNL     1       4.408  -0.554  -1.780  1.00  0.00    -0.376 OA
BRANCH   2   3
ATOM      3  C   UNL     1       4.909  -0.222  -0.497  1.00  0.00     0.202 C 
BRANCH   3   4
ATOM      4  C   UNL     1       4.481  -1.192   0.603  1.00  0.00     0.261 C 
BRANCH   4   5
ATOM      5  O   UNL     1       3.069  -1.264   0.915  1.00  0.00    -0.463 OA
BRANCH   5   6
ATOM      6  C   UNL     1       2.270  -0.325   1.462  1.00  0.00     0.310 C 
ATOM      7  O   UNL     1       1.187  -0.658   1.944  1.00  0.00    -0.252 OA
BRANCH   6   8
ATOM      8  C   UNL     1       2.642   1.130   1.367  1.00  0.00     0.160 C 
BRANCH   8   9
ATOM      9  C   UNL     1       3.710   1.673   2.287  1.00  0.00    -0.013 A 
ATOM     10  C   UNL     1       4.229   0.880   3.328  1.00  0.00     0.006 A 
ATOM     11  C   UNL     1       4.124   3.024   2.171  1.00  0.00     0.042 A 
ATOM     12  C   UNL     1       5.175   1.385   4.215  1.00  0.00     0.000 A 
ATOM     13  C   UNL     1       5.053   3.514   3.104  1.00  0.00     0.026 A 
ATOM     14  C   UNL     1       5.582   2.704   4.108  1.00  0.00     0.002 A 
BRANCH  11  15
ATOM     15  N   UNL     1       3.640   3.846   1.114  1.00  0.00    -0.354 N 
ATOM     16  H   UNL     1       3.206   3.388   0.359  1.00  0.00     0.167 HD
BRANCH  15  17
ATOM     17  C   UNL     1       3.723   5.261   1.042  1.00  0.00     0.070 A 
ATOM     18  C   UNL     1       2.565   6.012   1.353  1.00  0.00     0.065 A 
ATOM     19  C   UNL     1       4.938   5.942   0.845  1.00  0.00     0.080 A 
ATOM     20  Cl  UNL     1       1.017   5.241   1.462  1.00  0.00    -0.082 Cl
ATOM     21  C   UNL     1       2.633   7.380   1.596  1.00  0.00     0.023 A 
ATOM     22  C   UNL     1       4.992   7.325   1.112  1.00  0.00     0.015 A 
ATOM     23  C   UNL     1       3.860   8.026   1.520  1.00  0.00     0.002 A 
BRANCH  19  24
ATOM     24  C   UNL     1       6.203   5.265   0.373  1.00  0.00     0.418 C 
ATOM     25  F   UNL     1       6.892   6.046  -0.513  1.00  0.00    -0.166 F 
ATOM     26  F   UNL     1       7.079   5.032   1.391  1.00  0.00    -0.166 F 
ATOM     27  F   UNL     1       6.028   4.078  -0.267  1.00  0.00    -0.166 F 
ENDBRANCH  19  24
ENDBRANCH  15  17
ENDBRANCH  11  15
ENDBRANCH   8   9
ENDBRANCH   6   8
ENDBRANCH   5   6
ENDBRANCH   4   5
ENDBRANCH   3   4
ENDBRANCH   2   3
ENDBRANCH   1   2
BRANCH   1  28
ATOM     28  C   UNL     1       2.358  -1.706  -2.563  1.00  0.00     0.188 C 
BRANCH  28  29
ATOM     29  O   UNL     1       3.154  -2.868  -2.750  1.00  0.00    -0.376 OA
BRANCH  29  30
ATOM     30  C   UNL     1       4.373  -2.753  -3.481  1.00  0.00     0.202 C 
BRANCH  30  31
ATOM     31  C   UNL     1       4.326  -2.089  -4.864  1.00  0.00     0.261 C 
BRANCH  31  32
ATOM     32  O   UNL     1       3.976  -0.688  -4.836  1.00  0.00    -0.460 OA
BRANCH  32  33
ATOM     33  C   UNL     1       2.904  -0.336  -5.583  1.00  0.00     0.338 C 
ATOM     34  O   UNL     1       2.208  -1.071  -6.272  1.00  0.00    -0.246 OA
BRANCH  33  35
ATOM     35  C   UNL     1       2.557   1.083  -5.376  1.00  0.00     0.060 A 
ATOM     36  C   UNL     1       1.311   1.389  -4.811  1.00  0.00     0.016 A 
ATOM     37  C   UNL     1       3.384   2.103  -5.848  1.00  0.00     0.016 A 
ATOM     38  C   UNL     1       0.875   2.716  -4.745  1.00  0.00     0.010 A 
ATOM     39  C   UNL     1       2.935   3.430  -5.803  1.00  0.00     0.010 A 
ATOM     40  C   UNL     1       1.666   3.742  -5.280  1.00  0.00    -0.014 A 
BRANCH  40  41
ATOM     41  C   UNL     1       1.102   5.108  -5.440  1.00  0.00     0.031 A 
ATOM     42  C   UNL     1       0.464   5.488  -6.753  1.00  0.00     0.074 A 
ATOM     43  C   UNL     1       1.152   6.011  -4.444  1.00  0.00     0.049 A 
ATOM     44  N   UNL     1      -0.029   6.640  -7.135  1.00  0.00    -0.248 NA
ATOM     45  C   UNL     1       0.382   4.431  -7.772  1.00  0.00     0.031 C 
ATOM     46  C   UNL     1       1.736   5.794  -3.122  1.00  0.00     0.029 A 
ATOM     47  N   UNL     1       0.714   7.313  -4.410  1.00  0.00    -0.354 N 
ATOM     48  C   UNL     1      -0.466   6.452  -8.440  1.00  0.00     0.074 A 
ATOM     49  C   UNL     1      -0.171   5.078  -8.789  1.00  0.00     0.031 C 
ATOM     50  C   UNL     1       1.642   6.935  -2.414  1.00  0.00     0.029 A 
ATOM     51  C   UNL     1       1.001   7.960  -3.234  1.00  0.00     0.049 A 
ATOM     52  H   UNL     1       0.239   7.742  -5.158  1.00  0.00     0.167 HD
ATOM     53  C   UNL     1      -1.057   7.339  -9.276  1.00  0.00     0.037 A 
ATOM     54  C   UNL     1       0.792   9.239  -2.871  1.00  0.00     0.037 A 
ATOM     55  C   UNL     1      -1.359   8.707  -8.948  1.00  0.00     0.049 A 
ATOM     56  C   UNL     1       0.151  10.208  -3.829  1.00  0.00     0.074 A 
ATOM     57  C   UNL     1      -1.990   9.662  -9.730  1.00  0.00     0.029 A 
ATOM     58  N   UNL     1      -1.047   9.319  -7.747  1.00  0.00    -0.354 N 
ATOM     59  N   UNL     1      -0.268  10.012  -5.053  1.00  0.00    -0.248 NA
ATOM     60  C   UNL     1      -0.034  11.587  -3.344  1.00  0.00     0.031 C 
ATOM     61  C   UNL     1      -2.020  10.865  -9.017  1.00  0.00     0.029 A 
ATOM     62  C   UNL     1      -1.450  10.645  -7.776  1.00  0.00     0.049 A 
ATOM     63  H   UNL     1      -0.605   8.879  -6.986  1.00  0.00     0.167 HD
ATOM     64  C   UNL     1      -0.760  11.239  -5.483  1.00  0.00     0.074 A 
ATOM     65  C   UNL     1      -0.617  12.165  -4.382  1.00  0.00     0.031 C 
ATOM     66  C   UNL     1      -1.281  11.569  -6.688  1.00  0.00     0.037 A 
BRANCH  53  67
ATOM     67  C   UNL     1      -1.403   6.865 -10.656  1.00  0.00     0.057 A 
ATOM     68  C   UNL     1      -2.497   6.026 -10.894  1.00  0.00     0.134 A 
ATOM     69  C   UNL     1      -0.671   7.311 -11.764  1.00  0.00     0.134 A 
ATOM     70  F   UNL     1      -3.230   5.558  -9.872  1.00  0.00    -0.206 F 
ATOM     71  C   UNL     1      -2.846   5.636 -12.188  1.00  0.00     0.040 A 
ATOM     72  C   UNL     1      -1.023   6.946 -13.063  1.00  0.00     0.040 A 
ATOM     73  F   UNL     1       0.384   8.123 -11.601  1.00  0.00    -0.206 F 
ATOM     74  C   UNL     1      -2.113   6.104 -13.277  1.00  0.00     0.006 A 
ENDBRANCH  53  67
BRANCH  54  75
ATOM     75  C   UNL     1       1.240   9.747  -1.555  1.00  0.00     0.057 A 
ATOM     76  C   UNL     1       0.324  10.001  -0.528  1.00  0.00     0.134 A 
ATOM     77  C   UNL     1       2.565  10.151  -1.367  1.00  0.00     0.134 A 
ATOM     78  F   UNL     1      -0.967   9.671  -0.678  1.00  0.00    -0.206 F 
ATOM     79  C   UNL     1       0.704  10.676   0.632  1.00  0.00     0.040 A 
ATOM     80  C   UNL     1       2.957  10.830  -0.213  1.00  0.00     0.040 A 
ATOM     81  F   UNL     1       3.483   9.932  -2.318  1.00  0.00    -0.206 F 
ATOM     82  C   UNL     1       2.023  11.102   0.787  1.00  0.00     0.006 A 
ENDBRANCH  54  75
BRANCH  66  83
ATOM     83  C   UNL     1      -1.729  12.988  -6.874  1.00  0.00     0.057 A 
ATOM     84  C   UNL     1      -0.810  14.036  -7.018  1.00  0.00     0.134 A 
ATOM     85  C   UNL     1      -3.090  13.310  -6.916  1.00  0.00     0.134 A 
ATOM     86  F   UNL     1       0.509  13.796  -6.966  1.00  0.00    -0.206 F 
ATOM     87  C   UNL     1      -1.231  15.358  -7.175  1.00  0.00     0.040 A 
ATOM     88  C   UNL     1      -3.523  14.625  -7.095  1.00  0.00     0.040 A 
ATOM     89  F   UNL     1      -4.021  12.353  -6.785  1.00  0.00    -0.206 F 
ATOM     90  C   UNL     1      -2.592  15.654  -7.219  1.00  0.00     0.006 A 
ENDBRANCH  66  83
ENDBRANCH  40  41
ENDBRANCH  33  35
ENDBRANCH  32  33
ENDBRANCH  31  32
ENDBRANCH  30  31
ENDBRANCH  29  30
ENDBRANCH  28  29
ENDBRANCH   1  28
TORSDOF 21
