REMARK SMILES Cc1cc(NC(=O)Nc2sc(C)c(C)c2C(=O)OCCOCCOCCOC(=O)c2ccc(-c3c4nc(c(-c5c(F)cccc5F)c5ccc([nH]5)c(-c5c(F)cccc5F)c5nc(c(-c6c(F)cccc6F)c6ccc3[nH]6)C=C5)C=C4)cc2)ccn1
REMARK SMILES IDX 22 1 21 2 20 3 19 4 18 5 16 6 17 7 15 8 9 9 10 10 11 11
REMARK SMILES IDX 13 12 12 13 14 14 8 15 5 16 6 17 7 19 4 21 1 22 2 23 3 24
REMARK SMILES IDX 86 25 85 26 84 27 23 28 24 29 25 30 26 31 27 32 28 33 29 34
REMARK SMILES IDX 30 35 31 36 83 37 32 38 82 39 33 40 34 41 35 42 76 43 36 44
REMARK SMILES IDX 81 45 75 46 77 47 37 48 80 49 74 50 73 51 38 53 64 54 47 55
REMARK SMILES IDX 63 56 48 57 51 58 62 59 78 60 49 61 50 62 61 64 79 65 52 66
REMARK SMILES IDX 39 67 40 68 45 69 41 70 42 71 44 72 46 73 43 74 65 75 66 76
REMARK SMILES IDX 71 77 67 78 68 79 70 80 72 81 69 82 53 83 54 84 59 85 55 86
REMARK SMILES IDX 56 87 58 88 60 89 57 90
REMARK H PARENT 5 18 8 20 77 52 51 63
REMARK Flexibility Score: inf
ROOT
ATOM      1  C   UNL     1      -4.685   1.797   3.911  1.00  0.00     0.188 C 
ENDROOT
BRANCH   1   2
ATOM      2  O   UNL     1      -6.072   2.102   3.776  1.00  0.00    -0.376 OA
BRANCH   2   3
ATOM      3  C   UNL     1      -7.003   1.082   3.454  1.00  0.00     0.202 C 
BRANCH   3   4
ATOM      4  C   UNL     1      -7.261   0.940   1.951  1.00  0.00     0.261 C 
BRANCH   4   5
ATOM      5  O   UNL     1      -6.062   0.760   1.174  1.00  0.00    -0.460 OA
BRANCH   5   6
ATOM      6  C   UNL     1      -5.528   1.917   0.675  1.00  0.00     0.341 C 
ATOM      7  O   UNL     1      -6.039   3.022   0.828  1.00  0.00    -0.246 OA
BRANCH   6   8
ATOM      8  C   UNL     1      -4.276   1.737  -0.070  1.00  0.00     0.098 A 
ATOM      9  C   UNL     1      -3.720   0.540  -0.502  1.00  0.00     0.112 A 
ATOM     10  S   UNL     1      -2.586   0.822  -1.744  1.00  0.00    -0.122 S 
ATOM     11  C   UNL     1      -2.320   2.412  -1.196  1.00  0.00     0.007 A 
ATOM     12  C   UNL     1      -3.324   2.817  -0.331  1.00  0.00    -0.021 A 
ATOM     13  C   UNL     1      -1.123   3.167  -1.669  1.00  0.00     0.057 C 
ATOM     14  C   UNL     1      -3.393   4.170   0.311  1.00  0.00     0.046 C 
BRANCH   9  15
ATOM     15  N   UNL     1      -4.048  -0.759  -0.159  1.00  0.00    -0.298 N 
ATOM     16  N   UNL     1      -1.996  -1.996  -0.351  1.00  0.00    -0.308 N 
ATOM     17  C   UNL     1      -3.352  -1.913  -0.322  1.00  0.00     0.324 C 
ATOM     18  H   UNL     1      -1.666  -2.782  -0.843  1.00  0.00     0.171 HD
ATOM     19  O   UNL     1      -3.990  -2.968  -0.424  1.00  0.00    -0.248 OA
ATOM     20  H   UNL     1      -4.926  -0.863   0.272  1.00  0.00     0.172 HD
BRANCH  16  21
ATOM     21  C   UNL     1      -0.959  -1.194   0.175  1.00  0.00     0.046 A 
ATOM     22  C   UNL     1       2.773  -0.771  -0.349  1.00  0.00     0.067 C 
ATOM     23  C   UNL     1       1.373  -0.589   0.153  1.00  0.00     0.039 A 
ATOM     24  C   UNL     1       0.343  -1.425  -0.279  1.00  0.00     0.049 A 
ATOM     25  N   UNL     1       1.160   0.453   0.986  1.00  0.00    -0.261 NA
ATOM     26  C   UNL     1      -0.094   0.627   1.439  1.00  0.00     0.113 A 
ATOM     27  C   UNL     1      -1.161  -0.189   1.108  1.00  0.00     0.046 A 
ENDBRANCH  16  21
ENDBRANCH   9  15
ENDBRANCH   6   8
ENDBRANCH   5   6
ENDBRANCH   4   5
ENDBRANCH   3   4
ENDBRANCH   2   3
ENDBRANCH   1   2
BRANCH   1  28
ATOM     28  C   UNL     1      -4.140   0.383   3.658  1.00  0.00     0.188 C 
BRANCH  28  29
ATOM     29  O   UNL     1      -4.795  -0.617   4.430  1.00  0.00    -0.376 OA
BRANCH  29  30
ATOM     30  C   UNL     1      -3.970  -1.316   5.356  1.00  0.00     0.202 C 
BRANCH  30  31
ATOM     31  C   UNL     1      -3.910  -0.590   6.703  1.00  0.00     0.261 C 
BRANCH  31  32
ATOM     32  O   UNL     1      -3.245   0.683   6.642  1.00  0.00    -0.460 OA
BRANCH  32  33
ATOM     33  C   UNL     1      -1.923   0.645   6.363  1.00  0.00     0.338 C 
ATOM     34  O   UNL     1      -1.239  -0.346   6.181  1.00  0.00    -0.246 OA
BRANCH  33  35
ATOM     35  C   UNL     1      -1.456   2.024   6.130  1.00  0.00     0.060 A 
ATOM     36  C   UNL     1      -0.706   2.277   4.978  1.00  0.00     0.016 A 
ATOM     37  C   UNL     1      -1.723   3.048   7.041  1.00  0.00     0.016 A 
ATOM     38  C   UNL     1      -0.206   3.556   4.734  1.00  0.00     0.010 A 
ATOM     39  C   UNL     1      -1.200   4.323   6.812  1.00  0.00     0.010 A 
ATOM     40  C   UNL     1      -0.422   4.577   5.670  1.00  0.00    -0.014 A 
BRANCH  40  41
ATOM     41  C   UNL     1       0.302   5.863   5.545  1.00  0.00     0.031 A 
ATOM     42  C   UNL     1       1.636   6.008   6.222  1.00  0.00     0.074 A 
ATOM     43  C   UNL     1      -0.216   6.889   4.849  1.00  0.00     0.049 A 
ATOM     44  N   UNL     1       2.424   7.051   6.289  1.00  0.00    -0.248 NA
ATOM     45  C   UNL     1       2.149   4.816   6.916  1.00  0.00     0.031 C 
ATOM     46  C   UNL     1      -1.483   6.867   4.122  1.00  0.00     0.029 A 
ATOM     47  N   UNL     1       0.266   8.159   4.655  1.00  0.00    -0.354 N 
ATOM     48  C   UNL     1       3.527   6.640   7.025  1.00  0.00     0.074 A 
ATOM     49  C   UNL     1       3.295   5.263   7.406  1.00  0.00     0.031 C 
ATOM     50  C   UNL     1      -1.686   8.077   3.569  1.00  0.00     0.029 A 
ATOM     51  C   UNL     1      -0.577   8.961   3.926  1.00  0.00     0.049 A 
ATOM     52  H   UNL     1       1.133   8.466   5.005  1.00  0.00     0.167 HD
ATOM     53  C   UNL     1       4.637   7.343   7.350  1.00  0.00     0.037 A 
ATOM     54  C   UNL     1      -0.470  10.264   3.604  1.00  0.00     0.037 A 
ATOM     55  C   UNL     1       4.866   8.716   6.994  1.00  0.00     0.049 A 
ATOM     56  C   UNL     1       0.731  11.051   4.056  1.00  0.00     0.074 A 
ATOM     57  C   UNL     1       5.965   9.509   7.273  1.00  0.00     0.029 A 
ATOM     58  N   UNL     1       3.970   9.505   6.290  1.00  0.00    -0.354 N 
ATOM     59  N   UNL     1       1.781  10.647   4.729  1.00  0.00    -0.248 NA
ATOM     60  C   UNL     1       0.757  12.480   3.707  1.00  0.00     0.031 C 
ATOM     61  C   UNL     1       5.717  10.792   6.770  1.00  0.00     0.029 A 
ATOM     62  C   UNL     1       4.480  10.785   6.146  1.00  0.00     0.049 A 
ATOM     63  H   UNL     1       3.100   9.202   5.944  1.00  0.00     0.167 HD
ATOM     64  C   UNL     1       2.602  11.761   4.860  1.00  0.00     0.074 A 
ATOM     65  C   UNL     1       1.932  12.857   4.193  1.00  0.00     0.031 C 
ATOM     66  C   UNL     1       3.805  11.865   5.475  1.00  0.00     0.037 A 
BRANCH  53  67
ATOM     67  C   UNL     1       5.680   6.630   8.154  1.00  0.00     0.057 A 
ATOM     68  C   UNL     1       6.519   5.667   7.578  1.00  0.00     0.134 A 
ATOM     69  C   UNL     1       5.853   6.913   9.514  1.00  0.00     0.134 A 
ATOM     70  F   UNL     1       6.389   5.340   6.283  1.00  0.00    -0.206 F 
ATOM     71  C   UNL     1       7.481   4.996   8.333  1.00  0.00     0.040 A 
ATOM     72  C   UNL     1       6.825   6.262  10.274  1.00  0.00     0.040 A 
ATOM     73  F   UNL     1       5.080   7.824  10.123  1.00  0.00    -0.206 F 
ATOM     74  C   UNL     1       7.639   5.296   9.684  1.00  0.00     0.006 A 
ENDBRANCH  53  67
BRANCH  54  75
ATOM     75  C   UNL     1      -1.540  10.924   2.817  1.00  0.00     0.057 A 
ATOM     76  C   UNL     1      -1.328  11.300   1.486  1.00  0.00     0.134 A 
ATOM     77  C   UNL     1      -2.784  11.221   3.384  1.00  0.00     0.134 A 
ATOM     78  F   UNL     1      -0.145  11.065   0.899  1.00  0.00    -0.206 F 
ATOM     79  C   UNL     1      -2.312  11.961   0.749  1.00  0.00     0.040 A 
ATOM     80  C   UNL     1      -3.784  11.864   2.653  1.00  0.00     0.040 A 
ATOM     81  F   UNL     1      -3.044  10.890   4.657  1.00  0.00    -0.206 F 
ATOM     82  C   UNL     1      -3.546  12.241   1.332  1.00  0.00     0.006 A 
ENDBRANCH  54  75
BRANCH  66  83
ATOM     83  C   UNL     1       4.490  13.198   5.431  1.00  0.00     0.057 A 
ATOM     84  C   UNL     1       4.073  14.267   6.234  1.00  0.00     0.134 A 
ATOM     85  C   UNL     1       5.606  13.400   4.610  1.00  0.00     0.134 A 
ATOM     86  F   UNL     1       3.003  14.141   7.032  1.00  0.00    -0.206 F 
ATOM     87  C   UNL     1       4.735  15.496   6.210  1.00  0.00     0.040 A 
ATOM     88  C   UNL     1       6.288  14.617   4.593  1.00  0.00     0.040 A 
ATOM     89  F   UNL     1       6.059  12.413   3.822  1.00  0.00    -0.206 F 
ATOM     90  C   UNL     1       5.851  15.671   5.392  1.00  0.00     0.006 A 
ENDBRANCH  66  83
ENDBRANCH  40  41
ENDBRANCH  33  35
ENDBRANCH  32  33
ENDBRANCH  31  32
ENDBRANCH  30  31
ENDBRANCH  29  30
ENDBRANCH  28  29
ENDBRANCH   1  28
TORSDOF 19
