REMARK SMILES CN1C(=O)C[C@@H](C(=O)OCCOCCOCCOC(=O)c2ccc(-c3c4nc(c(-c5c(F)cccc5F)c5ccc([nH]5)c(-c5c(F)cccc5F)c5nc(c(-c6c(F)cccc6F)c6ccc3[nH]6)C=C5)C=C4)cc2)C12CCN(C(=O)c1ccccc1-n1cccn1)CC2
REMARK SMILES IDX 13 1 12 2 11 3 10 4 9 5 7 6 8 7 6 8 1 9 2 10 3 11 75 12 4 13
REMARK SMILES IDX 5 14 76 15 93 16 77 17 92 18 78 19 79 20 80 21 81 22 82 23
REMARK SMILES IDX 86 24 83 25 85 26 84 27 87 28 88 29 91 30 89 31 90 32 14 33
REMARK SMILES IDX 15 34 16 35 17 36 18 37 19 38 20 39 21 40 22 41 74 42 23 43
REMARK SMILES IDX 73 44 24 45 25 46 26 47 67 48 27 49 72 50 66 51 68 52 28 53
REMARK SMILES IDX 71 54 65 55 64 56 29 58 55 59 38 60 54 61 39 62 42 63 53 64
REMARK SMILES IDX 69 65 40 66 41 67 52 69 70 70 43 71 30 72 31 73 36 74 32 75
REMARK SMILES IDX 33 76 35 77 37 78 34 79 56 80 57 81 62 82 58 83 59 84 61 85
REMARK SMILES IDX 63 86 60 87 44 88 45 89 50 90 46 91 47 92 49 93 51 94 48 95
REMARK H PARENT 68 57 42 68
REMARK Flexibility Score: inf
ROOT
ATOM      1  C   UNL     1      -4.396  -2.023   3.981  1.00  0.00     0.188 C 
ENDROOT
BRANCH   1   2
ATOM      2  O   UNL     1      -4.582  -0.903   4.838  1.00  0.00    -0.376 OA
BRANCH   2   3
ATOM      3  C   UNL     1      -4.319   0.399   4.336  1.00  0.00     0.202 C 
BRANCH   3   4
ATOM      4  C   UNL     1      -2.850   0.853   4.390  1.00  0.00     0.261 C 
BRANCH   4   5
ATOM      5  O   UNL     1      -1.909   0.182   3.505  1.00  0.00    -0.463 OA
BRANCH   5   6
ATOM      6  C   UNL     1      -1.240  -0.857   4.057  1.00  0.00     0.311 C 
ATOM      7  O   UNL     1      -1.519  -1.336   5.154  1.00  0.00    -0.252 OA
BRANCH   6   8
ATOM      8  C   UNL     1       0.019  -1.327   3.340  1.00  0.00     0.134 C 
ATOM      9  C   UNL     1       1.338   0.427   0.279  1.00  0.00     0.147 C 
ATOM     10  N   UNL     1       1.022  -0.114   1.590  1.00  0.00    -0.339 N 
ATOM     11  C   UNL     1       1.504   0.455   2.754  1.00  0.00     0.223 C 
ATOM     12  C   UNL     1       0.299  -1.376   1.807  1.00  0.00     0.060 C 
ATOM     13  O   UNL     1       2.159   1.482   2.846  1.00  0.00    -0.275 OA
ATOM     14  C   UNL     1       1.148  -0.444   3.901  1.00  0.00     0.118 C 
ATOM     15  C   UNL     1      -0.893  -1.511   0.844  1.00  0.00     0.051 C 
ATOM     16  C   UNL     1       1.290  -2.555   1.507  1.00  0.00     0.051 C 
ATOM     17  C   UNL     1      -1.502  -2.907   0.840  1.00  0.00     0.122 C 
ATOM     18  C   UNL     1       0.640  -3.938   1.405  1.00  0.00     0.122 C 
ATOM     19  N   UNL     1      -0.529  -3.947   0.530  1.00  0.00    -0.338 N 
ATOM     20  C   UNL     1      -0.713  -5.070  -0.301  1.00  0.00     0.256 C 
ATOM     21  O   UNL     1       0.115  -5.982  -0.344  1.00  0.00    -0.269 OA
BRANCH  20  22
ATOM     22  C   UNL     1      -1.929  -5.278  -1.140  1.00  0.00     0.065 A 
ATOM     23  C   UNL     1      -2.589  -6.511  -0.958  1.00  0.00     0.016 A 
ATOM     24  C   UNL     1      -2.451  -4.381  -2.081  1.00  0.00     0.077 A 
ATOM     25  C   UNL     1      -3.781  -6.808  -1.629  1.00  0.00     0.001 A 
ATOM     26  C   UNL     1      -3.675  -4.664  -2.725  1.00  0.00     0.029 A 
ATOM     27  C   UNL     1      -4.332  -5.876  -2.501  1.00  0.00     0.002 A 
BRANCH  24  28
ATOM     28  N   UNL     1      -1.773  -3.204  -2.459  1.00  0.00    -0.240 N 
ATOM     29  C   UNL     1      -0.416  -3.014  -2.588  1.00  0.00     0.115 A 
ATOM     30  N   UNL     1      -2.463  -2.078  -2.777  1.00  0.00    -0.177 NA
ATOM     31  C   UNL     1      -0.227  -1.700  -2.941  1.00  0.00     0.042 A 
ATOM     32  C   UNL     1      -1.521  -1.166  -3.018  1.00  0.00     0.135 A 
ENDBRANCH  24  28
ENDBRANCH  20  22
ENDBRANCH   6   8
ENDBRANCH   5   6
ENDBRANCH   4   5
ENDBRANCH   3   4
ENDBRANCH   2   3
ENDBRANCH   1   2
BRANCH   1  33
ATOM     33  C   UNL     1      -4.171  -1.773   2.495  1.00  0.00     0.188 C 
BRANCH  33  34
ATOM     34  O   UNL     1      -5.240  -1.066   1.888  1.00  0.00    -0.376 OA
BRANCH  34  35
ATOM     35  C   UNL     1      -5.659  -1.647   0.657  1.00  0.00     0.202 C 
BRANCH  35  36
ATOM     36  C   UNL     1      -6.731  -2.710   0.948  1.00  0.00     0.261 C 
BRANCH  36  37
ATOM     37  O   UNL     1      -6.268  -3.848   1.725  1.00  0.00    -0.460 OA
BRANCH  37  38
ATOM     38  C   UNL     1      -5.379  -4.617   1.063  1.00  0.00     0.338 C 
ATOM     39  O   UNL     1      -4.951  -4.376  -0.050  1.00  0.00    -0.246 OA
BRANCH  38  40
ATOM     40  C   UNL     1      -4.808  -5.705   1.877  1.00  0.00     0.060 A 
ATOM     41  C   UNL     1      -3.474  -5.585   2.269  1.00  0.00     0.016 A 
ATOM     42  C   UNL     1      -5.455  -6.927   2.022  1.00  0.00     0.016 A 
ATOM     43  C   UNL     1      -2.755  -6.681   2.732  1.00  0.00     0.010 A 
ATOM     44  C   UNL     1      -4.748  -8.023   2.549  1.00  0.00     0.010 A 
ATOM     45  C   UNL     1      -3.383  -7.918   2.884  1.00  0.00    -0.014 A 
BRANCH  45  46
ATOM     46  C   UNL     1      -2.594  -9.091   3.356  1.00  0.00     0.031 A 
ATOM     47  C   UNL     1      -2.406 -10.296   2.472  1.00  0.00     0.074 A 
ATOM     48  C   UNL     1      -2.004  -9.065   4.569  1.00  0.00     0.049 A 
ATOM     49  N   UNL     1      -1.891 -11.464   2.762  1.00  0.00    -0.248 NA
ATOM     50  C   UNL     1      -2.851 -10.170   1.075  1.00  0.00     0.031 C 
ATOM     51  C   UNL     1      -2.025  -7.935   5.500  1.00  0.00     0.029 A 
ATOM     52  N   UNL     1      -1.273 -10.022   5.229  1.00  0.00    -0.354 N 
ATOM     53  C   UNL     1      -1.982 -12.222   1.601  1.00  0.00     0.074 A 
ATOM     54  C   UNL     1      -2.596 -11.381   0.596  1.00  0.00     0.031 C 
ATOM     55  C   UNL     1      -1.335  -8.261   6.604  1.00  0.00     0.029 A 
ATOM     56  C   UNL     1      -0.901  -9.648   6.498  1.00  0.00     0.049 A 
ATOM     57  H   UNL     1      -1.038 -10.892   4.831  1.00  0.00     0.167 HD
ATOM     58  C   UNL     1      -1.600 -13.506   1.396  1.00  0.00     0.037 A 
ATOM     59  C   UNL     1      -0.332 -10.357   7.492  1.00  0.00     0.037 A 
ATOM     60  C   UNL     1      -0.967 -14.337   2.389  1.00  0.00     0.049 A 
ATOM     61  C   UNL     1      -0.006 -11.806   7.268  1.00  0.00     0.074 A 
ATOM     62  C   UNL     1      -0.549 -15.652   2.272  1.00  0.00     0.029 A 
ATOM     63  N   UNL     1      -0.658 -13.934   3.678  1.00  0.00    -0.354 N 
ATOM     64  N   UNL     1      -0.144 -12.528   6.184  1.00  0.00    -0.248 NA
ATOM     65  C   UNL     1       0.537 -12.545   8.417  1.00  0.00     0.031 C 
ATOM     66  C   UNL     1      -0.035 -16.061   3.507  1.00  0.00     0.029 A 
ATOM     67  C   UNL     1      -0.083 -14.984   4.376  1.00  0.00     0.049 A 
ATOM     68  H   UNL     1      -0.823 -13.035   4.043  1.00  0.00     0.167 HD
ATOM     69  C   UNL     1       0.312 -13.798   6.513  1.00  0.00     0.074 A 
ATOM     70  C   UNL     1       0.753 -13.741   7.890  1.00  0.00     0.031 C 
ATOM     71  C   UNL     1       0.355 -14.914   5.745  1.00  0.00     0.037 A 
BRANCH  58  72
ATOM     72  C   UNL     1      -1.900 -14.123   0.062  1.00  0.00     0.057 A 
ATOM     73  C   UNL     1      -1.152 -13.828  -1.084  1.00  0.00     0.134 A 
ATOM     74  C   UNL     1      -2.912 -15.086  -0.056  1.00  0.00     0.134 A 
ATOM     75  F   UNL     1      -0.178 -12.907  -1.042  1.00  0.00    -0.206 F 
ATOM     76  C   UNL     1      -1.404 -14.465  -2.301  1.00  0.00     0.040 A 
ATOM     77  C   UNL     1      -3.159 -15.745  -1.261  1.00  0.00     0.040 A 
ATOM     78  F   UNL     1      -3.662 -15.417   1.006  1.00  0.00    -0.206 F 
ATOM     79  C   UNL     1      -2.404 -15.434  -2.389  1.00  0.00     0.006 A 
ENDBRANCH  58  72
BRANCH  59  80
ATOM     80  C   UNL     1      -0.104  -9.732   8.821  1.00  0.00     0.057 A 
ATOM     81  C   UNL     1       1.188  -9.538   9.322  1.00  0.00     0.134 A 
ATOM     82  C   UNL     1      -1.177  -9.354   9.640  1.00  0.00     0.134 A 
ATOM     83  F   UNL     1       2.255  -9.907   8.599  1.00  0.00    -0.206 F 
ATOM     84  C   UNL     1       1.405  -9.012  10.597  1.00  0.00     0.040 A 
ATOM     85  C   UNL     1      -0.973  -8.796  10.902  1.00  0.00     0.040 A 
ATOM     86  F   UNL     1      -2.440  -9.516   9.221  1.00  0.00    -0.206 F 
ATOM     87  C   UNL     1       0.322  -8.634  11.388  1.00  0.00     0.006 A 
ENDBRANCH  59  80
BRANCH  71  88
ATOM     88  C   UNL     1       0.932 -16.148   6.373  1.00  0.00     0.057 A 
ATOM     89  C   UNL     1       0.250 -16.861   7.368  1.00  0.00     0.134 A 
ATOM     90  C   UNL     1       2.188 -16.628   5.979  1.00  0.00     0.134 A 
ATOM     91  F   UNL     1      -0.950 -16.444   7.801  1.00  0.00    -0.206 F 
ATOM     92  C   UNL     1       0.810 -17.987   7.972  1.00  0.00     0.040 A 
ATOM     93  C   UNL     1       2.746 -17.769   6.556  1.00  0.00     0.040 A 
ATOM     94  F   UNL     1       2.890 -15.998   5.026  1.00  0.00    -0.206 F 
ATOM     95  C   UNL     1       2.061 -18.446   7.563  1.00  0.00     0.006 A 
ENDBRANCH  71  88
ENDBRANCH  45  46
ENDBRANCH  38  40
ENDBRANCH  37  38
ENDBRANCH  36  37
ENDBRANCH  35  36
ENDBRANCH  34  35
ENDBRANCH  33  34
ENDBRANCH   1  33
TORSDOF 19
