REMARK SMILES O=C(C[NH+]1CCN(c2nccc(N3CCCCC3)n2)CC1)OCCOCCOCCOC(=O)c1ccc(-c2c3nc(c(-c4c(F)cccc4F)c4ccc([nH]4)c(-c4c(F)cccc4F)c4nc(c(-c5c(F)cccc5F)c5ccc2[nH]5)C=C4)C=C3)cc1
REMARK SMILES IDX 26 1 25 2 24 3 23 4 22 5 2 6 1 7 3 8 4 9 5 10 21 11 6 13
REMARK SMILES IDX 20 14 7 15 8 16 9 17 19 18 10 19 12 20 11 21 13 22 14 23
REMARK SMILES IDX 18 24 15 25 17 26 16 27 27 28 28 29 29 30 30 31 31 32 32 33
REMARK SMILES IDX 33 34 34 35 35 36 87 37 36 38 86 39 37 40 38 41 39 42 80 43
REMARK SMILES IDX 40 44 85 45 79 46 81 47 41 48 84 49 78 50 77 51 42 53 68 54
REMARK SMILES IDX 51 55 67 56 52 57 55 58 66 59 82 60 53 61 54 62 65 64 83 65
REMARK SMILES IDX 56 66 43 67 44 68 49 69 45 70 46 71 48 72 50 73 47 74 69 75
REMARK SMILES IDX 70 76 75 77 71 78 72 79 74 80 76 81 73 82 57 83 58 84 63 85
REMARK SMILES IDX 59 86 60 87 62 88 64 89 61 90
REMARK H PARENT 4 12 81 52 55 63
REMARK Flexibility Score: inf
ROOT
ATOM      1  C   UNL     1       3.188   1.918   0.148  1.00  0.00     0.188 C 
ENDROOT
BRANCH   1   2
ATOM      2  O   UNL     1       4.500   1.544  -0.263  1.00  0.00    -0.376 OA
BRANCH   2   3
ATOM      3  C   UNL     1       4.628   0.887  -1.522  1.00  0.00     0.202 C 
BRANCH   3   4
ATOM      4  C   UNL     1       4.367  -0.619  -1.458  1.00  0.00     0.261 C 
BRANCH   4   5
ATOM      5  O   UNL     1       2.990  -0.859  -1.138  1.00  0.00    -0.459 OA
BRANCH   5   6
ATOM      6  C   UNL     1       2.679  -1.898  -0.322  1.00  0.00     0.361 C 
ATOM      7  O   UNL     1       1.929  -2.789  -0.719  1.00  0.00    -0.245 OA
BRANCH   6   8
ATOM      8  C   UNL     1       3.022  -1.734   1.163  1.00  0.00     0.386 C 
BRANCH   8   9
ATOM      9  N   UNL     1       4.434  -2.023   1.513  1.00  0.00    -0.323 N 
ATOM     10  C   UNL     1       5.190  -0.799   1.896  1.00  0.00     0.284 C 
ATOM     11  C   UNL     1       4.518  -2.922   2.699  1.00  0.00     0.284 C 
ATOM     12  H   UNL     1       4.832  -2.447   0.675  1.00  0.00     0.348 HD
ATOM     13  C   UNL     1       4.656  -0.044   3.130  1.00  0.00     0.181 C 
ATOM     14  C   UNL     1       4.066  -2.305   4.048  1.00  0.00     0.181 C 
ATOM     15  N   UNL     1       4.562  -0.951   4.262  1.00  0.00    -0.329 N 
BRANCH  15  16
ATOM     16  C   UNL     1       5.512  -0.706   5.225  1.00  0.00     0.227 A 
ATOM     17  N   UNL     1       5.311   0.380   5.987  1.00  0.00    -0.221 NA
ATOM     18  N   UNL     1       6.607  -1.477   5.294  1.00  0.00    -0.196 NA
ATOM     19  C   UNL     1       6.234   0.650   6.917  1.00  0.00     0.119 A 
ATOM     20  C   UNL     1       7.534  -1.161   6.217  1.00  0.00     0.134 A 
ATOM     21  C   UNL     1       7.369  -0.097   7.080  1.00  0.00     0.067 A 
BRANCH  20  22
ATOM     22  N   UNL     1       8.689  -1.906   6.277  1.00  0.00    -0.356 N 
ATOM     23  C   UNL     1       9.601  -1.917   5.147  1.00  0.00     0.118 C 
ATOM     24  C   UNL     1       8.970  -2.731   7.436  1.00  0.00     0.118 C 
ATOM     25  C   UNL     1       9.875  -3.350   4.700  1.00  0.00     0.022 C 
ATOM     26  C   UNL     1       9.185  -4.173   6.978  1.00  0.00     0.022 C 
ATOM     27  C   UNL     1      10.245  -4.250   5.879  1.00  0.00     0.004 C 
ENDBRANCH  20  22
ENDBRANCH  15  16
ENDBRANCH   8   9
ENDBRANCH   6   8
ENDBRANCH   5   6
ENDBRANCH   4   5
ENDBRANCH   3   4
ENDBRANCH   2   3
ENDBRANCH   1   2
BRANCH   1  28
ATOM     28  C   UNL     1       2.428   2.897  -0.753  1.00  0.00     0.188 C 
BRANCH  28  29
ATOM     29  O   UNL     1       2.949   4.187  -1.052  1.00  0.00    -0.376 OA
BRANCH  29  30
ATOM     30  C   UNL     1       4.319   4.478  -0.834  1.00  0.00     0.202 C 
BRANCH  30  31
ATOM     31  C   UNL     1       4.545   5.287   0.446  1.00  0.00     0.261 C 
BRANCH  31  32
ATOM     32  O   UNL     1       4.137   4.598   1.642  1.00  0.00    -0.460 OA
BRANCH  32  33
ATOM     33  C   UNL     1       2.889   4.900   2.076  1.00  0.00     0.338 C 
ATOM     34  O   UNL     1       2.083   5.650   1.554  1.00  0.00    -0.246 OA
BRANCH  33  35
ATOM     35  C   UNL     1       2.567   4.139   3.301  1.00  0.00     0.060 A 
ATOM     36  C   UNL     1       1.306   3.538   3.390  1.00  0.00     0.016 A 
ATOM     37  C   UNL     1       3.432   4.130   4.400  1.00  0.00     0.016 A 
ATOM     38  C   UNL     1       0.878   2.987   4.598  1.00  0.00     0.010 A 
ATOM     39  C   UNL     1       2.998   3.583   5.613  1.00  0.00     0.010 A 
ATOM     40  C   UNL     1       1.702   3.054   5.731  1.00  0.00    -0.014 A 
BRANCH  40  41
ATOM     41  C   UNL     1       1.137   2.732   7.065  1.00  0.00     0.031 A 
ATOM     42  C   UNL     1       0.607   3.850   7.924  1.00  0.00     0.074 A 
ATOM     43  C   UNL     1       1.059   1.462   7.499  1.00  0.00     0.049 A 
ATOM     44  N   UNL     1       0.070   3.801   9.117  1.00  0.00    -0.248 NA
ATOM     45  C   UNL     1       0.698   5.207   7.361  1.00  0.00     0.031 C 
ATOM     46  C   UNL     1       1.520   0.288   6.765  1.00  0.00     0.029 A 
ATOM     47  N   UNL     1       0.557   0.956   8.673  1.00  0.00    -0.354 N 
ATOM     48  C   UNL     1      -0.238   5.115   9.449  1.00  0.00     0.074 A 
ATOM     49  C   UNL     1       0.195   5.942   8.343  1.00  0.00     0.031 C 
ATOM     50  C   UNL     1       1.275  -0.808   7.505  1.00  0.00     0.029 A 
ATOM     51  C   UNL     1       0.668  -0.408   8.773  1.00  0.00     0.049 A 
ATOM     52  H   UNL     1       0.156   1.518   9.375  1.00  0.00     0.167 HD
ATOM     53  C   UNL     1      -0.833   5.591  10.568  1.00  0.00     0.037 A 
ATOM     54  C   UNL     1       0.333  -1.235   9.783  1.00  0.00     0.037 A 
ATOM     55  C   UNL     1      -1.268   4.777  11.672  1.00  0.00     0.049 A 
ATOM     56  C   UNL     1      -0.280  -0.676  11.039  1.00  0.00     0.074 A 
ATOM     57  C   UNL     1      -1.896   5.173  12.841  1.00  0.00     0.029 A 
ATOM     58  N   UNL     1      -1.115   3.402  11.745  1.00  0.00    -0.354 N 
ATOM     59  N   UNL     1      -0.588   0.564  11.331  1.00  0.00    -0.248 NA
ATOM     60  C   UNL     1      -0.590  -1.637  12.110  1.00  0.00     0.031 C 
ATOM     61  C   UNL     1      -2.089   4.040  13.639  1.00  0.00     0.029 A 
ATOM     62  C   UNL     1      -1.617   2.935  12.949  1.00  0.00     0.049 A 
ATOM     63  H   UNL     1      -0.709   2.841  11.046  1.00  0.00     0.167 HD
ATOM     64  C   UNL     1      -1.147   0.529  12.604  1.00  0.00     0.074 A 
ATOM     65  C   UNL     1      -1.147  -0.856  13.024  1.00  0.00     0.031 C 
ATOM     66  C   UNL     1      -1.618   1.554  13.355  1.00  0.00     0.037 A 
BRANCH  53  67
ATOM     67  C   UNL     1      -1.034   7.074  10.662  1.00  0.00     0.057 A 
ATOM     68  C   UNL     1      -2.022   7.733   9.919  1.00  0.00     0.134 A 
ATOM     69  C   UNL     1      -0.252   7.847  11.529  1.00  0.00     0.134 A 
ATOM     70  F   UNL     1      -2.795   7.050   9.062  1.00  0.00    -0.206 F 
ATOM     71  C   UNL     1      -2.212   9.112  10.022  1.00  0.00     0.040 A 
ATOM     72  C   UNL     1      -0.447   9.223  11.657  1.00  0.00     0.040 A 
ATOM     73  F   UNL     1       0.709   7.276  12.272  1.00  0.00    -0.206 F 
ATOM     74  C   UNL     1      -1.427   9.860  10.898  1.00  0.00     0.006 A 
ENDBRANCH  53  67
BRANCH  54  75
ATOM     75  C   UNL     1       0.579  -2.693   9.657  1.00  0.00     0.057 A 
ATOM     76  C   UNL     1      -0.481  -3.596   9.520  1.00  0.00     0.134 A 
ATOM     77  C   UNL     1       1.875  -3.218   9.701  1.00  0.00     0.134 A 
ATOM     78  F   UNL     1      -1.747  -3.153   9.502  1.00  0.00    -0.206 F 
ATOM     79  C   UNL     1      -0.263  -4.972   9.444  1.00  0.00     0.040 A 
ATOM     80  C   UNL     1       2.110  -4.590   9.602  1.00  0.00     0.040 A 
ATOM     81  F   UNL     1       2.932  -2.404   9.841  1.00  0.00    -0.206 F 
ATOM     82  C   UNL     1       1.038  -5.472   9.480  1.00  0.00     0.006 A 
ENDBRANCH  54  75
BRANCH  66  83
ATOM     83  C   UNL     1      -2.201   1.216  14.696  1.00  0.00     0.057 A 
ATOM     84  C   UNL     1      -1.393   0.864  15.784  1.00  0.00     0.134 A 
ATOM     85  C   UNL     1      -3.584   1.282  14.910  1.00  0.00     0.134 A 
ATOM     86  F   UNL     1      -0.063   0.771  15.642  1.00  0.00    -0.206 F 
ATOM     87  C   UNL     1      -1.942   0.571  17.034  1.00  0.00     0.040 A 
ATOM     88  C   UNL     1      -4.142   1.013  16.160  1.00  0.00     0.040 A 
ATOM     89  F   UNL     1      -4.412   1.622  13.911  1.00  0.00    -0.206 F 
ATOM     90  C   UNL     1      -3.321   0.651  17.226  1.00  0.00     0.006 A 
ENDBRANCH  66  83
ENDBRANCH  40  41
ENDBRANCH  33  35
ENDBRANCH  32  33
ENDBRANCH  31  32
ENDBRANCH  30  31
ENDBRANCH  29  30
ENDBRANCH  28  29
ENDBRANCH   1  28
TORSDOF 20
