REMARK SMILES C[C@]12C(=O)N(c3ccc(C(=O)OCCOCCOCCOC(=O)c4ccc(-c5c6nc(c(-c7c(F)cccc7F)c7ccc([nH]7)c(-c7c(F)cccc7F)c7nc(c(-c8c(F)cccc8F)c8ccc5[nH]8)C=C7)C=C6)cc4)cc3)C(=O)[C@H]1[C@H]1c3ccccc3[C@@H]2c2ccccc21
REMARK SMILES IDX 17 1 16 2 15 3 14 4 13 5 12 6 10 7 11 8 9 9 6 10 7 11 79 12
REMARK SMILES IDX 8 13 78 14 5 15 1 16 2 17 3 18 82 19 90 20 4 21 80 22 83 23
REMARK SMILES IDX 89 24 91 25 81 26 84 27 96 28 88 29 92 30 85 31 95 32 87 33
REMARK SMILES IDX 93 34 86 35 94 36 18 37 19 38 20 39 21 40 22 41 23 42 24 43
REMARK SMILES IDX 25 44 77 45 26 46 76 47 27 48 28 49 29 50 70 51 30 52 75 53
REMARK SMILES IDX 69 54 71 55 31 56 74 57 68 58 67 59 32 61 58 62 41 63 57 64
REMARK SMILES IDX 42 65 45 66 56 67 72 68 43 69 44 70 55 72 73 73 46 74 33 75
REMARK SMILES IDX 34 76 39 77 35 78 36 79 38 80 40 81 37 82 59 83 60 84 65 85
REMARK SMILES IDX 61 86 62 87 64 88 66 89 63 90 47 91 48 92 53 93 49 94 50 95
REMARK SMILES IDX 52 96 54 97 51 98
REMARK H PARENT 71 60 45 71
REMARK Flexibility Score: inf
ROOT
ATOM      1  C   UNL     1       1.961  -5.856  -7.805  1.00  0.00     0.188 C 
ENDROOT
BRANCH   1   2
ATOM      2  C   UNL     1       2.599  -7.196  -7.379  1.00  0.00     0.188 C 
BRANCH   2   3
ATOM      3  O   UNL     1       2.386  -8.367  -8.143  1.00  0.00    -0.376 OA
BRANCH   3   4
ATOM      4  C   UNL     1       1.059  -8.837  -8.342  1.00  0.00     0.202 C 
BRANCH   4   5
ATOM      5  C   UNL     1       0.085  -8.901  -7.163  1.00  0.00     0.261 C 
BRANCH   5   6
ATOM      6  O   UNL     1      -0.168  -7.614  -6.573  1.00  0.00    -0.460 OA
BRANCH   6   7
ATOM      7  C   UNL     1      -0.005  -7.563  -5.230  1.00  0.00     0.338 C 
ATOM      8  O   UNL     1       0.245  -8.495  -4.483  1.00  0.00    -0.246 OA
BRANCH   7   9
ATOM      9  C   UNL     1       0.061  -6.162  -4.771  1.00  0.00     0.060 A 
ATOM     10  C   UNL     1       0.223  -3.628  -3.549  1.00  0.00     0.052 A 
ATOM     11  C   UNL     1       1.324  -4.503  -3.559  1.00  0.00     0.028 A 
ATOM     12  C   UNL     1      -0.917  -4.002  -4.279  1.00  0.00     0.028 A 
ATOM     13  C   UNL     1       1.232  -5.772  -4.123  1.00  0.00     0.018 A 
ATOM     14  C   UNL     1      -0.993  -5.260  -4.908  1.00  0.00     0.018 A 
BRANCH  10  15
ATOM     15  N   UNL     1       0.209  -2.556  -2.616  1.00  0.00    -0.250 N 
ATOM     16  C   UNL     1       1.121  -0.265  -0.319  1.00  0.00     0.024 C 
ATOM     17  C   UNL     1       0.711  -1.735  -0.528  1.00  0.00     0.071 C 
ATOM     18  C   UNL     1       1.264  -2.187  -1.851  1.00  0.00     0.241 C 
ATOM     19  C   UNL     1      -0.889  -1.826  -0.604  1.00  0.00     0.107 C 
ATOM     20  C   UNL     1       1.360  -2.708   0.526  1.00  0.00     0.066 C 
ATOM     21  O   UNL     1       2.454  -2.184  -2.132  1.00  0.00    -0.273 OA
ATOM     22  C   UNL     1      -0.885  -1.872  -2.168  1.00  0.00     0.238 C 
ATOM     23  C   UNL     1      -1.244  -2.726   0.679  1.00  0.00     0.063 C 
ATOM     24  C   UNL     1       0.758  -4.095   0.266  1.00  0.00    -0.036 A 
ATOM     25  C   UNL     1       0.853  -2.256   1.879  1.00  0.00    -0.036 A 
ATOM     26  O   UNL     1      -1.761  -1.357  -2.856  1.00  0.00    -0.274 OA
ATOM     27  C   UNL     1      -0.654  -4.112   0.362  1.00  0.00    -0.036 A 
ATOM     28  C   UNL     1      -0.556  -2.225   1.950  1.00  0.00    -0.036 A 
ATOM     29  C   UNL     1       1.447  -5.227  -0.143  1.00  0.00     0.005 A 
ATOM     30  C   UNL     1       1.643  -1.971   2.985  1.00  0.00     0.005 A 
ATOM     31  C   UNL     1      -1.383  -5.243   0.022  1.00  0.00     0.004 A 
ATOM     32  C   UNL     1      -1.180  -1.916   3.152  1.00  0.00     0.004 A 
ATOM     33  C   UNL     1       0.713  -6.365  -0.489  1.00  0.00     0.000 A 
ATOM     34  C   UNL     1       1.012  -1.659   4.187  1.00  0.00     0.000 A 
ATOM     35  C   UNL     1      -0.689  -6.371  -0.414  1.00  0.00     0.000 A 
ATOM     36  C   UNL     1      -0.388  -1.632   4.270  1.00  0.00     0.000 A 
ENDBRANCH  10  15
ENDBRANCH   7   9
ENDBRANCH   6   7
ENDBRANCH   5   6
ENDBRANCH   4   5
ENDBRANCH   3   4
ENDBRANCH   2   3
ENDBRANCH   1   2
BRANCH   1  37
ATOM     37  O   UNL     1       1.155  -5.764  -8.960  1.00  0.00    -0.376 OA
BRANCH  37  38
ATOM     38  C   UNL     1       1.705  -6.053 -10.235  1.00  0.00     0.202 C 
BRANCH  38  39
ATOM     39  C   UNL     1       3.089  -5.544 -10.651  1.00  0.00     0.261 C 
BRANCH  39  40
ATOM     40  O   UNL     1       4.135  -5.807  -9.707  1.00  0.00    -0.460 OA
BRANCH  40  41
ATOM     41  C   UNL     1       4.719  -4.707  -9.171  1.00  0.00     0.338 C 
ATOM     42  O   UNL     1       4.459  -3.537  -9.397  1.00  0.00    -0.246 OA
BRANCH  41  43
ATOM     43  C   UNL     1       5.634  -5.138  -8.102  1.00  0.00     0.060 A 
ATOM     44  C   UNL     1       6.758  -5.904  -8.408  1.00  0.00     0.016 A 
ATOM     45  C   UNL     1       5.362  -4.755  -6.781  1.00  0.00     0.016 A 
ATOM     46  C   UNL     1       7.629  -6.275  -7.382  1.00  0.00     0.010 A 
ATOM     47  C   UNL     1       6.222  -5.147  -5.755  1.00  0.00     0.010 A 
ATOM     48  C   UNL     1       7.372  -5.891  -6.054  1.00  0.00    -0.014 A 
BRANCH  48  49
ATOM     49  C   UNL     1       8.395  -6.124  -5.009  1.00  0.00     0.031 A 
ATOM     50  C   UNL     1       8.296  -7.265  -4.044  1.00  0.00     0.074 A 
ATOM     51  C   UNL     1       9.426  -5.262  -4.939  1.00  0.00     0.049 A 
ATOM     52  N   UNL     1       9.142  -7.626  -3.113  1.00  0.00    -0.248 NA
ATOM     53  C   UNL     1       7.093  -8.104  -4.130  1.00  0.00     0.031 C 
ATOM     54  C   UNL     1       9.606  -4.098  -5.809  1.00  0.00     0.029 A 
ATOM     55  N   UNL     1      10.510  -5.227  -4.102  1.00  0.00    -0.354 N 
ATOM     56  C   UNL     1       8.591  -8.750  -2.513  1.00  0.00     0.074 A 
ATOM     57  C   UNL     1       7.313  -8.983  -3.158  1.00  0.00     0.031 C 
ATOM     58  C   UNL     1      10.740  -3.468  -5.466  1.00  0.00     0.029 A 
ATOM     59  C   UNL     1      11.350  -4.168  -4.341  1.00  0.00     0.049 A 
ATOM     60  H   UNL     1      10.671  -5.897  -3.399  1.00  0.00     0.167 HD
ATOM     61  C   UNL     1       9.114  -9.520  -1.527  1.00  0.00     0.037 A 
ATOM     62  C   UNL     1      12.482  -3.799  -3.716  1.00  0.00     0.037 A 
ATOM     63  C   UNL     1      10.374  -9.263  -0.872  1.00  0.00     0.049 A 
ATOM     64  C   UNL     1      13.001  -4.637  -2.582  1.00  0.00     0.074 A 
ATOM     65  C   UNL     1      11.008 -10.014   0.105  1.00  0.00     0.029 A 
ATOM     66  N   UNL     1      11.181  -8.160  -1.109  1.00  0.00    -0.354 N 
ATOM     67  N   UNL     1      12.519  -5.751  -2.087  1.00  0.00    -0.248 NA
ATOM     68  C   UNL     1      14.227  -4.167  -1.924  1.00  0.00     0.031 C 
ATOM     69  C   UNL     1      12.167  -9.335   0.500  1.00  0.00     0.029 A 
ATOM     70  C   UNL     1      12.285  -8.189  -0.269  1.00  0.00     0.049 A 
ATOM     71  H   UNL     1      10.998  -7.459  -1.775  1.00  0.00     0.167 HD
ATOM     72  C   UNL     1      13.392  -6.124  -1.074  1.00  0.00     0.074 A 
ATOM     73  C   UNL     1      14.448  -5.134  -1.046  1.00  0.00     0.031 C 
ATOM     74  C   UNL     1      13.323  -7.189  -0.238  1.00  0.00     0.037 A 
BRANCH  61  75
ATOM     75  C   UNL     1       8.322 -10.718  -1.086  1.00  0.00     0.057 A 
ATOM     76  C   UNL     1       7.742 -10.767   0.188  1.00  0.00     0.134 A 
ATOM     77  C   UNL     1       8.190 -11.852  -1.898  1.00  0.00     0.134 A 
ATOM     78  F   UNL     1       7.840  -9.721   1.022  1.00  0.00    -0.206 F 
ATOM     79  C   UNL     1       7.063 -11.900   0.639  1.00  0.00     0.040 A 
ATOM     80  C   UNL     1       7.493 -12.982  -1.468  1.00  0.00     0.040 A 
ATOM     81  F   UNL     1       8.720 -11.871  -3.131  1.00  0.00    -0.206 F 
ATOM     82  C   UNL     1       6.933 -13.011  -0.192  1.00  0.00     0.006 A 
ENDBRANCH  61  75
BRANCH  62  83
ATOM     83  C   UNL     1      13.206  -2.577  -4.144  1.00  0.00     0.057 A 
ATOM     84  C   UNL     1      12.667  -1.302  -3.931  1.00  0.00     0.134 A 
ATOM     85  C   UNL     1      14.468  -2.654  -4.741  1.00  0.00     0.134 A 
ATOM     86  F   UNL     1      11.457  -1.162  -3.369  1.00  0.00    -0.206 F 
ATOM     87  C   UNL     1      13.360  -0.148  -4.295  1.00  0.00     0.040 A 
ATOM     88  C   UNL     1      15.185  -1.507  -5.083  1.00  0.00     0.040 A 
ATOM     89  F   UNL     1      15.043  -3.848  -4.953  1.00  0.00    -0.206 F 
ATOM     90  C   UNL     1      14.629  -0.249  -4.862  1.00  0.00     0.006 A 
ENDBRANCH  62  83
BRANCH  74  91
ATOM     91  C   UNL     1      14.432  -7.334   0.765  1.00  0.00     0.057 A 
ATOM     92  C   UNL     1      15.381  -8.358   0.644  1.00  0.00     0.134 A 
ATOM     93  C   UNL     1      14.568  -6.455   1.848  1.00  0.00     0.134 A 
ATOM     94  F   UNL     1      15.309  -9.239  -0.365  1.00  0.00    -0.206 F 
ATOM     95  C   UNL     1      16.425  -8.498   1.559  1.00  0.00     0.040 A 
ATOM     96  C   UNL     1      15.625  -6.566   2.752  1.00  0.00     0.040 A 
ATOM     97  F   UNL     1      13.704  -5.441   2.013  1.00  0.00    -0.206 F 
ATOM     98  C   UNL     1      16.556  -7.593   2.611  1.00  0.00     0.006 A 
ENDBRANCH  74  91
ENDBRANCH  48  49
ENDBRANCH  41  43
ENDBRANCH  40  41
ENDBRANCH  39  40
ENDBRANCH  38  39
ENDBRANCH  37  38
ENDBRANCH   1  37
TORSDOF 18
