REMARK SMILES CCc1ccc(-c2cc(Cl)cc3c2O[C@H](C(F)(F)F)C(C(=O)OCCOCCOCCOC(=O)c2ccc(-c4c5nc(c(-c6c(F)cccc6F)c6ccc([nH]6)c(-c6c(F)cccc6F)c6nc(c(-c7c(F)cccc7F)c7ccc4[nH]7)C=C6)C=C5)cc2)=C3)cc1
REMARK SMILES IDX 27 1 26 2 25 3 24 4 23 5 21 6 22 7 20 8 7 9 8 10 13 11 9 12
REMARK SMILES IDX 12 13 14 14 10 15 11 16 89 17 15 18 6 19 3 20 4 21 91 22
REMARK SMILES IDX 5 23 90 24 2 25 1 26 16 27 17 28 18 29 19 30 28 31 29 32
REMARK SMILES IDX 30 33 31 34 32 35 33 36 34 37 35 38 36 39 88 40 37 41 87 42
REMARK SMILES IDX 38 43 39 44 40 45 81 46 41 47 86 48 80 49 82 50 42 51 85 52
REMARK SMILES IDX 79 53 78 54 43 56 69 57 52 58 68 59 53 60 56 61 67 62 83 63
REMARK SMILES IDX 54 64 55 65 66 67 84 68 57 69 44 70 45 71 50 72 46 73 47 74
REMARK SMILES IDX 49 75 51 76 48 77 70 78 71 79 76 80 72 81 73 82 75 83 77 84
REMARK SMILES IDX 74 85 58 86 59 87 64 88 60 89 61 90 63 91 65 92 62 93
REMARK H PARENT 82 55 56 66
REMARK Flexibility Score: inf
ROOT
ATOM      1  C   UNL     1       2.752  -6.900  -8.493  1.00  0.00     0.188 C 
ENDROOT
BRANCH   1   2
ATOM      2  O   UNL     1       1.968  -7.303  -9.601  1.00  0.00    -0.376 OA
BRANCH   2   3
ATOM      3  C   UNL     1       2.225  -6.644 -10.840  1.00  0.00     0.202 C 
BRANCH   3   4
ATOM      4  C   UNL     1       3.685  -6.671 -11.312  1.00  0.00     0.261 C 
BRANCH   4   5
ATOM      5  O   UNL     1       4.502  -5.770 -10.524  1.00  0.00    -0.460 OA
BRANCH   5   6
ATOM      6  C   UNL     1       4.479  -4.486 -10.942  1.00  0.00     0.338 C 
ATOM      7  O   UNL     1       3.960  -4.102 -11.982  1.00  0.00    -0.246 OA
BRANCH   6   8
ATOM      8  C   UNL     1       5.008  -3.553  -9.912  1.00  0.00     0.087 C 
ATOM      9  C   UNL     1       3.271  -2.695  -6.254  1.00  0.00     0.026 A 
ATOM     10  C   UNL     1       1.881  -2.896  -6.394  1.00  0.00     0.033 A 
ATOM     11  C   UNL     1       4.012  -2.773  -7.431  1.00  0.00     0.135 A 
ATOM     12  C   UNL     1       1.251  -3.014  -7.631  1.00  0.00     0.042 A 
ATOM     13  C   UNL     1       3.353  -2.651  -8.670  1.00  0.00     0.019 A 
ATOM     14  O   UNL     1       5.365  -3.071  -7.478  1.00  0.00    -0.475 OA
ATOM     15  Cl  UNL     1      -0.434  -3.334  -7.713  1.00  0.00    -0.084 Cl
ATOM     16  C   UNL     1       1.978  -2.813  -8.786  1.00  0.00     0.032 A 
ATOM     17  C   UNL     1       4.202  -2.477  -9.865  1.00  0.00     0.027 C 
ATOM     18  C   UNL     1       5.635  -4.027  -8.600  1.00  0.00     0.316 C 
BRANCH   9  19
ATOM     19  C   UNL     1       3.705  -2.151  -4.945  1.00  0.00    -0.015 A 
ATOM     20  C   UNL     1       3.502  -0.781  -2.445  1.00  0.00    -0.048 A 
ATOM     21  C   UNL     1       3.340  -2.165  -2.516  1.00  0.00     0.004 A 
ATOM     22  C   UNL     1       3.852  -0.099  -3.619  1.00  0.00     0.004 A 
ATOM     23  C   UNL     1       3.450  -2.835  -3.746  1.00  0.00     0.009 A 
ATOM     24  C   UNL     1       3.967  -0.775  -4.844  1.00  0.00     0.009 A 
BRANCH  20  25
ATOM     25  C   UNL     1       3.094   0.008  -1.223  1.00  0.00     0.032 C 
ATOM     26  C   UNL     1       3.380  -0.567   0.154  1.00  0.00     0.009 C 
ENDBRANCH  20  25
ENDBRANCH   9  19
BRANCH  18  27
ATOM     27  C   UNL     1       7.136  -4.263  -8.784  1.00  0.00     0.430 C 
ATOM     28  F   UNL     1       7.800  -3.127  -9.086  1.00  0.00    -0.167 F 
ATOM     29  F   UNL     1       7.693  -4.788  -7.669  1.00  0.00    -0.167 F 
ATOM     30  F   UNL     1       7.367  -5.145  -9.789  1.00  0.00    -0.167 F 
ENDBRANCH  18  27
ENDBRANCH   6   8
ENDBRANCH   5   6
ENDBRANCH   4   5
ENDBRANCH   3   4
ENDBRANCH   2   3
ENDBRANCH   1   2
BRANCH   1  31
ATOM     31  C   UNL     1       3.984  -7.785  -8.200  1.00  0.00     0.188 C 
BRANCH  31  32
ATOM     32  O   UNL     1       4.217  -8.964  -8.957  1.00  0.00    -0.376 OA
BRANCH  32  33
ATOM     33  C   UNL     1       3.143  -9.859  -9.215  1.00  0.00     0.202 C 
BRANCH  33  34
ATOM     34  C   UNL     1       2.366 -10.435  -8.026  1.00  0.00     0.261 C 
BRANCH  34  35
ATOM     35  O   UNL     1       1.766  -9.445  -7.169  1.00  0.00    -0.460 OA
BRANCH  35  36
ATOM     36  C   UNL     1       2.225  -9.439  -5.894  1.00  0.00     0.338 C 
ATOM     37  O   UNL     1       3.072 -10.173  -5.414  1.00  0.00    -0.246 OA
BRANCH  36  38
ATOM     38  C   UNL     1       1.679  -8.294  -5.135  1.00  0.00     0.060 A 
ATOM     39  C   UNL     1       2.598  -7.441  -4.517  1.00  0.00     0.016 A 
ATOM     40  C   UNL     1       0.310  -8.135  -4.904  1.00  0.00     0.016 A 
ATOM     41  C   UNL     1       2.152  -6.465  -3.626  1.00  0.00     0.010 A 
ATOM     42  C   UNL     1      -0.136  -7.147  -4.009  1.00  0.00     0.010 A 
ATOM     43  C   UNL     1       0.784  -6.319  -3.344  1.00  0.00    -0.014 A 
BRANCH  43  44
ATOM     44  C   UNL     1       0.387  -5.436  -2.207  1.00  0.00     0.031 A 
ATOM     45  C   UNL     1       0.571  -5.963  -0.816  1.00  0.00     0.074 A 
ATOM     46  C   UNL     1      -0.074  -4.184  -2.395  1.00  0.00     0.049 A 
ATOM     47  N   UNL     1       0.509  -5.331   0.325  1.00  0.00    -0.248 NA
ATOM     48  C   UNL     1       0.837  -7.406  -0.699  1.00  0.00     0.031 C 
ATOM     49  C   UNL     1      -0.350  -3.614  -3.701  1.00  0.00     0.029 A 
ATOM     50  N   UNL     1      -0.343  -3.151  -1.522  1.00  0.00    -0.354 N 
ATOM     51  C   UNL     1       0.664  -6.309   1.298  1.00  0.00     0.074 A 
ATOM     52  C   UNL     1       0.868  -7.566   0.614  1.00  0.00     0.031 C 
ATOM     53  C   UNL     1      -0.609  -2.302  -3.565  1.00  0.00     0.029 A 
ATOM     54  C   UNL     1      -0.601  -1.942  -2.149  1.00  0.00     0.049 A 
ATOM     55  H   UNL     1      -0.350  -3.262  -0.543  1.00  0.00     0.167 HD
ATOM     56  C   UNL     1       0.594  -6.169   2.642  1.00  0.00     0.037 A 
ATOM     57  C   UNL     1      -0.776  -0.699  -1.634  1.00  0.00     0.037 A 
ATOM     58  C   UNL     1       0.390  -4.909   3.304  1.00  0.00     0.049 A 
ATOM     59  C   UNL     1      -0.729  -0.570  -0.123  1.00  0.00     0.074 A 
ATOM     60  C   UNL     1       0.321  -4.649   4.660  1.00  0.00     0.029 A 
ATOM     61  N   UNL     1       0.208  -3.697   2.651  1.00  0.00    -0.354 N 
ATOM     62  N   UNL     1      -0.396  -1.466   0.780  1.00  0.00    -0.248 NA
ATOM     63  C   UNL     1      -1.075   0.739   0.447  1.00  0.00     0.031 C 
ATOM     64  C   UNL     1       0.047  -3.287   4.827  1.00  0.00     0.029 A 
ATOM     65  C   UNL     1       0.001  -2.689   3.576  1.00  0.00     0.049 A 
ATOM     66  H   UNL     1       0.224  -3.574   1.674  1.00  0.00     0.167 HD
ATOM     67  C   UNL     1      -0.427  -0.809   2.007  1.00  0.00     0.074 A 
ATOM     68  C   UNL     1      -0.768   0.570   1.725  1.00  0.00     0.031 C 
ATOM     69  C   UNL     1      -0.224  -1.300   3.257  1.00  0.00     0.037 A 
BRANCH  56  70
ATOM     70  C   UNL     1       0.640  -7.422   3.466  1.00  0.00     0.057 A 
ATOM     71  C   UNL     1       1.811  -8.169   3.640  1.00  0.00     0.134 A 
ATOM     72  C   UNL     1      -0.525  -7.891   4.088  1.00  0.00     0.134 A 
ATOM     73  F   UNL     1       2.954  -7.789   3.051  1.00  0.00    -0.206 F 
ATOM     74  C   UNL     1       1.815  -9.353   4.381  1.00  0.00     0.040 A 
ATOM     75  C   UNL     1      -0.527  -9.058   4.852  1.00  0.00     0.040 A 
ATOM     76  F   UNL     1      -1.682  -7.225   3.957  1.00  0.00    -0.206 F 
ATOM     77  C   UNL     1       0.644  -9.797   4.994  1.00  0.00     0.006 A 
ENDBRANCH  56  70
BRANCH  57  78
ATOM     78  C   UNL     1      -0.887   0.522  -2.522  1.00  0.00     0.057 A 
ATOM     79  C   UNL     1      -0.054   1.647  -2.364  1.00  0.00     0.134 A 
ATOM     80  C   UNL     1      -1.795   0.604  -3.587  1.00  0.00     0.134 A 
ATOM     81  F   UNL     1       0.756   1.767  -1.303  1.00  0.00    -0.206 F 
ATOM     82  C   UNL     1      -0.050   2.727  -3.253  1.00  0.00     0.040 A 
ATOM     83  C   UNL     1      -1.784   1.665  -4.505  1.00  0.00     0.040 A 
ATOM     84  F   UNL     1      -2.711  -0.358  -3.777  1.00  0.00    -0.206 F 
ATOM     85  C   UNL     1      -0.897   2.724  -4.349  1.00  0.00     0.006 A 
ENDBRANCH  57  78
BRANCH  69  86
ATOM     86  C   UNL     1      -0.254  -0.331   4.409  1.00  0.00     0.057 A 
ATOM     87  C   UNL     1      -1.428   0.316   4.816  1.00  0.00     0.134 A 
ATOM     88  C   UNL     1       0.903  -0.098   5.168  1.00  0.00     0.134 A 
ATOM     89  F   UNL     1      -2.574   0.135   4.142  1.00  0.00    -0.206 F 
ATOM     90  C   UNL     1      -1.442   1.190   5.905  1.00  0.00     0.040 A 
ATOM     91  C   UNL     1       0.892   0.744   6.281  1.00  0.00     0.040 A 
ATOM     92  F   UNL     1       2.058  -0.704   4.853  1.00  0.00    -0.206 F 
ATOM     93  C   UNL     1      -0.281   1.400   6.646  1.00  0.00     0.006 A 
ENDBRANCH  69  86
ENDBRANCH  43  44
ENDBRANCH  36  38
ENDBRANCH  35  36
ENDBRANCH  34  35
ENDBRANCH  33  34
ENDBRANCH  32  33
ENDBRANCH  31  32
ENDBRANCH   1  31
TORSDOF 20
