REMARK SMILES CCCCCCNC(=O)Oc1cccc(-c2ccc([C@@H](C)C(=O)OCCOCCOCCOC(=O)c3ccc(-c4c5nc(c(-c6c(F)cccc6F)c6ccc([nH]6)c(-c6c(F)cccc6F)c6nc(c(-c7c(F)cccc7F)c7ccc4[nH]7)C=C6)C=C5)cc3)cc2O)c1
REMARK SMILES IDX 25 1 24 2 22 3 23 4 20 5 21 6 19 7 16 8 17 9 91 10 18 11
REMARK SMILES IDX 90 12 15 13 11 14 12 15 93 16 13 17 14 18 10 19 8 20 7 21
REMARK SMILES IDX 9 23 6 24 5 25 4 26 3 27 2 28 1 29 92 30 26 32 27 33 28 34
REMARK SMILES IDX 29 35 30 36 31 37 32 38 33 39 34 40 35 41 36 42 37 43 89 44
REMARK SMILES IDX 38 45 88 46 39 47 40 48 41 49 82 50 42 51 87 52 81 53 83 54
REMARK SMILES IDX 43 55 86 56 80 57 79 58 44 60 70 61 53 62 69 63 54 64 57 65
REMARK SMILES IDX 68 66 84 67 55 68 56 69 67 71 85 72 58 73 45 74 46 75 51 76
REMARK SMILES IDX 47 77 48 78 50 79 52 80 49 81 71 82 72 83 77 84 73 85 74 86
REMARK SMILES IDX 76 87 78 88 75 89 59 90 60 91 65 92 61 93 62 94 64 95 66 96
REMARK SMILES IDX 63 97
REMARK H PARENT 7 22 92 31 83 59 57 70
REMARK Flexibility Score: inf
ROOT
ATOM      1  C   UNL     1      -2.507 -10.656  12.098  1.00  0.00     0.261 C 
ENDROOT
BRANCH   1   2
ATOM      2  O   UNL     1      -3.429  -9.783  11.414  1.00  0.00    -0.463 OA
BRANCH   2   3
ATOM      3  C   UNL     1      -4.117  -8.911  12.192  1.00  0.00     0.313 C 
ATOM      4  O   UNL     1      -4.031  -8.880  13.418  1.00  0.00    -0.252 OA
BRANCH   3   5
ATOM      5  C   UNL     1      -5.053  -7.962  11.453  1.00  0.00     0.126 C 
ATOM      6  C   UNL     1      -6.491  -8.273  11.871  1.00  0.00     0.025 C 
BRANCH   5   7
ATOM      7  C   UNL     1      -4.961  -7.792   9.939  1.00  0.00    -0.030 A 
ATOM      8  C   UNL     1      -4.955  -7.309   7.104  1.00  0.00     0.024 A 
ATOM      9  C   UNL     1      -5.144  -8.598   7.639  1.00  0.00     0.013 A 
ATOM     10  C   UNL     1      -4.764  -6.270   8.029  1.00  0.00     0.123 A 
ATOM     11  C   UNL     1      -5.163  -8.836   9.028  1.00  0.00     0.005 A 
ATOM     12  C   UNL     1      -4.757  -6.505   9.410  1.00  0.00     0.051 A 
BRANCH   8  13
ATOM     13  C   UNL     1      -5.028  -7.084   5.640  1.00  0.00    -0.011 A 
ATOM     14  C   UNL     1      -4.162  -6.146   3.567  1.00  0.00     0.133 A 
ATOM     15  C   UNL     1      -5.311  -6.527   2.878  1.00  0.00     0.047 A 
ATOM     16  C   UNL     1      -4.006  -6.423   4.930  1.00  0.00     0.056 A 
ATOM     17  C   UNL     1      -6.314  -7.210   3.556  1.00  0.00     0.004 A 
ATOM     18  C   UNL     1      -6.176  -7.478   4.923  1.00  0.00     0.009 A 
BRANCH  14  19
ATOM     19  O   UNL     1      -3.254  -5.330   2.867  1.00  0.00    -0.410 OA
BRANCH  19  20
ATOM     20  C   UNL     1      -1.940  -5.748   2.753  1.00  0.00     0.412 C 
ATOM     21  N   UNL     1      -1.153  -4.882   2.045  1.00  0.00    -0.321 N 
ATOM     22  H   UNL     1      -0.192  -5.090   2.011  1.00  0.00     0.167 HD
ATOM     23  O   UNL     1      -1.479  -6.798   3.204  1.00  0.00    -0.224 OA
BRANCH  21  24
ATOM     24  C   UNL     1      -1.583  -3.689   1.338  1.00  0.00     0.119 C 
BRANCH  24  25
ATOM     25  C   UNL     1      -0.965  -2.409   1.900  1.00  0.00     0.021 C 
BRANCH  25  26
ATOM     26  C   UNL     1       0.562  -2.318   1.794  1.00  0.00     0.002 C 
BRANCH  26  27
ATOM     27  C   UNL     1       1.141  -2.402   0.376  1.00  0.00    -0.000 C 
BRANCH  27  28
ATOM     28  C   UNL     1       0.663  -1.326  -0.602  1.00  0.00    -0.003 C 
ATOM     29  C   UNL     1       1.061   0.084  -0.193  1.00  0.00     0.004 C 
ENDBRANCH  27  28
ENDBRANCH  26  27
ENDBRANCH  25  26
ENDBRANCH  24  25
ENDBRANCH  21  24
ENDBRANCH  19  20
ENDBRANCH  14  19
ENDBRANCH   8  13
BRANCH  10  30
ATOM     30  O   UNL     1      -4.621  -4.957   7.661  1.00  0.00    -0.507 OA
ATOM     31  H   UNL     1      -4.617  -4.723   6.754  1.00  0.00     0.293 HD
ENDBRANCH  10  30
ENDBRANCH   5   7
ENDBRANCH   3   5
ENDBRANCH   2   3
ENDBRANCH   1   2
BRANCH   1  32
ATOM     32  C   UNL     1      -1.064 -10.524  11.610  1.00  0.00     0.202 C 
BRANCH  32  33
ATOM     33  O   UNL     1      -0.476  -9.238  11.748  1.00  0.00    -0.376 OA
BRANCH  33  34
ATOM     34  C   UNL     1      -0.920  -8.173  10.911  1.00  0.00     0.188 C 
BRANCH  34  35
ATOM     35  C   UNL     1      -1.509  -8.478   9.526  1.00  0.00     0.188 C 
BRANCH  35  36
ATOM     36  O   UNL     1      -0.878  -9.575   8.883  1.00  0.00    -0.376 OA
BRANCH  36  37
ATOM     37  C   UNL     1      -0.563  -9.357   7.515  1.00  0.00     0.202 C 
BRANCH  37  38
ATOM     38  C   UNL     1       0.874  -8.842   7.428  1.00  0.00     0.261 C 
BRANCH  38  39
ATOM     39  O   UNL     1       1.063  -7.584   8.103  1.00  0.00    -0.460 OA
BRANCH  39  40
ATOM     40  C   UNL     1       0.413  -6.532   7.566  1.00  0.00     0.338 C 
ATOM     41  O   UNL     1      -0.244  -6.518   6.531  1.00  0.00    -0.246 OA
BRANCH  40  42
ATOM     42  C   UNL     1       0.460  -5.401   8.506  1.00  0.00     0.060 A 
ATOM     43  C   UNL     1      -0.726  -4.701   8.764  1.00  0.00     0.016 A 
ATOM     44  C   UNL     1       1.665  -4.996   9.085  1.00  0.00     0.016 A 
ATOM     45  C   UNL     1      -0.696  -3.549   9.548  1.00  0.00     0.010 A 
ATOM     46  C   UNL     1       1.697  -3.835   9.861  1.00  0.00     0.010 A 
ATOM     47  C   UNL     1       0.525  -3.082  10.053  1.00  0.00    -0.014 A 
BRANCH  47  48
ATOM     48  C   UNL     1       0.617  -1.697  10.572  1.00  0.00     0.031 A 
ATOM     49  C   UNL     1       1.045  -0.611   9.621  1.00  0.00     0.074 A 
ATOM     50  C   UNL     1       0.311  -1.399  11.846  1.00  0.00     0.049 A 
ATOM     51  N   UNL     1       1.218   0.667   9.840  1.00  0.00    -0.248 NA
ATOM     52  C   UNL     1       1.318  -1.026   8.234  1.00  0.00     0.031 C 
ATOM     53  C   UNL     1      -0.139  -2.352  12.857  1.00  0.00     0.029 A 
ATOM     54  N   UNL     1       0.344  -0.195  12.504  1.00  0.00    -0.354 N 
ATOM     55  C   UNL     1       1.620   1.206   8.625  1.00  0.00     0.074 A 
ATOM     56  C   UNL     1       1.695   0.115   7.678  1.00  0.00     0.031 C 
ATOM     57  C   UNL     1      -0.330  -1.696  14.016  1.00  0.00     0.029 A 
ATOM     58  C   UNL     1       0.003  -0.284  13.831  1.00  0.00     0.049 A 
ATOM     59  H   UNL     1       0.588   0.653  12.066  1.00  0.00     0.167 HD
ATOM     60  C   UNL     1       1.892   2.495   8.319  1.00  0.00     0.037 A 
ATOM     61  C   UNL     1      -0.019   0.667  14.786  1.00  0.00     0.037 A 
ATOM     62  C   UNL     1       1.818   3.584   9.254  1.00  0.00     0.049 A 
ATOM     63  C   UNL     1       0.343   2.087  14.432  1.00  0.00     0.074 A 
ATOM     64  C   UNL     1       2.056   4.929   9.032  1.00  0.00     0.029 A 
ATOM     65  N   UNL     1       1.486   3.450  10.593  1.00  0.00    -0.354 N 
ATOM     66  N   UNL     1       0.682   2.592  13.270  1.00  0.00    -0.248 NA
ATOM     67  C   UNL     1       0.313   3.070  15.525  1.00  0.00     0.031 C 
ATOM     68  C   UNL     1       1.906   5.605  10.248  1.00  0.00     0.029 A 
ATOM     69  C   UNL     1       1.533   4.686  11.215  1.00  0.00     0.049 A 
ATOM     70  H   UNL     1       1.252   2.602  11.035  1.00  0.00     0.167 HD
ATOM     71  C   UNL     1       0.875   3.952  13.488  1.00  0.00     0.074 A 
ATOM     72  C   UNL     1       0.603   4.195  14.888  1.00  0.00     0.031 C 
ATOM     73  C   UNL     1       1.245   4.914  12.607  1.00  0.00     0.037 A 
BRANCH  60  74
ATOM     74  C   UNL     1       2.312   2.795   6.912  1.00  0.00     0.057 A 
ATOM     75  C   UNL     1       1.397   2.781   5.851  1.00  0.00     0.134 A 
ATOM     76  C   UNL     1       3.639   3.132   6.621  1.00  0.00     0.134 A 
ATOM     77  F   UNL     1       0.115   2.447   6.062  1.00  0.00    -0.206 F 
ATOM     78  C   UNL     1       1.792   3.079   4.546  1.00  0.00     0.040 A 
ATOM     79  C   UNL     1       4.040   3.454   5.324  1.00  0.00     0.040 A 
ATOM     80  F   UNL     1       4.563   3.163   7.593  1.00  0.00    -0.206 F 
ATOM     81  C   UNL     1       3.116   3.425   4.281  1.00  0.00     0.006 A 
ENDBRANCH  60  74
BRANCH  61  82
ATOM     82  C   UNL     1      -0.385   0.319  16.182  1.00  0.00     0.057 A 
ATOM     83  C   UNL     1      -1.574   0.781  16.758  1.00  0.00     0.134 A 
ATOM     84  C   UNL     1       0.474  -0.434  16.991  1.00  0.00     0.134 A 
ATOM     85  F   UNL     1      -2.424   1.532  16.041  1.00  0.00    -0.206 F 
ATOM     86  C   UNL     1      -1.885   0.529  18.095  1.00  0.00     0.040 A 
ATOM     87  C   UNL     1       0.165  -0.714  18.323  1.00  0.00     0.040 A 
ATOM     88  F   UNL     1       1.631  -0.901  16.500  1.00  0.00    -0.206 F 
ATOM     89  C   UNL     1      -1.014  -0.223  18.881  1.00  0.00     0.006 A 
ENDBRANCH  61  82
BRANCH  73  90
ATOM     90  C   UNL     1       1.339   6.321  13.121  1.00  0.00     0.057 A 
ATOM     91  C   UNL     1       2.383   6.735  13.957  1.00  0.00     0.134 A 
ATOM     92  C   UNL     1       0.394   7.282  12.740  1.00  0.00     0.134 A 
ATOM     93  F   UNL     1       3.314   5.860  14.367  1.00  0.00    -0.206 F 
ATOM     94  C   UNL     1       2.470   8.050  14.418  1.00  0.00     0.040 A 
ATOM     95  C   UNL     1       0.484   8.606  13.173  1.00  0.00     0.040 A 
ATOM     96  F   UNL     1      -0.625   6.954  11.931  1.00  0.00    -0.206 F 
ATOM     97  C   UNL     1       1.521   8.991  14.020  1.00  0.00     0.006 A 
ENDBRANCH  73  90
ENDBRANCH  47  48
ENDBRANCH  40  42
ENDBRANCH  39  40
ENDBRANCH  38  39
ENDBRANCH  37  38
ENDBRANCH  36  37
ENDBRANCH  35  36
ENDBRANCH  34  35
ENDBRANCH  33  34
ENDBRANCH  32  33
ENDBRANCH   1  32
TORSDOF 27
