REMARK SMILES Cc1ccc(C(=O)NC2CC2)cc1NC(=O)[C@@H]1[C@@H](C(=O)OCCOCCOCCOC(=O)c2ccc(-c3c4nc(c(-c5c(F)cccc5F)c5ccc([nH]5)c(-c5c(F)cccc5F)c5nc(c(-c6c(F)cccc6F)c6ccc3[nH]6)C=C5)C=C4)cc2)[C@H]2C=C[C@@H]1C2
REMARK SMILES IDX 25 1 24 2 23 3 22 4 21 5 19 6 20 7 18 8 17 9 90 10 87 11
REMARK SMILES IDX 89 12 91 13 88 14 15 15 14 16 16 18 13 19 1 20 2 21 3 22
REMARK SMILES IDX 4 23 12 24 5 25 6 26 7 27 8 28 9 30 10 31 11 32 26 33 27 34
REMARK SMILES IDX 28 35 29 36 30 37 31 38 32 39 33 40 34 41 86 42 35 43 85 44
REMARK SMILES IDX 36 45 37 46 38 47 79 48 39 49 84 50 78 51 80 52 40 53 83 54
REMARK SMILES IDX 77 55 76 56 41 58 67 59 50 60 66 61 51 62 54 63 65 64 81 65
REMARK SMILES IDX 52 66 53 67 64 69 82 70 55 71 42 72 43 73 48 74 44 75 45 76
REMARK SMILES IDX 47 77 49 78 46 79 68 80 69 81 74 82 70 83 71 84 73 85 75 86
REMARK SMILES IDX 72 87 56 88 57 89 62 90 58 91 59 92 61 93 63 94 60 95
REMARK H PARENT 14 17 8 29 80 57 54 68
REMARK Flexibility Score: inf
ROOT
ATOM      1  C   UNL     1      -1.006   6.687  -5.315  1.00  0.00     0.188 C 
ENDROOT
BRANCH   1   2
ATOM      2  O   UNL     1      -2.347   7.107  -5.490  1.00  0.00    -0.376 OA
BRANCH   2   3
ATOM      3  C   UNL     1      -3.214   6.585  -4.487  1.00  0.00     0.202 C 
BRANCH   3   4
ATOM      4  C   UNL     1      -2.748   6.704  -3.014  1.00  0.00     0.261 C 
BRANCH   4   5
ATOM      5  O   UNL     1      -1.803   5.578  -2.427  1.00  0.00    -0.463 OA
BRANCH   5   6
ATOM      6  C   UNL     1      -1.172   4.717  -1.586  1.00  0.00     0.310 C 
ATOM      7  O   UNL     1      -0.489   3.895  -2.220  1.00  0.00    -0.252 OA
BRANCH   6   8
ATOM      8  C   UNL     1      -1.048   4.552   0.018  1.00  0.00     0.119 C 
ATOM      9  C   UNL     1      -0.539   3.106   0.428  1.00  0.00     0.100 C 
ATOM     10  C   UNL     1      -0.570   3.083   1.996  1.00  0.00     0.025 C 
ATOM     11  C   UNL     1      -1.810   4.847   1.402  1.00  0.00     0.027 C 
ATOM     12  C   UNL     1      -1.965   2.800   2.458  1.00  0.00    -0.027 C 
ATOM     13  C   UNL     1      -0.610   4.564   2.356  1.00  0.00     0.017 C 
ATOM     14  C   UNL     1      -2.716   3.821   2.034  1.00  0.00    -0.027 C 
BRANCH   9  15
ATOM     15  C   UNL     1       0.845   2.770  -0.044  1.00  0.00     0.228 C 
ATOM     16  N   UNL     1       1.248   1.480  -0.231  1.00  0.00    -0.326 N 
ATOM     17  H   UNL     1       2.186   1.422  -0.523  1.00  0.00     0.169 HD
ATOM     18  O   UNL     1       1.701   3.655  -0.146  1.00  0.00    -0.274 OA
BRANCH  16  19
ATOM     19  C   UNL     1       0.646   0.204  -0.108  1.00  0.00     0.044 A 
ATOM     20  C   UNL     1       2.994  -0.820   0.157  1.00  0.00     0.046 C 
ATOM     21  C   UNL     1       1.490  -0.901   0.122  1.00  0.00    -0.027 A 
ATOM     22  C   UNL     1       0.928  -2.180   0.291  1.00  0.00     0.006 A 
ATOM     23  C   UNL     1      -0.451  -2.374   0.270  1.00  0.00     0.014 A 
ATOM     24  C   UNL     1      -0.732  -0.043  -0.227  1.00  0.00     0.040 A 
ATOM     25  C   UNL     1      -1.305  -1.303   0.020  1.00  0.00     0.041 A 
BRANCH  25  26
ATOM     26  C   UNL     1      -2.773  -1.615  -0.013  1.00  0.00     0.251 C 
ATOM     27  O   UNL     1      -3.138  -2.760  -0.285  1.00  0.00    -0.269 OA
ATOM     28  N   UNL     1      -3.733  -0.686   0.317  1.00  0.00    -0.349 N 
ATOM     29  H   UNL     1      -4.659  -1.021   0.339  1.00  0.00     0.164 HD
BRANCH  28  30
ATOM     30  C   UNL     1      -3.572   0.684   0.630  1.00  0.00     0.082 C 
ATOM     31  C   UNL     1      -3.736   1.648  -0.496  1.00  0.00     0.027 C 
ATOM     32  C   UNL     1      -4.713   1.661   0.609  1.00  0.00     0.027 C 
ENDBRANCH  28  30
ENDBRANCH  25  26
ENDBRANCH  16  19
ENDBRANCH   9  15
ENDBRANCH   6   8
ENDBRANCH   5   6
ENDBRANCH   4   5
ENDBRANCH   3   4
ENDBRANCH   2   3
ENDBRANCH   1   2
BRANCH   1  33
ATOM     33  C   UNL     1      -0.156   7.757  -4.623  1.00  0.00     0.188 C 
BRANCH  33  34
ATOM     34  O   UNL     1      -0.880   8.614  -3.759  1.00  0.00    -0.376 OA
BRANCH  34  35
ATOM     35  C   UNL     1      -1.493   9.766  -4.336  1.00  0.00     0.202 C 
BRANCH  35  36
ATOM     36  C   UNL     1      -0.631  10.969  -3.957  1.00  0.00     0.261 C 
BRANCH  36  37
ATOM     37  O   UNL     1      -0.793  11.241  -2.545  1.00  0.00    -0.460 OA
BRANCH  37  38
ATOM     38  C   UNL     1      -0.147  10.364  -1.740  1.00  0.00     0.338 C 
ATOM     39  O   UNL     1       1.050  10.091  -1.803  1.00  0.00    -0.246 OA
BRANCH  38  40
ATOM     40  C   UNL     1      -1.149   9.585  -0.954  1.00  0.00     0.060 A 
ATOM     41  C   UNL     1      -0.702   8.446  -0.341  1.00  0.00     0.016 A 
ATOM     42  C   UNL     1      -2.538   9.783  -1.001  1.00  0.00     0.016 A 
ATOM     43  C   UNL     1      -1.635   7.471   0.032  1.00  0.00     0.010 A 
ATOM     44  C   UNL     1      -3.451   8.733  -0.680  1.00  0.00     0.010 A 
ATOM     45  C   UNL     1      -3.012   7.461  -0.272  1.00  0.00    -0.014 A 
BRANCH  45  46
ATOM     46  C   UNL     1      -4.049   6.269  -0.249  1.00  0.00     0.031 A 
ATOM     47  C   UNL     1      -4.922   6.155   0.964  1.00  0.00     0.074 A 
ATOM     48  C   UNL     1      -4.470   5.285  -1.160  1.00  0.00     0.049 A 
ATOM     49  N   UNL     1      -5.772   5.187   1.155  1.00  0.00    -0.248 NA
ATOM     50  C   UNL     1      -4.814   7.047   2.115  1.00  0.00     0.031 C 
ATOM     51  C   UNL     1      -5.918   5.181  -1.472  1.00  0.00     0.029 A 
ATOM     52  N   UNL     1      -3.981   4.464  -2.204  1.00  0.00    -0.354 N 
ATOM     53  C   UNL     1      -6.594   5.609   2.153  1.00  0.00     0.074 A 
ATOM     54  C   UNL     1      -5.781   6.544   2.892  1.00  0.00     0.031 C 
ATOM     55  C   UNL     1      -6.149   4.272  -2.428  1.00  0.00     0.029 A 
ATOM     56  C   UNL     1      -4.912   3.638  -2.822  1.00  0.00     0.049 A 
ATOM     57  H   UNL     1      -3.035   4.477  -2.476  1.00  0.00     0.167 HD
ATOM     58  C   UNL     1      -7.933   5.364   2.077  1.00  0.00     0.037 A 
ATOM     59  C   UNL     1      -4.764   2.466  -3.525  1.00  0.00     0.037 A 
ATOM     60  C   UNL     1      -8.325   4.424   1.002  1.00  0.00     0.049 A 
ATOM     61  C   UNL     1      -5.826   1.456  -3.067  1.00  0.00     0.074 A 
ATOM     62  C   UNL     1      -9.104   4.564  -0.137  1.00  0.00     0.029 A 
ATOM     63  N   UNL     1      -7.819   3.125   0.945  1.00  0.00    -0.354 N 
ATOM     64  N   UNL     1      -6.904   1.806  -2.416  1.00  0.00    -0.248 NA
ATOM     65  C   UNL     1      -5.669  -0.004  -3.066  1.00  0.00     0.031 C 
ATOM     66  C   UNL     1      -9.076   3.341  -0.864  1.00  0.00     0.029 A 
ATOM     67  C   UNL     1      -8.297   2.432  -0.171  1.00  0.00     0.049 A 
ATOM     68  H   UNL     1      -7.201   2.743   1.609  1.00  0.00     0.167 HD
ATOM     69  C   UNL     1      -7.290   0.769  -1.601  1.00  0.00     0.074 A 
ATOM     70  C   UNL     1      -6.618  -0.380  -2.184  1.00  0.00     0.031 C 
ATOM     71  C   UNL     1      -7.945   1.014  -0.412  1.00  0.00     0.037 A 
BRANCH  58  72
ATOM     72  C   UNL     1      -8.961   6.183   2.846  1.00  0.00     0.057 A 
ATOM     73  C   UNL     1     -10.303   5.762   2.887  1.00  0.00     0.134 A 
ATOM     74  C   UNL     1      -8.734   7.425   3.482  1.00  0.00     0.134 A 
ATOM     75  F   UNL     1     -10.694   4.621   2.302  1.00  0.00    -0.206 F 
ATOM     76  C   UNL     1     -11.317   6.501   3.517  1.00  0.00     0.040 A 
ATOM     77  C   UNL     1      -9.720   8.131   4.181  1.00  0.00     0.040 A 
ATOM     78  F   UNL     1      -7.572   8.081   3.406  1.00  0.00    -0.206 F 
ATOM     79  C   UNL     1     -11.023   7.677   4.190  1.00  0.00     0.006 A 
ENDBRANCH  58  72
BRANCH  59  80
ATOM     80  C   UNL     1      -3.417   2.156  -4.127  1.00  0.00     0.057 A 
ATOM     81  C   UNL     1      -3.022   2.902  -5.251  1.00  0.00     0.134 A 
ATOM     82  C   UNL     1      -2.405   1.355  -3.579  1.00  0.00     0.134 A 
ATOM     83  F   UNL     1      -3.941   3.581  -5.955  1.00  0.00    -0.206 F 
ATOM     84  C   UNL     1      -1.686   3.007  -5.668  1.00  0.00     0.040 A 
ATOM     85  C   UNL     1      -1.055   1.484  -3.947  1.00  0.00     0.040 A 
ATOM     86  F   UNL     1      -2.675   0.407  -2.677  1.00  0.00    -0.206 F 
ATOM     87  C   UNL     1      -0.685   2.351  -4.965  1.00  0.00     0.006 A 
ENDBRANCH  59  80
BRANCH  71  88
ATOM     88  C   UNL     1      -8.233   0.004   0.699  1.00  0.00     0.057 A 
ATOM     89  C   UNL     1      -7.551  -1.201   0.928  1.00  0.00     0.134 A 
ATOM     90  C   UNL     1      -9.199   0.316   1.688  1.00  0.00     0.134 A 
ATOM     91  F   UNL     1      -6.503  -1.572   0.183  1.00  0.00    -0.206 F 
ATOM     92  C   UNL     1      -7.856  -2.061   1.999  1.00  0.00     0.040 A 
ATOM     93  C   UNL     1      -9.462  -0.496   2.798  1.00  0.00     0.040 A 
ATOM     94  F   UNL     1      -9.921   1.444   1.632  1.00  0.00    -0.206 F 
ATOM     95  C   UNL     1      -8.808  -1.706   2.944  1.00  0.00     0.006 A 
ENDBRANCH  71  88
ENDBRANCH  45  46
ENDBRANCH  38  40
ENDBRANCH  37  38
ENDBRANCH  36  37
ENDBRANCH  35  36
ENDBRANCH  34  35
ENDBRANCH  33  34
ENDBRANCH   1  33
TORSDOF 21
