REMARK SMILES Cc1ccc(C2=NN(C(=O)CCC(=O)OCCOCCOCCOC(=O)c3ccc(-c4c5nc(c(-c6c(F)cccc6F)c6ccc([nH]6)c(-c6c(F)cccc6F)c6nc(c(-c7c(F)cccc7F)c7ccc4[nH]7)C=C6)C=C5)cc3)[C@H](C[C@@H]3C=c4cccc(C)c4=NC3=O)C2)cc1
REMARK SMILES IDX 18 1 17 2 16 3 15 4 13 5 14 6 12 7 11 8 9 9 10 10 8 11 6 12
REMARK SMILES IDX 7 13 95 14 81 15 5 16 1 17 2 18 3 19 97 20 4 21 96 22 82 23
REMARK SMILES IDX 83 24 84 25 93 26 85 27 92 28 94 29 86 30 91 31 87 32 89 33
REMARK SMILES IDX 88 34 90 35 19 36 20 37 21 38 22 39 23 40 24 41 25 42 26 43
REMARK SMILES IDX 27 44 28 45 80 46 29 47 79 48 30 49 31 50 32 51 73 52 33 53
REMARK SMILES IDX 78 54 72 55 74 56 34 57 77 58 71 59 70 60 35 62 61 63 44 64
REMARK SMILES IDX 60 65 45 66 48 67 59 68 75 69 46 70 47 71 58 73 76 74 49 75
REMARK SMILES IDX 36 76 37 77 42 78 38 79 39 80 41 81 43 82 40 83 62 84 63 85
REMARK SMILES IDX 68 86 64 87 65 88 67 89 69 90 66 91 50 92 51 93 56 94 52 95
REMARK SMILES IDX 53 96 55 97 57 98 54 99
REMARK H PARENT 74 61 48 72
REMARK Flexibility Score: inf
ROOT
ATOM      1  O   UNL     1      -5.727   2.490  -3.216  1.00  0.00    -0.376 OA
ENDROOT
BRANCH   1   2
ATOM      2  C   UNL     1      -4.492   2.191  -2.533  1.00  0.00     0.202 C 
BRANCH   2   3
ATOM      3  C   UNL     1      -4.152   2.849  -1.023  1.00  0.00     0.261 C 
BRANCH   3   4
ATOM      4  O   UNL     1      -4.381   2.216   0.396  1.00  0.00    -0.463 OA
BRANCH   4   5
ATOM      5  C   UNL     1      -5.587   1.621   0.576  1.00  0.00     0.306 C 
ATOM      6  O   UNL     1      -6.200   1.612  -0.491  1.00  0.00    -0.252 OA
BRANCH   5   7
ATOM      7  C   UNL     1      -6.233   0.719   2.120  1.00  0.00     0.132 C 
BRANCH   7   8
ATOM      8  C   UNL     1      -5.870  -0.610   2.701  1.00  0.00     0.114 C 
BRANCH   8   9
ATOM      9  C   UNL     1      -4.888  -1.517   2.048  1.00  0.00     0.243 C 
ATOM     10  O   UNL     1      -4.513  -2.459   2.764  1.00  0.00    -0.273 OA
BRANCH   9  11
ATOM     11  N   UNL     1      -4.301  -1.266   0.817  1.00  0.00    -0.230 N 
ATOM     12  C   UNL     1      -2.386  -0.731   0.007  1.00  0.00     0.070 C 
ATOM     13  N   UNL     1      -2.983  -1.050   1.092  1.00  0.00    -0.174 NA
ATOM     14  C   UNL     1      -3.163  -0.835  -1.276  1.00  0.00     0.086 C 
ATOM     15  C   UNL     1      -4.566  -0.715  -0.672  1.00  0.00     0.118 C 
BRANCH  12  16
ATOM     16  C   UNL     1      -0.983  -0.420   0.056  1.00  0.00    -0.002 A 
ATOM     17  C   UNL     1       3.205   0.113  -0.080  1.00  0.00     0.044 C 
ATOM     18  C   UNL     1       1.725  -0.043   0.063  1.00  0.00    -0.051 A 
ATOM     19  C   UNL     1       1.203  -1.343   0.108  1.00  0.00     0.004 A 
ATOM     20  C   UNL     1       0.871   1.072   0.121  1.00  0.00     0.004 A 
ATOM     21  C   UNL     1      -0.160  -1.534   0.125  1.00  0.00     0.010 A 
ATOM     22  C   UNL     1      -0.506   0.886   0.131  1.00  0.00     0.010 A 
ENDBRANCH  12  16
BRANCH  15  23
ATOM     23  C   UNL     1      -5.997  -0.692  -1.723  1.00  0.00     0.045 C 
BRANCH  23  24
ATOM     24  C   UNL     1      -7.877  -0.878  -1.565  1.00  0.00     0.106 C 
ATOM     25  C   UNL     1      -8.860  -1.661   0.252  1.00  0.00    -0.003 C 
ATOM     26  C   UNL     1      -8.645  -1.950  -3.113  1.00  0.00     0.253 C 
ATOM     27  C   UNL     1      -9.596  -2.941   0.262  1.00  0.00    -0.003 A 
ATOM     28  N   UNL     1      -9.574  -3.377  -2.667  1.00  0.00    -0.212 NA
ATOM     29  O   UNL     1      -8.664  -1.535  -4.266  1.00  0.00    -0.272 OA
ATOM     30  C   UNL     1      -9.458  -3.705   1.487  1.00  0.00     0.010 A 
ATOM     31  C   UNL     1      -9.864  -3.841  -1.321  1.00  0.00     0.077 A 
ATOM     32  C   UNL     1      -9.466  -5.036   1.455  1.00  0.00     0.001 A 
ATOM     33  C   UNL     1     -10.039  -5.322  -0.973  1.00  0.00    -0.025 A 
ATOM     34  C   UNL     1      -9.808  -5.790   0.276  1.00  0.00     0.005 A 
ATOM     35  C   UNL     1     -10.253  -6.300  -2.080  1.00  0.00     0.047 C 
ENDBRANCH  23  24
ENDBRANCH  15  23
ENDBRANCH   9  11
ENDBRANCH   8   9
ENDBRANCH   7   8
ENDBRANCH   5   7
ENDBRANCH   4   5
ENDBRANCH   3   4
ENDBRANCH   2   3
ENDBRANCH   1   2
BRANCH   1  36
ATOM     36  C   UNL     1      -6.479   1.561  -4.062  1.00  0.00     0.188 C 
BRANCH  36  37
ATOM     37  C   UNL     1      -5.949   0.416  -5.021  1.00  0.00     0.188 C 
BRANCH  37  38
ATOM     38  O   UNL     1      -6.084  -0.931  -4.531  1.00  0.00    -0.376 OA
BRANCH  38  39
ATOM     39  C   UNL     1      -4.956  -1.823  -4.540  1.00  0.00     0.202 C 
BRANCH  39  40
ATOM     40  C   UNL     1      -5.358  -3.247  -3.950  1.00  0.00     0.261 C 
BRANCH  40  41
ATOM     41  O   UNL     1      -5.975  -3.159  -2.612  1.00  0.00    -0.460 OA
BRANCH  41  42
ATOM     42  C   UNL     1      -7.167  -3.774  -2.310  1.00  0.00     0.338 C 
ATOM     43  O   UNL     1      -7.484  -4.823  -2.834  1.00  0.00    -0.246 OA
BRANCH  42  44
ATOM     44  C   UNL     1      -8.033  -2.714  -1.255  1.00  0.00     0.060 A 
ATOM     45  C   UNL     1      -9.660  -1.502  -1.460  1.00  0.00     0.016 A 
ATOM     46  C   UNL     1      -6.889  -2.221  -0.195  1.00  0.00     0.016 A 
ATOM     47  C   UNL     1      -9.700   0.141  -0.689  1.00  0.00     0.010 A 
ATOM     48  C   UNL     1      -7.120  -0.545   0.343  1.00  0.00     0.010 A 
ATOM     49  C   UNL     1      -8.373   0.730   0.203  1.00  0.00    -0.014 A 
BRANCH  49  50
ATOM     50  C   UNL     1      -8.026   2.474   0.750  1.00  0.00     0.031 A 
ATOM     51  C   UNL     1      -7.019   3.245   2.110  1.00  0.00     0.074 A 
ATOM     52  C   UNL     1      -7.959   3.386  -0.282  1.00  0.00     0.049 A 
ATOM     53  N   UNL     1      -7.139   4.435   2.717  1.00  0.00    -0.248 NA
ATOM     54  C   UNL     1      -5.720   2.772   2.858  1.00  0.00     0.031 C 
ATOM     55  C   UNL     1      -6.939   4.462  -0.354  1.00  0.00     0.029 A 
ATOM     56  N   UNL     1      -8.486   3.424  -1.586  1.00  0.00    -0.354 N 
ATOM     57  C   UNL     1      -6.014   4.482   3.664  1.00  0.00     0.074 A 
ATOM     58  C   UNL     1      -5.935   3.164   4.111  1.00  0.00     0.031 C 
ATOM     59  C   UNL     1      -7.029   5.137  -1.511  1.00  0.00     0.029 A 
ATOM     60  C   UNL     1      -8.295   4.758  -2.067  1.00  0.00     0.049 A 
ATOM     61  H   UNL     1      -8.904   2.677  -2.073  1.00  0.00     0.167 HD
ATOM     62  C   UNL     1      -4.775   5.141   3.507  1.00  0.00     0.037 A 
ATOM     63  C   UNL     1      -9.335   5.644  -2.172  1.00  0.00     0.037 A 
ATOM     64  C   UNL     1      -4.873   6.071   2.424  1.00  0.00     0.049 A 
ATOM     65  C   UNL     1      -9.218   6.826  -1.207  1.00  0.00     0.074 A 
ATOM     66  C   UNL     1      -4.217   6.431   1.265  1.00  0.00     0.029 A 
ATOM     67  N   UNL     1      -6.060   6.734   2.415  1.00  0.00    -0.354 N 
ATOM     68  N   UNL     1      -8.350   6.838  -0.225  1.00  0.00    -0.248 NA
ATOM     69  C   UNL     1      -9.941   8.097  -1.258  1.00  0.00     0.031 C 
ATOM     70  C   UNL     1      -5.088   7.350   0.571  1.00  0.00     0.029 A 
ATOM     71  C   UNL     1      -6.213   7.553   1.357  1.00  0.00     0.049 A 
ATOM     72  H   UNL     1      -6.743   6.627   3.116  1.00  0.00     0.167 HD
ATOM     73  C   UNL     1      -8.342   8.037   0.422  1.00  0.00     0.074 A 
ATOM     74  C   UNL     1      -9.393   8.780  -0.228  1.00  0.00     0.031 C 
ATOM     75  C   UNL     1      -7.443   8.317   1.410  1.00  0.00     0.037 A 
BRANCH  62  76
ATOM     76  C   UNL     1      -3.398   4.819   4.235  1.00  0.00     0.057 A 
ATOM     77  C   UNL     1      -2.430   5.840   4.351  1.00  0.00     0.134 A 
ATOM     78  C   UNL     1      -2.944   3.597   4.817  1.00  0.00     0.134 A 
ATOM     79  F   UNL     1      -2.619   7.031   3.768  1.00  0.00    -0.206 F 
ATOM     80  C   UNL     1      -1.213   5.699   5.064  1.00  0.00     0.040 A 
ATOM     81  C   UNL     1      -1.765   3.463   5.587  1.00  0.00     0.040 A 
ATOM     82  F   UNL     1      -3.550   2.420   4.618  1.00  0.00    -0.206 F 
ATOM     83  C   UNL     1      -0.896   4.524   5.726  1.00  0.00     0.006 A 
ENDBRANCH  62  76
BRANCH  63  84
ATOM     84  C   UNL     1     -10.509   4.968  -2.804  1.00  0.00     0.057 A 
ATOM     85  C   UNL     1     -10.319   4.614  -4.160  1.00  0.00     0.134 A 
ATOM     86  C   UNL     1     -11.262   4.075  -2.029  1.00  0.00     0.134 A 
ATOM     87  F   UNL     1      -9.663   5.449  -4.983  1.00  0.00    -0.206 F 
ATOM     88  C   UNL     1     -10.594   3.325  -4.632  1.00  0.00     0.040 A 
ATOM     89  C   UNL     1     -11.569   2.791  -2.506  1.00  0.00     0.040 A 
ATOM     90  F   UNL     1     -11.490   4.332  -0.732  1.00  0.00    -0.206 F 
ATOM     91  C   UNL     1     -11.160   2.386  -3.778  1.00  0.00     0.006 A 
ENDBRANCH  63  84
BRANCH  75  92
ATOM     92  C   UNL     1      -7.740   9.113   2.699  1.00  0.00     0.057 A 
ATOM     93  C   UNL     1      -8.998   9.627   3.025  1.00  0.00     0.134 A 
ATOM     94  C   UNL     1      -6.799   9.185   3.776  1.00  0.00     0.134 A 
ATOM     95  F   UNL     1     -10.032   9.552   2.182  1.00  0.00    -0.206 F 
ATOM     96  C   UNL     1      -9.281  10.211   4.272  1.00  0.00     0.040 A 
ATOM     97  C   UNL     1      -7.103   9.671   5.053  1.00  0.00     0.040 A 
ATOM     98  F   UNL     1      -5.537   8.744   3.668  1.00  0.00    -0.206 F 
ATOM     99  C   UNL     1      -8.344  10.222   5.295  1.00  0.00     0.006 A 
ENDBRANCH  75  92
ENDBRANCH  49  50
ENDBRANCH  42  44
ENDBRANCH  41  42
ENDBRANCH  40  41
ENDBRANCH  39  40
ENDBRANCH  38  39
ENDBRANCH  37  38
ENDBRANCH  36  37
ENDBRANCH   1  36
TORSDOF 23
