REMARK SMILES CCC[NH2+][C@@H]1COC[C@@H]1C(=O)N[C@@](C)(CC)C(=O)OCCOCCOCCOC(=O)c1ccc(-c2c3nc(c(-c4c(F)cccc4F)c4ccc([nH]4)c(-c4c(F)cccc4F)c4nc(c(-c5c(F)cccc5F)c5ccc2[nH]5)C=C4)C=C3)cc1
REMARK SMILES IDX 22 1 21 2 20 3 19 4 17 5 18 6 13 7 14 8 12 9 10 10 11 11
REMARK SMILES IDX 9 13 5 14 6 15 7 16 8 17 4 18 3 21 2 22 1 23 15 24 16 25
REMARK SMILES IDX 23 26 24 27 25 28 26 29 27 30 28 31 29 32 30 33 31 34 32 35
REMARK SMILES IDX 84 36 33 37 83 38 34 39 35 40 36 41 77 42 37 43 82 44 76 45
REMARK SMILES IDX 78 46 38 47 81 48 75 49 74 50 39 52 65 53 48 54 64 55 49 56
REMARK SMILES IDX 52 57 63 58 79 59 50 60 51 61 62 63 80 64 53 65 40 66 41 67
REMARK SMILES IDX 46 68 42 69 43 70 45 71 47 72 44 73 66 74 67 75 72 76 68 77
REMARK SMILES IDX 69 78 71 79 73 80 70 81 54 82 55 83 60 84 56 85 57 86 59 87
REMARK SMILES IDX 61 88 58 89
REMARK H PARENT 12 12 4 19 4 20 78 51 52 62
REMARK Flexibility Score: inf
ROOT
ATOM      1  O   UNL     1       0.927   3.394   4.936  1.00  0.00    -0.376 OA
ENDROOT
BRANCH   1   2
ATOM      2  C   UNL     1       1.178   4.672   5.516  1.00  0.00     0.202 C 
BRANCH   2   3
ATOM      3  C   UNL     1       0.126   5.770   5.270  1.00  0.00     0.261 C 
BRANCH   3   4
ATOM      4  O   UNL     1      -0.861   5.400   4.292  1.00  0.00    -0.462 OA
BRANCH   4   5
ATOM      5  C   UNL     1      -1.180   6.300   3.320  1.00  0.00     0.331 C 
ATOM      6  O   UNL     1      -0.663   7.406   3.217  1.00  0.00    -0.249 OA
BRANCH   5   7
ATOM      7  C   UNL     1      -2.342   5.793   2.404  1.00  0.00     0.135 C 
ATOM      8  C   UNL     1      -3.396   6.934   2.596  1.00  0.00     0.047 C 
BRANCH   7   9
ATOM      9  N   UNL     1      -2.117   5.808   0.923  1.00  0.00    -0.340 N 
ATOM     10  C   UNL     1      -1.206   5.518  -0.024  1.00  0.00     0.232 C 
ATOM     11  O   UNL     1      -1.699   5.435  -1.163  1.00  0.00    -0.274 OA
ATOM     12  H   UNL     1      -2.928   6.154   0.485  1.00  0.00     0.164 HD
BRANCH  10  13
ATOM     13  C   UNL     1       0.303   5.360   0.080  1.00  0.00     0.164 C 
ATOM     14  C   UNL     1       0.855   4.093   0.704  1.00  0.00     0.223 C 
ATOM     15  C   UNL     1       1.433   4.603   2.016  1.00  0.00     0.225 C 
ATOM     16  O   UNL     1       1.781   5.979   1.849  1.00  0.00    -0.374 OA
ATOM     17  C   UNL     1       1.045   6.503   0.738  1.00  0.00     0.180 C 
BRANCH  14  18
ATOM     18  N   UNL     1      -0.100   2.976   0.689  1.00  0.00    -0.341 N 
ATOM     19  H   UNL     1      -1.041   3.367   0.669  1.00  0.00     0.346 HD
ATOM     20  H   UNL     1       0.132   2.420  -0.134  1.00  0.00     0.346 HD
BRANCH  18  21
ATOM     21  C   UNL     1      -0.016   2.068   1.820  1.00  0.00     0.260 C 
BRANCH  21  22
ATOM     22  C   UNL     1      -0.856   0.755   1.783  1.00  0.00     0.058 C 
ATOM     23  C   UNL     1      -1.020  -0.077   0.519  1.00  0.00     0.010 C 
ENDBRANCH  21  22
ENDBRANCH  18  21
ENDBRANCH  14  18
ENDBRANCH  10  13
ENDBRANCH   7   9
BRANCH   7  24
ATOM     24  C   UNL     1      -3.081   4.514   2.937  1.00  0.00     0.037 C 
ATOM     25  C   UNL     1      -3.236   3.334   2.003  1.00  0.00     0.007 C 
ENDBRANCH   7  24
ENDBRANCH   5   7
ENDBRANCH   4   5
ENDBRANCH   3   4
ENDBRANCH   2   3
ENDBRANCH   1   2
BRANCH   1  26
ATOM     26  C   UNL     1      -0.129   2.650   5.539  1.00  0.00     0.188 C 
BRANCH  26  27
ATOM     27  C   UNL     1      -0.010   1.171   5.142  1.00  0.00     0.188 C 
BRANCH  27  28
ATOM     28  O   UNL     1       1.083   0.464   5.723  1.00  0.00    -0.376 OA
BRANCH  28  29
ATOM     29  C   UNL     1       2.338   0.600   5.025  1.00  0.00     0.202 C 
BRANCH  29  30
ATOM     30  C   UNL     1       2.590  -0.447   3.905  1.00  0.00     0.261 C 
BRANCH  30  31
ATOM     31  O   UNL     1       2.636   0.110   2.553  1.00  0.00    -0.460 OA
BRANCH  31  32
ATOM     32  C   UNL     1       3.336  -0.636   1.630  1.00  0.00     0.338 C 
ATOM     33  O   UNL     1       3.956  -1.657   1.884  1.00  0.00    -0.246 OA
BRANCH  32  34
ATOM     34  C   UNL     1       3.232  -0.126   0.216  1.00  0.00     0.060 A 
ATOM     35  C   UNL     1       2.098   0.550  -0.197  1.00  0.00     0.016 A 
ATOM     36  C   UNL     1       4.157  -0.449  -0.779  1.00  0.00     0.016 A 
ATOM     37  C   UNL     1       1.825   0.885  -1.524  1.00  0.00     0.010 A 
ATOM     38  C   UNL     1       3.913  -0.104  -2.134  1.00  0.00     0.010 A 
ATOM     39  C   UNL     1       2.729   0.552  -2.519  1.00  0.00    -0.014 A 
BRANCH  39  40
ATOM     40  C   UNL     1       2.308   0.736  -3.933  1.00  0.00     0.031 A 
ATOM     41  C   UNL     1       1.798  -0.453  -4.697  1.00  0.00     0.074 A 
ATOM     42  C   UNL     1       2.150   1.955  -4.488  1.00  0.00     0.049 A 
ATOM     43  N   UNL     1       1.601  -0.601  -5.980  1.00  0.00    -0.248 NA
ATOM     44  C   UNL     1       1.405  -1.618  -3.888  1.00  0.00     0.031 C 
ATOM     45  C   UNL     1       2.277   3.232  -3.787  1.00  0.00     0.029 A 
ATOM     46  N   UNL     1       1.821   2.315  -5.775  1.00  0.00    -0.354 N 
ATOM     47  C   UNL     1       1.118  -1.894  -6.139  1.00  0.00     0.074 A 
ATOM     48  C   UNL     1       0.997  -2.470  -4.818  1.00  0.00     0.031 C 
ATOM     49  C   UNL     1       2.048   4.233  -4.656  1.00  0.00     0.029 A 
ATOM     50  C   UNL     1       1.875   3.672  -5.993  1.00  0.00     0.049 A 
ATOM     51  H   UNL     1       1.572   1.665  -6.471  1.00  0.00     0.167 HD
ATOM     52  C   UNL     1       0.840  -2.545  -7.294  1.00  0.00     0.037 A 
ATOM     53  C   UNL     1       1.883   4.369  -7.148  1.00  0.00     0.037 A 
ATOM     54  C   UNL     1       0.962  -1.939  -8.593  1.00  0.00     0.049 A 
ATOM     55  C   UNL     1       1.812   3.607  -8.446  1.00  0.00     0.074 A 
ATOM     56  C   UNL     1       0.865  -2.523  -9.843  1.00  0.00     0.029 A 
ATOM     57  N   UNL     1       1.197  -0.587  -8.800  1.00  0.00    -0.354 N 
ATOM     58  N   UNL     1       1.604   2.325  -8.640  1.00  0.00    -0.248 NA
ATOM     59  C   UNL     1       2.025   4.371  -9.684  1.00  0.00     0.031 C 
ATOM     60  C   UNL     1       1.093  -1.531 -10.805  1.00  0.00     0.029 A 
ATOM     61  C   UNL     1       1.276  -0.321 -10.155  1.00  0.00     0.049 A 
ATOM     62  H   UNL     1       1.294   0.084  -8.086  1.00  0.00     0.167 HD
ATOM     63  C   UNL     1       1.650   2.132 -10.015  1.00  0.00     0.074 A 
ATOM     64  C   UNL     1       1.891   3.431 -10.610  1.00  0.00     0.031 C 
ATOM     65  C   UNL     1       1.511   0.983 -10.723  1.00  0.00     0.037 A 
BRANCH  52  66
ATOM     66  C   UNL     1       0.520  -4.006  -7.196  1.00  0.00     0.057 A 
ATOM     67  C   UNL     1      -0.715  -4.488  -6.749  1.00  0.00     0.134 A 
ATOM     68  C   UNL     1       1.496  -4.953  -7.540  1.00  0.00     0.134 A 
ATOM     69  F   UNL     1      -1.683  -3.638  -6.377  1.00  0.00    -0.206 F 
ATOM     70  C   UNL     1      -0.962  -5.859  -6.630  1.00  0.00     0.040 A 
ATOM     71  C   UNL     1       1.255  -6.323  -7.445  1.00  0.00     0.040 A 
ATOM     72  F   UNL     1       2.705  -4.558  -7.969  1.00  0.00    -0.206 F 
ATOM     73  C   UNL     1       0.024  -6.781  -6.982  1.00  0.00     0.006 A 
ENDBRANCH  52  66
BRANCH  53  74
ATOM     74  C   UNL     1       2.119   5.841  -7.138  1.00  0.00     0.057 A 
ATOM     75  C   UNL     1       1.180   6.748  -7.641  1.00  0.00     0.134 A 
ATOM     76  C   UNL     1       3.324   6.374  -6.656  1.00  0.00     0.134 A 
ATOM     77  F   UNL     1       0.025   6.308  -8.162  1.00  0.00    -0.206 F 
ATOM     78  C   UNL     1       1.427   8.125  -7.660  1.00  0.00     0.040 A 
ATOM     79  C   UNL     1       3.571   7.748  -6.638  1.00  0.00     0.040 A 
ATOM     80  F   UNL     1       4.284   5.564  -6.184  1.00  0.00    -0.206 F 
ATOM     81  C   UNL     1       2.621   8.629  -7.147  1.00  0.00     0.006 A 
ENDBRANCH  53  74
BRANCH  65  82
ATOM     82  C   UNL     1       1.580   1.086 -12.216  1.00  0.00     0.057 A 
ATOM     83  C   UNL     1       2.793   1.282 -12.888  1.00  0.00     0.134 A 
ATOM     84  C   UNL     1       0.423   0.938 -12.991  1.00  0.00     0.134 A 
ATOM     85  F   UNL     1       3.933   1.441 -12.200  1.00  0.00    -0.206 F 
ATOM     86  C   UNL     1       2.849   1.346 -14.281  1.00  0.00     0.040 A 
ATOM     87  C   UNL     1       0.471   0.977 -14.385  1.00  0.00     0.040 A 
ATOM     88  F   UNL     1      -0.768   0.738 -12.407  1.00  0.00    -0.206 F 
ATOM     89  C   UNL     1       1.686   1.186 -15.033  1.00  0.00     0.006 A 
ENDBRANCH  65  82
ENDBRANCH  39  40
ENDBRANCH  32  34
ENDBRANCH  31  32
ENDBRANCH  30  31
ENDBRANCH  29  30
ENDBRANCH  28  29
ENDBRANCH  27  28
ENDBRANCH  26  27
ENDBRANCH   1  26
TORSDOF 23
