REMARK SMILES O=C(OCCOCCOCCOC(=O)[C@H](Cc1cccc(O)c1)Cc1cccc(F)c1)c1ccc(-c2c3nc(c(-c4c(F)cccc4F)c4ccc([nH]4)c(-c4c(F)cccc4F)c4nc(c(-c5c(F)cccc5F)c5ccc2[nH]5)C=C4)C=C3)cc1
REMARK SMILES IDX 8 1 7 2 6 3 5 4 4 5 3 6 2 7 1 8 32 9 33 10 85 11 34 12 84 13
REMARK SMILES IDX 35 14 36 15 37 16 78 17 38 18 83 19 77 20 79 21 39 22 82 23
REMARK SMILES IDX 76 24 75 25 40 27 66 28 49 29 65 30 50 31 53 32 64 33 80 34
REMARK SMILES IDX 51 35 52 36 63 38 81 39 54 40 41 41 42 42 47 43 43 44 44 45
REMARK SMILES IDX 46 46 48 47 45 48 67 49 68 50 73 51 69 52 70 53 72 54 74 55
REMARK SMILES IDX 71 56 55 57 56 58 61 59 57 60 58 61 60 62 62 63 59 64 9 65
REMARK SMILES IDX 10 66 11 67 12 68 13 69 14 70 15 71 24 72 25 73 26 74 31 75
REMARK SMILES IDX 27 76 29 77 28 78 30 79 16 80 17 81 18 82 23 83 19 84 21 85
REMARK SMILES IDX 20 86 22 87
REMARK H PARENT 79 26 53 37 22 88
REMARK Flexibility Score: inf
ROOT
ATOM      1  C   UNL     1       3.176  -2.842  -0.988  1.00  0.00     0.188 C 
ENDROOT
BRANCH   1   2
ATOM      2  C   UNL     1       1.723  -3.265  -1.181  1.00  0.00     0.188 C 
BRANCH   2   3
ATOM      3  O   UNL     1       1.429  -4.559  -0.651  1.00  0.00    -0.376 OA
BRANCH   3   4
ATOM      4  C   UNL     1       0.549  -5.342  -1.463  1.00  0.00     0.202 C 
BRANCH   4   5
ATOM      5  C   UNL     1      -0.879  -4.790  -1.658  1.00  0.00     0.261 C 
BRANCH   5   6
ATOM      6  O   UNL     1      -1.048  -3.391  -1.343  1.00  0.00    -0.460 OA
BRANCH   6   7
ATOM      7  C   UNL     1      -1.417  -2.801  -0.178  1.00  0.00     0.338 C 
ATOM      8  O   UNL     1      -1.647  -1.593  -0.168  1.00  0.00    -0.246 OA
BRANCH   7   9
ATOM      9  C   UNL     1      -1.549  -3.545   1.107  1.00  0.00     0.060 A 
ATOM     10  C   UNL     1      -0.852  -4.709   1.401  1.00  0.00     0.016 A 
ATOM     11  C   UNL     1      -2.359  -3.003   2.116  1.00  0.00     0.016 A 
ATOM     12  C   UNL     1      -1.043  -5.406   2.580  1.00  0.00     0.010 A 
ATOM     13  C   UNL     1      -2.487  -3.651   3.354  1.00  0.00     0.010 A 
ATOM     14  C   UNL     1      -1.851  -4.883   3.578  1.00  0.00    -0.014 A 
BRANCH  14  15
ATOM     15  C   UNL     1      -2.135  -5.720   4.763  1.00  0.00     0.031 A 
ATOM     16  C   UNL     1      -3.523  -6.261   4.921  1.00  0.00     0.074 A 
ATOM     17  C   UNL     1      -1.157  -6.186   5.566  1.00  0.00     0.049 A 
ATOM     18  N   UNL     1      -4.027  -6.948   5.908  1.00  0.00    -0.248 NA
ATOM     19  C   UNL     1      -4.441  -6.074   3.782  1.00  0.00     0.031 C 
ATOM     20  C   UNL     1       0.280  -6.054   5.324  1.00  0.00     0.029 A 
ATOM     21  N   UNL     1      -1.218  -6.901   6.740  1.00  0.00    -0.354 N 
ATOM     22  C   UNL     1      -5.302  -7.304   5.496  1.00  0.00     0.074 A 
ATOM     23  C   UNL     1      -5.524  -6.712   4.198  1.00  0.00     0.031 C 
ATOM     24  C   UNL     1       0.950  -6.657   6.321  1.00  0.00     0.029 A 
ATOM     25  C   UNL     1       0.010  -7.045   7.344  1.00  0.00     0.049 A 
ATOM     26  H   UNL     1      -2.052  -7.270   7.109  1.00  0.00     0.167 HD
ATOM     27  C   UNL     1      -6.186  -8.094   6.142  1.00  0.00     0.037 A 
ATOM     28  C   UNL     1       0.336  -7.356   8.612  1.00  0.00     0.037 A 
ATOM     29  C   UNL     1      -5.928  -8.681   7.428  1.00  0.00     0.049 A 
ATOM     30  C   UNL     1      -0.753  -7.875   9.479  1.00  0.00     0.074 A 
ATOM     31  C   UNL     1      -6.767  -9.459   8.202  1.00  0.00     0.029 A 
ATOM     32  N   UNL     1      -4.737  -8.548   8.130  1.00  0.00    -0.354 N 
ATOM     33  N   UNL     1      -2.002  -8.090   9.155  1.00  0.00    -0.248 NA
ATOM     34  C   UNL     1      -0.387  -8.273  10.840  1.00  0.00     0.031 C 
ATOM     35  C   UNL     1      -6.110  -9.738   9.403  1.00  0.00     0.029 A 
ATOM     36  C   UNL     1      -4.838  -9.188   9.353  1.00  0.00     0.049 A 
ATOM     37  H   UNL     1      -3.940  -8.069   7.807  1.00  0.00     0.167 HD
ATOM     38  C   UNL     1      -2.560  -8.730  10.241  1.00  0.00     0.074 A 
ATOM     39  C   UNL     1      -1.522  -8.821  11.253  1.00  0.00     0.031 C 
ATOM     40  C   UNL     1      -3.805  -9.246  10.355  1.00  0.00     0.037 A 
BRANCH  27  41
ATOM     41  C   UNL     1      -7.514  -8.323   5.493  1.00  0.00     0.057 A 
ATOM     42  C   UNL     1      -8.662  -7.713   6.010  1.00  0.00     0.134 A 
ATOM     43  C   UNL     1      -7.670  -9.169   4.388  1.00  0.00     0.134 A 
ATOM     44  F   UNL     1      -8.575  -6.879   7.058  1.00  0.00    -0.206 F 
ATOM     45  C   UNL     1      -9.924  -7.954   5.468  1.00  0.00     0.040 A 
ATOM     46  C   UNL     1      -8.925  -9.402   3.822  1.00  0.00     0.040 A 
ATOM     47  F   UNL     1      -6.604  -9.757   3.823  1.00  0.00    -0.206 F 
ATOM     48  C   UNL     1     -10.058  -8.803   4.371  1.00  0.00     0.006 A 
ENDBRANCH  27  41
BRANCH  28  49
ATOM     49  C   UNL     1       1.699  -7.113   9.148  1.00  0.00     0.057 A 
ATOM     50  C   UNL     1       2.001  -5.900   9.783  1.00  0.00     0.134 A 
ATOM     51  C   UNL     1       2.721  -8.057   9.059  1.00  0.00     0.134 A 
ATOM     52  F   UNL     1       1.035  -4.995   9.998  1.00  0.00    -0.206 F 
ATOM     53  C   UNL     1       3.288  -5.602  10.238  1.00  0.00     0.040 A 
ATOM     54  C   UNL     1       4.006  -7.789   9.543  1.00  0.00     0.040 A 
ATOM     55  F   UNL     1       2.481  -9.259   8.517  1.00  0.00    -0.206 F 
ATOM     56  C   UNL     1       4.298  -6.550  10.114  1.00  0.00     0.006 A 
ENDBRANCH  28  49
BRANCH  40  57
ATOM     57  C   UNL     1      -4.099  -9.992  11.612  1.00  0.00     0.057 A 
ATOM     58  C   UNL     1      -4.242 -11.384  11.585  1.00  0.00     0.134 A 
ATOM     59  C   UNL     1      -4.282  -9.334  12.832  1.00  0.00     0.134 A 
ATOM     60  F   UNL     1      -4.072 -12.066  10.441  1.00  0.00    -0.206 F 
ATOM     61  C   UNL     1      -4.583 -12.098  12.729  1.00  0.00     0.040 A 
ATOM     62  C   UNL     1      -4.591 -10.041  13.991  1.00  0.00     0.040 A 
ATOM     63  F   UNL     1      -4.128  -8.004  12.917  1.00  0.00    -0.206 F 
ATOM     64  C   UNL     1      -4.755 -11.425  13.938  1.00  0.00     0.006 A 
ENDBRANCH  40  57
ENDBRANCH  14  15
ENDBRANCH   7   9
ENDBRANCH   6   7
ENDBRANCH   5   6
ENDBRANCH   4   5
ENDBRANCH   3   4
ENDBRANCH   2   3
ENDBRANCH   1   2
BRANCH   1  65
ATOM     65  O   UNL     1       4.167  -3.680  -1.567  1.00  0.00    -0.376 OA
BRANCH  65  66
ATOM     66  C   UNL     1       4.220  -5.020  -1.092  1.00  0.00     0.202 C 
BRANCH  66  67
ATOM     67  C   UNL     1       4.551  -5.258   0.396  1.00  0.00     0.261 C 
BRANCH  67  68
ATOM     68  O   UNL     1       3.737  -4.548   1.357  1.00  0.00    -0.463 OA
BRANCH  68  69
ATOM     69  C   UNL     1       4.405  -3.699   2.203  1.00  0.00     0.309 C 
ATOM     70  O   UNL     1       5.610  -3.517   2.199  1.00  0.00    -0.252 OA
BRANCH  69  71
ATOM     71  C   UNL     1       3.468  -3.049   3.219  1.00  0.00     0.108 C 
BRANCH  71  72
ATOM     72  C   UNL     1       3.924  -3.554   4.623  1.00  0.00     0.051 C 
BRANCH  72  73
ATOM     73  C   UNL     1       3.232  -2.939   5.829  1.00  0.00    -0.044 A 
ATOM     74  C   UNL     1       2.359  -3.722   6.571  1.00  0.00     0.004 A 
ATOM     75  C   UNL     1       3.406  -1.621   6.257  1.00  0.00     0.043 A 
ATOM     76  C   UNL     1       1.546  -3.200   7.577  1.00  0.00     0.003 A 
ATOM     77  C   UNL     1       2.620  -1.096   7.285  1.00  0.00     0.123 A 
ATOM     78  C   UNL     1       1.671  -1.869   7.934  1.00  0.00     0.039 A 
ATOM     79  F   UNL     1       2.770   0.188   7.635  1.00  0.00    -0.207 F 
ENDBRANCH  72  73
ENDBRANCH  71  72
BRANCH  71  80
ATOM     80  C   UNL     1       3.534  -1.516   3.187  1.00  0.00     0.051 C 
BRANCH  80  81
ATOM     81  C   UNL     1       3.514  -0.744   1.904  1.00  0.00    -0.043 A 
ATOM     82  C   UNL     1       2.317  -0.286   1.340  1.00  0.00     0.004 A 
ATOM     83  C   UNL     1       4.735  -0.350   1.339  1.00  0.00     0.049 A 
ATOM     84  C   UNL     1       2.349   0.573   0.238  1.00  0.00     0.004 A 
ATOM     85  C   UNL     1       4.756   0.508   0.250  1.00  0.00     0.115 A 
ATOM     86  C   UNL     1       3.572   0.977  -0.305  1.00  0.00     0.046 A 
BRANCH  85  87
ATOM     87  O   UNL     1       5.975   0.883  -0.228  1.00  0.00    -0.508 OA
ATOM     88  H   UNL     1       6.032   1.462  -0.963  1.00  0.00     0.293 HD
ENDBRANCH  85  87
ENDBRANCH  80  81
ENDBRANCH  71  80
ENDBRANCH  69  71
ENDBRANCH  68  69
ENDBRANCH  67  68
ENDBRANCH  66  67
ENDBRANCH  65  66
ENDBRANCH   1  65
TORSDOF 22
