REMARK SMILES CCOCCC(=O)Nc1cc(C(=O)OCCOCCOCCOC(=O)c2ccc(-c3c4nc(c(-c5c(F)cccc5F)c5ccc([nH]5)c(-c5c(F)cccc5F)c5nc(c(-c6c(F)cccc6F)c6ccc3[nH]6)C=C5)C=C4)cc2)ccc1Cl
REMARK SMILES IDX 17 1 16 2 15 3 14 4 12 5 13 6 11 7 9 8 10 9 82 10 81 11
REMARK SMILES IDX 83 12 80 13 8 14 6 15 7 16 5 18 4 19 3 20 2 21 1 22 18 23
REMARK SMILES IDX 19 24 20 25 21 26 22 27 23 28 24 29 25 30 26 31 27 32 79 33
REMARK SMILES IDX 28 34 78 35 29 36 30 37 31 38 72 39 32 40 77 41 71 42 73 43
REMARK SMILES IDX 33 44 76 45 70 46 69 47 34 49 60 50 43 51 59 52 44 53 47 54
REMARK SMILES IDX 58 55 74 56 45 57 46 58 57 60 75 61 48 62 35 63 36 64 41 65
REMARK SMILES IDX 37 66 38 67 40 68 42 69 39 70 61 71 62 72 67 73 63 74 64 75
REMARK SMILES IDX 66 76 68 77 65 78 49 79 50 80 55 81 51 82 52 83 54 84 56 85
REMARK SMILES IDX 53 86
REMARK H PARENT 8 17 73 48 47 59
REMARK Flexibility Score: inf
ROOT
ATOM      1  O   UNL     1      -5.462   5.316   0.209  1.00  0.00    -0.376 OA
ENDROOT
BRANCH   1   2
ATOM      2  C   UNL     1      -6.005   5.894  -0.975  1.00  0.00     0.202 C 
BRANCH   2   3
ATOM      3  C   UNL     1      -5.061   6.507  -2.020  1.00  0.00     0.261 C 
BRANCH   3   4
ATOM      4  O   UNL     1      -4.050   5.606  -2.492  1.00  0.00    -0.460 OA
BRANCH   4   5
ATOM      5  C   UNL     1      -2.770   5.977  -2.253  1.00  0.00     0.338 C 
ATOM      6  O   UNL     1      -2.372   7.016  -1.753  1.00  0.00    -0.246 OA
BRANCH   5   7
ATOM      7  C   UNL     1      -1.909   4.796  -2.446  1.00  0.00     0.062 A 
ATOM      8  C   UNL     1      -0.287   3.293  -1.425  1.00  0.00     0.060 A 
ATOM      9  C   UNL     1      -1.034   4.475  -1.402  1.00  0.00     0.043 A 
ATOM     10  C   UNL     1      -0.476   2.409  -2.502  1.00  0.00     0.064 A 
ATOM     11  C   UNL     1      -1.321   2.758  -3.569  1.00  0.00     0.023 A 
ATOM     12  Cl  UNL     1       0.080   0.779  -2.519  1.00  0.00    -0.082 Cl
ATOM     13  C   UNL     1      -2.039   3.952  -3.546  1.00  0.00     0.017 A 
BRANCH   8  14
ATOM     14  N   UNL     1       0.511   3.106  -0.282  1.00  0.00    -0.325 N 
ATOM     15  C   UNL     1       1.826   2.784  -0.140  1.00  0.00     0.226 C 
ATOM     16  O   UNL     1       2.300   2.843   1.000  1.00  0.00    -0.275 OA
ATOM     17  H   UNL     1       0.032   3.231   0.569  1.00  0.00     0.169 HD
BRANCH  15  18
ATOM     18  C   UNL     1       2.706   2.468  -1.316  1.00  0.00     0.129 C 
BRANCH  18  19
ATOM     19  C   UNL     1       3.442   1.144  -1.132  1.00  0.00     0.170 C 
BRANCH  19  20
ATOM     20  O   UNL     1       2.616  -0.014  -1.012  1.00  0.00    -0.381 OA
BRANCH  20  21
ATOM     21  C   UNL     1       2.001  -0.174   0.267  1.00  0.00     0.156 C 
ATOM     22  C   UNL     1       1.714  -1.643   0.493  1.00  0.00     0.035 C 
ENDBRANCH  20  21
ENDBRANCH  19  20
ENDBRANCH  18  19
ENDBRANCH  15  18
ENDBRANCH   8  14
ENDBRANCH   5   7
ENDBRANCH   4   5
ENDBRANCH   3   4
ENDBRANCH   2   3
ENDBRANCH   1   2
BRANCH   1  23
ATOM     23  C   UNL     1      -4.472   4.299   0.112  1.00  0.00     0.188 C 
BRANCH  23  24
ATOM     24  C   UNL     1      -4.689   3.091  -0.824  1.00  0.00     0.188 C 
BRANCH  24  25
ATOM     25  O   UNL     1      -5.801   3.231  -1.684  1.00  0.00    -0.376 OA
BRANCH  25  26
ATOM     26  C   UNL     1      -6.908   2.374  -1.439  1.00  0.00     0.202 C 
BRANCH  26  27
ATOM     27  C   UNL     1      -7.572   2.369  -0.047  1.00  0.00     0.261 C 
BRANCH  27  28
ATOM     28  O   UNL     1      -6.699   2.428   1.093  1.00  0.00    -0.460 OA
BRANCH  28  29
ATOM     29  C   UNL     1      -6.179   1.263   1.541  1.00  0.00     0.338 C 
ATOM     30  O   UNL     1      -6.321   0.158   1.051  1.00  0.00    -0.246 OA
BRANCH  29  31
ATOM     31  C   UNL     1      -5.263   1.571   2.660  1.00  0.00     0.060 A 
ATOM     32  C   UNL     1      -3.893   1.318   2.508  1.00  0.00     0.016 A 
ATOM     33  C   UNL     1      -5.755   2.084   3.863  1.00  0.00     0.016 A 
ATOM     34  C   UNL     1      -3.015   1.558   3.569  1.00  0.00     0.010 A 
ATOM     35  C   UNL     1      -4.877   2.309   4.929  1.00  0.00     0.010 A 
ATOM     36  C   UNL     1      -3.506   2.023   4.798  1.00  0.00    -0.014 A 
BRANCH  36  37
ATOM     37  C   UNL     1      -2.619   2.071   5.988  1.00  0.00     0.031 A 
ATOM     38  C   UNL     1      -2.674   0.942   6.981  1.00  0.00     0.074 A 
ATOM     39  C   UNL     1      -1.779   3.101   6.193  1.00  0.00     0.049 A 
ATOM     40  N   UNL     1      -2.038   0.798   8.116  1.00  0.00    -0.248 NA
ATOM     41  C   UNL     1      -3.575  -0.173   6.650  1.00  0.00     0.031 C 
ATOM     42  C   UNL     1      -1.611   4.245   5.301  1.00  0.00     0.029 A 
ATOM     43  N   UNL     1      -0.918   3.354   7.234  1.00  0.00    -0.354 N 
ATOM     44  C   UNL     1      -2.466  -0.415   8.638  1.00  0.00     0.074 A 
ATOM     45  C   UNL     1      -3.438  -0.955   7.710  1.00  0.00     0.031 C 
ATOM     46  C   UNL     1      -0.715   5.090   5.841  1.00  0.00     0.029 A 
ATOM     47  C   UNL     1      -0.272   4.562   7.130  1.00  0.00     0.049 A 
ATOM     48  H   UNL     1      -0.779   2.730   7.982  1.00  0.00     0.167 HD
ATOM     49  C   UNL     1      -2.083  -1.029   9.783  1.00  0.00     0.037 A 
ATOM     50  C   UNL     1       0.561   5.182   7.991  1.00  0.00     0.037 A 
ATOM     51  C   UNL     1      -1.120  -0.492  10.709  1.00  0.00     0.049 A 
ATOM     52  C   UNL     1       0.928   4.509   9.288  1.00  0.00     0.074 A 
ATOM     53  C   UNL     1      -0.641  -1.056  11.878  1.00  0.00     0.029 A 
ATOM     54  N   UNL     1      -0.498   0.740  10.576  1.00  0.00    -0.354 N 
ATOM     55  N   UNL     1       0.549   3.343   9.753  1.00  0.00    -0.248 NA
ATOM     56  C   UNL     1       1.842   5.239  10.180  1.00  0.00     0.031 C 
ATOM     57  C   UNL     1       0.227  -0.141  12.483  1.00  0.00     0.029 A 
ATOM     58  C   UNL     1       0.334   0.969  11.660  1.00  0.00     0.049 A 
ATOM     59  H   UNL     1      -0.629   1.361   9.823  1.00  0.00     0.167 HD
ATOM     60  C   UNL     1       1.198   3.187  10.973  1.00  0.00     0.074 A 
ATOM     61  C   UNL     1       2.003   4.374  11.172  1.00  0.00     0.031 C 
ATOM     62  C   UNL     1       1.134   2.153  11.848  1.00  0.00     0.037 A 
BRANCH  49  63
ATOM     63  C   UNL     1      -2.736  -2.339  10.115  1.00  0.00     0.057 A 
ATOM     64  C   UNL     1      -2.465  -3.510   9.395  1.00  0.00     0.134 A 
ATOM     65  C   UNL     1      -3.634  -2.434  11.186  1.00  0.00     0.134 A 
ATOM     66  F   UNL     1      -1.625  -3.485   8.349  1.00  0.00    -0.206 F 
ATOM     67  C   UNL     1      -3.084  -4.721   9.709  1.00  0.00     0.040 A 
ATOM     68  C   UNL     1      -4.238  -3.645  11.528  1.00  0.00     0.040 A 
ATOM     69  F   UNL     1      -3.936  -1.353  11.921  1.00  0.00    -0.206 F 
ATOM     70  C   UNL     1      -3.969  -4.791  10.783  1.00  0.00     0.006 A 
ENDBRANCH  49  63
BRANCH  50  71
ATOM     71  C   UNL     1       1.092   6.531   7.665  1.00  0.00     0.057 A 
ATOM     72  C   UNL     1       2.446   6.732   7.378  1.00  0.00     0.134 A 
ATOM     73  C   UNL     1       0.257   7.655   7.653  1.00  0.00     0.134 A 
ATOM     74  F   UNL     1       3.302   5.699   7.403  1.00  0.00    -0.206 F 
ATOM     75  C   UNL     1       2.955   8.003   7.104  1.00  0.00     0.040 A 
ATOM     76  C   UNL     1       0.747   8.928   7.355  1.00  0.00     0.040 A 
ATOM     77  F   UNL     1      -1.051   7.531   7.923  1.00  0.00    -0.206 F 
ATOM     78  C   UNL     1       2.102   9.105   7.086  1.00  0.00     0.006 A 
ENDBRANCH  50  71
BRANCH  62  79
ATOM     79  C   UNL     1       1.982   2.238  13.085  1.00  0.00     0.057 A 
ATOM     80  C   UNL     1       1.681   3.117  14.133  1.00  0.00     0.134 A 
ATOM     81  C   UNL     1       3.089   1.394  13.249  1.00  0.00     0.134 A 
ATOM     82  F   UNL     1       0.641   3.960  14.037  1.00  0.00    -0.206 F 
ATOM     83  C   UNL     1       2.463   3.169  15.290  1.00  0.00     0.040 A 
ATOM     84  C   UNL     1       3.861   1.417  14.412  1.00  0.00     0.040 A 
ATOM     85  F   UNL     1       3.427   0.520  12.289  1.00  0.00    -0.206 F 
ATOM     86  C   UNL     1       3.552   2.312  15.434  1.00  0.00     0.006 A 
ENDBRANCH  62  79
ENDBRANCH  36  37
ENDBRANCH  29  31
ENDBRANCH  28  29
ENDBRANCH  27  28
ENDBRANCH  26  27
ENDBRANCH  25  26
ENDBRANCH  24  25
ENDBRANCH  23  24
ENDBRANCH   1  23
TORSDOF 22
