REMARK SMILES CC[C@@H](C)[C@H](NC(=O)[C@H](C)N1C(=O)N2CCC3=c4cc(OC)ccc4=N[C@H]3[C@@]2(C)C1=O)C(=O)OCCOCCOCCOC(=O)c1ccc(-c2c3nc(c(-c4c(F)cccc4F)c4ccc([nH]4)c(-c4c(F)cccc4F)c4nc(c(-c5c(F)cccc5F)c5ccc2[nH]5)C=C4)C=C3)cc1
REMARK SMILES IDX 38 1 37 2 36 3 35 4 34 5 32 6 33 7 5 8 3 9 4 10 2 11 1 12
REMARK SMILES IDX 6 13 7 14 8 16 9 17 10 18 11 19 12 20 30 21 14 22 13 23
REMARK SMILES IDX 28 24 31 25 15 26 27 27 29 28 16 29 17 30 26 31 18 32 25 33
REMARK SMILES IDX 19 34 24 35 20 36 23 37 21 38 22 39 39 40 40 41 41 42 42 43
REMARK SMILES IDX 43 44 44 45 45 46 46 47 47 48 99 49 48 50 98 51 49 52 50 53
REMARK SMILES IDX 51 54 92 55 52 56 97 57 91 58 93 59 53 60 96 61 90 62 89 63
REMARK SMILES IDX 54 65 80 66 63 67 79 68 64 69 67 70 78 71 94 72 65 73 66 74
REMARK SMILES IDX 77 76 95 77 68 78 55 79 56 80 61 81 57 82 58 83 60 84 62 85
REMARK SMILES IDX 59 86 81 87 82 88 87 89 83 90 84 91 86 92 88 93 85 94 69 95
REMARK SMILES IDX 70 96 75 97 71 98 72 99 74 100 76 101 73 102
REMARK H PARENT 6 15 93 64 67 75
REMARK Flexibility Score: inf
ROOT
ATOM      1  C   UNL     1       5.699  -1.722  -3.985  1.00  0.00     0.188 C 
ENDROOT
BRANCH   1   2
ATOM      2  O   UNL     1       5.449  -0.327  -4.151  1.00  0.00    -0.376 OA
BRANCH   2   3
ATOM      3  C   UNL     1       4.510   0.373  -3.350  1.00  0.00     0.202 C 
BRANCH   3   4
ATOM      4  C   UNL     1       2.970   0.296  -3.774  1.00  0.00     0.261 C 
BRANCH   4   5
ATOM      5  O   UNL     1       2.279   1.195  -5.205  1.00  0.00    -0.462 OA
BRANCH   5   6
ATOM      6  C   UNL     1       2.639   1.421  -7.127  1.00  0.00     0.328 C 
ATOM      7  O   UNL     1       3.639   2.028  -7.568  1.00  0.00    -0.250 OA
BRANCH   6   8
ATOM      8  C   UNL     1       1.729   0.395  -8.344  1.00  0.00     0.195 C 
BRANCH   8   9
ATOM      9  C   UNL     1       1.316   1.227  -9.615  1.00  0.00     0.019 C 
ATOM     10  C   UNL     1       2.288   2.335  -9.997  1.00  0.00     0.010 C 
BRANCH   9  11
ATOM     11  C   UNL     1      -0.173   1.690  -9.663  1.00  0.00     0.002 C 
ATOM     12  C   UNL     1      -0.459   3.141  -9.325  1.00  0.00     0.004 C 
ENDBRANCH   9  11
ENDBRANCH   8   9
BRANCH   8  13
ATOM     13  N   UNL     1       0.608  -0.619  -8.171  1.00  0.00    -0.341 N 
ATOM     14  C   UNL     1       0.370  -1.496  -7.143  1.00  0.00     0.243 C 
ATOM     15  H   UNL     1      -0.045  -0.651  -8.907  1.00  0.00     0.164 HD
ATOM     16  O   UNL     1      -0.476  -2.381  -7.267  1.00  0.00    -0.273 OA
BRANCH  14  17
ATOM     17  C   UNL     1       1.186  -1.325  -5.890  1.00  0.00     0.181 C 
ATOM     18  C   UNL     1       0.285  -1.256  -4.631  1.00  0.00     0.042 C 
BRANCH  17  19
ATOM     19  N   UNL     1       1.856  -0.085  -6.181  1.00  0.00    -0.250 N 
ATOM     20  C   UNL     1       0.702   1.379  -6.231  1.00  0.00     0.328 C 
ATOM     21  C   UNL     1       3.654   0.359  -5.886  1.00  0.00     0.259 C 
ATOM     22  N   UNL     1       1.803   2.839  -6.074  1.00  0.00    -0.307 N 
ATOM     23  O   UNL     1      -0.486   1.400  -6.500  1.00  0.00    -0.248 OA
ATOM     24  C   UNL     1       3.478   2.397  -5.328  1.00  0.00     0.147 C 
ATOM     25  O   UNL     1       4.536  -0.324  -6.382  1.00  0.00    -0.271 OA
ATOM     26  C   UNL     1       1.423   4.258  -6.101  1.00  0.00     0.127 C 
ATOM     27  C   UNL     1       2.541   2.905  -3.733  1.00  0.00     0.168 C 
ATOM     28  C   UNL     1       4.645   3.346  -5.554  1.00  0.00     0.048 C 
ATOM     29  C   UNL     1       1.720   5.063  -4.773  1.00  0.00     0.055 C 
ATOM     30  C   UNL     1       1.758   4.224  -3.474  1.00  0.00    -0.032 C 
ATOM     31  N   UNL     1       1.186   2.106  -3.693  1.00  0.00    -0.274 NA
ATOM     32  C   UNL     1       0.554   4.042  -2.806  1.00  0.00     0.005 A 
ATOM     33  C   UNL     1       0.248   2.995  -3.775  1.00  0.00     0.066 A 
ATOM     34  C   UNL     1       0.025   3.244  -1.577  1.00  0.00     0.056 A 
ATOM     35  C   UNL     1      -1.177   2.848  -4.091  1.00  0.00     0.032 A 
ATOM     36  C   UNL     1      -1.101   2.450  -1.730  1.00  0.00     0.119 A 
ATOM     37  C   UNL     1      -1.845   2.503  -2.990  1.00  0.00     0.048 A 
BRANCH  36  38
ATOM     38  O   UNL     1      -1.641   1.521  -0.877  1.00  0.00    -0.497 OA
ATOM     39  C   UNL     1      -0.844   0.377  -0.563  1.00  0.00     0.278 C 
ENDBRANCH  36  38
ENDBRANCH  17  19
ENDBRANCH  14  17
ENDBRANCH   8  13
ENDBRANCH   6   8
ENDBRANCH   5   6
ENDBRANCH   4   5
ENDBRANCH   3   4
ENDBRANCH   2   3
ENDBRANCH   1   2
BRANCH   1  40
ATOM     40  C   UNL     1       4.544  -2.688  -3.707  1.00  0.00     0.188 C 
BRANCH  40  41
ATOM     41  O   UNL     1       3.594  -2.199  -2.767  1.00  0.00    -0.376 OA
BRANCH  41  42
ATOM     42  C   UNL     1       3.850  -2.482  -1.400  1.00  0.00     0.202 C 
BRANCH  42  43
ATOM     43  C   UNL     1       2.837  -3.507  -0.889  1.00  0.00     0.261 C 
BRANCH  43  44
ATOM     44  O   UNL     1       2.774  -4.602  -1.813  1.00  0.00    -0.460 OA
BRANCH  44  45
ATOM     45  C   UNL     1       1.766  -4.535  -2.725  1.00  0.00     0.338 C 
ATOM     46  O   UNL     1       0.736  -3.891  -2.624  1.00  0.00    -0.246 OA
BRANCH  45  47
ATOM     47  C   UNL     1       2.184  -5.244  -3.962  1.00  0.00     0.060 A 
ATOM     48  C   UNL     1       3.277  -6.117  -3.955  1.00  0.00     0.016 A 
ATOM     49  C   UNL     1       1.516  -4.974  -5.166  1.00  0.00     0.016 A 
ATOM     50  C   UNL     1       3.703  -6.706  -5.140  1.00  0.00     0.010 A 
ATOM     51  C   UNL     1       1.932  -5.581  -6.356  1.00  0.00     0.010 A 
ATOM     52  C   UNL     1       3.018  -6.465  -6.343  1.00  0.00    -0.014 A 
BRANCH  52  53
ATOM     53  C   UNL     1       3.334  -7.338  -7.495  1.00  0.00     0.031 A 
ATOM     54  C   UNL     1       4.228  -6.903  -8.611  1.00  0.00     0.074 A 
ATOM     55  C   UNL     1       2.861  -8.597  -7.441  1.00  0.00     0.049 A 
ATOM     56  N   UNL     1       4.779  -7.636  -9.545  1.00  0.00    -0.248 NA
ATOM     57  C   UNL     1       4.545  -5.472  -8.697  1.00  0.00     0.031 C 
ATOM     58  C   UNL     1       1.967  -9.110  -6.399  1.00  0.00     0.029 A 
ATOM     59  N   UNL     1       3.096  -9.681  -8.243  1.00  0.00    -0.354 N 
ATOM     60  C   UNL     1       5.524  -6.763 -10.325  1.00  0.00     0.074 A 
ATOM     61  C   UNL     1       5.326  -5.437  -9.772  1.00  0.00     0.031 C 
ATOM     62  C   UNL     1       1.774 -10.421  -6.594  1.00  0.00     0.029 A 
ATOM     63  C   UNL     1       2.504 -10.832  -7.786  1.00  0.00     0.049 A 
ATOM     64  H   UNL     1       3.635  -9.639  -9.066  1.00  0.00     0.167 HD
ATOM     65  C   UNL     1       6.303  -7.053 -11.396  1.00  0.00     0.037 A 
ATOM     66  C   UNL     1       2.557 -12.086  -8.267  1.00  0.00     0.037 A 
ATOM     67  C   UNL     1       6.471  -8.378 -11.944  1.00  0.00     0.049 A 
ATOM     68  C   UNL     1       3.400 -12.361  -9.477  1.00  0.00     0.074 A 
ATOM     69  C   UNL     1       7.283  -8.783 -12.991  1.00  0.00     0.029 A 
ATOM     70  N   UNL     1       5.798  -9.510 -11.505  1.00  0.00    -0.354 N 
ATOM     71  N   UNL     1       4.186 -11.549 -10.140  1.00  0.00    -0.248 NA
ATOM     72  C   UNL     1       3.366 -13.732 -10.000  1.00  0.00     0.031 C 
ATOM     73  C   UNL     1       7.055 -10.145 -13.223  1.00  0.00     0.029 A 
ATOM     74  C   UNL     1       6.144 -10.603 -12.286  1.00  0.00     0.049 A 
ATOM     75  H   UNL     1       5.168  -9.534 -10.749  1.00  0.00     0.167 HD
ATOM     76  C   UNL     1       4.758 -12.314 -11.146  1.00  0.00     0.074 A 
ATOM     77  C   UNL     1       4.249 -13.662 -10.985  1.00  0.00     0.031 C 
ATOM     78  C   UNL     1       5.622 -11.936 -12.119  1.00  0.00     0.037 A 
BRANCH  65  79
ATOM     79  C   UNL     1       7.026  -5.919 -12.065  1.00  0.00     0.057 A 
ATOM     80  C   UNL     1       6.668  -5.505 -13.355  1.00  0.00     0.134 A 
ATOM     81  C   UNL     1       8.123  -5.286 -11.467  1.00  0.00     0.134 A 
ATOM     82  F   UNL     1       5.635  -6.077 -13.992  1.00  0.00    -0.206 F 
ATOM     83  C   UNL     1       7.378  -4.509 -14.028  1.00  0.00     0.040 A 
ATOM     84  C   UNL     1       8.827  -4.272 -12.121  1.00  0.00     0.040 A 
ATOM     85  F   UNL     1       8.519  -5.633 -10.233  1.00  0.00    -0.206 F 
ATOM     86  C   UNL     1       8.460  -3.886 -13.409  1.00  0.00     0.006 A 
ENDBRANCH  65  79
BRANCH  66  87
ATOM     87  C   UNL     1       1.803 -13.175  -7.600  1.00  0.00     0.057 A 
ATOM     88  C   UNL     1       0.404 -13.201  -7.610  1.00  0.00     0.134 A 
ATOM     89  C   UNL     1       2.464 -14.230  -6.961  1.00  0.00     0.134 A 
ATOM     90  F   UNL     1      -0.288 -12.213  -8.197  1.00  0.00    -0.206 F 
ATOM     91  C   UNL     1      -0.312 -14.238  -7.013  1.00  0.00     0.040 A 
ATOM     92  C   UNL     1       1.762 -15.289  -6.385  1.00  0.00     0.040 A 
ATOM     93  F   UNL     1       3.805 -14.267  -6.928  1.00  0.00    -0.206 F 
ATOM     94  C   UNL     1       0.368 -15.293  -6.409  1.00  0.00     0.006 A 
ENDBRANCH  66  87
BRANCH  78  95
ATOM     95  C   UNL     1       6.077 -13.008 -13.066  1.00  0.00     0.057 A 
ATOM     96  C   UNL     1       7.391 -13.492 -13.022  1.00  0.00     0.134 A 
ATOM     97  C   UNL     1       5.212 -13.574 -14.013  1.00  0.00     0.134 A 
ATOM     98  F   UNL     1       8.273 -12.991 -12.143  1.00  0.00    -0.206 F 
ATOM     99  C   UNL     1       7.825 -14.503 -13.880  1.00  0.00     0.040 A 
ATOM    100  C   UNL     1       5.626 -14.607 -14.855  1.00  0.00     0.040 A 
ATOM    101  F   UNL     1       3.935 -13.170 -14.094  1.00  0.00    -0.206 F 
ATOM    102  C   UNL     1       6.939 -15.071 -14.792  1.00  0.00     0.006 A 
ENDBRANCH  78  95
ENDBRANCH  52  53
ENDBRANCH  45  47
ENDBRANCH  44  45
ENDBRANCH  43  44
ENDBRANCH  42  43
ENDBRANCH  41  42
ENDBRANCH  40  41
ENDBRANCH   1  40
TORSDOF 23
