REMARK SMILES CC1(C)Oc2ccc(NC(=O)[C@H]3CC=CC[C@@H]3C(=O)OCCOCCOCCOC(=O)c3ccc(-c4c5nc(c(-c6c(F)cccc6F)c6ccc([nH]6)c(-c6c(F)cccc6F)c6nc(c(-c7c(F)cccc7F)c7ccc4[nH]7)C=C6)C=C5)cc3)cc2NC1=O
REMARK SMILES IDX 24 1 23 2 22 3 21 4 20 5 18 6 19 7 17 8 12 9 13 10 14 11
REMARK SMILES IDX 16 12 15 13 10 14 9 15 11 17 8 18 1 19 2 20 3 21 4 22 89 23
REMARK SMILES IDX 5 24 88 25 90 26 6 27 87 28 7 30 86 31 25 32 26 33 27 34
REMARK SMILES IDX 28 35 29 36 30 37 31 38 32 39 33 40 85 41 34 42 84 43 35 44
REMARK SMILES IDX 36 45 37 46 78 47 38 48 83 49 77 50 79 51 39 52 82 53 76 54
REMARK SMILES IDX 75 55 40 57 66 58 49 59 65 60 50 61 53 62 64 63 80 64 51 65
REMARK SMILES IDX 52 66 63 68 81 69 54 70 41 71 42 72 47 73 43 74 44 75 46 76
REMARK SMILES IDX 48 77 45 78 67 79 68 80 73 81 69 82 70 83 72 84 74 85 71 86
REMARK SMILES IDX 55 87 56 88 61 89 57 90 58 91 60 92 62 93 59 94
REMARK H PARENT 9 16 88 29 79 56 53 67
REMARK Flexibility Score: inf
ROOT
ATOM      1  C   UNL     1      -4.923   4.090   6.874  1.00  0.00     0.188 C 
ENDROOT
BRANCH   1   2
ATOM      2  O   UNL     1      -5.560   3.427   7.947  1.00  0.00    -0.376 OA
BRANCH   2   3
ATOM      3  C   UNL     1      -4.833   3.308   9.162  1.00  0.00     0.202 C 
BRANCH   3   4
ATOM      4  C   UNL     1      -4.224   4.556   9.836  1.00  0.00     0.261 C 
BRANCH   4   5
ATOM      5  O   UNL     1      -3.722   5.592   8.978  1.00  0.00    -0.463 OA
BRANCH   5   6
ATOM      6  C   UNL     1      -2.464   5.434   8.490  1.00  0.00     0.310 C 
ATOM      7  O   UNL     1      -1.769   4.452   8.713  1.00  0.00    -0.252 OA
BRANCH   6   8
ATOM      8  C   UNL     1      -2.099   6.584   7.549  1.00  0.00     0.116 C 
ATOM      9  C   UNL     1      -1.408   6.014   6.282  1.00  0.00     0.097 C 
ATOM     10  C   UNL     1       0.030   5.546   6.583  1.00  0.00     0.041 C 
ATOM     11  C   UNL     1       0.730   6.274   7.692  1.00  0.00    -0.030 C 
ATOM     12  C   UNL     1      -1.268   7.631   8.287  1.00  0.00     0.043 C 
ATOM     13  C   UNL     1       0.161   7.226   8.441  1.00  0.00    -0.030 C 
BRANCH   9  14
ATOM     14  C   UNL     1      -1.449   6.987   5.106  1.00  0.00     0.228 C 
ATOM     15  N   UNL     1      -0.996   6.670   3.857  1.00  0.00    -0.326 N 
ATOM     16  H   UNL     1      -0.985   7.451   3.257  1.00  0.00     0.169 HD
ATOM     17  O   UNL     1      -1.909   8.127   5.241  1.00  0.00    -0.274 OA
BRANCH  15  18
ATOM     18  C   UNL     1      -0.540   5.503   3.214  1.00  0.00     0.043 A 
ATOM     19  C   UNL     1       1.407   1.248  -1.132  1.00  0.00     0.067 C 
ATOM     20  C   UNL     1       0.695   2.411  -0.450  1.00  0.00     0.182 C 
ATOM     21  C   UNL     1      -0.746   2.454  -0.991  1.00  0.00     0.067 C 
ATOM     22  O   UNL     1       0.673   2.173   0.974  1.00  0.00    -0.476 OA
ATOM     23  C   UNL     1       1.428   3.714  -0.829  1.00  0.00     0.268 C 
ATOM     24  C   UNL     1       0.334   3.289   1.699  1.00  0.00     0.144 A 
ATOM     25  N   UNL     1       1.141   4.776  -0.009  1.00  0.00    -0.319 N 
ATOM     26  O   UNL     1       2.143   3.861  -1.816  1.00  0.00    -0.270 OA
ATOM     27  C   UNL     1      -0.182   3.112   2.974  1.00  0.00     0.051 A 
ATOM     28  C   UNL     1       0.499   4.584   1.213  1.00  0.00     0.086 A 
ATOM     29  H   UNL     1       1.391   5.686  -0.289  1.00  0.00     0.170 HD
ATOM     30  C   UNL     1      -0.658   4.205   3.708  1.00  0.00     0.030 A 
ATOM     31  C   UNL     1       0.068   5.682   1.960  1.00  0.00     0.056 A 
ENDBRANCH  15  18
ENDBRANCH   9  14
ENDBRANCH   6   8
ENDBRANCH   5   6
ENDBRANCH   4   5
ENDBRANCH   3   4
ENDBRANCH   2   3
ENDBRANCH   1   2
BRANCH   1  32
ATOM     32  C   UNL     1      -5.496   5.495   6.594  1.00  0.00     0.188 C 
BRANCH  32  33
ATOM     33  O   UNL     1      -6.396   6.091   7.515  1.00  0.00    -0.376 OA
BRANCH  33  34
ATOM     34  C   UNL     1      -7.511   5.340   7.978  1.00  0.00     0.202 C 
BRANCH  34  35
ATOM     35  C   UNL     1      -8.408   4.556   6.998  1.00  0.00     0.261 C 
BRANCH  35  36
ATOM     36  O   UNL     1      -7.742   3.816   5.963  1.00  0.00    -0.460 OA
BRANCH  36  37
ATOM     37  C   UNL     1      -7.807   4.348   4.713  1.00  0.00     0.338 C 
ATOM     38  O   UNL     1      -8.351   5.377   4.372  1.00  0.00    -0.246 OA
BRANCH  37  39
ATOM     39  C   UNL     1      -6.933   3.551   3.823  1.00  0.00     0.060 A 
ATOM     40  C   UNL     1      -7.207   2.202   3.605  1.00  0.00     0.016 A 
ATOM     41  C   UNL     1      -5.840   4.167   3.192  1.00  0.00     0.016 A 
ATOM     42  C   UNL     1      -6.399   1.472   2.732  1.00  0.00     0.010 A 
ATOM     43  C   UNL     1      -5.019   3.428   2.334  1.00  0.00     0.010 A 
ATOM     44  C   UNL     1      -5.311   2.080   2.081  1.00  0.00    -0.014 A 
BRANCH  44  45
ATOM     45  C   UNL     1      -4.598   1.324   1.019  1.00  0.00     0.031 A 
ATOM     46  C   UNL     1      -3.334   0.567   1.308  1.00  0.00     0.074 A 
ATOM     47  C   UNL     1      -5.174   1.283  -0.196  1.00  0.00     0.049 A 
ATOM     48  N   UNL     1      -2.658  -0.276   0.566  1.00  0.00    -0.248 NA
ATOM     49  C   UNL     1      -2.757   0.796   2.632  1.00  0.00     0.031 C 
ATOM     50  C   UNL     1      -6.440   1.935  -0.542  1.00  0.00     0.029 A 
ATOM     51  N   UNL     1      -4.816   0.619  -1.336  1.00  0.00    -0.354 N 
ATOM     52  C   UNL     1      -1.531  -0.638   1.310  1.00  0.00     0.074 A 
ATOM     53  C   UNL     1      -1.665   0.047   2.576  1.00  0.00     0.031 C 
ATOM     54  C   UNL     1      -6.808   1.549  -1.773  1.00  0.00     0.029 A 
ATOM     55  C   UNL     1      -5.777   0.676  -2.318  1.00  0.00     0.049 A 
ATOM     56  H   UNL     1      -3.958   0.148  -1.444  1.00  0.00     0.167 HD
ATOM     57  C   UNL     1      -0.472  -1.415   0.934  1.00  0.00     0.037 A 
ATOM     58  C   UNL     1      -5.821   0.060  -3.512  1.00  0.00     0.037 A 
ATOM     59  C   UNL     1      -0.414  -2.047  -0.374  1.00  0.00     0.049 A 
ATOM     60  C   UNL     1      -4.647  -0.787  -3.914  1.00  0.00     0.074 A 
ATOM     61  C   UNL     1       0.548  -2.900  -0.888  1.00  0.00     0.029 A 
ATOM     62  N   UNL     1      -1.335  -1.841  -1.401  1.00  0.00    -0.354 N 
ATOM     63  N   UNL     1      -3.583  -1.116  -3.220  1.00  0.00    -0.248 NA
ATOM     64  C   UNL     1      -4.679  -1.334  -5.274  1.00  0.00     0.031 C 
ATOM     65  C   UNL     1       0.314  -3.049  -2.260  1.00  0.00     0.029 A 
ATOM     66  C   UNL     1      -0.905  -2.467  -2.564  1.00  0.00     0.049 A 
ATOM     67  H   UNL     1      -2.169  -1.326  -1.315  1.00  0.00     0.167 HD
ATOM     68  C   UNL     1      -2.826  -1.928  -4.053  1.00  0.00     0.074 A 
ATOM     69  C   UNL     1      -3.570  -2.058  -5.291  1.00  0.00     0.031 C 
ATOM     70  C   UNL     1      -1.631  -2.525  -3.813  1.00  0.00     0.037 A 
BRANCH  57  71
ATOM     71  C   UNL     1       0.761  -1.469   1.850  1.00  0.00     0.057 A 
ATOM     72  C   UNL     1       2.047  -1.138   1.377  1.00  0.00     0.134 A 
ATOM     73  C   UNL     1       0.704  -1.774   3.218  1.00  0.00     0.134 A 
ATOM     74  F   UNL     1       2.300  -1.013   0.070  1.00  0.00    -0.206 F 
ATOM     75  C   UNL     1       3.149  -0.953   2.218  1.00  0.00     0.040 A 
ATOM     76  C   UNL     1       1.792  -1.567   4.081  1.00  0.00     0.040 A 
ATOM     77  F   UNL     1      -0.435  -2.223   3.769  1.00  0.00    -0.206 F 
ATOM     78  C   UNL     1       3.013  -1.125   3.584  1.00  0.00     0.006 A 
ENDBRANCH  57  71
BRANCH  58  79
ATOM     79  C   UNL     1      -7.014   0.170  -4.388  1.00  0.00     0.057 A 
ATOM     80  C   UNL     1      -7.382   1.372  -5.000  1.00  0.00     0.134 A 
ATOM     81  C   UNL     1      -7.800  -0.958  -4.660  1.00  0.00     0.134 A 
ATOM     82  F   UNL     1      -6.678   2.491  -4.775  1.00  0.00    -0.206 F 
ATOM     83  C   UNL     1      -8.484   1.450  -5.854  1.00  0.00     0.040 A 
ATOM     84  C   UNL     1      -8.887  -0.901  -5.534  1.00  0.00     0.040 A 
ATOM     85  F   UNL     1      -7.492  -2.143  -4.114  1.00  0.00    -0.206 F 
ATOM     86  C   UNL     1      -9.232   0.308  -6.133  1.00  0.00     0.006 A 
ENDBRANCH  58  79
BRANCH  70  87
ATOM     87  C   UNL     1      -1.078  -3.389  -4.918  1.00  0.00     0.057 A 
ATOM     88  C   UNL     1      -0.962  -4.774  -4.733  1.00  0.00     0.134 A 
ATOM     89  C   UNL     1      -0.675  -2.873  -6.158  1.00  0.00     0.134 A 
ATOM     90  F   UNL     1      -1.322  -5.340  -3.571  1.00  0.00    -0.206 F 
ATOM     91  C   UNL     1      -0.473  -5.610  -5.737  1.00  0.00     0.040 A 
ATOM     92  C   UNL     1      -0.227  -3.706  -7.187  1.00  0.00     0.040 A 
ATOM     93  F   UNL     1      -0.772  -1.560  -6.415  1.00  0.00    -0.206 F 
ATOM     94  C   UNL     1      -0.119  -5.079  -6.974  1.00  0.00     0.006 A 
ENDBRANCH  70  87
ENDBRANCH  44  45
ENDBRANCH  37  39
ENDBRANCH  36  37
ENDBRANCH  35  36
ENDBRANCH  34  35
ENDBRANCH  33  34
ENDBRANCH  32  33
ENDBRANCH   1  32
TORSDOF 19
