REMARK SMILES O=C(N[C@@H](Cc1c[nH]c2ccccc12)C(=O)N[C@@H](CO)C(=O)OCCOCCOCCOC(=O)c1ccc(-c2c3nc(c(-c4c(F)cccc4F)c4ccc([nH]4)c(-c4c(F)cccc4F)c4nc(c(-c5c(F)cccc5F)c5ccc2[nH]5)C=C4)C=C3)cc1)c1ccc(F)cc1
REMARK SMILES IDX 27 1 26 2 25 3 24 4 23 5 21 6 22 7 18 8 17 9 15 10 16 11
REMARK SMILES IDX 4 13 3 14 1 15 2 16 89 18 90 19 95 20 91 21 94 22 92 23
REMARK SMILES IDX 93 24 5 25 6 26 7 27 14 28 8 29 9 30 13 31 10 33 12 34 11 35
REMARK SMILES IDX 19 36 20 37 28 39 29 40 30 41 31 42 32 43 33 44 34 45 35 46
REMARK SMILES IDX 36 47 88 48 37 49 87 50 38 51 39 52 40 53 81 54 41 55 86 56
REMARK SMILES IDX 80 57 82 58 42 59 85 60 79 61 78 62 43 64 69 65 52 66 68 67
REMARK SMILES IDX 53 68 56 69 67 70 83 71 54 72 55 73 66 75 84 76 57 77 44 78
REMARK SMILES IDX 45 79 50 80 46 81 47 82 49 83 51 84 48 85 70 86 71 87 76 88
REMARK SMILES IDX 72 89 73 90 75 91 77 92 74 93 58 94 59 95 64 96 60 97 61 98
REMARK SMILES IDX 63 99 65 100 62 101
REMARK H PARENT 17 12 3 17 8 32 20 38 82 63 56 74
REMARK Flexibility Score: inf
ROOT
ATOM      1  C   UNL     1       7.095  -1.004  -5.601  1.00  0.00     0.188 C 
ENDROOT
BRANCH   1   2
ATOM      2  O   UNL     1       7.675  -0.733  -6.865  1.00  0.00    -0.376 OA
BRANCH   2   3
ATOM      3  C   UNL     1       6.724  -0.360  -7.863  1.00  0.00     0.202 C 
BRANCH   3   4
ATOM      4  C   UNL     1       6.035   0.997  -7.668  1.00  0.00     0.261 C 
BRANCH   4   5
ATOM      5  O   UNL     1       5.349   1.177  -6.402  1.00  0.00    -0.462 OA
BRANCH   5   6
ATOM      6  C   UNL     1       3.925   0.848  -6.227  1.00  0.00     0.331 C 
ATOM      7  O   UNL     1       3.659   0.164  -7.255  1.00  0.00    -0.250 OA
BRANCH   6   8
ATOM      8  C   UNL     1       2.696   1.549  -4.524  1.00  0.00     0.218 C 
BRANCH   8   9
ATOM      9  N   UNL     1       3.191   2.277  -3.008  1.00  0.00    -0.339 N 
ATOM     10  C   UNL     1       3.722   1.867  -1.818  1.00  0.00     0.243 C 
ATOM     11  O   UNL     1       4.196   2.779  -1.120  1.00  0.00    -0.273 OA
ATOM     12  H   UNL     1       3.045   3.251  -3.016  1.00  0.00     0.164 HD
BRANCH  10  13
ATOM     13  C   UNL     1       3.721   0.429  -1.238  1.00  0.00     0.176 C 
BRANCH  13  14
ATOM     14  N   UNL     1       2.354   0.138  -0.807  1.00  0.00    -0.340 N 
ATOM     15  O   UNL     1       0.628  -0.133   0.606  1.00  0.00    -0.269 OA
ATOM     16  C   UNL     1       1.841  -0.004   0.461  1.00  0.00     0.251 C 
ATOM     17  H   UNL     1       1.702   0.026  -1.536  1.00  0.00     0.164 HD
BRANCH  16  18
ATOM     18  C   UNL     1       2.727  -0.113   1.650  1.00  0.00     0.040 A 
ATOM     19  C   UNL     1       3.705   0.837   1.972  1.00  0.00     0.017 A 
ATOM     20  C   UNL     1       2.541  -1.224   2.487  1.00  0.00     0.017 A 
ATOM     21  C   UNL     1       4.566   0.615   3.051  1.00  0.00     0.040 A 
ATOM     22  C   UNL     1       3.382  -1.427   3.583  1.00  0.00     0.040 A 
ATOM     23  C   UNL     1       4.402  -0.518   3.840  1.00  0.00     0.123 A 
ATOM     24  F   UNL     1       5.233  -0.731   4.869  1.00  0.00    -0.207 F 
ENDBRANCH  16  18
ENDBRANCH  13  14
BRANCH  13  25
ATOM     25  C   UNL     1       4.470  -0.731  -1.925  1.00  0.00     0.072 C 
BRANCH  25  26
ATOM     26  C   UNL     1       4.020  -0.998  -3.305  1.00  0.00    -0.020 A 
ATOM     27  C   UNL     1       3.290  -2.090  -3.764  1.00  0.00     0.087 A 
ATOM     28  C   UNL     1       4.075  -0.028  -4.328  1.00  0.00     0.003 A 
ATOM     29  N   UNL     1       2.568  -1.825  -4.920  1.00  0.00    -0.361 N 
ATOM     30  C   UNL     1       2.667  -0.499  -5.242  1.00  0.00     0.046 A 
ATOM     31  C   UNL     1       4.740   1.656  -4.480  1.00  0.00     0.010 A 
ATOM     32  H   UNL     1       2.059  -2.494  -5.433  1.00  0.00     0.166 HD
ATOM     33  C   UNL     1       1.826   0.694  -6.281  1.00  0.00     0.026 A 
ATOM     34  C   UNL     1       3.943   2.840  -5.589  1.00  0.00     0.001 A 
ATOM     35  C   UNL     1       2.531   2.333  -6.513  1.00  0.00     0.002 A 
ENDBRANCH  25  26
ENDBRANCH  13  25
ENDBRANCH  10  13
ENDBRANCH   8   9
BRANCH   8  36
ATOM     36  C   UNL     1       1.207   2.454  -4.475  1.00  0.00     0.193 C 
BRANCH  36  37
ATOM     37  O   UNL     1       1.361   3.873  -4.592  1.00  0.00    -0.394 OA
ATOM     38  H   UNL     1       1.873   4.206  -3.839  1.00  0.00     0.210 HD
ENDBRANCH  36  37
ENDBRANCH   8  36
ENDBRANCH   6   8
ENDBRANCH   5   6
ENDBRANCH   4   5
ENDBRANCH   3   4
ENDBRANCH   2   3
ENDBRANCH   1   2
BRANCH   1  39
ATOM     39  C   UNL     1       7.467   0.011  -4.517  1.00  0.00     0.188 C 
BRANCH  39  40
ATOM     40  O   UNL     1       8.109   1.230  -4.840  1.00  0.00    -0.376 OA
BRANCH  40  41
ATOM     41  C   UNL     1       9.351   1.117  -5.526  1.00  0.00     0.202 C 
BRANCH  41  42
ATOM     42  C   UNL     1      10.459   0.196  -4.955  1.00  0.00     0.261 C 
BRANCH  42  43
ATOM     43  O   UNL     1      10.029  -1.075  -4.408  1.00  0.00    -0.460 OA
BRANCH  43  44
ATOM     44  C   UNL     1      10.184  -1.216  -3.061  1.00  0.00     0.338 C 
ATOM     45  O   UNL     1      10.779  -0.459  -2.311  1.00  0.00    -0.246 OA
BRANCH  44  46
ATOM     46  C   UNL     1       9.326  -2.305  -2.523  1.00  0.00     0.060 A 
ATOM     47  C   UNL     1       8.185  -1.940  -1.788  1.00  0.00     0.016 A 
ATOM     48  C   UNL     1       9.704  -3.645  -2.585  1.00  0.00     0.016 A 
ATOM     49  C   UNL     1       7.422  -2.895  -1.117  1.00  0.00     0.010 A 
ATOM     50  C   UNL     1       8.965  -4.602  -1.865  1.00  0.00     0.010 A 
ATOM     51  C   UNL     1       7.841  -4.227  -1.099  1.00  0.00    -0.014 A 
BRANCH  51  52
ATOM     52  C   UNL     1       7.292  -5.119  -0.039  1.00  0.00     0.031 A 
ATOM     53  C   UNL     1       8.095  -5.276   1.228  1.00  0.00     0.074 A 
ATOM     54  C   UNL     1       6.073  -5.683  -0.116  1.00  0.00     0.049 A 
ATOM     55  N   UNL     1       7.893  -6.059   2.257  1.00  0.00    -0.248 NA
ATOM     56  C   UNL     1       9.286  -4.419   1.347  1.00  0.00     0.031 C 
ATOM     57  C   UNL     1       5.121  -5.512  -1.210  1.00  0.00     0.029 A 
ATOM     58  N   UNL     1       5.426  -6.519   0.765  1.00  0.00    -0.354 N 
ATOM     59  C   UNL     1       8.949  -5.813   3.127  1.00  0.00     0.074 A 
ATOM     60  C   UNL     1       9.791  -4.816   2.503  1.00  0.00     0.031 C 
ATOM     61  C   UNL     1       4.017  -6.234  -0.943  1.00  0.00     0.029 A 
ATOM     62  C   UNL     1       4.204  -6.957   0.315  1.00  0.00     0.049 A 
ATOM     63  H   UNL     1       5.803  -6.779   1.636  1.00  0.00     0.167 HD
ATOM     64  C   UNL     1       9.201  -6.366   4.338  1.00  0.00     0.037 A 
ATOM     65  C   UNL     1       3.355  -7.864   0.841  1.00  0.00     0.037 A 
ATOM     66  C   UNL     1       8.358  -7.342   4.974  1.00  0.00     0.049 A 
ATOM     67  C   UNL     1       3.705  -8.550   2.140  1.00  0.00     0.074 A 
ATOM     68  C   UNL     1       8.545  -7.986   6.185  1.00  0.00     0.029 A 
ATOM     69  N   UNL     1       7.162  -7.811   4.453  1.00  0.00    -0.354 N 
ATOM     70  N   UNL     1       4.739  -8.367   2.925  1.00  0.00    -0.248 NA
ATOM     71  C   UNL     1       2.766  -9.575   2.623  1.00  0.00     0.031 C 
ATOM     72  C   UNL     1       7.486  -8.882   6.372  1.00  0.00     0.029 A 
ATOM     73  C   UNL     1       6.608  -8.749   5.309  1.00  0.00     0.049 A 
ATOM     74  H   UNL     1       6.766  -7.521   3.600  1.00  0.00     0.167 HD
ATOM     75  C   UNL     1       4.557  -9.225   4.006  1.00  0.00     0.074 A 
ATOM     76  C   UNL     1       3.306  -9.916   3.784  1.00  0.00     0.031 C 
ATOM     77  C   UNL     1       5.354  -9.423   5.087  1.00  0.00     0.037 A 
BRANCH  64  78
ATOM     78  C   UNL     1      10.479  -5.968   5.017  1.00  0.00     0.057 A 
ATOM     79  C   UNL     1      10.675  -4.693   5.563  1.00  0.00     0.134 A 
ATOM     80  C   UNL     1      11.538  -6.880   5.112  1.00  0.00     0.134 A 
ATOM     81  F   UNL     1       9.710  -3.764   5.483  1.00  0.00    -0.206 F 
ATOM     82  C   UNL     1      11.889  -4.329   6.149  1.00  0.00     0.040 A 
ATOM     83  C   UNL     1      12.745  -6.539   5.724  1.00  0.00     0.040 A 
ATOM     84  F   UNL     1      11.418  -8.119   4.610  1.00  0.00    -0.206 F 
ATOM     85  C   UNL     1      12.926  -5.256   6.236  1.00  0.00     0.006 A 
ENDBRANCH  64  78
BRANCH  65  86
ATOM     86  C   UNL     1       2.104  -8.233   0.123  1.00  0.00     0.057 A 
ATOM     87  C   UNL     1       0.842  -7.963   0.665  1.00  0.00     0.134 A 
ATOM     88  C   UNL     1       2.143  -8.928  -1.093  1.00  0.00     0.134 A 
ATOM     89  F   UNL     1       0.735  -7.332   1.844  1.00  0.00    -0.206 F 
ATOM     90  C   UNL     1      -0.333  -8.388   0.040  1.00  0.00     0.040 A 
ATOM     91  C   UNL     1       0.977  -9.332  -1.745  1.00  0.00     0.040 A 
ATOM     92  F   UNL     1       3.318  -9.227  -1.665  1.00  0.00    -0.206 F 
ATOM     93  C   UNL     1      -0.266  -9.072  -1.173  1.00  0.00     0.006 A 
ENDBRANCH  65  86
BRANCH  77  94
ATOM     94  C   UNL     1       4.868 -10.379   6.141  1.00  0.00     0.057 A 
ATOM     95  C   UNL     1       4.795 -11.761   5.922  1.00  0.00     0.134 A 
ATOM     96  C   UNL     1       4.483  -9.907   7.403  1.00  0.00     0.134 A 
ATOM     97  F   UNL     1       5.139 -12.282   4.735  1.00  0.00    -0.206 F 
ATOM     98  C   UNL     1       4.319 -12.633   6.905  1.00  0.00     0.040 A 
ATOM     99  C   UNL     1       4.037 -10.772   8.405  1.00  0.00     0.040 A 
ATOM    100  F   UNL     1       4.540  -8.598   7.688  1.00  0.00    -0.206 F 
ATOM    101  C   UNL     1       3.943 -12.138   8.153  1.00  0.00     0.006 A 
ENDBRANCH  77  94
ENDBRANCH  51  52
ENDBRANCH  44  46
ENDBRANCH  43  44
ENDBRANCH  42  43
ENDBRANCH  41  42
ENDBRANCH  40  41
ENDBRANCH  39  40
ENDBRANCH   1  39
TORSDOF 25
