REMARK SMILES O=C(Cc1cccn1-c1ccc2c(c1)OCCO2)OCCOCCOCCOC(=O)c1ccc(-c2c3nc(c(-c4c(F)cccc4F)c4ccc([nH]4)c(-c4c(F)cccc4F)c4nc(c(-c5c(F)cccc5F)c5ccc2[nH]5)C=C4)C=C3)cc1
REMARK SMILES IDX 23 1 22 2 21 3 20 4 19 5 2 6 1 7 3 8 4 9 5 10 8 11 6 12 7 13
REMARK SMILES IDX 9 14 10 15 14 16 11 17 13 18 12 19 15 20 18 21 16 22 17 23
REMARK SMILES IDX 24 24 25 25 26 26 27 27 28 28 29 29 30 30 31 31 32 32 84 33
REMARK SMILES IDX 33 34 83 35 34 36 35 37 36 38 77 39 37 40 82 41 76 42 78 43
REMARK SMILES IDX 38 44 81 45 75 46 74 47 39 49 65 50 48 51 64 52 49 53 52 54
REMARK SMILES IDX 63 55 79 56 50 57 51 58 62 60 80 61 53 62 40 63 41 64 46 65
REMARK SMILES IDX 42 66 43 67 45 68 47 69 44 70 66 71 67 72 72 73 68 74 69 75
REMARK SMILES IDX 71 76 73 77 70 78 54 79 55 80 60 81 56 82 57 83 59 84 61 85
REMARK SMILES IDX 58 86
REMARK H PARENT 78 48 52 59
REMARK Flexibility Score: inf
ROOT
ATOM      1  C   UNL     1       3.263   2.401  -0.331  1.00  0.00     0.188 C 
ENDROOT
BRANCH   1   2
ATOM      2  O   UNL     1       4.599   1.946  -0.486  1.00  0.00    -0.376 OA
BRANCH   2   3
ATOM      3  C   UNL     1       4.909   0.683   0.086  1.00  0.00     0.202 C 
BRANCH   3   4
ATOM      4  C   UNL     1       4.230  -0.498  -0.597  1.00  0.00     0.261 C 
BRANCH   4   5
ATOM      5  O   UNL     1       2.791  -0.541  -0.475  1.00  0.00    -0.463 OA
BRANCH   5   6
ATOM      6  C   UNL     1       2.004  -0.549   0.618  1.00  0.00     0.311 C 
ATOM      7  O   UNL     1       0.800  -0.322   0.484  1.00  0.00    -0.252 OA
BRANCH   6   8
ATOM      8  C   UNL     1       2.583  -0.721   2.001  1.00  0.00     0.177 C 
BRANCH   8   9
ATOM      9  C   UNL     1       3.628  -1.782   2.155  1.00  0.00     0.034 A 
ATOM     10  C   UNL     1       4.872  -1.680   2.754  1.00  0.00     0.024 A 
ATOM     11  N   UNL     1       3.486  -3.086   1.701  1.00  0.00    -0.320 N 
ATOM     12  C   UNL     1       5.528  -2.919   2.594  1.00  0.00     0.020 A 
ATOM     13  C   UNL     1       4.668  -3.754   1.914  1.00  0.00     0.091 A 
BRANCH  11  14
ATOM     14  C   UNL     1       2.360  -3.599   1.029  1.00  0.00     0.049 A 
ATOM     15  C   UNL     1       1.189  -3.816   1.761  1.00  0.00     0.031 A 
ATOM     16  C   UNL     1       2.354  -3.587  -0.369  1.00  0.00     0.077 A 
ATOM     17  C   UNL     1      -0.014  -4.008   1.081  1.00  0.00     0.052 A 
ATOM     18  C   UNL     1       1.130  -3.670  -1.028  1.00  0.00     0.163 A 
ATOM     19  C   UNL     1      -0.050  -3.908  -0.310  1.00  0.00     0.161 A 
ATOM     20  O   UNL     1       1.138  -3.417  -2.378  1.00  0.00    -0.486 OA
ATOM     21  O   UNL     1      -1.287  -3.985  -0.896  1.00  0.00    -0.486 OA
ATOM     22  C   UNL     1      -0.152  -2.939  -2.786  1.00  0.00     0.271 C 
ATOM     23  C   UNL     1      -1.219  -3.919  -2.326  1.00  0.00     0.271 C 
ENDBRANCH  11  14
ENDBRANCH   8   9
ENDBRANCH   6   8
ENDBRANCH   5   6
ENDBRANCH   4   5
ENDBRANCH   3   4
ENDBRANCH   2   3
ENDBRANCH   1   2
BRANCH   1  24
ATOM     24  C   UNL     1       2.347   2.238  -1.566  1.00  0.00     0.188 C 
BRANCH  24  25
ATOM     25  O   UNL     1       2.786   2.471  -2.902  1.00  0.00    -0.376 OA
BRANCH  25  26
ATOM     26  C   UNL     1       4.160   2.429  -3.240  1.00  0.00     0.202 C 
BRANCH  26  27
ATOM     27  C   UNL     1       4.817   3.811  -3.240  1.00  0.00     0.261 C 
BRANCH  27  28
ATOM     28  O   UNL     1       4.544   4.557  -2.054  1.00  0.00    -0.460 OA
BRANCH  28  29
ATOM     29  C   UNL     1       3.364   5.201  -2.091  1.00  0.00     0.338 C 
ATOM     30  O   UNL     1       2.534   5.220  -3.005  1.00  0.00    -0.246 OA
BRANCH  29  31
ATOM     31  C   UNL     1       3.161   5.985  -0.879  1.00  0.00     0.060 A 
ATOM     32  C   UNL     1       1.837   6.220  -0.484  1.00  0.00     0.016 A 
ATOM     33  C   UNL     1       4.238   6.706  -0.359  1.00  0.00     0.016 A 
ATOM     34  C   UNL     1       1.560   7.338   0.270  1.00  0.00     0.010 A 
ATOM     35  C   UNL     1       3.958   7.845   0.364  1.00  0.00     0.010 A 
ATOM     36  C   UNL     1       2.616   8.194   0.588  1.00  0.00    -0.014 A 
BRANCH  36  37
ATOM     37  C   UNL     1       2.316   9.545   1.079  1.00  0.00     0.031 A 
ATOM     38  C   UNL     1       2.379   9.655   2.588  1.00  0.00     0.074 A 
ATOM     39  C   UNL     1       2.113  10.474   0.096  1.00  0.00     0.049 A 
ATOM     40  N   UNL     1       2.091  10.659   3.353  1.00  0.00    -0.248 NA
ATOM     41  C   UNL     1       2.831   8.474   3.375  1.00  0.00     0.031 C 
ATOM     42  C   UNL     1       2.080  10.158  -1.351  1.00  0.00     0.029 A 
ATOM     43  N   UNL     1       1.909  11.838   0.082  1.00  0.00    -0.354 N 
ATOM     44  C   UNL     1       2.560  10.332   4.636  1.00  0.00     0.074 A 
ATOM     45  C   UNL     1       2.901   8.942   4.620  1.00  0.00     0.031 C 
ATOM     46  C   UNL     1       1.810  11.257  -2.078  1.00  0.00     0.029 A 
ATOM     47  C   UNL     1       1.682  12.401  -1.201  1.00  0.00     0.049 A 
ATOM     48  H   UNL     1       1.921  12.382   0.903  1.00  0.00     0.167 HD
ATOM     49  C   UNL     1       2.794  11.262   5.598  1.00  0.00     0.037 A 
ATOM     50  C   UNL     1       1.411  13.697  -1.545  1.00  0.00     0.037 A 
ATOM     51  C   UNL     1       2.370  12.556   5.185  1.00  0.00     0.049 A 
ATOM     52  C   UNL     1       1.702  14.490  -0.339  1.00  0.00     0.074 A 
ATOM     53  C   UNL     1       1.129  13.113   5.028  1.00  0.00     0.029 A 
ATOM     54  N   UNL     1       3.296  13.352   4.556  1.00  0.00    -0.354 N 
ATOM     55  N   UNL     1       2.898  14.697   0.126  1.00  0.00    -0.248 NA
ATOM     56  C   UNL     1       0.596  15.037   0.451  1.00  0.00     0.031 C 
ATOM     57  C   UNL     1       1.288  14.046   3.981  1.00  0.00     0.029 A 
ATOM     58  C   UNL     1       2.634  14.092   3.603  1.00  0.00     0.049 A 
ATOM     59  H   UNL     1       4.260  13.387   4.751  1.00  0.00     0.167 HD
ATOM     60  C   UNL     1       2.656  15.079   1.424  1.00  0.00     0.074 A 
ATOM     61  C   UNL     1       1.291  15.551   1.463  1.00  0.00     0.031 C 
ATOM     62  C   UNL     1       3.372  14.512   2.430  1.00  0.00     0.037 A 
BRANCH  49  63
ATOM     63  C   UNL     1       3.593  11.142   6.853  1.00  0.00     0.057 A 
ATOM     64  C   UNL     1       3.287  11.993   7.933  1.00  0.00     0.134 A 
ATOM     65  C   UNL     1       4.823  10.475   6.916  1.00  0.00     0.134 A 
ATOM     66  F   UNL     1       2.124  12.664   7.971  1.00  0.00    -0.206 F 
ATOM     67  C   UNL     1       4.189  12.235   8.970  1.00  0.00     0.040 A 
ATOM     68  C   UNL     1       5.719  10.681   7.971  1.00  0.00     0.040 A 
ATOM     69  F   UNL     1       5.234   9.677   5.920  1.00  0.00    -0.206 F 
ATOM     70  C   UNL     1       5.418  11.589   8.983  1.00  0.00     0.006 A 
ENDBRANCH  49  63
BRANCH  50  71
ATOM     71  C   UNL     1       0.928  14.453  -2.762  1.00  0.00     0.057 A 
ATOM     72  C   UNL     1       0.551  13.892  -3.988  1.00  0.00     0.134 A 
ATOM     73  C   UNL     1       0.687  15.852  -2.679  1.00  0.00     0.134 A 
ATOM     74  F   UNL     1       0.752  12.603  -4.268  1.00  0.00    -0.206 F 
ATOM     75  C   UNL     1      -0.082  14.635  -5.005  1.00  0.00     0.040 A 
ATOM     76  C   UNL     1       0.018  16.592  -3.661  1.00  0.00     0.040 A 
ATOM     77  F   UNL     1       1.071  16.574  -1.618  1.00  0.00    -0.206 F 
ATOM     78  C   UNL     1      -0.385  15.979  -4.830  1.00  0.00     0.006 A 
ENDBRANCH  50  71
BRANCH  62  79
ATOM     79  C   UNL     1       4.733  13.999   1.995  1.00  0.00     0.057 A 
ATOM     80  C   UNL     1       5.694  14.886   1.489  1.00  0.00     0.134 A 
ATOM     81  C   UNL     1       5.079  12.640   1.940  1.00  0.00     0.134 A 
ATOM     82  F   UNL     1       5.468  16.209   1.512  1.00  0.00    -0.206 F 
ATOM     83  C   UNL     1       6.906  14.444   0.941  1.00  0.00     0.040 A 
ATOM     84  C   UNL     1       6.289  12.181   1.406  1.00  0.00     0.040 A 
ATOM     85  F   UNL     1       4.255  11.705   2.409  1.00  0.00    -0.206 F 
ATOM     86  C   UNL     1       7.206  13.086   0.891  1.00  0.00     0.006 A 
ENDBRANCH  62  79
ENDBRANCH  36  37
ENDBRANCH  29  31
ENDBRANCH  28  29
ENDBRANCH  27  28
ENDBRANCH  26  27
ENDBRANCH  25  26
ENDBRANCH  24  25
ENDBRANCH   1  24
TORSDOF 19
