REMARK SMILES O=C(OCCOCCOCCOC(=O)c1ccc(-c2c3nc(c(-c4c(F)cccc4F)c4ccc([nH]4)c(-c4c(F)cccc4F)c4nc(c(-c5c(F)cccc5F)c5ccc2[nH]5)C=C4)C=C3)cc1)C1=Cc2cc(Cl)cc(-c3ccc(O)cc3)c2O[C@@H]1C(F)(F)F
REMARK SMILES IDX 7 1 6 2 5 3 4 4 3 5 2 6 1 7 69 8 70 9 86 10 71 11 85 12
REMARK SMILES IDX 72 13 84 14 73 15 76 16 74 17 75 18 87 19 88 20 89 21 90 22
REMARK SMILES IDX 77 23 78 24 83 25 79 26 82 27 80 28 81 29 8 31 9 32 10 33
REMARK SMILES IDX 11 34 12 35 13 36 14 37 15 38 16 39 68 40 17 41 67 42 18 43
REMARK SMILES IDX 19 44 20 45 61 46 21 47 66 48 60 49 62 50 22 51 65 52 59 53
REMARK SMILES IDX 58 54 23 56 49 57 32 58 48 59 33 60 36 61 47 62 63 63 34 64
REMARK SMILES IDX 35 65 46 67 64 68 37 69 24 70 25 71 30 72 26 73 27 74 29 75
REMARK SMILES IDX 31 76 28 77 50 78 51 79 56 80 52 81 53 82 55 83 57 84 54 85
REMARK SMILES IDX 38 86 39 87 44 88 40 89 41 90 43 91 45 92 42 93
REMARK H PARENT 81 30 62 55 36 66
REMARK Flexibility Score: inf
ROOT
ATOM      1  C   UNL     1       2.241  -2.129   0.203  1.00  0.00     0.188 C 
ENDROOT
BRANCH   1   2
ATOM      2  O   UNL     1       3.708  -2.043  -0.191  1.00  0.00    -0.376 OA
BRANCH   2   3
ATOM      3  C   UNL     1       4.607  -0.572  -0.621  1.00  0.00     0.202 C 
BRANCH   3   4
ATOM      4  C   UNL     1       4.017   1.389   0.119  1.00  0.00     0.261 C 
BRANCH   4   5
ATOM      5  O   UNL     1       3.092   2.385  -0.610  1.00  0.00    -0.460 OA
BRANCH   5   6
ATOM      6  C   UNL     1       3.239   2.342  -1.942  1.00  0.00     0.338 C 
ATOM      7  O   UNL     1       2.560   2.850  -2.799  1.00  0.00    -0.246 OA
BRANCH   6   8
ATOM      8  C   UNL     1       4.067   1.154  -1.957  1.00  0.00     0.087 C 
ATOM      9  C   UNL     1       5.461   1.354  -1.638  1.00  0.00     0.027 C 
ATOM     10  C   UNL     1       2.834   0.103  -0.935  1.00  0.00     0.316 C 
ATOM     11  C   UNL     1       6.194   0.898  -0.079  1.00  0.00     0.019 A 
ATOM     12  O   UNL     1       3.570  -0.266   0.857  1.00  0.00    -0.475 OA
ATOM     13  C   UNL     1       7.477   1.335   0.136  1.00  0.00     0.032 A 
ATOM     14  C   UNL     1       5.315   0.155   1.214  1.00  0.00     0.135 A 
ATOM     15  C   UNL     1       7.991   1.075   1.405  1.00  0.00     0.042 A 
ATOM     16  C   UNL     1       5.939  -0.121   2.424  1.00  0.00     0.026 A 
ATOM     17  Cl  UNL     1       9.598   1.625   1.743  1.00  0.00    -0.084 Cl
ATOM     18  C   UNL     1       7.284   0.383   2.452  1.00  0.00     0.033 A 
BRANCH  10  19
ATOM     19  C   UNL     1       2.522  -0.909  -2.296  1.00  0.00     0.430 C 
ATOM     20  F   UNL     1       2.815  -2.220  -2.271  1.00  0.00    -0.167 F 
ATOM     21  F   UNL     1       1.217  -0.794  -2.650  1.00  0.00    -0.167 F 
ATOM     22  F   UNL     1       3.217  -0.478  -3.397  1.00  0.00    -0.167 F 
ENDBRANCH  10  19
BRANCH  16  23
ATOM     23  C   UNL     1       5.557  -0.890   3.607  1.00  0.00    -0.014 A 
ATOM     24  C   UNL     1       4.995  -0.278   4.733  1.00  0.00     0.012 A 
ATOM     25  C   UNL     1       6.036  -2.210   3.759  1.00  0.00     0.012 A 
ATOM     26  C   UNL     1       4.814  -0.994   5.925  1.00  0.00     0.047 A 
ATOM     27  C   UNL     1       5.824  -2.942   4.935  1.00  0.00     0.047 A 
ATOM     28  C   UNL     1       5.183  -2.331   6.000  1.00  0.00     0.115 A 
BRANCH  28  29
ATOM     29  O   UNL     1       4.897  -3.017   7.142  1.00  0.00    -0.508 OA
ATOM     30  H   UNL     1       4.463  -2.585   7.851  1.00  0.00     0.293 HD
ENDBRANCH  28  29
ENDBRANCH  16  23
ENDBRANCH   6   8
ENDBRANCH   5   6
ENDBRANCH   4   5
ENDBRANCH   3   4
ENDBRANCH   2   3
ENDBRANCH   1   2
BRANCH   1  31
ATOM     31  C   UNL     1       1.681  -3.172   1.184  1.00  0.00     0.188 C 
BRANCH  31  32
ATOM     32  O   UNL     1       2.314  -3.356   2.419  1.00  0.00    -0.376 OA
BRANCH  32  33
ATOM     33  C   UNL     1       3.703  -3.583   2.333  1.00  0.00     0.202 C 
BRANCH  33  34
ATOM     34  C   UNL     1       4.223  -4.825   1.603  1.00  0.00     0.261 C 
BRANCH  34  35
ATOM     35  O   UNL     1       3.895  -4.874   0.208  1.00  0.00    -0.460 OA
BRANCH  35  36
ATOM     36  C   UNL     1       2.926  -5.750  -0.146  1.00  0.00     0.338 C 
ATOM     37  O   UNL     1       2.323  -6.530   0.568  1.00  0.00    -0.246 OA
BRANCH  36  38
ATOM     38  C   UNL     1       2.568  -5.488  -1.549  1.00  0.00     0.060 A 
ATOM     39  C   UNL     1       1.307  -4.957  -1.864  1.00  0.00     0.016 A 
ATOM     40  C   UNL     1       3.475  -5.824  -2.551  1.00  0.00     0.016 A 
ATOM     41  C   UNL     1       0.951  -4.749  -3.192  1.00  0.00     0.010 A 
ATOM     42  C   UNL     1       3.099  -5.665  -3.882  1.00  0.00     0.010 A 
ATOM     43  C   UNL     1       1.829  -5.153  -4.202  1.00  0.00    -0.014 A 
BRANCH  43  44
ATOM     44  C   UNL     1       1.324  -5.311  -5.580  1.00  0.00     0.031 A 
ATOM     45  C   UNL     1       0.760  -6.650  -5.955  1.00  0.00     0.074 A 
ATOM     46  C   UNL     1       1.401  -4.313  -6.473  1.00  0.00     0.049 A 
ATOM     47  N   UNL     1       0.364  -7.090  -7.118  1.00  0.00    -0.248 NA
ATOM     48  C   UNL     1       0.644  -7.633  -4.863  1.00  0.00     0.031 C 
ATOM     49  C   UNL     1       1.895  -2.967  -6.196  1.00  0.00     0.029 A 
ATOM     50  N   UNL     1       1.085  -4.296  -7.806  1.00  0.00    -0.354 N 
ATOM     51  C   UNL     1      -0.033  -8.403  -6.902  1.00  0.00     0.074 A 
ATOM     52  C   UNL     1       0.193  -8.697  -5.506  1.00  0.00     0.031 C 
ATOM     53  C   UNL     1       1.880  -2.259  -7.340  1.00  0.00     0.029 A 
ATOM     54  C   UNL     1       1.413  -3.117  -8.428  1.00  0.00     0.049 A 
ATOM     55  H   UNL     1       0.665  -5.055  -8.273  1.00  0.00     0.167 HD
ATOM     56  C   UNL     1      -0.538  -9.284  -7.795  1.00  0.00     0.037 A 
ATOM     57  C   UNL     1       1.373  -2.793  -9.735  1.00  0.00     0.037 A 
ATOM     58  C   UNL     1      -0.726  -8.982  -9.188  1.00  0.00     0.049 A 
ATOM     59  C   UNL     1       0.880  -3.815 -10.729  1.00  0.00     0.074 A 
ATOM     60  C   UNL     1      -1.245  -9.791 -10.181  1.00  0.00     0.029 A 
ATOM     61  N   UNL     1      -0.376  -7.780  -9.786  1.00  0.00    -0.354 N 
ATOM     62  N   UNL     1       0.466  -5.043 -10.518  1.00  0.00    -0.248 NA
ATOM     63  C   UNL     1       0.846  -3.409 -12.141  1.00  0.00     0.031 C 
ATOM     64  C   UNL     1      -1.137  -9.106 -11.395  1.00  0.00     0.029 A 
ATOM     65  C   UNL     1      -0.631  -7.839 -11.145  1.00  0.00     0.049 A 
ATOM     66  H   UNL     1      -0.002  -7.001  -9.315  1.00  0.00     0.167 HD
ATOM     67  C   UNL     1       0.095  -5.543 -11.761  1.00  0.00     0.074 A 
ATOM     68  C   UNL     1       0.325  -4.482 -12.720  1.00  0.00     0.031 C 
ATOM     69  C   UNL     1      -0.398  -6.766 -12.081  1.00  0.00     0.037 A 
BRANCH  56  70
ATOM     70  C   UNL     1      -0.856 -10.663  -7.295  1.00  0.00     0.057 A 
ATOM     71  C   UNL     1      -1.889 -10.908  -6.380  1.00  0.00     0.134 A 
ATOM     72  C   UNL     1      -0.107 -11.764  -7.729  1.00  0.00     0.134 A 
ATOM     73  F   UNL     1      -2.635  -9.896  -5.908  1.00  0.00    -0.206 F 
ATOM     74  C   UNL     1      -2.140 -12.190  -5.887  1.00  0.00     0.040 A 
ATOM     75  C   UNL     1      -0.371 -13.055  -7.271  1.00  0.00     0.040 A 
ATOM     76  F   UNL     1       0.897 -11.604  -8.604  1.00  0.00    -0.206 F 
ATOM     77  C   UNL     1      -1.383 -13.269  -6.337  1.00  0.00     0.006 A 
ENDBRANCH  56  70
BRANCH  57  78
ATOM     78  C   UNL     1       1.840  -1.454 -10.181  1.00  0.00     0.057 A 
ATOM     79  C   UNL     1       0.953  -0.514 -10.719  1.00  0.00     0.134 A 
ATOM     80  C   UNL     1       3.188  -1.084 -10.086  1.00  0.00     0.134 A 
ATOM     81  F   UNL     1      -0.346  -0.815 -10.859  1.00  0.00    -0.206 F 
ATOM     82  C   UNL     1       1.391   0.737 -11.159  1.00  0.00     0.040 A 
ATOM     83  C   UNL     1       3.634   0.174 -10.495  1.00  0.00     0.040 A 
ATOM     84  F   UNL     1       4.091  -1.937  -9.580  1.00  0.00    -0.206 F 
ATOM     85  C   UNL     1       2.734   1.086 -11.041  1.00  0.00     0.006 A 
ENDBRANCH  57  78
BRANCH  69  86
ATOM     86  C   UNL     1      -0.769  -7.016 -13.515  1.00  0.00     0.057 A 
ATOM     87  C   UNL     1       0.194  -7.162 -14.521  1.00  0.00     0.134 A 
ATOM     88  C   UNL     1      -2.112  -7.196 -13.876  1.00  0.00     0.134 A 
ATOM     89  F   UNL     1       1.496  -6.995 -14.247  1.00  0.00    -0.206 F 
ATOM     90  C   UNL     1      -0.167  -7.460 -15.837  1.00  0.00     0.040 A 
ATOM     91  C   UNL     1      -2.482  -7.527 -15.179  1.00  0.00     0.040 A 
ATOM     92  F   UNL     1      -3.085  -7.084 -12.958  1.00  0.00    -0.206 F 
ATOM     93  C   UNL     1      -1.507  -7.655 -16.166  1.00  0.00     0.006 A 
ENDBRANCH  69  86
ENDBRANCH  43  44
ENDBRANCH  36  38
ENDBRANCH  35  36
ENDBRANCH  34  35
ENDBRANCH  33  34
ENDBRANCH  32  33
ENDBRANCH  31  32
ENDBRANCH   1  31
TORSDOF 20
