REMARK SMILES C#Cc1ccc2c(c1)C=C(C(=O)OCCOCCOCCOC(=O)c1ccc(-c3c4nc(c(-c5c(F)cccc5F)c5ccc([nH]5)c(-c5c(F)cccc5F)c5nc(c(-c6c(F)cccc6F)c6ccc3[nH]6)C=C5)C=C4)cc1)[C@@H](C(F)(F)F)O2
REMARK SMILES IDX 18 1 17 2 16 3 15 4 14 5 13 6 11 7 12 8 10 9 3 10 4 11 8 12
REMARK SMILES IDX 5 13 7 14 6 15 9 16 84 17 79 18 2 19 1 20 80 21 81 22 82 23
REMARK SMILES IDX 83 24 19 25 20 26 21 27 22 28 23 29 24 30 25 31 26 32 78 33
REMARK SMILES IDX 27 34 77 35 28 36 29 37 30 38 71 39 31 40 76 41 70 42 72 43
REMARK SMILES IDX 32 44 75 45 69 46 68 47 33 49 59 50 42 51 58 52 43 53 46 54
REMARK SMILES IDX 57 55 73 56 44 57 45 58 56 60 74 61 47 62 34 63 35 64 40 65
REMARK SMILES IDX 36 66 37 67 39 68 41 69 38 70 60 71 61 72 66 73 62 74 63 75
REMARK SMILES IDX 65 76 67 77 64 78 48 79 49 80 54 81 50 82 51 83 53 84 55 85
REMARK SMILES IDX 52 86
REMARK H PARENT 72 48 46 59
REMARK Flexibility Score: inf
ROOT
ATOM      1  C   UNL     1      -6.885   3.925   2.207  1.00  0.00     0.188 C 
ENDROOT
BRANCH   1   2
ATOM      2  C   UNL     1      -6.387   5.194   1.484  1.00  0.00     0.188 C 
BRANCH   2   3
ATOM      3  O   UNL     1      -7.288   6.263   1.321  1.00  0.00    -0.376 OA
BRANCH   3   4
ATOM      4  C   UNL     1      -8.358   6.181   0.397  1.00  0.00     0.202 C 
BRANCH   4   5
ATOM      5  C   UNL     1      -8.523   5.105  -0.697  1.00  0.00     0.261 C 
BRANCH   5   6
ATOM      6  O   UNL     1      -7.843   3.859  -0.512  1.00  0.00    -0.460 OA
BRANCH   6   7
ATOM      7  C   UNL     1      -6.750   3.663  -1.288  1.00  0.00     0.338 C 
ATOM      8  O   UNL     1      -6.305   4.429  -2.127  1.00  0.00    -0.246 OA
BRANCH   7   9
ATOM      9  C   UNL     1      -6.046   2.440  -0.844  1.00  0.00     0.087 C 
ATOM     10  C   UNL     1      -1.900   0.144  -0.024  1.00  0.00     0.025 A 
ATOM     11  C   UNL     1      -2.598  -1.058   0.096  1.00  0.00     0.021 A 
ATOM     12  C   UNL     1      -2.598   1.340  -0.212  1.00  0.00     0.029 A 
ATOM     13  C   UNL     1      -3.993  -1.062   0.052  1.00  0.00     0.048 A 
ATOM     14  C   UNL     1      -3.995   1.329  -0.312  1.00  0.00     0.018 A 
ATOM     15  C   UNL     1      -4.691   0.129  -0.152  1.00  0.00     0.128 A 
ATOM     16  C   UNL     1      -4.721   2.538  -0.664  1.00  0.00     0.027 C 
ATOM     17  O   UNL     1      -6.051   0.027  -0.194  1.00  0.00    -0.475 OA
ATOM     18  C   UNL     1      -6.836   1.181  -0.602  1.00  0.00     0.316 C 
BRANCH  10  19
ATOM     19  C   UNL     1      -0.467   0.145  -0.002  1.00  0.00    -0.070 C 
ATOM     20  C   UNL     1       0.731   0.138  -0.007  1.00  0.00     0.010 C 
ENDBRANCH  10  19
BRANCH  18  21
ATOM     21  C   UNL     1      -7.674   0.789  -1.825  1.00  0.00     0.430 C 
ATOM     22  F   UNL     1      -8.320  -0.385  -1.626  1.00  0.00    -0.167 F 
ATOM     23  F   UNL     1      -8.624   1.714  -2.098  1.00  0.00    -0.167 F 
ATOM     24  F   UNL     1      -6.912   0.653  -2.934  1.00  0.00    -0.167 F 
ENDBRANCH  18  21
ENDBRANCH   7   9
ENDBRANCH   6   7
ENDBRANCH   5   6
ENDBRANCH   4   5
ENDBRANCH   3   4
ENDBRANCH   2   3
ENDBRANCH   1   2
BRANCH   1  25
ATOM     25  O   UNL     1      -8.268   3.767   2.419  1.00  0.00    -0.376 OA
BRANCH  25  26
ATOM     26  C   UNL     1      -8.934   4.600   3.355  1.00  0.00     0.202 C 
BRANCH  26  27
ATOM     27  C   UNL     1      -8.251   5.419   4.475  1.00  0.00     0.261 C 
BRANCH  27  28
ATOM     28  O   UNL     1      -6.879   5.795   4.308  1.00  0.00    -0.460 OA
BRANCH  28  29
ATOM     29  C   UNL     1      -5.967   5.088   5.025  1.00  0.00     0.338 C 
ATOM     30  O   UNL     1      -6.181   4.157   5.779  1.00  0.00    -0.246 OA
BRANCH  29  31
ATOM     31  C   UNL     1      -4.616   5.492   4.575  1.00  0.00     0.060 A 
ATOM     32  C   UNL     1      -4.168   6.793   4.796  1.00  0.00     0.016 A 
ATOM     33  C   UNL     1      -3.807   4.571   3.889  1.00  0.00     0.016 A 
ATOM     34  C   UNL     1      -2.902   7.168   4.339  1.00  0.00     0.010 A 
ATOM     35  C   UNL     1      -2.549   4.956   3.414  1.00  0.00     0.010 A 
ATOM     36  C   UNL     1      -2.077   6.253   3.655  1.00  0.00    -0.014 A 
BRANCH  36  37
ATOM     37  C   UNL     1      -0.671   6.626   3.350  1.00  0.00     0.031 A 
ATOM     38  C   UNL     1      -0.211   6.965   1.963  1.00  0.00     0.074 A 
ATOM     39  C   UNL     1       0.202   6.680   4.375  1.00  0.00     0.049 A 
ATOM     40  N   UNL     1       0.957   7.412   1.571  1.00  0.00    -0.248 NA
ATOM     41  C   UNL     1      -1.179   6.773   0.875  1.00  0.00     0.031 C 
ATOM     42  C   UNL     1      -0.117   6.343   5.763  1.00  0.00     0.029 A 
ATOM     43  N   UNL     1       1.520   7.054   4.415  1.00  0.00    -0.354 N 
ATOM     44  C   UNL     1       0.860   7.586   0.197  1.00  0.00     0.074 A 
ATOM     45  C   UNL     1      -0.465   7.136  -0.184  1.00  0.00     0.031 C 
ATOM     46  C   UNL     1       0.963   6.568   6.527  1.00  0.00     0.029 A 
ATOM     47  C   UNL     1       2.059   7.024   5.678  1.00  0.00     0.049 A 
ATOM     48  H   UNL     1       2.031   7.319   3.616  1.00  0.00     0.167 HD
ATOM     49  C   UNL     1       1.783   8.091  -0.662  1.00  0.00     0.037 A 
ATOM     50  C   UNL     1       3.298   7.326   6.108  1.00  0.00     0.037 A 
ATOM     51  C   UNL     1       3.114   8.504  -0.284  1.00  0.00     0.049 A 
ATOM     52  C   UNL     1       4.323   7.806   5.117  1.00  0.00     0.074 A 
ATOM     53  C   UNL     1       4.109   9.047  -1.081  1.00  0.00     0.029 A 
ATOM     54  N   UNL     1       3.647   8.399   0.993  1.00  0.00    -0.354 N 
ATOM     55  N   UNL     1       4.192   8.040   3.834  1.00  0.00    -0.248 NA
ATOM     56  C   UNL     1       5.671   8.068   5.640  1.00  0.00     0.031 C 
ATOM     57  C   UNL     1       5.262   9.204  -0.304  1.00  0.00     0.029 A 
ATOM     58  C   UNL     1       4.966   8.832   0.996  1.00  0.00     0.049 A 
ATOM     59  H   UNL     1       3.161   8.067   1.782  1.00  0.00     0.167 HD
ATOM     60  C   UNL     1       5.429   8.507   3.405  1.00  0.00     0.074 A 
ATOM     61  C   UNL     1       6.287   8.548   4.571  1.00  0.00     0.031 C 
ATOM     62  C   UNL     1       5.820   8.867   2.158  1.00  0.00     0.037 A 
BRANCH  49  63
ATOM     63  C   UNL     1       1.389   8.217  -2.108  1.00  0.00     0.057 A 
ATOM     64  C   UNL     1       2.018   7.449  -3.097  1.00  0.00     0.134 A 
ATOM     65  C   UNL     1       0.417   9.135  -2.530  1.00  0.00     0.134 A 
ATOM     66  F   UNL     1       2.973   6.565  -2.770  1.00  0.00    -0.206 F 
ATOM     67  C   UNL     1       1.691   7.584  -4.448  1.00  0.00     0.040 A 
ATOM     68  C   UNL     1       0.059   9.256  -3.875  1.00  0.00     0.040 A 
ATOM     69  F   UNL     1      -0.221   9.908  -1.639  1.00  0.00    -0.206 F 
ATOM     70  C   UNL     1       0.700   8.481  -4.839  1.00  0.00     0.006 A 
ENDBRANCH  49  63
BRANCH  50  71
ATOM     71  C   UNL     1       3.653   7.182   7.543  1.00  0.00     0.057 A 
ATOM     72  C   UNL     1       3.703   5.925   8.157  1.00  0.00     0.134 A 
ATOM     73  C   UNL     1       4.010   8.292   8.319  1.00  0.00     0.134 A 
ATOM     74  F   UNL     1       3.364   4.822   7.474  1.00  0.00    -0.206 F 
ATOM     75  C   UNL     1       4.104   5.775   9.485  1.00  0.00     0.040 A 
ATOM     76  C   UNL     1       4.448   8.152   9.637  1.00  0.00     0.040 A 
ATOM     77  F   UNL     1       3.997   9.522   7.785  1.00  0.00    -0.206 F 
ATOM     78  C   UNL     1       4.495   6.889  10.223  1.00  0.00     0.006 A 
ENDBRANCH  50  71
BRANCH  62  79
ATOM     79  C   UNL     1       7.228   9.375   2.000  1.00  0.00     0.057 A 
ATOM     80  C   UNL     1       7.470  10.716   1.671  1.00  0.00     0.134 A 
ATOM     81  C   UNL     1       8.345   8.546   2.174  1.00  0.00     0.134 A 
ATOM     82  F   UNL     1       6.450  11.566   1.478  1.00  0.00    -0.206 F 
ATOM     83  C   UNL     1       8.767  11.213   1.528  1.00  0.00     0.040 A 
ATOM     84  C   UNL     1       9.647   9.041   2.071  1.00  0.00     0.040 A 
ATOM     85  F   UNL     1       8.190   7.254   2.502  1.00  0.00    -0.206 F 
ATOM     86  C   UNL     1       9.860  10.377   1.742  1.00  0.00     0.006 A 
ENDBRANCH  62  79
ENDBRANCH  36  37
ENDBRANCH  29  31
ENDBRANCH  28  29
ENDBRANCH  27  28
ENDBRANCH  26  27
ENDBRANCH  25  26
ENDBRANCH   1  25
TORSDOF 19
