REMARK SMILES Cc1ccc(S(=O)(=O)n2cc(C(=O)C(=O)N[C@@H](Cc3c[nH]c4ccccc34)C(=O)OCCOCCOCCOC(=O)c3ccc(-c4c5nc(c(-c6c(F)cccc6F)c6ccc([nH]6)c(-c6c(F)cccc6F)c6nc(c(-c7c(F)cccc7F)c7ccc4[nH]7)C=C6)C=C5)cc3)c3ccccc32)cc1
REMARK SMILES IDX 33 1 32 2 31 3 30 4 28 5 29 6 17 7 16 8 14 9 15 10 12 12
REMARK SMILES IDX 13 13 11 14 9 15 10 16 101 17 96 18 100 19 97 20 99 21 98 22
REMARK SMILES IDX 6 23 7 24 8 25 5 26 1 27 2 28 3 29 103 30 4 31 102 32 18 33
REMARK SMILES IDX 19 34 20 35 27 36 21 37 22 38 26 39 23 41 25 42 24 43 34 44
REMARK SMILES IDX 35 45 36 46 37 47 38 48 39 49 40 50 41 51 42 52 43 53 95 54
REMARK SMILES IDX 44 55 94 56 45 57 46 58 47 59 88 60 48 61 93 62 87 63 89 64
REMARK SMILES IDX 49 65 92 66 86 67 85 68 50 70 76 71 59 72 75 73 60 74 63 75
REMARK SMILES IDX 74 76 90 77 61 78 62 79 73 81 91 82 64 83 51 84 52 85 57 86
REMARK SMILES IDX 53 87 54 88 56 89 58 90 55 91 77 92 78 93 83 94 79 95 80 96
REMARK SMILES IDX 82 97 84 98 81 99 65 100 66 101 71 102 67 103 68 104 70 105
REMARK SMILES IDX 72 106 69 107
REMARK H PARENT 16 11 21 40 89 69 63 80
REMARK Flexibility Score: inf
ROOT
ATOM      1  O   UNL     1     -11.977   1.206  -6.159  1.00  0.00    -0.376 OA
ENDROOT
BRANCH   1   2
ATOM      2  C   UNL     1     -12.787   1.955  -5.288  1.00  0.00     0.202 C 
BRANCH   2   3
ATOM      3  C   UNL     1     -12.306   2.344  -3.851  1.00  0.00     0.261 C 
BRANCH   3   4
ATOM      4  O   UNL     1     -11.225   1.500  -2.699  1.00  0.00    -0.462 OA
BRANCH   4   5
ATOM      5  C   UNL     1     -11.155   0.555  -1.577  1.00  0.00     0.329 C 
ATOM      6  O   UNL     1     -11.680  -0.546  -1.756  1.00  0.00    -0.250 OA
BRANCH   5   7
ATOM      7  C   UNL     1     -10.584   0.618   0.021  1.00  0.00     0.197 C 
BRANCH   7   8
ATOM      8  N   UNL     1      -9.635   1.443   0.818  1.00  0.00    -0.335 N 
ATOM      9  C   UNL     1      -8.301   1.634   0.636  1.00  0.00     0.293 C 
ATOM     10  O   UNL     1      -7.665   2.393   1.353  1.00  0.00    -0.265 OA
ATOM     11  H   UNL     1     -10.030   1.918   1.585  1.00  0.00     0.164 HD
BRANCH   9  12
ATOM     12  C   UNL     1      -7.670   0.899  -0.541  1.00  0.00     0.252 C 
ATOM     13  O   UNL     1      -8.385   0.491  -1.451  1.00  0.00    -0.283 OA
BRANCH  12  14
ATOM     14  C   UNL     1      -6.342   0.409  -0.358  1.00  0.00     0.054 A 
ATOM     15  N   UNL     1      -4.442  -0.069   0.637  1.00  0.00    -0.240 N 
ATOM     16  C   UNL     1      -5.173   0.990   0.123  1.00  0.00     0.117 A 
ATOM     17  C   UNL     1      -5.311  -1.192   0.652  1.00  0.00     0.065 A 
ATOM     18  C   UNL     1      -6.135  -0.970  -0.435  1.00  0.00     0.012 A 
ATOM     19  C   UNL     1      -5.145  -2.480   1.181  1.00  0.00     0.028 A 
ATOM     20  C   UNL     1      -6.727  -2.039  -1.119  1.00  0.00     0.011 A 
ATOM     21  C   UNL     1      -5.624  -3.542   0.409  1.00  0.00     0.002 A 
ATOM     22  C   UNL     1      -6.380  -3.330  -0.741  1.00  0.00     0.001 A 
BRANCH  15  23
ATOM     23  S   UNL     1      -2.902  -0.634   0.179  1.00  0.00     0.268 S 
ATOM     24  O   UNL     1      -3.171  -1.243  -1.118  1.00  0.00    -0.201 OA
ATOM     25  O   UNL     1      -2.609  -1.441   1.362  1.00  0.00    -0.201 OA
BRANCH  23  26
ATOM     26  C   UNL     1      -1.337   0.056  -0.060  1.00  0.00     0.088 A 
ATOM     27  C   UNL     1       2.937   0.336  -0.019  1.00  0.00     0.044 C 
ATOM     28  C   UNL     1       1.444   0.308  -0.108  1.00  0.00    -0.051 A 
ATOM     29  C   UNL     1       0.891  -0.949  -0.240  1.00  0.00     0.005 A 
ATOM     30  C   UNL     1       0.599   1.444  -0.024  1.00  0.00     0.005 A 
ATOM     31  C   UNL     1      -0.469  -1.054  -0.254  1.00  0.00     0.022 A 
ATOM     32  C   UNL     1      -0.816   1.329   0.013  1.00  0.00     0.022 A 
ENDBRANCH  23  26
ENDBRANCH  15  23
ENDBRANCH  12  14
ENDBRANCH   9  12
ENDBRANCH   7   8
BRANCH   7  33
ATOM     33  C   UNL     1     -11.791   0.602   0.990  1.00  0.00     0.074 C 
BRANCH  33  34
ATOM     34  C   UNL     1     -12.543   1.846   0.769  1.00  0.00    -0.020 A 
ATOM     35  C   UNL     1     -14.236   1.767   0.187  1.00  0.00     0.087 A 
ATOM     36  C   UNL     1     -11.978   3.717   0.700  1.00  0.00     0.003 A 
ATOM     37  N   UNL     1     -14.744   3.518  -0.344  1.00  0.00    -0.361 N 
ATOM     38  C   UNL     1     -13.338   4.677  -0.034  1.00  0.00     0.046 A 
ATOM     39  C   UNL     1     -10.858   4.495   1.132  1.00  0.00     0.010 A 
ATOM     40  H   UNL     1     -15.617   3.769  -0.723  1.00  0.00     0.166 HD
ATOM     41  C   UNL     1     -13.231   6.081  -0.016  1.00  0.00     0.026 A 
ATOM     42  C   UNL     1     -10.892   5.901   0.956  1.00  0.00     0.001 A 
ATOM     43  C   UNL     1     -12.007   6.636   0.453  1.00  0.00     0.002 A 
ENDBRANCH  33  34
ENDBRANCH   7  33
ENDBRANCH   5   7
ENDBRANCH   4   5
ENDBRANCH   3   4
ENDBRANCH   2   3
ENDBRANCH   1   2
BRANCH   1  44
ATOM     44  C   UNL     1     -10.726   0.928  -5.592  1.00  0.00     0.188 C 
BRANCH  44  45
ATOM     45  C   UNL     1      -9.831   2.134  -5.339  1.00  0.00     0.188 C 
BRANCH  45  46
ATOM     46  O   UNL     1     -10.474   3.313  -4.929  1.00  0.00    -0.376 OA
BRANCH  46  47
ATOM     47  C   UNL     1     -10.705   4.484  -5.668  1.00  0.00     0.202 C 
BRANCH  47  48
ATOM     48  C   UNL     1      -9.415   4.953  -6.251  1.00  0.00     0.261 C 
BRANCH  48  49
ATOM     49  O   UNL     1      -8.311   5.161  -5.311  1.00  0.00    -0.460 OA
BRANCH  49  50
ATOM     50  C   UNL     1      -8.042   4.412  -4.207  1.00  0.00     0.338 C 
ATOM     51  O   UNL     1      -7.019   3.737  -4.126  1.00  0.00    -0.246 OA
BRANCH  50  52
ATOM     52  C   UNL     1      -9.032   4.446  -3.074  1.00  0.00     0.060 A 
ATOM     53  C   UNL     1      -9.038   3.382  -2.233  1.00  0.00     0.016 A 
ATOM     54  C   UNL     1     -10.080   5.340  -2.869  1.00  0.00     0.016 A 
ATOM     55  C   UNL     1     -10.177   3.196  -1.423  1.00  0.00     0.010 A 
ATOM     56  C   UNL     1     -11.335   4.912  -2.244  1.00  0.00     0.010 A 
ATOM     57  C   UNL     1     -11.494   3.680  -1.577  1.00  0.00    -0.014 A 
BRANCH  57  58
ATOM     58  C   UNL     1     -13.018   2.868  -0.854  1.00  0.00     0.031 A 
ATOM     59  C   UNL     1     -13.759   3.265   1.206  1.00  0.00     0.074 A 
ATOM     60  C   UNL     1     -13.759   1.794  -1.903  1.00  0.00     0.049 A 
ATOM     61  N   UNL     1     -14.637   2.532   2.049  1.00  0.00    -0.248 NA
ATOM     62  C   UNL     1     -13.572   4.454   2.393  1.00  0.00     0.031 C 
ATOM     63  C   UNL     1     -15.255   1.651  -2.288  1.00  0.00     0.029 A 
ATOM     64  N   UNL     1     -13.405   0.641  -2.766  1.00  0.00    -0.354 N 
ATOM     65  C   UNL     1     -15.518   3.423   2.567  1.00  0.00     0.074 A 
ATOM     66  C   UNL     1     -14.671   4.396   3.149  1.00  0.00     0.031 C 
ATOM     67  C   UNL     1     -15.543   0.490  -2.938  1.00  0.00     0.029 A 
ATOM     68  C   UNL     1     -14.347  -0.296  -3.132  1.00  0.00     0.049 A 
ATOM     69  H   UNL     1     -12.478   0.543  -3.083  1.00  0.00     0.167 HD
ATOM     70  C   UNL     1     -16.788   3.448   2.065  1.00  0.00     0.037 A 
ATOM     71  C   UNL     1     -14.180  -1.667  -3.224  1.00  0.00     0.037 A 
ATOM     72  C   UNL     1     -17.165   2.312   1.179  1.00  0.00     0.049 A 
ATOM     73  C   UNL     1     -15.049  -2.199  -2.114  1.00  0.00     0.074 A 
ATOM     74  C   UNL     1     -17.732   2.244  -0.088  1.00  0.00     0.029 A 
ATOM     75  N   UNL     1     -16.822   0.990   1.494  1.00  0.00    -0.354 N 
ATOM     76  N   UNL     1     -15.411  -1.417  -1.131  1.00  0.00    -0.248 NA
ATOM     77  C   UNL     1     -15.654  -3.526  -2.035  1.00  0.00     0.031 C 
ATOM     78  C   UNL     1     -17.754   0.883  -0.509  1.00  0.00     0.029 A 
ATOM     79  C   UNL     1     -17.171   0.100   0.475  1.00  0.00     0.049 A 
ATOM     80  H   UNL     1     -16.387   0.720   2.334  1.00  0.00     0.167 HD
ATOM     81  C   UNL     1     -16.369  -2.024  -0.395  1.00  0.00     0.074 A 
ATOM     82  C   UNL     1     -16.465  -3.360  -0.972  1.00  0.00     0.031 C 
ATOM     83  C   UNL     1     -17.009  -1.360   0.611  1.00  0.00     0.037 A 
BRANCH  70  84
ATOM     84  C   UNL     1     -17.667   4.662   2.219  1.00  0.00     0.057 A 
ATOM     85  C   UNL     1     -19.052   4.521   2.053  1.00  0.00     0.134 A 
ATOM     86  C   UNL     1     -17.238   5.971   2.521  1.00  0.00     0.134 A 
ATOM     87  F   UNL     1     -19.595   3.364   1.650  1.00  0.00    -0.206 F 
ATOM     88  C   UNL     1     -19.947   5.561   2.298  1.00  0.00     0.040 A 
ATOM     89  C   UNL     1     -18.125   6.998   2.850  1.00  0.00     0.040 A 
ATOM     90  F   UNL     1     -15.954   6.347   2.456  1.00  0.00    -0.206 F 
ATOM     91  C   UNL     1     -19.489   6.787   2.757  1.00  0.00     0.006 A 
ENDBRANCH  70  84
BRANCH  71  92
ATOM     92  C   UNL     1     -12.882  -2.327  -3.687  1.00  0.00     0.057 A 
ATOM     93  C   UNL     1     -12.509  -2.247  -5.039  1.00  0.00     0.134 A 
ATOM     94  C   UNL     1     -11.848  -2.723  -2.830  1.00  0.00     0.134 A 
ATOM     95  F   UNL     1     -13.449  -2.146  -5.991  1.00  0.00    -0.206 F 
ATOM     96  C   UNL     1     -11.164  -2.219  -5.454  1.00  0.00     0.040 A 
ATOM     97  C   UNL     1     -10.492  -2.554  -3.200  1.00  0.00     0.040 A 
ATOM     98  F   UNL     1     -12.102  -3.055  -1.555  1.00  0.00    -0.206 F 
ATOM     99  C   UNL     1     -10.149  -2.229  -4.505  1.00  0.00     0.006 A 
ENDBRANCH  71  92
BRANCH  83 100
ATOM    100  C   UNL     1     -17.662  -2.078   1.746  1.00  0.00     0.057 A 
ATOM    101  C   UNL     1     -17.375  -3.403   2.104  1.00  0.00     0.134 A 
ATOM    102  C   UNL     1     -18.513  -1.385   2.628  1.00  0.00     0.134 A 
ATOM    103  F   UNL     1     -16.450  -4.135   1.468  1.00  0.00    -0.206 F 
ATOM    104  C   UNL     1     -17.994  -4.030   3.183  1.00  0.00     0.040 A 
ATOM    105  C   UNL     1     -19.041  -1.966   3.773  1.00  0.00     0.040 A 
ATOM    106  F   UNL     1     -18.861  -0.105   2.442  1.00  0.00    -0.206 F 
ATOM    107  C   UNL     1     -18.819  -3.306   4.030  1.00  0.00     0.006 A 
ENDBRANCH  83 100
ENDBRANCH  57  58
ENDBRANCH  50  52
ENDBRANCH  49  50
ENDBRANCH  48  49
ENDBRANCH  47  48
ENDBRANCH  46  47
ENDBRANCH  45  46
ENDBRANCH  44  45
ENDBRANCH   1  44
TORSDOF 24
