REMARK SMILES O=C(OCCOCCOCCOC(=O)c1ccccc1Nc1cccc(S(F)(F)(F)(F)F)c1)c1ccc(-c2c3nc(c(-c4c(F)cccc4F)c4ccc([nH]4)c(-c4c(F)cccc4F)c4nc(c(-c5c(F)cccc5F)c5ccc2[nH]5)C=C4)C=C3)cc1
REMARK SMILES IDX 8 1 7 2 6 3 5 4 4 5 3 6 2 7 1 8 34 9 35 10 87 11 36 12 86 13
REMARK SMILES IDX 37 14 38 15 39 16 80 17 40 18 85 19 79 20 81 21 41 22 84 23
REMARK SMILES IDX 78 24 77 25 42 27 68 28 51 29 67 30 52 31 55 32 66 33 82 34
REMARK SMILES IDX 53 35 54 36 65 38 83 39 56 40 43 41 44 42 49 43 45 44 46 45
REMARK SMILES IDX 48 46 50 47 47 48 69 49 70 50 75 51 71 52 72 53 74 54 76 55
REMARK SMILES IDX 73 56 57 57 58 58 63 59 59 60 60 61 62 62 64 63 61 64 9 65
REMARK SMILES IDX 10 66 11 67 12 68 13 69 14 70 15 71 16 72 20 73 17 74 19 75
REMARK SMILES IDX 18 76 21 77 22 79 23 80 33 81 24 82 26 83 25 84 27 85 28 86
REMARK SMILES IDX 29 87 30 88 31 89 32 90
REMARK H PARENT 81 26 55 37 21 78
REMARK Flexibility Score: inf
ROOT
ATOM      1  C   UNL     1       2.543  -1.921  -1.486  1.00  0.00     0.188 C 
ENDROOT
BRANCH   1   2
ATOM      2  C   UNL     1       3.050  -0.490  -1.399  1.00  0.00     0.188 C 
BRANCH   2   3
ATOM      3  O   UNL     1       4.470  -0.490  -1.399  1.00  0.00    -0.376 OA
BRANCH   3   4
ATOM      4  C   UNL     1       4.943  -1.229  -0.283  1.00  0.00     0.202 C 
BRANCH   4   5
ATOM      5  C   UNL     1       4.436  -0.589   0.999  1.00  0.00     0.261 C 
BRANCH   5   6
ATOM      6  O   UNL     1       3.017  -0.589   0.999  1.00  0.00    -0.460 OA
BRANCH   6   7
ATOM      7  C   UNL     1       2.307   0.090  -0.026  1.00  0.00     0.338 C 
ATOM      8  O   UNL     1       1.036   0.090  -0.026  1.00  0.00    -0.246 OA
BRANCH   7   9
ATOM      9  C   UNL     1       3.067   0.816  -1.124  1.00  0.00     0.060 A 
ATOM     10  C   UNL     1       4.082   0.205  -1.842  1.00  0.00     0.016 A 
ATOM     11  C   UNL     1       2.635   2.031  -1.439  1.00  0.00     0.016 A 
ATOM     12  C   UNL     1       4.782   1.082  -2.704  1.00  0.00     0.010 A 
ATOM     13  C   UNL     1       3.287   2.781  -2.389  1.00  0.00     0.010 A 
ATOM     14  C   UNL     1       4.336   2.262  -3.096  1.00  0.00    -0.014 A 
BRANCH  14  15
ATOM     15  C   UNL     1       4.955   3.003  -4.269  1.00  0.00     0.031 A 
ATOM     16  C   UNL     1       5.489   4.257  -3.966  1.00  0.00     0.074 A 
ATOM     17  C   UNL     1       4.850   2.497  -5.554  1.00  0.00     0.049 A 
ATOM     18  N   UNL     1       6.005   5.148  -4.813  1.00  0.00    -0.248 NA
ATOM     19  C   UNL     1       5.571   4.810  -2.606  1.00  0.00     0.031 C 
ATOM     20  C   UNL     1       4.321   1.230  -5.867  1.00  0.00     0.029 A 
ATOM     21  N   UNL     1       5.222   3.102  -6.734  1.00  0.00    -0.354 N 
ATOM     22  C   UNL     1       6.432   6.223  -4.148  1.00  0.00     0.074 A 
ATOM     23  C   UNL     1       6.153   6.024  -2.719  1.00  0.00     0.031 C 
ATOM     24  C   UNL     1       4.363   1.078  -7.217  1.00  0.00     0.029 A 
ATOM     25  C   UNL     1       4.920   2.247  -7.770  1.00  0.00     0.049 A 
ATOM     26  H   UNL     1       5.634   3.992  -6.821  1.00  0.00     0.167 HD
ATOM     27  C   UNL     1       7.045   7.361  -4.676  1.00  0.00     0.037 A 
ATOM     28  C   UNL     1       5.109   2.457  -9.127  1.00  0.00     0.037 A 
ATOM     29  C   UNL     1       7.274   7.552  -6.029  1.00  0.00     0.049 A 
ATOM     30  C   UNL     1       5.669   3.620  -9.660  1.00  0.00     0.074 A 
ATOM     31  C   UNL     1       7.897   8.689  -6.577  1.00  0.00     0.029 A 
ATOM     32  N   UNL     1       6.949   6.707  -7.067  1.00  0.00    -0.354 N 
ATOM     33  N   UNL     1       6.132   4.677  -8.992  1.00  0.00    -0.248 NA
ATOM     34  C   UNL     1       5.844   3.867 -11.098  1.00  0.00     0.031 C 
ATOM     35  C   UNL     1       7.939   8.537  -7.928  1.00  0.00     0.029 A 
ATOM     36  C   UNL     1       7.342   7.302  -8.246  1.00  0.00     0.049 A 
ATOM     37  H   UNL     1       6.511   5.830  -6.982  1.00  0.00     0.167 HD
ATOM     38  C   UNL     1       6.610   5.586  -9.843  1.00  0.00     0.074 A 
ATOM     39  C   UNL     1       6.425   5.081 -11.211  1.00  0.00     0.031 C 
ATOM     40  C   UNL     1       7.196   6.815  -9.535  1.00  0.00     0.037 A 
BRANCH  27  41
ATOM     41  C   UNL     1       7.486   8.450  -3.712  1.00  0.00     0.057 A 
ATOM     42  C   UNL     1       8.272   8.138  -2.616  1.00  0.00     0.134 A 
ATOM     43  C   UNL     1       6.959   9.660  -3.860  1.00  0.00     0.134 A 
ATOM     44  F   UNL     1       9.020   7.040  -2.548  1.00  0.00    -0.206 F 
ATOM     45  C   UNL     1       8.208   9.093  -1.574  1.00  0.00     0.040 A 
ATOM     46  C   UNL     1       7.051  10.591  -2.854  1.00  0.00     0.040 A 
ATOM     47  F   UNL     1       6.337   9.974  -4.993  1.00  0.00    -0.206 F 
ATOM     48  C   UNL     1       7.763  10.328  -1.716  1.00  0.00     0.006 A 
ENDBRANCH  27  41
BRANCH  28  49
ATOM     49  C   UNL     1       4.683   1.359 -10.088  1.00  0.00     0.057 A 
ATOM     50  C   UNL     1       5.571   0.625 -10.857  1.00  0.00     0.134 A 
ATOM     51  C   UNL     1       3.392   1.049 -10.041  1.00  0.00     0.134 A 
ATOM     52  F   UNL     1       6.891   0.734 -10.742  1.00  0.00    -0.206 F 
ATOM     53  C   UNL     1       4.946  -0.252 -11.775  1.00  0.00     0.040 A 
ATOM     54  C   UNL     1       2.874   0.086 -10.872  1.00  0.00     0.040 A 
ATOM     55  F   UNL     1       2.595   1.676  -9.181  1.00  0.00    -0.206 F 
ATOM     56  C   UNL     1       3.685  -0.639 -11.701  1.00  0.00     0.006 A 
ENDBRANCH  28  49
BRANCH  40  57
ATOM     57  C   UNL     1       7.707   7.670 -10.683  1.00  0.00     0.057 A 
ATOM     58  C   UNL     1       6.865   8.255 -11.615  1.00  0.00     0.134 A 
ATOM     59  C   UNL     1       9.004   7.950 -10.656  1.00  0.00     0.134 A 
ATOM     60  F   UNL     1       5.539   8.206 -11.527  1.00  0.00    -0.206 F 
ATOM     61  C   UNL     1       7.544   8.909 -12.671  1.00  0.00     0.040 A 
ATOM     62  C   UNL     1       9.577   8.709 -11.648  1.00  0.00     0.040 A 
ATOM     63  F   UNL     1       9.756   7.492  -9.659  1.00  0.00    -0.206 F 
ATOM     64  C   UNL     1       8.814   9.270 -12.634  1.00  0.00     0.006 A 
ENDBRANCH  40  57
ENDBRANCH  14  15
ENDBRANCH   7   9
ENDBRANCH   6   7
ENDBRANCH   5   6
ENDBRANCH   4   5
ENDBRANCH   3   4
ENDBRANCH   2   3
ENDBRANCH   1   2
BRANCH   1  65
ATOM     65  O   UNL     1       3.017  -2.659  -0.370  1.00  0.00    -0.376 OA
BRANCH  65  66
ATOM     66  C   UNL     1       4.436  -2.659  -0.370  1.00  0.00     0.202 C 
BRANCH  66  67
ATOM     67  C   UNL     1       4.943  -3.299  -1.652  1.00  0.00     0.261 C 
BRANCH  67  68
ATOM     68  O   UNL     1       4.470  -2.560  -2.769  1.00  0.00    -0.460 OA
BRANCH  68  69
ATOM     69  C   UNL     1       3.074  -2.417  -2.985  1.00  0.00     0.340 C 
ATOM     70  O   UNL     1       2.248  -2.950  -2.179  1.00  0.00    -0.246 OA
BRANCH  69  71
ATOM     71  C   UNL     1       2.567  -1.627  -4.181  1.00  0.00     0.083 A 
ATOM     72  C   UNL     1       1.641  -0.637  -3.894  1.00  0.00     0.018 A 
ATOM     73  C   UNL     1       3.071  -1.766  -5.401  1.00  0.00     0.053 A 
ATOM     74  C   UNL     1       1.089  -0.020  -5.040  1.00  0.00     0.001 A 
ATOM     75  C   UNL     1       2.575  -1.031  -6.451  1.00  0.00     0.027 A 
ATOM     76  C   UNL     1       1.616  -0.076  -6.250  1.00  0.00     0.002 A 
BRANCH  73  77
ATOM     77  N   UNL     1       4.170  -2.714  -5.632  1.00  0.00    -0.355 N 
ATOM     78  H   UNL     1       4.529  -3.243  -4.883  1.00  0.00     0.167 HD
BRANCH  77  79
ATOM     79  C   UNL     1       4.733  -2.873  -6.980  1.00  0.00     0.040 A 
ATOM     80  C   UNL     1       4.670  -4.111  -7.598  1.00  0.00     0.026 A 
ATOM     81  C   UNL     1       5.277  -1.826  -7.590  1.00  0.00     0.050 A 
ATOM     82  C   UNL     1       5.474  -4.214  -8.758  1.00  0.00     0.004 A 
ATOM     83  C   UNL     1       5.931  -1.976  -8.789  1.00  0.00     0.109 A 
ATOM     84  C   UNL     1       5.959  -3.184  -9.428  1.00  0.00     0.024 A 
BRANCH  83  85
ATOM     85  S   UNL     1       6.766  -0.553  -9.533  1.00  0.00     0.310 S 
ATOM     86  F   UNL     1       7.895  -0.420  -8.427  1.00  0.00    -0.094 F 
ATOM     87  F   UNL     1       5.847   0.324  -8.602  1.00  0.00    -0.094 F 
ATOM     88  F   UNL     1       7.355   0.722 -10.200  1.00  0.00    -0.094 F 
ATOM     89  F   UNL     1       7.779  -1.442 -10.357  1.00  0.00    -0.094 F 
ATOM     90  F   UNL     1       6.259  -1.850  -8.785  1.00  0.00    -0.094 F 
ENDBRANCH  83  85
ENDBRANCH  77  79
ENDBRANCH  73  77
ENDBRANCH  69  71
ENDBRANCH  68  69
ENDBRANCH  67  68
ENDBRANCH  66  67
ENDBRANCH  65  66
ENDBRANCH   1  65
TORSDOF 20
