REMARK SMILES CNC(=O)NC1=[NH+]N=CN[C@@H]1C(=O)OCCOCCOCCOC(=O)c1ccc(-c2c3nc(c(-c4c(F)cccc4F)c4ccc([nH]4)c(-c4c(F)cccc4F)c4nc(c(-c5c(F)cccc5F)c5ccc2[nH]5)C=C4)C=C3)cc1
REMARK SMILES IDX 19 1 18 2 17 3 16 4 15 5 14 6 12 7 13 8 11 9 1 10 2 11 3 12
REMARK SMILES IDX 4 14 5 15 6 16 7 18 8 19 10 21 9 22 20 24 21 25 22 26 23 27
REMARK SMILES IDX 24 28 25 29 26 30 27 31 79 32 28 33 78 34 29 35 30 36 31 37
REMARK SMILES IDX 72 38 32 39 77 40 71 41 73 42 33 43 76 44 70 45 69 46 34 48
REMARK SMILES IDX 60 49 43 50 59 51 44 52 47 53 58 54 74 55 45 56 46 57 57 59
REMARK SMILES IDX 75 60 48 61 35 62 36 63 41 64 37 65 38 66 40 67 42 68 39 69
REMARK SMILES IDX 61 70 62 71 67 72 63 73 64 74 66 75 68 76 65 77 49 78 50 79
REMARK SMILES IDX 55 80 51 81 52 82 54 83 56 84 53 85
REMARK H PARENT 2 13 5 17 7 20 10 23 73 47 47 58
REMARK Flexibility Score: inf
ROOT
ATOM      1  C   UNL     1      -1.997   1.124  -3.006  1.00  0.00     0.188 C 
ENDROOT
BRANCH   1   2
ATOM      2  C   UNL     1      -2.766   0.030  -2.259  1.00  0.00     0.188 C 
BRANCH   2   3
ATOM      3  O   UNL     1      -4.174   0.023  -2.317  1.00  0.00    -0.376 OA
BRANCH   3   4
ATOM      4  C   UNL     1      -4.899   1.063  -1.670  1.00  0.00     0.202 C 
BRANCH   4   5
ATOM      5  C   UNL     1      -4.351   1.790  -0.428  1.00  0.00     0.261 C 
BRANCH   5   6
ATOM      6  O   UNL     1      -2.987   2.231  -0.552  1.00  0.00    -0.461 OA
BRANCH   6   7
ATOM      7  C   UNL     1      -2.188   1.995   0.531  1.00  0.00     0.341 C 
ATOM      8  O   UNL     1      -2.614   1.556   1.594  1.00  0.00    -0.249 OA
BRANCH   7   9
ATOM      9  C   UNL     1      -0.692   2.135   0.213  1.00  0.00     0.308 C 
ATOM     10  C   UNL     1       1.653  -0.302   0.413  1.00  0.00     0.147 C 
ATOM     11  N   UNL     1       0.565  -0.620   1.314  1.00  0.00    -0.321 N 
ATOM     12  C   UNL     1       0.112   0.102   2.371  1.00  0.00     0.406 C 
ATOM     13  H   UNL     1       0.095  -1.466   1.138  1.00  0.00     0.167 HD
ATOM     14  O   UNL     1      -0.476  -0.472   3.283  1.00  0.00    -0.221 OA
ATOM     15  N   UNL     1       0.354   1.444   2.405  1.00  0.00    -0.191 N 
ATOM     16  C   UNL     1       0.080   2.437   1.493  1.00  0.00     0.311 C 
ATOM     17  H   UNL     1       0.803   1.756   3.224  1.00  0.00     0.317 HD
ATOM     18  N   UNL     1       0.497   3.623   1.820  1.00  0.00    -0.148 N 
ATOM     19  N   UNL     1       0.365   4.676   0.893  1.00  0.00    -0.077 NA
ATOM     20  H   UNL     1       0.901   3.783   2.704  1.00  0.00     0.342 HD
ATOM     21  N   UNL     1      -0.389   3.171  -0.770  1.00  0.00    -0.350 N 
ATOM     22  C   UNL     1       0.006   4.384  -0.313  1.00  0.00     0.241 C 
ATOM     23  H   UNL     1      -0.470   2.993  -1.735  1.00  0.00     0.163 HD
ENDBRANCH   7   9
ENDBRANCH   6   7
ENDBRANCH   5   6
ENDBRANCH   4   5
ENDBRANCH   3   4
ENDBRANCH   2   3
ENDBRANCH   1   2
BRANCH   1  24
ATOM     24  O   UNL     1      -2.558   2.392  -3.240  1.00  0.00    -0.376 OA
BRANCH  24  25
ATOM     25  C   UNL     1      -3.446   2.612  -4.332  1.00  0.00     0.202 C 
BRANCH  25  26
ATOM     26  C   UNL     1      -3.639   1.692  -5.564  1.00  0.00     0.261 C 
BRANCH  26  27
ATOM     27  O   UNL     1      -2.963   0.433  -5.592  1.00  0.00    -0.460 OA
BRANCH  27  28
ATOM     28  C   UNL     1      -1.731   0.442  -6.162  1.00  0.00     0.338 C 
ATOM     29  O   UNL     1      -1.161   1.398  -6.667  1.00  0.00    -0.246 OA
BRANCH  28  30
ATOM     30  C   UNL     1      -1.056  -0.829  -5.816  1.00  0.00     0.060 A 
ATOM     31  C   UNL     1       0.109  -0.774  -5.032  1.00  0.00     0.016 A 
ATOM     32  C   UNL     1      -1.574  -2.056  -6.225  1.00  0.00     0.016 A 
ATOM     33  C   UNL     1       0.769  -1.946  -4.668  1.00  0.00     0.010 A 
ATOM     34  C   UNL     1      -0.888  -3.228  -5.895  1.00  0.00     0.010 A 
ATOM     35  C   UNL     1       0.299  -3.177  -5.139  1.00  0.00    -0.014 A 
BRANCH  35  36
ATOM     36  C   UNL     1       1.157  -4.382  -5.030  1.00  0.00     0.031 A 
ATOM     37  C   UNL     1       1.987  -4.768  -6.224  1.00  0.00     0.074 A 
ATOM     38  C   UNL     1       1.210  -5.116  -3.905  1.00  0.00     0.049 A 
ATOM     39  N   UNL     1       2.729  -5.827  -6.414  1.00  0.00    -0.248 NA
ATOM     40  C   UNL     1       1.971  -3.830  -7.359  1.00  0.00     0.031 C 
ATOM     41  C   UNL     1       0.501  -4.821  -2.662  1.00  0.00     0.029 A 
ATOM     42  N   UNL     1       1.887  -6.281  -3.639  1.00  0.00    -0.354 N 
ATOM     43  C   UNL     1       3.252  -5.693  -7.694  1.00  0.00     0.074 A 
ATOM     44  C   UNL     1       2.728  -4.462  -8.242  1.00  0.00     0.031 C 
ATOM     45  C   UNL     1       0.760  -5.796  -1.772  1.00  0.00     0.029 A 
ATOM     46  C   UNL     1       1.619  -6.802  -2.396  1.00  0.00     0.049 A 
ATOM     47  H   UNL     1       2.506  -6.704  -4.278  1.00  0.00     0.167 HD
ATOM     48  C   UNL     1       4.097  -6.521  -8.352  1.00  0.00     0.037 A 
ATOM     49  C   UNL     1       1.996  -7.973  -1.844  1.00  0.00     0.037 A 
ATOM     50  C   UNL     1       4.618  -7.745  -7.806  1.00  0.00     0.049 A 
ATOM     51  C   UNL     1       2.869  -8.919  -2.631  1.00  0.00     0.074 A 
ATOM     52  C   UNL     1       5.494  -8.643  -8.392  1.00  0.00     0.029 A 
ATOM     53  N   UNL     1       4.305  -8.249  -6.554  1.00  0.00    -0.354 N 
ATOM     54  N   UNL     1       3.375  -8.777  -3.833  1.00  0.00    -0.248 NA
ATOM     55  C   UNL     1       3.222 -10.192  -1.983  1.00  0.00     0.031 C 
ATOM     56  C   UNL     1       5.664  -9.720  -7.517  1.00  0.00     0.029 A 
ATOM     57  C   UNL     1       4.949  -9.459  -6.359  1.00  0.00     0.049 A 
ATOM     58  H   UNL     1       3.713  -7.811  -5.900  1.00  0.00     0.167 HD
ATOM     59  C   UNL     1       4.135  -9.919  -4.066  1.00  0.00     0.074 A 
ATOM     60  C   UNL     1       4.032 -10.739  -2.878  1.00  0.00     0.031 C 
ATOM     61  C   UNL     1       4.855 -10.258  -5.164  1.00  0.00     0.037 A 
BRANCH  48  62
ATOM     62  C   UNL     1       4.486  -6.147  -9.752  1.00  0.00     0.057 A 
ATOM     63  C   UNL     1       5.343  -5.073 -10.024  1.00  0.00     0.134 A 
ATOM     64  C   UNL     1       4.033  -6.904 -10.840  1.00  0.00     0.134 A 
ATOM     65  F   UNL     1       5.798  -4.297  -9.029  1.00  0.00    -0.206 F 
ATOM     66  C   UNL     1       5.723  -4.757 -11.329  1.00  0.00     0.040 A 
ATOM     67  C   UNL     1       4.429  -6.616 -12.146  1.00  0.00     0.040 A 
ATOM     68  F   UNL     1       3.210  -7.947 -10.649  1.00  0.00    -0.206 F 
ATOM     69  C   UNL     1       5.274  -5.536 -12.394  1.00  0.00     0.006 A 
ENDBRANCH  48  62
BRANCH  49  70
ATOM     70  C   UNL     1       1.529  -8.347  -0.482  1.00  0.00     0.057 A 
ATOM     71  C   UNL     1       2.428  -8.479   0.583  1.00  0.00     0.134 A 
ATOM     72  C   UNL     1       0.183  -8.637  -0.227  1.00  0.00     0.134 A 
ATOM     73  F   UNL     1       3.735  -8.242   0.396  1.00  0.00    -0.206 F 
ATOM     74  C   UNL     1       2.012  -8.911   1.844  1.00  0.00     0.040 A 
ATOM     75  C   UNL     1      -0.253  -9.040   1.037  1.00  0.00     0.040 A 
ATOM     76  F   UNL     1      -0.730  -8.532  -1.203  1.00  0.00    -0.206 F 
ATOM     77  C   UNL     1       0.666  -9.189   2.074  1.00  0.00     0.006 A 
ENDBRANCH  49  70
BRANCH  61  78
ATOM     78  C   UNL     1       5.638 -11.540  -5.117  1.00  0.00     0.057 A 
ATOM     79  C   UNL     1       5.019 -12.796  -5.146  1.00  0.00     0.134 A 
ATOM     80  C   UNL     1       7.040 -11.513  -5.090  1.00  0.00     0.134 A 
ATOM     81  F   UNL     1       3.681 -12.894  -5.163  1.00  0.00    -0.206 F 
ATOM     82  C   UNL     1       5.763 -13.977  -5.125  1.00  0.00     0.040 A 
ATOM     83  C   UNL     1       7.795 -12.687  -5.101  1.00  0.00     0.040 A 
ATOM     84  F   UNL     1       7.699 -10.345  -5.074  1.00  0.00    -0.206 F 
ATOM     85  C   UNL     1       7.156 -13.924  -5.111  1.00  0.00     0.006 A 
ENDBRANCH  61  78
ENDBRANCH  35  36
ENDBRANCH  28  30
ENDBRANCH  27  28
ENDBRANCH  26  27
ENDBRANCH  25  26
ENDBRANCH  24  25
ENDBRANCH   1  24
TORSDOF 17
