REMARK SMILES O=C(/C=C/c1ccc(S(=O)(=O)Nc2ccc3c(c2)OCCO3)cc1)OCCOCCOCCOC(=O)c1ccc(-c2c3nc(c(-c4c(F)cccc4F)c4ccc([nH]4)c(-c4c(F)cccc4F)c4nc(c(-c5c(F)cccc5F)c5ccc2[nH]5)C=C4)C=C3)cc1
REMARK SMILES IDX 29 1 28 2 27 3 26 4 25 5 2 6 1 7 3 8 4 9 5 10 6 11 24 12
REMARK SMILES IDX 7 13 23 14 8 15 9 16 10 17 11 18 12 19 13 21 14 22 18 23
REMARK SMILES IDX 15 24 17 25 16 26 19 27 22 28 20 29 21 30 30 31 31 32 32 33
REMARK SMILES IDX 33 34 34 35 35 36 36 37 37 38 38 39 90 40 39 41 89 42 40 43
REMARK SMILES IDX 41 44 42 45 83 46 43 47 88 48 82 49 84 50 44 51 87 52 81 53
REMARK SMILES IDX 80 54 45 56 71 57 54 58 70 59 55 60 58 61 69 62 85 63 56 64
REMARK SMILES IDX 57 65 68 67 86 68 59 69 46 70 47 71 52 72 48 73 49 74 51 75
REMARK SMILES IDX 53 76 50 77 72 78 73 79 78 80 74 81 75 82 77 83 79 84 76 85
REMARK SMILES IDX 60 86 61 87 66 88 62 89 63 90 65 91 67 92 64 93
REMARK H PARENT 12 20 84 55 58 66
REMARK Flexibility Score: inf
ROOT
ATOM      1  C   UNL     1       2.529   1.453  -0.444  1.00  0.00     0.188 C 
ENDROOT
BRANCH   1   2
ATOM      2  O   UNL     1       3.866   1.360   0.025  1.00  0.00    -0.376 OA
BRANCH   2   3
ATOM      3  C   UNL     1       4.787   0.559  -0.720  1.00  0.00     0.202 C 
BRANCH   3   4
ATOM      4  C   UNL     1       4.296  -0.724  -1.409  1.00  0.00     0.261 C 
BRANCH   4   5
ATOM      5  O   UNL     1       3.770  -1.822  -0.623  1.00  0.00    -0.460 OA
BRANCH   5   6
ATOM      6  C   UNL     1       2.833  -1.668   0.338  1.00  0.00     0.330 C 
ATOM      7  O   UNL     1       1.713  -2.156   0.274  1.00  0.00    -0.247 OA
BRANCH   6   8
ATOM      8  C   UNL     1       3.308  -1.056   1.589  1.00  0.00     0.094 C 
ATOM      9  C   UNL     1       4.598  -1.113   1.938  1.00  0.00     0.015 C 
BRANCH   9  10
ATOM     10  C   UNL     1       5.197  -0.541   3.144  1.00  0.00    -0.025 A 
ATOM     11  C   UNL     1       6.576  -0.299   3.117  1.00  0.00     0.009 A 
ATOM     12  C   UNL     1       4.494  -0.375   4.343  1.00  0.00     0.009 A 
ATOM     13  C   UNL     1       7.270  -0.053   4.297  1.00  0.00     0.023 A 
ATOM     14  C   UNL     1       5.180  -0.078   5.524  1.00  0.00     0.023 A 
ATOM     15  C   UNL     1       6.575  -0.021   5.507  1.00  0.00     0.087 A 
BRANCH  15  16
ATOM     16  S   UNL     1       7.521  -0.198   7.013  1.00  0.00     0.261 S 
ATOM     17  O   UNL     1       8.812  -0.741   6.648  1.00  0.00    -0.201 OA
ATOM     18  O   UNL     1       7.405   1.050   7.736  1.00  0.00    -0.201 OA
BRANCH  16  19
ATOM     19  N   UNL     1       6.729  -1.378   7.950  1.00  0.00    -0.279 N 
ATOM     20  H   UNL     1       6.741  -1.319   8.933  1.00  0.00     0.180 HD
BRANCH  19  21
ATOM     21  C   UNL     1       6.048  -2.455   7.303  1.00  0.00     0.053 A 
ATOM     22  C   UNL     1       4.689  -2.620   7.598  1.00  0.00     0.031 A 
ATOM     23  C   UNL     1       6.641  -3.210   6.292  1.00  0.00     0.077 A 
ATOM     24  C   UNL     1       3.887  -3.426   6.793  1.00  0.00     0.052 A 
ATOM     25  C   UNL     1       5.830  -3.973   5.452  1.00  0.00     0.163 A 
ATOM     26  C   UNL     1       4.451  -4.044   5.683  1.00  0.00     0.161 A 
ATOM     27  O   UNL     1       6.438  -4.535   4.359  1.00  0.00    -0.486 OA
ATOM     28  O   UNL     1       3.586  -4.643   4.803  1.00  0.00    -0.486 OA
ATOM     29  C   UNL     1       5.524  -5.204   3.479  1.00  0.00     0.271 C 
ATOM     30  C   UNL     1       4.146  -4.564   3.487  1.00  0.00     0.271 C 
ENDBRANCH  19  21
ENDBRANCH  16  19
ENDBRANCH  15  16
ENDBRANCH   9  10
ENDBRANCH   6   8
ENDBRANCH   5   6
ENDBRANCH   4   5
ENDBRANCH   3   4
ENDBRANCH   2   3
ENDBRANCH   1   2
BRANCH   1  31
ATOM     31  C   UNL     1       2.083   2.825  -0.951  1.00  0.00     0.188 C 
BRANCH  31  32
ATOM     32  O   UNL     1       2.881   3.421  -1.961  1.00  0.00    -0.376 OA
BRANCH  32  33
ATOM     33  C   UNL     1       4.144   3.959  -1.571  1.00  0.00     0.202 C 
BRANCH  33  34
ATOM     34  C   UNL     1       4.167   5.032  -0.475  1.00  0.00     0.261 C 
BRANCH  34  35
ATOM     35  O   UNL     1       3.869   4.507   0.836  1.00  0.00    -0.460 OA
BRANCH  35  36
ATOM     36  C   UNL     1       2.854   5.132   1.480  1.00  0.00     0.338 C 
ATOM     37  O   UNL     1       2.179   6.062   1.070  1.00  0.00    -0.246 OA
BRANCH  36  38
ATOM     38  C   UNL     1       2.554   4.480   2.766  1.00  0.00     0.060 A 
ATOM     39  C   UNL     1       1.310   3.858   2.922  1.00  0.00     0.016 A 
ATOM     40  C   UNL     1       3.389   4.684   3.865  1.00  0.00     0.016 A 
ATOM     41  C   UNL     1       0.869   3.491   4.196  1.00  0.00     0.010 A 
ATOM     42  C   UNL     1       2.943   4.321   5.141  1.00  0.00     0.010 A 
ATOM     43  C   UNL     1       1.663   3.766   5.319  1.00  0.00    -0.014 A 
BRANCH  43  44
ATOM     44  C   UNL     1       1.090   3.632   6.683  1.00  0.00     0.031 A 
ATOM     45  C   UNL     1       0.538   4.853   7.372  1.00  0.00     0.074 A 
ATOM     46  C   UNL     1       1.048   2.440   7.304  1.00  0.00     0.049 A 
ATOM     47  N   UNL     1       0.039   4.973   8.577  1.00  0.00    -0.248 NA
ATOM     48  C   UNL     1       0.548   6.106   6.599  1.00  0.00     0.031 C 
ATOM     49  C   UNL     1       1.510   1.173   6.741  1.00  0.00     0.029 A 
ATOM     50  N   UNL     1       0.594   2.108   8.556  1.00  0.00    -0.354 N 
ATOM     51  C   UNL     1      -0.313   6.311   8.711  1.00  0.00     0.074 A 
ATOM     52  C   UNL     1       0.044   6.967   7.471  1.00  0.00     0.031 C 
ATOM     53  C   UNL     1       1.331   0.200   7.653  1.00  0.00     0.029 A 
ATOM     54  C   UNL     1       0.759   0.781   8.866  1.00  0.00     0.049 A 
ATOM     55  H   UNL     1       0.189   2.759   9.172  1.00  0.00     0.167 HD
ATOM     56  C   UNL     1      -0.886   6.938   9.766  1.00  0.00     0.037 A 
ATOM     57  C   UNL     1       0.494   0.118  10.008  1.00  0.00     0.037 A 
ATOM     58  C   UNL     1      -1.249   6.295  11.001  1.00  0.00     0.049 A 
ATOM     59  C   UNL     1      -0.091   0.847  11.185  1.00  0.00     0.074 A 
ATOM     60  C   UNL     1      -1.861   6.846  12.115  1.00  0.00     0.029 A 
ATOM     61  N   UNL     1      -1.028   4.958  11.289  1.00  0.00    -0.354 N 
ATOM     62  N   UNL     1      -0.421   2.110  11.297  1.00  0.00    -0.248 NA
ATOM     63  C   UNL     1      -0.337   0.052  12.398  1.00  0.00     0.031 C 
ATOM     64  C   UNL     1      -1.974   5.851  13.092  1.00  0.00     0.029 A 
ATOM     65  C   UNL     1      -1.471   4.671  12.570  1.00  0.00     0.049 A 
ATOM     66  H   UNL     1      -0.618   4.308  10.674  1.00  0.00     0.167 HD
ATOM     67  C   UNL     1      -0.923   2.258  12.584  1.00  0.00     0.074 A 
ATOM     68  C   UNL     1      -0.866   0.955  13.211  1.00  0.00     0.031 C 
ATOM     69  C   UNL     1      -1.393   3.375  13.190  1.00  0.00     0.037 A 
BRANCH  56  70
ATOM     70  C   UNL     1      -1.139   8.410   9.642  1.00  0.00     0.057 A 
ATOM     71  C   UNL     1      -2.185   8.916   8.861  1.00  0.00     0.134 A 
ATOM     72  C   UNL     1      -0.354   9.330  10.349  1.00  0.00     0.134 A 
ATOM     73  F   UNL     1      -2.966   8.087   8.151  1.00  0.00    -0.206 F 
ATOM     74  C   UNL     1      -2.432  10.287   8.774  1.00  0.00     0.040 A 
ATOM     75  C   UNL     1      -0.604  10.702  10.286  1.00  0.00     0.040 A 
ATOM     76  F   UNL     1       0.660   8.909  11.120  1.00  0.00    -0.206 F 
ATOM     77  C   UNL     1      -1.644  11.184   9.494  1.00  0.00     0.006 A 
ENDBRANCH  56  70
BRANCH  57  78
ATOM     78  C   UNL     1       0.805  -1.325  10.120  1.00  0.00     0.057 A 
ATOM     79  C   UNL     1      -0.204  -2.290  10.059  1.00  0.00     0.134 A 
ATOM     80  C   UNL     1       2.113  -1.764  10.348  1.00  0.00     0.134 A 
ATOM     81  F   UNL     1      -1.480  -1.921   9.876  1.00  0.00    -0.206 F 
ATOM     82  C   UNL     1       0.076  -3.647  10.229  1.00  0.00     0.040 A 
ATOM     83  C   UNL     1       2.409  -3.117  10.512  1.00  0.00     0.040 A 
ATOM     84  F   UNL     1       3.123  -0.883  10.404  1.00  0.00    -0.206 F 
ATOM     85  C   UNL     1       1.387  -4.063  10.454  1.00  0.00     0.006 A 
ENDBRANCH  57  78
BRANCH  69  86
ATOM     86  C   UNL     1      -1.892   3.234  14.597  1.00  0.00     0.057 A 
ATOM     87  C   UNL     1      -1.013   3.094  15.678  1.00  0.00     0.134 A 
ATOM     88  C   UNL     1      -3.264   3.268  14.876  1.00  0.00     0.134 A 
ATOM     89  F   UNL     1       0.312   3.039  15.474  1.00  0.00    -0.206 F 
ATOM     90  C   UNL     1      -1.483   2.975  16.987  1.00  0.00     0.040 A 
ATOM     91  C   UNL     1      -3.744   3.170  16.183  1.00  0.00     0.040 A 
ATOM     92  F   UNL     1      -4.157   3.404  13.885  1.00  0.00    -0.206 F 
ATOM     93  C   UNL     1      -2.852   3.019  17.242  1.00  0.00     0.006 A 
ENDBRANCH  69  86
ENDBRANCH  43  44
ENDBRANCH  36  38
ENDBRANCH  35  36
ENDBRANCH  34  35
ENDBRANCH  33  34
ENDBRANCH  32  33
ENDBRANCH  31  32
ENDBRANCH   1  31
TORSDOF 21
