REMARK SMILES COC(=O)c1ccc([C@H]([NH3+])CC(=O)OCCOCCOCCOC(=O)c2ccc(-c3c4nc(c(-c5c(F)cccc5F)c5ccc([nH]5)c(-c5c(F)cccc5F)c5nc(c(-c6c(F)cccc6F)c6ccc3[nH]6)C=C5)C=C4)cc2)cc1
REMARK SMILES IDX 18 1 17 2 16 3 15 4 14 5 12 6 13 7 11 8 9 9 8 10 5 11 6 12
REMARK SMILES IDX 81 13 7 14 80 15 3 16 4 17 2 18 1 19 10 20 19 24 20 25 21 26
REMARK SMILES IDX 22 27 23 28 24 29 25 30 26 31 27 32 79 33 28 34 78 35 29 36
REMARK SMILES IDX 30 37 31 38 72 39 32 40 77 41 71 42 73 43 33 44 76 45 70 46
REMARK SMILES IDX 69 47 34 49 60 50 43 51 59 52 44 53 47 54 58 55 74 56 45 57
REMARK SMILES IDX 46 58 57 60 75 61 48 62 35 63 36 64 41 65 37 66 38 67 40 68
REMARK SMILES IDX 42 69 39 70 61 71 62 72 67 73 63 74 64 75 66 76 68 77 65 78
REMARK SMILES IDX 49 79 50 80 55 81 51 82 52 83 54 84 56 85 53 86
REMARK H PARENT 10 21 10 22 10 23 73 48 47 59
REMARK Flexibility Score: inf
ROOT
ATOM      1  C   UNL     1      -1.853   3.782   7.945  1.00  0.00     0.188 C 
ENDROOT
BRANCH   1   2
ATOM      2  O   UNL     1      -1.216   4.928   7.392  1.00  0.00    -0.376 OA
BRANCH   2   3
ATOM      3  C   UNL     1      -0.538   4.747   6.149  1.00  0.00     0.202 C 
BRANCH   3   4
ATOM      4  C   UNL     1       0.649   3.769   6.157  1.00  0.00     0.261 C 
BRANCH   4   5
ATOM      5  O   UNL     1       0.332   2.454   6.669  1.00  0.00    -0.463 OA
BRANCH   5   6
ATOM      6  C   UNL     1       1.060   2.051   7.743  1.00  0.00     0.312 C 
ATOM      7  O   UNL     1       2.000   2.683   8.220  1.00  0.00    -0.252 OA
BRANCH   6   8
ATOM      8  C   UNL     1       0.577   0.780   8.410  1.00  0.00     0.192 C 
BRANCH   8   9
ATOM      9  C   UNL     1      -0.522  -0.099   7.781  1.00  0.00     0.223 C 
BRANCH   9  10
ATOM     10  C   UNL     1      -0.707  -1.417   8.567  1.00  0.00     0.010 A 
ATOM     11  C   UNL     1      -0.963  -3.863  10.005  1.00  0.00     0.060 A 
ATOM     12  C   UNL     1      -1.116  -3.835   8.617  1.00  0.00     0.016 A 
ATOM     13  C   UNL     1      -0.731  -2.664  10.684  1.00  0.00     0.016 A 
ATOM     14  C   UNL     1      -1.005  -2.627   7.913  1.00  0.00     0.011 A 
ATOM     15  C   UNL     1      -0.615  -1.459   9.973  1.00  0.00     0.011 A 
BRANCH  11  16
ATOM     16  C   UNL     1      -1.014  -5.178  10.700  1.00  0.00     0.337 C 
ATOM     17  O   UNL     1      -0.873  -6.246  10.126  1.00  0.00    -0.246 OA
BRANCH  16  18
ATOM     18  O   UNL     1      -1.237  -5.011  12.028  1.00  0.00    -0.465 OA
ATOM     19  C   UNL     1      -1.282  -6.231  12.774  1.00  0.00     0.282 C 
ENDBRANCH  16  18
ENDBRANCH  11  16
ENDBRANCH   9  10
BRANCH   9  20
ATOM     20  N   UNL     1      -0.254  -0.362   6.362  1.00  0.00    -0.351 N 
ATOM     21  H   UNL     1       0.617  -0.883   6.271  1.00  0.00     0.345 HD
ATOM     22  H   UNL     1      -0.175   0.523   5.861  1.00  0.00     0.345 HD
ATOM     23  H   UNL     1      -1.020  -0.908   5.967  1.00  0.00     0.345 HD
ENDBRANCH   9  20
ENDBRANCH   8   9
ENDBRANCH   6   8
ENDBRANCH   5   6
ENDBRANCH   4   5
ENDBRANCH   3   4
ENDBRANCH   2   3
ENDBRANCH   1   2
BRANCH   1  24
ATOM     24  C   UNL     1      -2.897   3.099   7.061  1.00  0.00     0.188 C 
BRANCH  24  25
ATOM     25  O   UNL     1      -2.489   2.811   5.731  1.00  0.00    -0.376 OA
BRANCH  25  26
ATOM     26  C   UNL     1      -3.498   2.269   4.869  1.00  0.00     0.202 C 
BRANCH  26  27
ATOM     27  C   UNL     1      -4.829   3.050   4.770  1.00  0.00     0.261 C 
BRANCH  27  28
ATOM     28  O   UNL     1      -5.568   3.199   6.004  1.00  0.00    -0.460 OA
BRANCH  28  29
ATOM     29  C   UNL     1      -5.821   2.076   6.723  1.00  0.00     0.338 C 
ATOM     30  O   UNL     1      -5.720   0.935   6.336  1.00  0.00    -0.246 OA
BRANCH  29  31
ATOM     31  C   UNL     1      -5.981   2.461   8.158  1.00  0.00     0.060 A 
ATOM     32  C   UNL     1      -5.388   1.635   9.126  1.00  0.00     0.016 A 
ATOM     33  C   UNL     1      -6.637   3.629   8.556  1.00  0.00     0.016 A 
ATOM     34  C   UNL     1      -5.491   1.947  10.486  1.00  0.00     0.010 A 
ATOM     35  C   UNL     1      -6.754   3.933   9.920  1.00  0.00     0.010 A 
ATOM     36  C   UNL     1      -6.214   3.075  10.896  1.00  0.00    -0.014 A 
BRANCH  36  37
ATOM     37  C   UNL     1      -6.587   3.232  12.328  1.00  0.00     0.031 A 
ATOM     38  C   UNL     1      -7.954   2.768  12.762  1.00  0.00     0.074 A 
ATOM     39  C   UNL     1      -5.741   3.738  13.244  1.00  0.00     0.049 A 
ATOM     40  N   UNL     1      -8.521   2.825  13.940  1.00  0.00    -0.248 NA
ATOM     41  C   UNL     1      -8.793   2.155  11.719  1.00  0.00     0.031 C 
ATOM     42  C   UNL     1      -4.376   4.187  12.985  1.00  0.00     0.029 A 
ATOM     43  N   UNL     1      -5.919   3.962  14.590  1.00  0.00    -0.354 N 
ATOM     44  C   UNL     1      -9.782   2.263  13.779  1.00  0.00     0.074 A 
ATOM     45  C   UNL     1      -9.909   1.901  12.384  1.00  0.00     0.031 C 
ATOM     46  C   UNL     1      -3.843   4.646  14.132  1.00  0.00     0.029 A 
ATOM     47  C   UNL     1      -4.838   4.551  15.201  1.00  0.00     0.049 A 
ATOM     48  H   UNL     1      -6.744   3.723  15.071  1.00  0.00     0.167 HD
ATOM     49  C   UNL     1     -10.747   2.057  14.706  1.00  0.00     0.037 A 
ATOM     50  C   UNL     1      -4.678   4.982  16.470  1.00  0.00     0.037 A 
ATOM     51  C   UNL     1     -10.633   2.412  16.096  1.00  0.00     0.049 A 
ATOM     52  C   UNL     1      -5.797   4.815  17.468  1.00  0.00     0.074 A 
ATOM     53  C   UNL     1     -11.555   2.222  17.110  1.00  0.00     0.029 A 
ATOM     54  N   UNL     1      -9.536   3.039  16.664  1.00  0.00    -0.354 N 
ATOM     55  N   UNL     1      -6.973   4.258  17.311  1.00  0.00    -0.248 NA
ATOM     56  C   UNL     1      -5.563   5.337  18.825  1.00  0.00     0.031 C 
ATOM     57  C   UNL     1     -11.038   2.784  18.282  1.00  0.00     0.029 A 
ATOM     58  C   UNL     1      -9.770   3.269  18.010  1.00  0.00     0.049 A 
ATOM     59  H   UNL     1      -8.712   3.284  16.183  1.00  0.00     0.167 HD
ATOM     60  C   UNL     1      -7.602   4.332  18.550  1.00  0.00     0.074 A 
ATOM     61  C   UNL     1      -6.673   4.978  19.453  1.00  0.00     0.031 C 
ATOM     62  C   UNL     1      -8.837   3.902  18.908  1.00  0.00     0.037 A 
BRANCH  49  63
ATOM     63  C   UNL     1     -12.031   1.438  14.237  1.00  0.00     0.057 A 
ATOM     64  C   UNL     1     -12.113   0.092  13.860  1.00  0.00     0.134 A 
ATOM     65  C   UNL     1     -13.209   2.196  14.191  1.00  0.00     0.134 A 
ATOM     66  F   UNL     1     -11.018  -0.684  13.866  1.00  0.00    -0.206 F 
ATOM     67  C   UNL     1     -13.315  -0.474  13.432  1.00  0.00     0.040 A 
ATOM     68  C   UNL     1     -14.422   1.634  13.791  1.00  0.00     0.040 A 
ATOM     69  F   UNL     1     -13.201   3.490  14.542  1.00  0.00    -0.206 F 
ATOM     70  C   UNL     1     -14.476   0.297  13.404  1.00  0.00     0.006 A 
ENDBRANCH  49  63
BRANCH  50  71
ATOM     71  C   UNL     1      -3.410   5.643  16.882  1.00  0.00     0.057 A 
ATOM     72  C   UNL     1      -2.542   5.045  17.803  1.00  0.00     0.134 A 
ATOM     73  C   UNL     1      -3.063   6.912  16.402  1.00  0.00     0.134 A 
ATOM     74  F   UNL     1      -2.834   3.845  18.326  1.00  0.00    -0.206 F 
ATOM     75  C   UNL     1      -1.386   5.691  18.247  1.00  0.00     0.040 A 
ATOM     76  C   UNL     1      -1.896   7.558  16.815  1.00  0.00     0.040 A 
ATOM     77  F   UNL     1      -3.855   7.544  15.523  1.00  0.00    -0.206 F 
ATOM     78  C   UNL     1      -1.058   6.950  17.748  1.00  0.00     0.006 A 
ENDBRANCH  50  71
BRANCH  62  79
ATOM     79  C   UNL     1      -9.247   4.068  20.345  1.00  0.00     0.057 A 
ATOM     80  C   UNL     1      -9.541   5.322  20.895  1.00  0.00     0.134 A 
ATOM     81  C   UNL     1      -9.395   2.950  21.177  1.00  0.00     0.134 A 
ATOM     82  F   UNL     1      -9.413   6.436  20.158  1.00  0.00    -0.206 F 
ATOM     83  C   UNL     1      -9.942   5.460  22.226  1.00  0.00     0.040 A 
ATOM     84  C   UNL     1      -9.822   3.072  22.500  1.00  0.00     0.040 A 
ATOM     85  F   UNL     1      -9.142   1.717  20.712  1.00  0.00    -0.206 F 
ATOM     86  C   UNL     1     -10.090   4.332  23.030  1.00  0.00     0.006 A 
ENDBRANCH  62  79
ENDBRANCH  36  37
ENDBRANCH  29  31
ENDBRANCH  28  29
ENDBRANCH  27  28
ENDBRANCH  26  27
ENDBRANCH  25  26
ENDBRANCH  24  25
ENDBRANCH   1  24
TORSDOF 22
