REMARK SMILES Cc1cn2c(=O)cc(CSc3ccccc3C(=O)OCCOCCOCCOC(=O)c3ccc(-c4c5nc(c(-c6c(F)cccc6F)c6ccc([nH]6)c(-c6c(F)cccc6F)c6nc(c(-c7c(F)cccc7F)c7ccc4[nH]7)C=C6)C=C5)cc3)nc2s1
REMARK SMILES IDX 23 1 22 2 21 3 20 4 19 5 17 6 18 7 16 8 11 9 12 10 13 11
REMARK SMILES IDX 15 12 14 13 10 14 9 15 8 16 1 17 2 18 3 19 87 20 4 21 86 22
REMARK SMILES IDX 5 23 85 24 6 25 7 26 24 27 25 28 26 29 27 30 28 31 29 32
REMARK SMILES IDX 30 33 31 34 32 35 84 36 33 37 83 38 34 39 35 40 36 41 77 42
REMARK SMILES IDX 37 43 82 44 76 45 78 46 38 47 81 48 75 49 74 50 39 52 65 53
REMARK SMILES IDX 48 54 64 55 49 56 52 57 63 58 79 59 50 60 51 61 62 63 80 64
REMARK SMILES IDX 53 65 40 66 41 67 46 68 42 69 43 70 45 71 47 72 44 73 66 74
REMARK SMILES IDX 67 75 72 76 68 77 69 78 71 79 73 80 70 81 54 82 55 83 60 84
REMARK SMILES IDX 56 85 57 86 59 87 61 88 58 89
REMARK H PARENT 78 51 52 62
REMARK Flexibility Score: inf
ROOT
ATOM      1  C   UNL     1      -2.267 -10.390   0.065  1.00  0.00     0.188 C 
ENDROOT
BRANCH   1   2
ATOM      2  O   UNL     1      -2.638 -11.433  -0.828  1.00  0.00    -0.376 OA
BRANCH   2   3
ATOM      3  C   UNL     1      -3.462 -11.104  -1.948  1.00  0.00     0.202 C 
BRANCH   3   4
ATOM      4  C   UNL     1      -4.722 -10.250  -1.714  1.00  0.00     0.261 C 
BRANCH   4   5
ATOM      5  O   UNL     1      -4.463  -8.976  -1.087  1.00  0.00    -0.460 OA
BRANCH   5   6
ATOM      6  C   UNL     1      -5.353  -8.591  -0.139  1.00  0.00     0.339 C 
ATOM      7  O   UNL     1      -6.388  -9.170   0.154  1.00  0.00    -0.246 OA
BRANCH   6   8
ATOM      8  C   UNL     1      -4.787  -7.517   0.713  1.00  0.00     0.073 A 
ATOM      9  C   UNL     1      -4.430  -6.231   0.273  1.00  0.00     0.022 A 
ATOM     10  C   UNL     1      -4.004  -5.293   1.232  1.00  0.00     0.016 A 
ATOM     11  C   UNL     1      -3.888  -5.630   2.583  1.00  0.00     0.001 A 
ATOM     12  C   UNL     1      -4.664  -7.849   2.078  1.00  0.00     0.017 A 
ATOM     13  C   UNL     1      -4.208  -6.913   3.005  1.00  0.00     0.001 A 
BRANCH   9  14
ATOM     14  S   UNL     1      -4.612  -5.621  -1.395  1.00  0.00    -0.119 SA
BRANCH  14  15
ATOM     15  C   UNL     1      -2.903  -5.739  -2.022  1.00  0.00     0.131 C 
BRANCH  15  16
ATOM     16  C   UNL     1      -1.870  -4.880  -1.315  1.00  0.00     0.059 A 
ATOM     17  C   UNL     1       1.204   0.237   0.217  1.00  0.00     0.058 C 
ATOM     18  C   UNL     1       0.501  -1.030  -0.112  1.00  0.00     0.022 A 
ATOM     19  C   UNL     1       0.930  -2.277   0.121  1.00  0.00     0.111 A 
ATOM     20  S   UNL     1      -1.061  -1.039  -0.904  1.00  0.00    -0.102 S 
ATOM     21  N   UNL     1       0.059  -3.257  -0.301  1.00  0.00    -0.258 N 
ATOM     22  C   UNL     1      -1.085  -2.794  -0.906  1.00  0.00     0.197 A 
ATOM     23  C   UNL     1       0.261  -4.601  -0.136  1.00  0.00     0.258 A 
ATOM     24  N   UNL     1      -2.037  -3.511  -1.402  1.00  0.00    -0.224 NA
ATOM     25  O   UNL     1       1.212  -5.120   0.439  1.00  0.00    -0.269 OA
ATOM     26  C   UNL     1      -0.803  -5.444  -0.719  1.00  0.00     0.097 A 
ENDBRANCH  15  16
ENDBRANCH  14  15
ENDBRANCH   9  14
ENDBRANCH   6   8
ENDBRANCH   5   6
ENDBRANCH   4   5
ENDBRANCH   3   4
ENDBRANCH   2   3
ENDBRANCH   1   2
BRANCH   1  27
ATOM     27  C   UNL     1      -1.678  -9.089  -0.512  1.00  0.00     0.188 C 
BRANCH  27  28
ATOM     28  O   UNL     1      -1.819  -8.947  -1.919  1.00  0.00    -0.376 OA
BRANCH  28  29
ATOM     29  C   UNL     1      -0.656  -8.738  -2.708  1.00  0.00     0.202 C 
BRANCH  29  30
ATOM     30  C   UNL     1       0.228  -9.974  -2.852  1.00  0.00     0.261 C 
BRANCH  30  31
ATOM     31  O   UNL     1       0.693 -10.470  -1.602  1.00  0.00    -0.460 OA
BRANCH  31  32
ATOM     32  C   UNL     1       1.437  -9.603  -0.886  1.00  0.00     0.338 C 
ATOM     33  O   UNL     1       1.752  -8.467  -1.186  1.00  0.00    -0.246 OA
BRANCH  32  34
ATOM     34  C   UNL     1       1.789 -10.238   0.383  1.00  0.00     0.060 A 
ATOM     35  C   UNL     1       2.133  -9.401   1.448  1.00  0.00     0.016 A 
ATOM     36  C   UNL     1       2.034 -11.614   0.392  1.00  0.00     0.016 A 
ATOM     37  C   UNL     1       2.954  -9.910   2.429  1.00  0.00     0.010 A 
ATOM     38  C   UNL     1       2.880 -12.113   1.349  1.00  0.00     0.010 A 
ATOM     39  C   UNL     1       3.411 -11.223   2.285  1.00  0.00    -0.014 A 
BRANCH  39  40
ATOM     40  C   UNL     1       4.669 -11.554   2.921  1.00  0.00     0.031 A 
ATOM     41  C   UNL     1       4.629 -12.274   4.203  1.00  0.00     0.074 A 
ATOM     42  C   UNL     1       5.820 -11.334   2.255  1.00  0.00     0.049 A 
ATOM     43  N   UNL     1       5.117 -11.892   5.336  1.00  0.00    -0.248 NA
ATOM     44  C   UNL     1       3.930 -13.565   4.244  1.00  0.00     0.031 C 
ATOM     45  C   UNL     1       5.987 -10.960   0.845  1.00  0.00     0.029 A 
ATOM     46  N   UNL     1       7.096 -11.518   2.682  1.00  0.00    -0.354 N 
ATOM     47  C   UNL     1       4.933 -12.961   6.203  1.00  0.00     0.074 A 
ATOM     48  C   UNL     1       4.091 -13.910   5.520  1.00  0.00     0.031 C 
ATOM     49  C   UNL     1       7.277 -11.151   0.490  1.00  0.00     0.029 A 
ATOM     50  C   UNL     1       8.033 -11.553   1.664  1.00  0.00     0.049 A 
ATOM     51  H   UNL     1       7.333 -11.618   3.632  1.00  0.00     0.167 HD
ATOM     52  C   UNL     1       5.651 -13.090   7.350  1.00  0.00     0.037 A 
ATOM     53  C   UNL     1       9.315 -11.975   1.772  1.00  0.00     0.037 A 
ATOM     54  C   UNL     1       6.277 -11.858   7.746  1.00  0.00     0.049 A 
ATOM     55  C   UNL     1       9.677 -11.961   3.213  1.00  0.00     0.074 A 
ATOM     56  C   UNL     1       5.816 -10.587   8.034  1.00  0.00     0.029 A 
ATOM     57  N   UNL     1       7.634 -11.729   7.584  1.00  0.00    -0.354 N 
ATOM     58  N   UNL     1       9.853 -10.881   3.923  1.00  0.00    -0.248 NA
ATOM     59  C   UNL     1       9.439 -13.176   3.982  1.00  0.00     0.031 C 
ATOM     60  C   UNL     1       6.829  -9.705   7.557  1.00  0.00     0.029 A 
ATOM     61  C   UNL     1       7.843 -10.496   7.019  1.00  0.00     0.049 A 
ATOM     62  H   UNL     1       8.322 -12.390   7.826  1.00  0.00     0.167 HD
ATOM     63  C   UNL     1       9.353 -11.192   5.180  1.00  0.00     0.074 A 
ATOM     64  C   UNL     1       9.211 -12.644   5.186  1.00  0.00     0.031 C 
ATOM     65  C   UNL     1       8.832 -10.232   6.001  1.00  0.00     0.037 A 
BRANCH  52  66
ATOM     66  C   UNL     1       6.019 -14.416   7.948  1.00  0.00     0.057 A 
ATOM     67  C   UNL     1       6.189 -15.592   7.189  1.00  0.00     0.134 A 
ATOM     68  C   UNL     1       6.470 -14.481   9.275  1.00  0.00     0.134 A 
ATOM     69  F   UNL     1       5.921 -15.636   5.876  1.00  0.00    -0.206 F 
ATOM     70  C   UNL     1       6.739 -16.760   7.720  1.00  0.00     0.040 A 
ATOM     71  C   UNL     1       7.075 -15.628   9.800  1.00  0.00     0.040 A 
ATOM     72  F   UNL     1       6.399 -13.409  10.078  1.00  0.00    -0.206 F 
ATOM     73  C   UNL     1       7.208 -16.773   9.024  1.00  0.00     0.006 A 
ENDBRANCH  52  66
BRANCH  53  74
ATOM     74  C   UNL     1      10.149 -12.622   0.735  1.00  0.00     0.057 A 
ATOM     75  C   UNL     1       9.587 -13.369  -0.318  1.00  0.00     0.134 A 
ATOM     76  C   UNL     1      11.540 -12.711   0.872  1.00  0.00     0.134 A 
ATOM     77  F   UNL     1       8.259 -13.449  -0.486  1.00  0.00    -0.206 F 
ATOM     78  C   UNL     1      10.360 -14.137  -1.194  1.00  0.00     0.040 A 
ATOM     79  C   UNL     1      12.325 -13.492   0.013  1.00  0.00     0.040 A 
ATOM     80  F   UNL     1      12.167 -12.083   1.877  1.00  0.00    -0.206 F 
ATOM     81  C   UNL     1      11.735 -14.208  -1.024  1.00  0.00     0.006 A 
ENDBRANCH  53  74
BRANCH  65  82
ATOM     82  C   UNL     1       9.049  -8.794   5.630  1.00  0.00     0.057 A 
ATOM     83  C   UNL     1       9.667  -7.936   6.546  1.00  0.00     0.134 A 
ATOM     84  C   UNL     1       8.521  -8.211   4.469  1.00  0.00     0.134 A 
ATOM     85  F   UNL     1      10.136  -8.413   7.711  1.00  0.00    -0.206 F 
ATOM     86  C   UNL     1       9.773  -6.563   6.313  1.00  0.00     0.040 A 
ATOM     87  C   UNL     1       8.647  -6.843   4.209  1.00  0.00     0.040 A 
ATOM     88  F   UNL     1       7.814  -8.935   3.591  1.00  0.00    -0.206 F 
ATOM     89  C   UNL     1       9.271  -6.014   5.135  1.00  0.00     0.006 A 
ENDBRANCH  65  82
ENDBRANCH  39  40
ENDBRANCH  32  34
ENDBRANCH  31  32
ENDBRANCH  30  31
ENDBRANCH  29  30
ENDBRANCH  28  29
ENDBRANCH  27  28
ENDBRANCH   1  27
TORSDOF 20
