REMARK SMILES CC[C@](C)([NH3+])C(=O)NC[C@](C)(O)C(=O)OCCOCCOCCOC(=O)c1ccc(-c2c3nc(c(-c4c(F)cccc4F)c4ccc([nH]4)c(-c4c(F)cccc4F)c4nc(c(-c5c(F)cccc5F)c5ccc2[nH]5)C=C4)C=C3)cc1
REMARK SMILES IDX 19 1 18 2 17 3 16 4 15 5 13 6 14 7 10 8 11 9 9 10 8 11 6 12
REMARK SMILES IDX 7 13 3 15 4 16 2 17 1 18 5 19 12 23 20 25 21 26 22 27 23 28
REMARK SMILES IDX 24 29 25 30 26 31 27 32 28 33 80 34 29 35 79 36 30 37 31 38
REMARK SMILES IDX 32 39 73 40 33 41 78 42 72 43 74 44 34 45 77 46 71 47 70 48
REMARK SMILES IDX 35 50 61 51 44 52 60 53 45 54 48 55 59 56 75 57 46 58 47 59
REMARK SMILES IDX 58 61 76 62 49 63 36 64 37 65 42 66 38 67 39 68 41 69 43 70
REMARK SMILES IDX 40 71 62 72 63 73 68 74 64 75 65 76 67 77 69 78 66 79 50 80
REMARK SMILES IDX 51 81 56 82 52 83 53 84 55 85 57 86 54 87
REMARK H PARENT 8 14 5 20 5 21 5 22 12 24 74 49 48 60
REMARK Flexibility Score: inf
ROOT
ATOM      1  C   UNL     1       0.098   4.770  -3.330  1.00  0.00     0.188 C 
ENDROOT
BRANCH   1   2
ATOM      2  O   UNL     1       0.109   5.991  -2.631  1.00  0.00    -0.376 OA
BRANCH   2   3
ATOM      3  C   UNL     1       1.239   6.847  -2.665  1.00  0.00     0.202 C 
BRANCH   3   4
ATOM      4  C   UNL     1       2.651   6.467  -3.145  1.00  0.00     0.261 C 
BRANCH   4   5
ATOM      5  O   UNL     1       2.762   5.541  -4.227  1.00  0.00    -0.461 OA
BRANCH   5   6
ATOM      6  C   UNL     1       3.158   4.286  -3.872  1.00  0.00     0.339 C 
ATOM      7  O   UNL     1       3.356   3.933  -2.713  1.00  0.00    -0.249 OA
BRANCH   6   8
ATOM      8  C   UNL     1       3.300   3.344  -5.091  1.00  0.00     0.176 C 
ATOM      9  C   UNL     1       2.687   1.996  -4.670  1.00  0.00     0.057 C 
BRANCH   8  10
ATOM     10  C   UNL     1       4.775   3.253  -5.495  1.00  0.00     0.163 C 
BRANCH  10  11
ATOM     11  N   UNL     1       5.742   3.747  -4.541  1.00  0.00    -0.347 N 
ATOM     12  C   UNL     1       6.700   3.102  -3.823  1.00  0.00     0.281 C 
ATOM     13  O   UNL     1       7.365   3.806  -3.056  1.00  0.00    -0.268 OA
ATOM     14  H   UNL     1       5.699   4.718  -4.383  1.00  0.00     0.163 HD
BRANCH  12  15
ATOM     15  C   UNL     1       7.005   1.588  -4.033  1.00  0.00     0.170 C 
ATOM     16  C   UNL     1       7.887   1.138  -2.846  1.00  0.00     0.090 C 
BRANCH  15  17
ATOM     17  C   UNL     1       7.782   1.292  -5.348  1.00  0.00     0.075 C 
ATOM     18  C   UNL     1       7.570   2.190  -6.563  1.00  0.00     0.011 C 
ENDBRANCH  15  17
BRANCH  15  19
ATOM     19  N   UNL     1       5.757   0.786  -3.946  1.00  0.00    -0.345 N 
ATOM     20  H   UNL     1       5.274   1.003  -3.075  1.00  0.00     0.345 HD
ATOM     21  H   UNL     1       5.989  -0.207  -3.967  1.00  0.00     0.345 HD
ATOM     22  H   UNL     1       5.153   1.011  -4.736  1.00  0.00     0.345 HD
ENDBRANCH  15  19
ENDBRANCH  12  15
ENDBRANCH  10  11
ENDBRANCH   8  10
BRANCH   8  23
ATOM     23  O   UNL     1       2.620   3.751  -6.286  1.00  0.00    -0.377 OA
ATOM     24  H   UNL     1       1.671   3.832  -6.107  1.00  0.00     0.212 HD
ENDBRANCH   8  23
ENDBRANCH   6   8
ENDBRANCH   5   6
ENDBRANCH   4   5
ENDBRANCH   3   4
ENDBRANCH   2   3
ENDBRANCH   1   2
BRANCH   1  25
ATOM     25  C   UNL     1       0.027   4.809  -4.864  1.00  0.00     0.188 C 
BRANCH  25  26
ATOM     26  O   UNL     1       0.114   6.028  -5.558  1.00  0.00    -0.376 OA
BRANCH  26  27
ATOM     27  C   UNL     1      -0.900   6.996  -5.360  1.00  0.00     0.202 C 
BRANCH  27  28
ATOM     28  C   UNL     1      -2.368   6.636  -5.044  1.00  0.00     0.261 C 
BRANCH  28  29
ATOM     29  O   UNL     1      -2.619   5.420  -4.316  1.00  0.00    -0.460 OA
BRANCH  29  30
ATOM     30  C   UNL     1      -3.120   4.391  -5.043  1.00  0.00     0.338 C 
ATOM     31  O   UNL     1      -3.437   4.410  -6.228  1.00  0.00    -0.246 OA
BRANCH  30  32
ATOM     32  C   UNL     1      -3.021   3.129  -4.274  1.00  0.00     0.060 A 
ATOM     33  C   UNL     1      -2.224   2.090  -4.786  1.00  0.00     0.016 A 
ATOM     34  C   UNL     1      -3.746   2.940  -3.098  1.00  0.00     0.016 A 
ATOM     35  C   UNL     1      -2.193   0.845  -4.158  1.00  0.00     0.010 A 
ATOM     36  C   UNL     1      -3.741   1.679  -2.487  1.00  0.00     0.010 A 
ATOM     37  C   UNL     1      -3.007   0.612  -3.044  1.00  0.00    -0.014 A 
BRANCH  37  38
ATOM     38  C   UNL     1      -3.313  -0.788  -2.650  1.00  0.00     0.031 A 
ATOM     39  C   UNL     1      -4.582  -1.405  -3.182  1.00  0.00     0.074 A 
ATOM     40  C   UNL     1      -2.487  -1.520  -1.882  1.00  0.00     0.049 A 
ATOM     41  N   UNL     1      -5.102  -2.583  -2.948  1.00  0.00    -0.248 NA
ATOM     42  C   UNL     1      -5.372  -0.572  -4.104  1.00  0.00     0.031 C 
ATOM     43  C   UNL     1      -1.203  -1.074  -1.348  1.00  0.00     0.029 A 
ATOM     44  N   UNL     1      -2.621  -2.805  -1.411  1.00  0.00    -0.354 N 
ATOM     45  C   UNL     1      -6.284  -2.623  -3.680  1.00  0.00     0.074 A 
ATOM     46  C   UNL     1      -6.421  -1.344  -4.339  1.00  0.00     0.031 C 
ATOM     47  C   UNL     1      -0.674  -2.064  -0.606  1.00  0.00     0.029 A 
ATOM     48  C   UNL     1      -1.595  -3.201  -0.588  1.00  0.00     0.049 A 
ATOM     49  H   UNL     1      -3.381  -3.386  -1.642  1.00  0.00     0.167 HD
ATOM     50  C   UNL     1      -7.174  -3.636  -3.802  1.00  0.00     0.037 A 
ATOM     51  C   UNL     1      -1.433  -4.340   0.115  1.00  0.00     0.037 A 
ATOM     52  C   UNL     1      -7.043  -4.911  -3.148  1.00  0.00     0.049 A 
ATOM     53  C   UNL     1      -2.478  -5.426   0.029  1.00  0.00     0.074 A 
ATOM     54  C   UNL     1      -7.889  -6.004  -3.216  1.00  0.00     0.029 A 
ATOM     55  N   UNL     1      -6.004  -5.260  -2.300  1.00  0.00    -0.354 N 
ATOM     56  N   UNL     1      -3.582  -5.463  -0.678  1.00  0.00    -0.248 NA
ATOM     57  C   UNL     1      -2.248  -6.634   0.836  1.00  0.00     0.031 C 
ATOM     58  C   UNL     1      -7.391  -6.995  -2.365  1.00  0.00     0.029 A 
ATOM     59  C   UNL     1      -6.199  -6.544  -1.819  1.00  0.00     0.049 A 
ATOM     60  H   UNL     1      -5.241  -4.681  -2.072  1.00  0.00     0.167 HD
ATOM     61  C   UNL     1      -4.153  -6.708  -0.433  1.00  0.00     0.074 A 
ATOM     62  C   UNL     1      -3.270  -7.400   0.480  1.00  0.00     0.031 C 
ATOM     63  C   UNL     1      -5.303  -7.233  -0.925  1.00  0.00     0.037 A 
BRANCH  50  64
ATOM     64  C   UNL     1      -8.386  -3.390  -4.652  1.00  0.00     0.057 A 
ATOM     65  C   UNL     1      -8.306  -3.272  -6.046  1.00  0.00     0.134 A 
ATOM     66  C   UNL     1      -9.655  -3.289  -4.069  1.00  0.00     0.134 A 
ATOM     67  F   UNL     1      -7.119  -3.342  -6.668  1.00  0.00    -0.206 F 
ATOM     68  C   UNL     1      -9.440  -3.034  -6.825  1.00  0.00     0.040 A 
ATOM     69  C   UNL     1     -10.800  -3.083  -4.840  1.00  0.00     0.040 A 
ATOM     70  F   UNL     1      -9.805  -3.396  -2.740  1.00  0.00    -0.206 F 
ATOM     71  C   UNL     1     -10.693  -2.947  -6.222  1.00  0.00     0.006 A 
ENDBRANCH  50  64
BRANCH  51  72
ATOM     72  C   UNL     1      -0.240  -4.522   0.984  1.00  0.00     0.057 A 
ATOM     73  C   UNL     1       0.731  -5.488   0.693  1.00  0.00     0.134 A 
ATOM     74  C   UNL     1      -0.065  -3.767   2.150  1.00  0.00     0.134 A 
ATOM     75  F   UNL     1       0.607  -6.264  -0.394  1.00  0.00    -0.206 F 
ATOM     76  C   UNL     1       1.819  -5.713   1.540  1.00  0.00     0.040 A 
ATOM     77  C   UNL     1       1.033  -3.960   2.990  1.00  0.00     0.040 A 
ATOM     78  F   UNL     1      -0.961  -2.828   2.490  1.00  0.00    -0.206 F 
ATOM     79  C   UNL     1       1.974  -4.943   2.691  1.00  0.00     0.006 A 
ENDBRANCH  51  72
BRANCH  63  80
ATOM     80  C   UNL     1      -5.646  -8.646  -0.542  1.00  0.00     0.057 A 
ATOM     81  C   UNL     1      -6.044  -8.995   0.755  1.00  0.00     0.134 A 
ATOM     82  C   UNL     1      -5.616  -9.666  -1.502  1.00  0.00     0.134 A 
ATOM     83  F   UNL     1      -6.087  -8.070   1.726  1.00  0.00    -0.206 F 
ATOM     84  C   UNL     1      -6.371 -10.311   1.089  1.00  0.00     0.040 A 
ATOM     85  C   UNL     1      -5.971 -10.979  -1.188  1.00  0.00     0.040 A 
ATOM     86  F   UNL     1      -5.257  -9.401  -2.768  1.00  0.00    -0.206 F 
ATOM     87  C   UNL     1      -6.342 -11.306   0.113  1.00  0.00     0.006 A 
ENDBRANCH  63  80
ENDBRANCH  37  38
ENDBRANCH  30  32
ENDBRANCH  29  30
ENDBRANCH  28  29
ENDBRANCH  27  28
ENDBRANCH  26  27
ENDBRANCH  25  26
ENDBRANCH   1  25
TORSDOF 23
