REMARK SMILES Cc1cc(NC(=O)c2sccc2/C=C/C(=O)OCCOCCOCCOC(=O)c2ccc(-c3c4nc(c(-c5c(F)cccc5F)c5ccc([nH]5)c(-c5c(F)cccc5F)c5nc(c(-c6c(F)cccc6F)c6ccc3[nH]6)C=C5)C=C4)cc2)ccn1
REMARK SMILES IDX 21 1 20 2 19 3 18 4 17 5 15 6 16 7 14 8 13 9 12 10 8 11 9 12
REMARK SMILES IDX 10 13 11 14 6 15 5 16 7 18 4 19 1 20 2 21 3 22 85 23 84 24
REMARK SMILES IDX 83 25 22 26 23 27 24 28 25 29 26 30 27 31 28 32 29 33 30 34
REMARK SMILES IDX 82 35 31 36 81 37 32 38 33 39 34 40 75 41 35 42 80 43 74 44
REMARK SMILES IDX 76 45 36 46 79 47 73 48 72 49 37 51 63 52 46 53 62 54 47 55
REMARK SMILES IDX 50 56 61 57 77 58 48 59 49 60 60 62 78 63 51 64 38 65 39 66
REMARK SMILES IDX 44 67 40 68 41 69 43 70 45 71 42 72 64 73 65 74 70 75 66 76
REMARK SMILES IDX 67 77 69 78 71 79 68 80 52 81 53 82 58 83 54 84 55 85 57 86
REMARK SMILES IDX 59 87 56 88
REMARK H PARENT 5 17 76 50 50 61
REMARK Flexibility Score: inf
ROOT
ATOM      1  C   UNL     1      -1.401   1.558  -5.619  1.00  0.00     0.188 C 
ENDROOT
BRANCH   1   2
ATOM      2  O   UNL     1      -0.101   1.446  -6.168  1.00  0.00    -0.376 OA
BRANCH   2   3
ATOM      3  C   UNL     1       0.846   0.546  -5.612  1.00  0.00     0.202 C 
BRANCH   3   4
ATOM      4  C   UNL     1       1.050   0.407  -4.096  1.00  0.00     0.261 C 
BRANCH   4   5
ATOM      5  O   UNL     1      -0.146   0.291  -3.315  1.00  0.00    -0.460 OA
BRANCH   5   6
ATOM      6  C   UNL     1      -0.441   1.373  -2.554  1.00  0.00     0.330 C 
ATOM      7  O   UNL     1       0.218   2.399  -2.473  1.00  0.00    -0.247 OA
BRANCH   6   8
ATOM      8  C   UNL     1      -1.755   1.262  -1.891  1.00  0.00     0.094 C 
ATOM      9  C   UNL     1      -2.517   0.158  -1.808  1.00  0.00     0.017 C 
BRANCH   9  10
ATOM     10  C   UNL     1      -3.718   0.087  -1.024  1.00  0.00    -0.002 A 
ATOM     11  C   UNL     1      -4.022  -0.975  -0.180  1.00  0.00     0.099 A 
ATOM     12  S   UNL     1      -5.537  -0.737   0.600  1.00  0.00    -0.138 S 
ATOM     13  C   UNL     1      -5.732   0.809  -0.095  1.00  0.00     0.066 A 
ATOM     14  C   UNL     1      -4.708   1.119  -0.960  1.00  0.00     0.020 A 
BRANCH  11  15
ATOM     15  C   UNL     1      -3.295  -2.200   0.126  1.00  0.00     0.266 C 
ATOM     16  N   UNL     1      -1.931  -2.173   0.357  1.00  0.00    -0.321 N 
ATOM     17  H   UNL     1      -1.497  -3.056   0.310  1.00  0.00     0.170 HD
ATOM     18  O   UNL     1      -3.830  -3.312   0.116  1.00  0.00    -0.268 OA
BRANCH  16  19
ATOM     19  C   UNL     1      -1.052  -1.114   0.646  1.00  0.00     0.044 A 
ATOM     20  C   UNL     1       2.586  -0.314  -0.015  1.00  0.00     0.067 C 
ATOM     21  C   UNL     1       1.163  -0.212   0.444  1.00  0.00     0.039 A 
ATOM     22  C   UNL     1       0.289  -1.285   0.300  1.00  0.00     0.049 A 
ATOM     23  N   UNL     1       0.765   0.988   0.921  1.00  0.00    -0.261 NA
ATOM     24  C   UNL     1      -0.519   1.111   1.309  1.00  0.00     0.113 A 
ATOM     25  C   UNL     1      -1.450   0.092   1.216  1.00  0.00     0.046 A 
ENDBRANCH  16  19
ENDBRANCH  11  15
ENDBRANCH   9  10
ENDBRANCH   6   8
ENDBRANCH   5   6
ENDBRANCH   4   5
ENDBRANCH   3   4
ENDBRANCH   2   3
ENDBRANCH   1   2
BRANCH   1  26
ATOM     26  C   UNL     1      -2.264   0.302  -5.388  1.00  0.00     0.188 C 
BRANCH  26  27
ATOM     27  O   UNL     1      -1.655  -0.945  -5.603  1.00  0.00    -0.376 OA
BRANCH  27  28
ATOM     28  C   UNL     1      -1.626  -1.505  -6.905  1.00  0.00     0.202 C 
BRANCH  28  29
ATOM     29  C   UNL     1      -2.153  -0.842  -8.198  1.00  0.00     0.261 C 
BRANCH  29  30
ATOM     30  O   UNL     1      -2.630   0.506  -8.138  1.00  0.00    -0.460 OA
BRANCH  30  31
ATOM     31  C   UNL     1      -3.974   0.661  -8.111  1.00  0.00     0.338 C 
ATOM     32  O   UNL     1      -4.823  -0.223  -8.101  1.00  0.00    -0.246 OA
BRANCH  31  33
ATOM     33  C   UNL     1      -4.284   2.085  -7.893  1.00  0.00     0.060 A 
ATOM     34  C   UNL     1      -4.873   2.475  -6.681  1.00  0.00     0.016 A 
ATOM     35  C   UNL     1      -4.018   3.027  -8.887  1.00  0.00     0.016 A 
ATOM     36  C   UNL     1      -5.214   3.810  -6.467  1.00  0.00     0.010 A 
ATOM     37  C   UNL     1      -4.384   4.360  -8.680  1.00  0.00     0.010 A 
ATOM     38  C   UNL     1      -5.008   4.753  -7.481  1.00  0.00    -0.014 A 
BRANCH  38  39
ATOM     39  C   UNL     1      -5.602   6.108  -7.369  1.00  0.00     0.031 A 
ATOM     40  C   UNL     1      -6.907   6.378  -8.065  1.00  0.00     0.074 A 
ATOM     41  C   UNL     1      -4.997   7.082  -6.667  1.00  0.00     0.049 A 
ATOM     42  N   UNL     1      -7.569   7.500  -8.186  1.00  0.00    -0.248 NA
ATOM     43  C   UNL     1      -7.549   5.225  -8.717  1.00  0.00     0.031 C 
ATOM     44  C   UNL     1      -3.753   6.938  -5.914  1.00  0.00     0.029 A 
ATOM     45  N   UNL     1      -5.347   8.399  -6.492  1.00  0.00    -0.354 N 
ATOM     46  C   UNL     1      -8.696   7.192  -8.938  1.00  0.00     0.074 A 
ATOM     47  C   UNL     1      -8.617   5.785  -9.266  1.00  0.00     0.031 C 
ATOM     48  C   UNL     1      -3.431   8.128  -5.375  1.00  0.00     0.029 A 
ATOM     49  C   UNL     1      -4.425   9.123  -5.776  1.00  0.00     0.049 A 
ATOM     50  H   UNL     1      -6.180   8.787  -6.847  1.00  0.00     0.167 HD
ATOM     51  C   UNL     1      -9.707   8.008  -9.319  1.00  0.00     0.037 A 
ATOM     52  C   UNL     1      -4.375  10.442  -5.505  1.00  0.00     0.037 A 
ATOM     53  C   UNL     1      -9.784   9.407  -8.994  1.00  0.00     0.049 A 
ATOM     54  C   UNL     1      -5.476  11.345  -6.003  1.00  0.00     0.074 A 
ATOM     55  C   UNL     1     -10.780  10.312  -9.315  1.00  0.00     0.029 A 
ATOM     56  N   UNL     1      -8.822  10.107  -8.282  1.00  0.00    -0.354 N 
ATOM     57  N   UNL     1      -6.551  11.041  -6.689  1.00  0.00    -0.248 NA
ATOM     58  C   UNL     1      -5.356  12.776  -5.686  1.00  0.00     0.031 C 
ATOM     59  C   UNL     1     -10.395  11.571  -8.847  1.00  0.00     0.029 A 
ATOM     60  C   UNL     1      -9.188  11.438  -8.178  1.00  0.00     0.049 A 
ATOM     61  H   UNL     1      -8.001   9.715  -7.906  1.00  0.00     0.167 HD
ATOM     62  C   UNL     1      -7.250  12.232  -6.854  1.00  0.00     0.074 A 
ATOM     63  C   UNL     1      -6.482  13.262  -6.188  1.00  0.00     0.031 C 
ATOM     64  C   UNL     1      -8.423  12.452  -7.498  1.00  0.00     0.037 A 
BRANCH  51  65
ATOM     65  C   UNL     1     -10.800   7.413 -10.158  1.00  0.00     0.057 A 
ATOM     66  C   UNL     1     -11.735   6.513  -9.632  1.00  0.00     0.134 A 
ATOM     67  C   UNL     1     -10.941   7.779 -11.503  1.00  0.00     0.134 A 
ATOM     68  F   UNL     1     -11.646   6.109  -8.355  1.00  0.00    -0.206 F 
ATOM     69  C   UNL     1     -12.760   5.984 -10.418  1.00  0.00     0.040 A 
ATOM     70  C   UNL     1     -11.978   7.279 -12.291  1.00  0.00     0.040 A 
ATOM     71  F   UNL     1     -10.082   8.640 -12.069  1.00  0.00    -0.206 F 
ATOM     72  C   UNL     1     -12.889   6.374 -11.750  1.00  0.00     0.006 A 
ENDBRANCH  51  65
BRANCH  52  73
ATOM     73  C   UNL     1      -3.231  11.007  -4.742  1.00  0.00     0.057 A 
ATOM     74  C   UNL     1      -3.405  11.545  -3.462  1.00  0.00     0.134 A 
ATOM     75  C   UNL     1      -1.944  11.059  -5.293  1.00  0.00     0.134 A 
ATOM     76  F   UNL     1      -4.619  11.550  -2.891  1.00  0.00    -0.206 F 
ATOM     77  C   UNL     1      -2.348  12.135  -2.766  1.00  0.00     0.040 A 
ATOM     78  C   UNL     1      -0.872  11.619  -4.596  1.00  0.00     0.040 A 
ATOM     79  F   UNL     1      -1.710  10.564  -6.517  1.00  0.00    -0.206 F 
ATOM     80  C   UNL     1      -1.075  12.169  -3.332  1.00  0.00     0.006 A 
ENDBRANCH  52  73
BRANCH  64  81
ATOM     81  C   UNL     1      -8.981  13.847  -7.469  1.00  0.00     0.057 A 
ATOM     82  C   UNL     1      -8.404  14.896  -8.197  1.00  0.00     0.134 A 
ATOM     83  C   UNL     1     -10.143  14.132  -6.740  1.00  0.00     0.134 A 
ATOM     84  F   UNL     1      -7.284  14.695  -8.908  1.00  0.00    -0.206 F 
ATOM     85  C   UNL     1      -8.949  16.182  -8.180  1.00  0.00     0.040 A 
ATOM     86  C   UNL     1     -10.714  15.405  -6.740  1.00  0.00     0.040 A 
ATOM     87  F   UNL     1     -10.755  13.171  -6.030  1.00  0.00    -0.206 F 
ATOM     88  C   UNL     1     -10.112  16.436  -7.457  1.00  0.00     0.006 A 
ENDBRANCH  64  81
ENDBRANCH  38  39
ENDBRANCH  31  33
ENDBRANCH  30  31
ENDBRANCH  29  30
ENDBRANCH  28  29
ENDBRANCH  27  28
ENDBRANCH  26  27
ENDBRANCH   1  26
TORSDOF 20
