REMARK SMILES CC(C)(C)OC(=O)N1CCC(c2c(C(=O)OCCOCCOCCOC(=O)c3ccc(-c4c5nc(c(-c6c(F)cccc6F)c6ccc([nH]6)c(-c6c(F)cccc6F)c6nc(c(-c7c(F)cccc7F)c7ccc4[nH]7)C=C6)C=C5)cc3)cnn2-c2ccccc2)CC1
REMARK SMILES IDX 20 1 19 2 18 3 17 4 16 5 14 6 15 7 13 8 12 9 84 10 82 11
REMARK SMILES IDX 83 12 11 13 6 14 7 15 8 16 9 17 92 18 10 19 91 20 5 21 2 22
REMARK SMILES IDX 1 23 3 24 4 25 85 26 86 27 90 28 87 29 89 30 88 31 21 32
REMARK SMILES IDX 22 33 23 34 24 35 25 36 26 37 27 38 28 39 29 40 81 41 30 42
REMARK SMILES IDX 80 43 31 44 32 45 33 46 74 47 34 48 79 49 73 50 75 51 35 52
REMARK SMILES IDX 78 53 72 54 71 55 36 57 62 58 45 59 61 60 46 61 49 62 60 63
REMARK SMILES IDX 76 64 47 65 48 66 59 68 77 69 50 70 37 71 38 72 43 73 39 74
REMARK SMILES IDX 40 75 42 76 44 77 41 78 63 79 64 80 69 81 65 82 66 83 68 84
REMARK SMILES IDX 70 85 67 86 51 87 52 88 57 89 53 90 54 91 56 92 58 93 55 94
REMARK H PARENT 75 56 49 67
REMARK Flexibility Score: inf
ROOT
ATOM      1  C   UNL     1      -1.322  -4.927   8.548  1.00  0.00     0.188 C 
ENDROOT
BRANCH   1   2
ATOM      2  O   UNL     1      -2.029  -5.929   9.245  1.00  0.00    -0.376 OA
BRANCH   2   3
ATOM      3  C   UNL     1      -1.420  -7.208   9.271  1.00  0.00     0.202 C 
BRANCH   3   4
ATOM      4  C   UNL     1      -0.009  -7.369   9.878  1.00  0.00     0.261 C 
BRANCH   4   5
ATOM      5  O   UNL     1       0.946  -6.305   9.712  1.00  0.00    -0.460 OA
BRANCH   5   6
ATOM      6  C   UNL     1       1.672  -6.213   8.557  1.00  0.00     0.341 C 
ATOM      7  O   UNL     1       1.523  -6.945   7.597  1.00  0.00    -0.246 OA
BRANCH   6   8
ATOM      8  C   UNL     1       2.577  -5.061   8.588  1.00  0.00     0.102 A 
ATOM      9  C   UNL     1       2.932  -4.180   7.548  1.00  0.00     0.062 A 
ATOM     10  N   UNL     1       3.784  -3.250   8.146  1.00  0.00    -0.237 N 
ATOM     11  C   UNL     1       3.202  -4.529   9.734  1.00  0.00     0.151 A 
ATOM     12  N   UNL     1       3.985  -3.492   9.460  1.00  0.00    -0.175 NA
BRANCH   9  13
ATOM     13  C   UNL     1       2.387  -4.145   6.117  1.00  0.00     0.043 C 
ATOM     14  C   UNL     1       0.672  -1.648   3.410  1.00  0.00     0.410 C 
ATOM     15  O   UNL     1      -0.173  -1.015   4.034  1.00  0.00    -0.224 OA
ATOM     16  N   UNL     1       1.124  -2.885   3.833  1.00  0.00    -0.308 N 
ATOM     17  C   UNL     1       0.325  -3.593   4.803  1.00  0.00     0.124 C 
ATOM     18  C   UNL     1       2.471  -3.413   3.632  1.00  0.00     0.124 C 
ATOM     19  C   UNL     1       0.996  -3.494   6.154  1.00  0.00     0.032 C 
ATOM     20  C   UNL     1       3.218  -3.491   4.987  1.00  0.00     0.032 C 
BRANCH  14  21
ATOM     21  O   UNL     1       1.180  -1.271   2.209  1.00  0.00    -0.444 OA
BRANCH  21  22
ATOM     22  C   UNL     1       0.608  -0.114   1.530  1.00  0.00     0.106 C 
ATOM     23  C   UNL     1       1.167  -0.168   0.100  1.00  0.00     0.056 C 
ATOM     24  C   UNL     1       1.078   1.181   2.200  1.00  0.00     0.056 C 
ATOM     25  C   UNL     1      -0.929  -0.164   1.422  1.00  0.00     0.056 C 
ENDBRANCH  21  22
ENDBRANCH  14  21
ENDBRANCH   9  13
BRANCH  10  26
ATOM     26  C   UNL     1       4.571  -2.264   7.529  1.00  0.00     0.065 A 
ATOM     27  C   UNL     1       5.911  -2.567   7.269  1.00  0.00     0.028 A 
ATOM     28  C   UNL     1       3.997  -1.064   7.099  1.00  0.00     0.028 A 
ATOM     29  C   UNL     1       6.660  -1.702   6.477  1.00  0.00     0.002 A 
ATOM     30  C   UNL     1       4.758  -0.205   6.303  1.00  0.00     0.002 A 
ATOM     31  C   UNL     1       6.077  -0.536   5.976  1.00  0.00     0.000 A 
ENDBRANCH  10  26
ENDBRANCH   6   8
ENDBRANCH   5   6
ENDBRANCH   4   5
ENDBRANCH   3   4
ENDBRANCH   2   3
ENDBRANCH   1   2
BRANCH   1  32
ATOM     32  C   UNL     1      -0.690  -3.855   9.464  1.00  0.00     0.188 C 
BRANCH  32  33
ATOM     33  O   UNL     1      -0.960  -3.826  10.861  1.00  0.00    -0.376 OA
BRANCH  33  34
ATOM     34  C   UNL     1      -2.216  -4.242  11.370  1.00  0.00     0.202 C 
BRANCH  34  35
ATOM     35  C   UNL     1      -3.494  -3.591  10.851  1.00  0.00     0.261 C 
BRANCH  35  36
ATOM     36  O   UNL     1      -3.473  -3.218   9.484  1.00  0.00    -0.460 OA
BRANCH  36  37
ATOM     37  C   UNL     1      -3.053  -1.954   9.256  1.00  0.00     0.338 C 
ATOM     38  O   UNL     1      -2.492  -1.206  10.034  1.00  0.00    -0.246 OA
BRANCH  37  39
ATOM     39  C   UNL     1      -3.525  -1.548   7.928  1.00  0.00     0.060 A 
ATOM     40  C   UNL     1      -3.110  -0.298   7.463  1.00  0.00     0.016 A 
ATOM     41  C   UNL     1      -4.608  -2.232   7.361  1.00  0.00     0.016 A 
ATOM     42  C   UNL     1      -3.943   0.380   6.601  1.00  0.00     0.010 A 
ATOM     43  C   UNL     1      -5.454  -1.542   6.532  1.00  0.00     0.010 A 
ATOM     44  C   UNL     1      -5.157  -0.213   6.243  1.00  0.00    -0.014 A 
BRANCH  44  45
ATOM     45  C   UNL     1      -6.095   0.552   5.453  1.00  0.00     0.031 A 
ATOM     46  C   UNL     1      -5.737   0.553   4.022  1.00  0.00     0.074 A 
ATOM     47  C   UNL     1      -7.219   1.082   5.971  1.00  0.00     0.049 A 
ATOM     48  N   UNL     1      -5.240   1.531   3.344  1.00  0.00    -0.248 NA
ATOM     49  C   UNL     1      -5.725  -0.739   3.316  1.00  0.00     0.031 C 
ATOM     50  C   UNL     1      -7.782   0.887   7.309  1.00  0.00     0.029 A 
ATOM     51  N   UNL     1      -8.160   1.851   5.357  1.00  0.00    -0.354 N 
ATOM     52  C   UNL     1      -5.088   1.034   2.056  1.00  0.00     0.074 A 
ATOM     53  C   UNL     1      -5.144  -0.397   2.166  1.00  0.00     0.031 C 
ATOM     54  C   UNL     1      -9.062   1.330   7.325  1.00  0.00     0.029 A 
ATOM     55  C   UNL     1      -9.366   1.948   6.046  1.00  0.00     0.049 A 
ATOM     56  H   UNL     1      -8.001   2.301   4.496  1.00  0.00     0.167 HD
ATOM     57  C   UNL     1      -5.287   1.848   0.986  1.00  0.00     0.037 A 
ATOM     58  C   UNL     1     -10.531   2.438   5.548  1.00  0.00     0.037 A 
ATOM     59  C   UNL     1      -5.194   3.238   1.375  1.00  0.00     0.049 A 
ATOM     60  C   UNL     1     -10.197   3.249   4.348  1.00  0.00     0.074 A 
ATOM     61  C   UNL     1      -4.232   4.016   1.993  1.00  0.00     0.029 A 
ATOM     62  N   UNL     1      -6.367   3.943   1.482  1.00  0.00    -0.354 N 
ATOM     63  N   UNL     1      -9.579   4.394   4.396  1.00  0.00    -0.248 NA
ATOM     64  C   UNL     1     -10.133   2.560   3.067  1.00  0.00     0.031 C 
ATOM     65  C   UNL     1      -4.958   4.910   2.835  1.00  0.00     0.029 A 
ATOM     66  C   UNL     1      -6.319   4.681   2.635  1.00  0.00     0.049 A 
ATOM     67  H   UNL     1      -7.114   3.922   0.841  1.00  0.00     0.167 HD
ATOM     68  C   UNL     1      -8.678   4.348   3.342  1.00  0.00     0.074 A 
ATOM     69  C   UNL     1      -9.126   3.235   2.507  1.00  0.00     0.031 C 
ATOM     70  C   UNL     1      -7.490   5.018   3.409  1.00  0.00     0.037 A 
BRANCH  57  71
ATOM     71  C   UNL     1      -6.022   1.409  -0.265  1.00  0.00     0.057 A 
ATOM     72  C   UNL     1      -6.146   2.330  -1.320  1.00  0.00     0.134 A 
ATOM     73  C   UNL     1      -6.863   0.278  -0.367  1.00  0.00     0.134 A 
ATOM     74  F   UNL     1      -5.402   3.446  -1.349  1.00  0.00    -0.206 F 
ATOM     75  C   UNL     1      -7.108   2.196  -2.328  1.00  0.00     0.040 A 
ATOM     76  C   UNL     1      -7.789   0.108  -1.398  1.00  0.00     0.040 A 
ATOM     77  F   UNL     1      -6.918  -0.684   0.559  1.00  0.00    -0.206 F 
ATOM     78  C   UNL     1      -7.944   1.088  -2.361  1.00  0.00     0.006 A 
ENDBRANCH  57  71
BRANCH  58  79
ATOM     79  C   UNL     1     -11.925   2.013   5.822  1.00  0.00     0.057 A 
ATOM     80  C   UNL     1     -13.016   2.795   5.409  1.00  0.00     0.134 A 
ATOM     81  C   UNL     1     -12.229   0.701   6.223  1.00  0.00     0.134 A 
ATOM     82  F   UNL     1     -12.828   4.048   4.968  1.00  0.00    -0.206 F 
ATOM     83  C   UNL     1     -14.324   2.292   5.364  1.00  0.00     0.040 A 
ATOM     84  C   UNL     1     -13.531   0.188   6.189  1.00  0.00     0.040 A 
ATOM     85  F   UNL     1     -11.262  -0.160   6.569  1.00  0.00    -0.206 F 
ATOM     86  C   UNL     1     -14.583   0.979   5.742  1.00  0.00     0.006 A 
ENDBRANCH  58  79
BRANCH  70  87
ATOM     87  C   UNL     1      -7.319   6.032   4.507  1.00  0.00     0.057 A 
ATOM     88  C   UNL     1      -7.367   5.740   5.879  1.00  0.00     0.134 A 
ATOM     89  C   UNL     1      -6.982   7.343   4.152  1.00  0.00     0.134 A 
ATOM     90  F   UNL     1      -7.580   4.492   6.318  1.00  0.00    -0.206 F 
ATOM     91  C   UNL     1      -7.146   6.723   6.849  1.00  0.00     0.040 A 
ATOM     92  C   UNL     1      -6.723   8.324   5.110  1.00  0.00     0.040 A 
ATOM     93  F   UNL     1      -6.865   7.684   2.859  1.00  0.00    -0.206 F 
ATOM     94  C   UNL     1      -6.819   8.020   6.465  1.00  0.00     0.006 A 
ENDBRANCH  70  87
ENDBRANCH  44  45
ENDBRANCH  37  39
ENDBRANCH  36  37
ENDBRANCH  35  36
ENDBRANCH  34  35
ENDBRANCH  33  34
ENDBRANCH  32  33
ENDBRANCH   1  32
TORSDOF 21
