REMARK SMILES CC(C)(Cn1ccnc1C(N)=S)C(=O)OCCOCCOCCOC(=O)c1ccc(-c2c3nc(c(-c4c(F)cccc4F)c4ccc([nH]4)c(-c4c(F)cccc4F)c4nc(c(-c5c(F)cccc5F)c5ccc2[nH]5)C=C4)C=C3)cc1
REMARK SMILES IDX 19 1 18 2 17 3 16 4 15 5 13 6 14 7 2 8 1 9 3 10 4 11 5 12
REMARK SMILES IDX 6 13 9 14 7 15 8 16 10 17 12 18 11 19 20 22 21 23 22 24
REMARK SMILES IDX 23 25 24 26 25 27 26 28 27 29 28 30 80 31 29 32 79 33 30 34
REMARK SMILES IDX 31 35 32 36 73 37 33 38 78 39 72 40 74 41 34 42 77 43 71 44
REMARK SMILES IDX 70 45 35 47 61 48 44 49 60 50 45 51 48 52 59 53 75 54 46 55
REMARK SMILES IDX 47 56 58 58 76 59 49 60 36 61 37 62 42 63 38 64 39 65 41 66
REMARK SMILES IDX 43 67 40 68 62 69 63 70 68 71 64 72 65 73 67 74 69 75 66 76
REMARK SMILES IDX 50 77 51 78 56 79 52 80 53 81 55 82 57 83 54 84
REMARK H PARENT 11 20 11 21 74 46 48 57
REMARK Flexibility Score: inf
ROOT
ATOM      1  C   UNL     1       1.282  -1.379  -3.826  1.00  0.00     0.188 C 
ENDROOT
BRANCH   1   2
ATOM      2  O   UNL     1       2.018  -2.429  -4.430  1.00  0.00    -0.376 OA
BRANCH   2   3
ATOM      3  C   UNL     1       1.877  -3.746  -3.912  1.00  0.00     0.202 C 
BRANCH   3   4
ATOM      4  C   UNL     1       2.034  -3.992  -2.395  1.00  0.00     0.261 C 
BRANCH   4   5
ATOM      5  O   UNL     1       1.170  -3.228  -1.507  1.00  0.00    -0.463 OA
BRANCH   5   6
ATOM      6  C   UNL     1       1.806  -2.452  -0.603  1.00  0.00     0.313 C 
ATOM      7  O   UNL     1       3.034  -2.399  -0.529  1.00  0.00    -0.252 OA
BRANCH   6   8
ATOM      8  C   UNL     1       0.925  -1.622   0.362  1.00  0.00     0.080 C 
ATOM      9  C   UNL     1       1.475  -0.192   0.250  1.00  0.00     0.025 C 
ATOM     10  C   UNL     1       1.310  -2.201   1.752  1.00  0.00     0.025 C 
BRANCH   8  11
ATOM     11  C   UNL     1      -0.644  -1.723   0.319  1.00  0.00     0.142 C 
BRANCH  11  12
ATOM     12  N   UNL     1      -1.520  -0.784  -0.378  1.00  0.00    -0.328 N 
ATOM     13  C   UNL     1      -2.559  -1.216  -1.181  1.00  0.00     0.108 A 
ATOM     14  C   UNL     1      -1.675   0.590  -0.280  1.00  0.00     0.167 A 
ATOM     15  C   UNL     1      -3.101  -0.088  -1.737  1.00  0.00     0.131 A 
ATOM     16  N   UNL     1      -2.478   1.020  -1.248  1.00  0.00    -0.235 NA
BRANCH  14  17
ATOM     17  C   UNL     1      -1.141   1.556   0.653  1.00  0.00     0.140 C 
ATOM     18  S   UNL     1      -1.221   1.343   2.301  1.00  0.00    -0.057 S 
BRANCH  17  19
ATOM     19  N   UNL     1      -0.665   2.716   0.103  1.00  0.00    -0.387 N 
ATOM     20  H   UNL     1      -0.628   2.818  -0.876  1.00  0.00     0.157 HD
ATOM     21  H   UNL     1      -0.361   3.449   0.686  1.00  0.00     0.157 HD
ENDBRANCH  17  19
ENDBRANCH  14  17
ENDBRANCH  11  12
ENDBRANCH   8  11
ENDBRANCH   6   8
ENDBRANCH   5   6
ENDBRANCH   4   5
ENDBRANCH   3   4
ENDBRANCH   2   3
ENDBRANCH   1   2
BRANCH   1  22
ATOM     22  C   UNL     1      -0.178  -1.613  -3.413  1.00  0.00     0.188 C 
BRANCH  22  23
ATOM     23  O   UNL     1      -0.610  -2.965  -3.404  1.00  0.00    -0.376 OA
BRANCH  23  24
ATOM     24  C   UNL     1      -1.808  -3.306  -4.086  1.00  0.00     0.202 C 
BRANCH  24  25
ATOM     25  C   UNL     1      -1.708  -3.183  -5.607  1.00  0.00     0.261 C 
BRANCH  25  26
ATOM     26  O   UNL     1      -1.496  -1.837  -6.029  1.00  0.00    -0.460 OA
BRANCH  26  27
ATOM     27  C   UNL     1      -2.474  -0.978  -5.669  1.00  0.00     0.338 C 
ATOM     28  O   UNL     1      -3.533  -1.236  -5.127  1.00  0.00    -0.246 OA
BRANCH  27  29
ATOM     29  C   UNL     1      -2.027   0.382  -5.973  1.00  0.00     0.060 A 
ATOM     30  C   UNL     1      -2.589   1.424  -5.229  1.00  0.00     0.016 A 
ATOM     31  C   UNL     1      -1.248   0.608  -7.112  1.00  0.00     0.016 A 
ATOM     32  C   UNL     1      -2.587   2.689  -5.768  1.00  0.00     0.010 A 
ATOM     33  C   UNL     1      -1.248   1.871  -7.653  1.00  0.00     0.010 A 
ATOM     34  C   UNL     1      -2.030   2.853  -7.034  1.00  0.00    -0.014 A 
BRANCH  34  35
ATOM     35  C   UNL     1      -2.521   3.962  -7.830  1.00  0.00     0.031 A 
ATOM     36  C   UNL     1      -1.845   5.264  -7.676  1.00  0.00     0.074 A 
ATOM     37  C   UNL     1      -3.454   3.709  -8.772  1.00  0.00     0.049 A 
ATOM     38  N   UNL     1      -2.383   6.431  -7.524  1.00  0.00    -0.248 NA
ATOM     39  C   UNL     1      -0.374   5.264  -7.662  1.00  0.00     0.031 C 
ATOM     40  C   UNL     1      -3.973   2.396  -9.183  1.00  0.00     0.029 A 
ATOM     41  N   UNL     1      -4.020   4.556  -9.671  1.00  0.00    -0.354 N 
ATOM     42  C   UNL     1      -1.329   7.334  -7.569  1.00  0.00     0.074 A 
ATOM     43  C   UNL     1      -0.110   6.564  -7.555  1.00  0.00     0.031 C 
ATOM     44  C   UNL     1      -4.563   2.514 -10.390  1.00  0.00     0.029 A 
ATOM     45  C   UNL     1      -4.551   3.913 -10.779  1.00  0.00     0.049 A 
ATOM     46  H   UNL     1      -4.050   5.532  -9.548  1.00  0.00     0.167 HD
ATOM     47  C   UNL     1      -1.509   8.655  -7.822  1.00  0.00     0.037 A 
ATOM     48  C   UNL     1      -4.850   4.477 -11.973  1.00  0.00     0.037 A 
ATOM     49  C   UNL     1      -2.844   9.104  -7.558  1.00  0.00     0.049 A 
ATOM     50  C   UNL     1      -4.929   5.946 -11.771  1.00  0.00     0.074 A 
ATOM     51  C   UNL     1      -3.654   9.097  -6.437  1.00  0.00     0.029 A 
ATOM     52  N   UNL     1      -3.680   9.371  -8.613  1.00  0.00    -0.354 N 
ATOM     53  N   UNL     1      -5.878   6.555 -11.117  1.00  0.00    -0.248 NA
ATOM     54  C   UNL     1      -3.710   6.719 -11.963  1.00  0.00     0.031 C 
ATOM     55  C   UNL     1      -4.971   8.875  -6.929  1.00  0.00     0.029 A 
ATOM     56  C   UNL     1      -4.882   8.776  -8.317  1.00  0.00     0.049 A 
ATOM     57  H   UNL     1      -3.461   9.887  -9.422  1.00  0.00     0.167 HD
ATOM     58  C   UNL     1      -5.245   7.606 -10.469  1.00  0.00     0.074 A 
ATOM     59  C   UNL     1      -3.940   7.721 -11.111  1.00  0.00     0.031 C 
ATOM     60  C   UNL     1      -5.714   8.104  -9.287  1.00  0.00     0.037 A 
BRANCH  47  61
ATOM     61  C   UNL     1      -0.497   9.450  -8.584  1.00  0.00     0.057 A 
ATOM     62  C   UNL     1      -0.428  10.841  -8.455  1.00  0.00     0.134 A 
ATOM     63  C   UNL     1       0.276   8.886  -9.621  1.00  0.00     0.134 A 
ATOM     64  F   UNL     1      -1.173  11.483  -7.543  1.00  0.00    -0.206 F 
ATOM     65  C   UNL     1       0.372  11.621  -9.298  1.00  0.00     0.040 A 
ATOM     66  C   UNL     1       1.115   9.647 -10.434  1.00  0.00     0.040 A 
ATOM     67  F   UNL     1       0.188   7.585  -9.935  1.00  0.00    -0.206 F 
ATOM     68  C   UNL     1       1.154  11.024 -10.283  1.00  0.00     0.006 A 
ENDBRANCH  47  61
BRANCH  48  69
ATOM     69  C   UNL     1      -4.794   3.852 -13.315  1.00  0.00     0.057 A 
ATOM     70  C   UNL     1      -5.417   4.452 -14.416  1.00  0.00     0.134 A 
ATOM     71  C   UNL     1      -3.945   2.766 -13.607  1.00  0.00     0.134 A 
ATOM     72  F   UNL     1      -6.200   5.527 -14.252  1.00  0.00    -0.206 F 
ATOM     73  C   UNL     1      -5.211   4.001 -15.727  1.00  0.00     0.040 A 
ATOM     74  C   UNL     1      -3.748   2.292 -14.907  1.00  0.00     0.040 A 
ATOM     75  F   UNL     1      -3.210   2.176 -12.654  1.00  0.00    -0.206 F 
ATOM     76  C   UNL     1      -4.374   2.917 -15.976  1.00  0.00     0.006 A 
ENDBRANCH  48  69
BRANCH  60  77
ATOM     77  C   UNL     1      -7.074   7.662  -8.821  1.00  0.00     0.057 A 
ATOM     78  C   UNL     1      -7.388   6.331  -8.507  1.00  0.00     0.134 A 
ATOM     79  C   UNL     1      -8.042   8.626  -8.522  1.00  0.00     0.134 A 
ATOM     80  F   UNL     1      -6.484   5.353  -8.650  1.00  0.00    -0.206 F 
ATOM     81  C   UNL     1      -8.627   5.971  -7.968  1.00  0.00     0.040 A 
ATOM     82  C   UNL     1      -9.272   8.284  -7.952  1.00  0.00     0.040 A 
ATOM     83  F   UNL     1      -7.789   9.928  -8.732  1.00  0.00    -0.206 F 
ATOM     84  C   UNL     1      -9.572   6.951  -7.684  1.00  0.00     0.006 A 
ENDBRANCH  60  77
ENDBRANCH  34  35
ENDBRANCH  27  29
ENDBRANCH  26  27
ENDBRANCH  25  26
ENDBRANCH  24  25
ENDBRANCH  23  24
ENDBRANCH  22  23
ENDBRANCH   1  22
TORSDOF 21
