REMARK SMILES Cc1ccccc1[C@@H]1[NH2+][C@H](C(=O)OCCOCCOCCOC(=O)c2ccc(-c3c4nc(c(-c5c(F)cccc5F)c5ccc([nH]5)c(-c5c(F)cccc5F)c5nc(c(-c6c(F)cccc6F)c6ccc3[nH]6)C=C5)C=C4)cc2)CC2=c3ccccc3=N[C@@H]21
REMARK SMILES IDX 18 1 17 2 16 3 15 4 14 5 13 6 11 7 12 8 10 9 8 10 9 11 88 12
REMARK SMILES IDX 80 15 87 16 79 17 81 18 86 19 82 20 85 21 83 22 84 23 7 24
REMARK SMILES IDX 1 25 2 26 3 27 4 28 6 29 5 30 19 31 20 32 21 33 22 34 23 35
REMARK SMILES IDX 24 36 25 37 26 38 78 39 27 40 77 41 28 42 29 43 30 44 71 45
REMARK SMILES IDX 31 46 76 47 70 48 72 49 32 50 75 51 69 52 68 53 33 55 59 56
REMARK SMILES IDX 42 57 58 58 43 59 46 60 57 61 73 62 44 63 45 64 56 66 74 67
REMARK SMILES IDX 47 68 34 69 35 70 40 71 36 72 37 73 39 74 41 75 38 76 60 77
REMARK SMILES IDX 61 78 66 79 62 80 63 81 65 82 67 83 64 84 48 85 49 86 54 87
REMARK SMILES IDX 50 88 51 89 53 90 55 91 52 92
REMARK H PARENT 9 13 9 14 72 54 46 65
REMARK Flexibility Score: inf
ROOT
ATOM      1  C   UNL     1      -0.821   2.950  -0.903  1.00  0.00     0.188 C 
ENDROOT
BRANCH   1   2
ATOM      2  C   UNL     1      -1.599   4.210  -1.197  1.00  0.00     0.188 C 
BRANCH   2   3
ATOM      3  O   UNL     1      -1.775   4.508  -2.561  1.00  0.00    -0.376 OA
BRANCH   3   4
ATOM      4  C   UNL     1      -0.530   4.470  -3.215  1.00  0.00     0.202 C 
BRANCH   4   5
ATOM      5  C   UNL     1       0.746   4.908  -2.455  1.00  0.00     0.261 C 
BRANCH   5   6
ATOM      6  O   UNL     1       0.918   4.710  -0.913  1.00  0.00    -0.459 OA
BRANCH   6   7
ATOM      7  C   UNL     1       1.898   4.952   0.150  1.00  0.00     0.365 C 
ATOM      8  O   UNL     1       1.971   5.849   0.984  1.00  0.00    -0.245 OA
BRANCH   7   9
ATOM      9  C   UNL     1       2.511   3.700   0.513  1.00  0.00     0.298 C 
ATOM     10  C   UNL     1       2.756   1.743  -0.606  1.00  0.00     0.243 C 
ATOM     11  N   UNL     1       2.995   3.177  -0.753  1.00  0.00    -0.326 N 
ATOM     12  C   UNL     1       4.040   1.410   0.446  1.00  0.00     0.196 C 
ATOM     13  H   UNL     1       2.468   3.561  -1.538  1.00  0.00     0.347 HD
ATOM     14  H   UNL     1       3.968   3.412  -0.949  1.00  0.00     0.347 HD
ATOM     15  C   UNL     1       4.226   2.567   1.578  1.00  0.00    -0.024 C 
ATOM     16  N   UNL     1       5.335   1.543  -0.260  1.00  0.00    -0.270 NA
ATOM     17  C   UNL     1       3.101   3.482   1.905  1.00  0.00     0.111 C 
ATOM     18  C   UNL     1       5.428   3.146   1.554  1.00  0.00     0.002 A 
ATOM     19  C   UNL     1       5.957   2.528   0.329  1.00  0.00     0.066 A 
ATOM     20  C   UNL     1       5.823   4.475   1.984  1.00  0.00     0.010 A 
ATOM     21  C   UNL     1       7.082   3.257  -0.289  1.00  0.00     0.028 A 
ATOM     22  C   UNL     1       6.719   5.146   1.247  1.00  0.00     0.001 A 
ATOM     23  C   UNL     1       7.374   4.503   0.125  1.00  0.00     0.002 A 
BRANCH  10  24
ATOM     24  C   UNL     1       1.497   1.281  -1.806  1.00  0.00     0.015 A 
ATOM     25  C   UNL     1      -1.304   1.113  -0.035  1.00  0.00     0.045 C 
ATOM     26  C   UNL     1      -0.167   0.878  -1.645  1.00  0.00    -0.042 A 
ATOM     27  C   UNL     1      -0.972   0.744  -2.764  1.00  0.00     0.004 A 
ATOM     28  C   UNL     1      -0.387   1.104  -3.988  1.00  0.00     0.000 A 
ATOM     29  C   UNL     1       1.901   1.651  -3.094  1.00  0.00     0.010 A 
ATOM     30  C   UNL     1       0.963   1.563  -4.135  1.00  0.00     0.001 A 
ENDBRANCH  10  24
ENDBRANCH   7   9
ENDBRANCH   6   7
ENDBRANCH   5   6
ENDBRANCH   4   5
ENDBRANCH   3   4
ENDBRANCH   2   3
ENDBRANCH   1   2
BRANCH   1  31
ATOM     31  O   UNL     1       0.450   2.010   0.016  1.00  0.00    -0.376 OA
BRANCH  31  32
ATOM     32  C   UNL     1       0.472   0.091   0.305  1.00  0.00     0.202 C 
BRANCH  32  33
ATOM     33  C   UNL     1      -1.233  -0.884   0.301  1.00  0.00     0.261 C 
BRANCH  33  34
ATOM     34  O   UNL     1      -2.573  -0.048   1.286  1.00  0.00    -0.460 OA
BRANCH  34  35
ATOM     35  C   UNL     1      -3.007   1.416   1.901  1.00  0.00     0.338 C 
ATOM     36  O   UNL     1      -4.271   1.514   1.988  1.00  0.00    -0.246 OA
BRANCH  35  37
ATOM     37  C   UNL     1      -2.216   3.003   2.240  1.00  0.00     0.060 A 
ATOM     38  C   UNL     1      -2.736   4.338   2.307  1.00  0.00     0.016 A 
ATOM     39  C   UNL     1      -0.884   3.292   2.355  1.00  0.00     0.016 A 
ATOM     40  C   UNL     1      -1.986   5.736   1.872  1.00  0.00     0.010 A 
ATOM     41  C   UNL     1      -0.313   4.585   1.699  1.00  0.00     0.010 A 
ATOM     42  C   UNL     1      -0.740   5.872   1.273  1.00  0.00    -0.014 A 
BRANCH  42  43
ATOM     43  C   UNL     1      -0.151   6.952  -0.089  1.00  0.00     0.031 A 
ATOM     44  C   UNL     1       1.526   7.457  -0.632  1.00  0.00     0.074 A 
ATOM     45  C   UNL     1      -1.077   7.190  -1.086  1.00  0.00     0.049 A 
ATOM     46  N   UNL     1       2.240   8.562  -0.404  1.00  0.00    -0.248 NA
ATOM     47  C   UNL     1       2.545   6.598  -1.433  1.00  0.00     0.031 C 
ATOM     48  C   UNL     1      -0.942   7.714  -2.469  1.00  0.00     0.029 A 
ATOM     49  N   UNL     1      -2.464   6.926  -1.057  1.00  0.00    -0.354 N 
ATOM     50  C   UNL     1       3.560   8.393  -1.051  1.00  0.00     0.074 A 
ATOM     51  C   UNL     1       3.761   6.997  -1.090  1.00  0.00     0.031 C 
ATOM     52  C   UNL     1      -2.156   8.070  -2.945  1.00  0.00     0.029 A 
ATOM     53  C   UNL     1      -3.086   7.906  -1.849  1.00  0.00     0.049 A 
ATOM     54  H   UNL     1      -2.910   6.194  -0.574  1.00  0.00     0.167 HD
ATOM     55  C   UNL     1       3.978   8.953  -2.264  1.00  0.00     0.037 A 
ATOM     56  C   UNL     1      -3.724   8.885  -1.157  1.00  0.00     0.037 A 
ATOM     57  C   UNL     1       2.812   9.468  -2.940  1.00  0.00     0.049 A 
ATOM     58  C   UNL     1      -2.842  10.127  -1.199  1.00  0.00     0.074 A 
ATOM     59  C   UNL     1       2.093   9.166  -4.082  1.00  0.00     0.029 A 
ATOM     60  N   UNL     1       2.032  10.304  -2.194  1.00  0.00    -0.354 N 
ATOM     61  N   UNL     1      -1.547  10.131  -1.427  1.00  0.00    -0.248 NA
ATOM     62  C   UNL     1      -3.395  11.471  -1.226  1.00  0.00     0.031 C 
ATOM     63  C   UNL     1       0.884   9.931  -4.025  1.00  0.00     0.029 A 
ATOM     64  C   UNL     1       0.886  10.646  -2.836  1.00  0.00     0.049 A 
ATOM     65  H   UNL     1       2.273  10.623  -1.294  1.00  0.00     0.167 HD
ATOM     66  C   UNL     1      -1.127  11.395  -1.752  1.00  0.00     0.074 A 
ATOM     67  C   UNL     1      -2.321  12.195  -1.585  1.00  0.00     0.031 C 
ATOM     68  C   UNL     1       0.126  11.706  -2.212  1.00  0.00     0.037 A 
BRANCH  55  69
ATOM     69  C   UNL     1       5.300   8.625  -3.054  1.00  0.00     0.057 A 
ATOM     70  C   UNL     1       5.511   9.129  -4.361  1.00  0.00     0.134 A 
ATOM     71  C   UNL     1       6.403   7.871  -2.579  1.00  0.00     0.134 A 
ATOM     72  F   UNL     1       4.620   9.940  -4.946  1.00  0.00    -0.206 F 
ATOM     73  C   UNL     1       6.661   8.860  -5.136  1.00  0.00     0.040 A 
ATOM     74  C   UNL     1       7.542   7.559  -3.361  1.00  0.00     0.040 A 
ATOM     75  F   UNL     1       6.450   7.411  -1.320  1.00  0.00    -0.206 F 
ATOM     76  C   UNL     1       7.678   8.058  -4.646  1.00  0.00     0.006 A 
ENDBRANCH  55  69
BRANCH  56  77
ATOM     77  C   UNL     1      -4.546   8.234  -0.066  1.00  0.00     0.057 A 
ATOM     78  C   UNL     1      -5.433   7.199  -0.488  1.00  0.00     0.134 A 
ATOM     79  C   UNL     1      -4.194   8.203   1.282  1.00  0.00     0.134 A 
ATOM     80  F   UNL     1      -5.854   7.159  -1.764  1.00  0.00    -0.206 F 
ATOM     81  C   UNL     1      -5.754   6.093   0.307  1.00  0.00     0.040 A 
ATOM     82  C   UNL     1      -4.643   7.165   2.133  1.00  0.00     0.040 A 
ATOM     83  F   UNL     1      -3.267   9.042   1.766  1.00  0.00    -0.206 F 
ATOM     84  C   UNL     1      -5.344   6.067   1.625  1.00  0.00     0.006 A 
ENDBRANCH  56  77
BRANCH  68  85
ATOM     85  C   UNL     1       0.856  13.046  -2.041  1.00  0.00     0.057 A 
ATOM     86  C   UNL     1       0.356  14.111  -1.291  1.00  0.00     0.134 A 
ATOM     87  C   UNL     1       2.205  13.237  -2.475  1.00  0.00     0.134 A 
ATOM     88  F   UNL     1      -0.832  14.061  -0.683  1.00  0.00    -0.206 F 
ATOM     89  C   UNL     1       1.083  15.287  -1.066  1.00  0.00     0.040 A 
ATOM     90  C   UNL     1       2.978  14.355  -2.152  1.00  0.00     0.040 A 
ATOM     91  F   UNL     1       2.875  12.343  -3.215  1.00  0.00    -0.206 F 
ATOM     92  C   UNL     1       2.402  15.408  -1.476  1.00  0.00     0.006 A 
ENDBRANCH  68  85
ENDBRANCH  42  43
ENDBRANCH  35  37
ENDBRANCH  34  35
ENDBRANCH  33  34
ENDBRANCH  32  33
ENDBRANCH  31  32
ENDBRANCH   1  31
TORSDOF 18
