REMARK SMILES CC(C)(C)N(CC(=O)OCCOCCOCCOC(=O)c1ccc(-c2c3nc(c(-c4c(F)cccc4F)c4ccc([nH]4)c(-c4c(F)cccc4F)c4nc(c(-c5c(F)cccc5F)c5ccc2[nH]5)C=C4)C=C3)cc1)C(=O)c1cc2ccccc2o1
REMARK SMILES IDX 13 1 12 2 11 3 10 4 9 5 7 6 8 7 6 8 5 9 2 10 1 11 3 12 4 13
REMARK SMILES IDX 75 14 76 15 77 16 78 17 85 18 79 19 84 20 80 21 83 22 81 23
REMARK SMILES IDX 82 24 14 25 15 26 16 27 17 28 18 29 19 30 20 31 21 32 22 33
REMARK SMILES IDX 74 34 23 35 73 36 24 37 25 38 26 39 67 40 27 41 72 42 66 43
REMARK SMILES IDX 68 44 28 45 71 46 65 47 64 48 29 50 55 51 38 52 54 53 39 54
REMARK SMILES IDX 42 55 53 56 69 57 40 58 41 59 52 61 70 62 43 63 30 64 31 65
REMARK SMILES IDX 36 66 32 67 33 68 35 69 37 70 34 71 56 72 57 73 62 74 58 75
REMARK SMILES IDX 59 76 61 77 63 78 60 79 44 80 45 81 50 82 46 83 47 84 49 85
REMARK SMILES IDX 51 86 48 87
REMARK H PARENT 68 49 42 60
REMARK Flexibility Score: inf
ROOT
ATOM      1  C   UNL     1       4.309   2.952  -3.905  1.00  0.00     0.188 C 
ENDROOT
BRANCH   1   2
ATOM      2  O   UNL     1       5.522   2.809  -3.172  1.00  0.00    -0.376 OA
BRANCH   2   3
ATOM      3  C   UNL     1       5.690   1.617  -2.410  1.00  0.00     0.202 C 
BRANCH   3   4
ATOM      4  C   UNL     1       4.850   1.550  -1.129  1.00  0.00     0.261 C 
BRANCH   4   5
ATOM      5  O   UNL     1       3.437   1.375  -1.392  1.00  0.00    -0.462 OA
BRANCH   5   6
ATOM      6  C   UNL     1       2.595   2.353  -0.962  1.00  0.00     0.325 C 
ATOM      7  O   UNL     1       2.956   3.370  -0.380  1.00  0.00    -0.250 OA
BRANCH   6   8
ATOM      8  C   UNL     1       1.129   2.143  -1.394  1.00  0.00     0.243 C 
BRANCH   8   9
ATOM      9  N   UNL     1       0.692   0.817  -1.856  1.00  0.00    -0.320 N 
BRANCH   9  10
ATOM     10  C   UNL     1       0.448  -0.308  -0.906  1.00  0.00     0.036 C 
ATOM     11  C   UNL     1       0.960  -0.035   0.522  1.00  0.00     0.034 C 
ATOM     12  C   UNL     1       1.110  -1.623  -1.377  1.00  0.00     0.034 C 
ATOM     13  C   UNL     1      -1.076  -0.534  -0.825  1.00  0.00     0.034 C 
ENDBRANCH   9  10
BRANCH   9  14
ATOM     14  C   UNL     1       0.622   0.566  -3.221  1.00  0.00     0.290 C 
ATOM     15  O   UNL     1       1.411  -0.203  -3.765  1.00  0.00    -0.265 OA
BRANCH  14  16
ATOM     16  C   UNL     1      -0.434   1.180  -4.002  1.00  0.00     0.192 A 
ATOM     17  C   UNL     1      -0.288   1.945  -5.144  1.00  0.00     0.065 A 
ATOM     18  O   UNL     1      -1.646   0.534  -4.050  1.00  0.00    -0.451 OA
ATOM     19  C   UNL     1      -1.237   1.453  -6.071  1.00  0.00     0.021 A 
ATOM     20  C   UNL     1      -2.069   0.611  -5.347  1.00  0.00     0.135 A 
ATOM     21  C   UNL     1      -1.381   1.529  -7.466  1.00  0.00     0.012 A 
ATOM     22  C   UNL     1      -3.089  -0.146  -5.915  1.00  0.00     0.048 A 
ATOM     23  C   UNL     1      -2.335   0.706  -8.076  1.00  0.00     0.001 A 
ATOM     24  C   UNL     1      -3.178  -0.108  -7.312  1.00  0.00     0.004 A 
ENDBRANCH  14  16
ENDBRANCH   9  14
ENDBRANCH   8   9
ENDBRANCH   6   8
ENDBRANCH   5   6
ENDBRANCH   4   5
ENDBRANCH   3   4
ENDBRANCH   2   3
ENDBRANCH   1   2
BRANCH   1  25
ATOM     25  C   UNL     1       3.686   1.681  -4.488  1.00  0.00     0.188 C 
BRANCH  25  26
ATOM     26  O   UNL     1       4.587   0.986  -5.343  1.00  0.00    -0.376 OA
BRANCH  26  27
ATOM     27  C   UNL     1       4.026   0.690  -6.622  1.00  0.00     0.202 C 
BRANCH  27  28
ATOM     28  C   UNL     1       4.383   1.818  -7.583  1.00  0.00     0.261 C 
BRANCH  28  29
ATOM     29  O   UNL     1       3.708   3.036  -7.201  1.00  0.00    -0.460 OA
BRANCH  29  30
ATOM     30  C   UNL     1       2.624   3.359  -7.929  1.00  0.00     0.338 C 
ATOM     31  O   UNL     1       2.145   2.731  -8.864  1.00  0.00    -0.246 OA
BRANCH  30  32
ATOM     32  C   UNL     1       2.043   4.623  -7.441  1.00  0.00     0.060 A 
ATOM     33  C   UNL     1       1.698   4.788  -6.098  1.00  0.00     0.016 A 
ATOM     34  C   UNL     1       1.703   5.601  -8.372  1.00  0.00     0.016 A 
ATOM     35  C   UNL     1       0.889   5.857  -5.709  1.00  0.00     0.010 A 
ATOM     36  C   UNL     1       0.990   6.728  -7.958  1.00  0.00     0.010 A 
ATOM     37  C   UNL     1       0.527   6.844  -6.634  1.00  0.00    -0.014 A 
BRANCH  37  38
ATOM     38  C   UNL     1      -0.377   7.973  -6.278  1.00  0.00     0.031 A 
ATOM     39  C   UNL     1      -1.628   8.196  -7.087  1.00  0.00     0.074 A 
ATOM     40  C   UNL     1      -0.082   8.829  -5.280  1.00  0.00     0.049 A 
ATOM     41  N   UNL     1      -2.352   9.278  -7.216  1.00  0.00    -0.248 NA
ATOM     42  C   UNL     1      -2.116   7.048  -7.870  1.00  0.00     0.031 C 
ATOM     43  C   UNL     1       1.037   8.706  -4.347  1.00  0.00     0.029 A 
ATOM     44  N   UNL     1      -0.700   9.999  -4.906  1.00  0.00    -0.354 N 
ATOM     45  C   UNL     1      -3.332   8.966  -8.151  1.00  0.00     0.074 A 
ATOM     46  C   UNL     1      -3.123   7.588  -8.542  1.00  0.00     0.031 C 
ATOM     47  C   UNL     1       1.030   9.755  -3.511  1.00  0.00     0.029 A 
ATOM     48  C   UNL     1      -0.028  10.674  -3.916  1.00  0.00     0.049 A 
ATOM     49  H   UNL     1      -1.539  10.321  -5.308  1.00  0.00     0.167 HD
ATOM     50  C   UNL     1      -4.306   9.766  -8.646  1.00  0.00     0.037 A 
ATOM     51  C   UNL     1      -0.189  11.923  -3.439  1.00  0.00     0.037 A 
ATOM     52  C   UNL     1      -4.550  11.114  -8.205  1.00  0.00     0.049 A 
ATOM     53  C   UNL     1      -1.240  12.815  -4.036  1.00  0.00     0.074 A 
ATOM     54  C   UNL     1      -5.517  12.004  -8.639  1.00  0.00     0.029 A 
ATOM     55  N   UNL     1      -3.831  11.758  -7.210  1.00  0.00    -0.354 N 
ATOM     56  N   UNL     1      -2.096  12.557  -4.994  1.00  0.00    -0.248 NA
ATOM     57  C   UNL     1      -1.325  14.183  -3.506  1.00  0.00     0.031 C 
ATOM     58  C   UNL     1      -5.367  13.197  -7.924  1.00  0.00     0.029 A 
ATOM     59  C   UNL     1      -4.329  13.036  -7.021  1.00  0.00     0.049 A 
ATOM     60  H   UNL     1      -3.078  11.365  -6.713  1.00  0.00     0.167 HD
ATOM     61  C   UNL     1      -2.827  13.723  -5.174  1.00  0.00     0.074 A 
ATOM     62  C   UNL     1      -2.325  14.686  -4.216  1.00  0.00     0.031 C 
ATOM     63  C   UNL     1      -3.822  13.977  -6.058  1.00  0.00     0.037 A 
BRANCH  50  64
ATOM     64  C   UNL     1      -5.162   9.223  -9.751  1.00  0.00     0.057 A 
ATOM     65  C   UNL     1      -6.180   8.291  -9.520  1.00  0.00     0.134 A 
ATOM     66  C   UNL     1      -4.995   9.689 -11.062  1.00  0.00     0.134 A 
ATOM     67  F   UNL     1      -6.380   7.795  -8.290  1.00  0.00    -0.206 F 
ATOM     68  C   UNL     1      -6.997   7.835 -10.556  1.00  0.00     0.040 A 
ATOM     69  C   UNL     1      -5.819   9.256 -12.102  1.00  0.00     0.040 A 
ATOM     70  F   UNL     1      -4.038  10.585 -11.350  1.00  0.00    -0.206 F 
ATOM     71  C   UNL     1      -6.823   8.324 -11.850  1.00  0.00     0.006 A 
ENDBRANCH  50  64
BRANCH  51  72
ATOM     72  C   UNL     1       0.727  12.433  -2.389  1.00  0.00     0.057 A 
ATOM     73  C   UNL     1       0.276  12.665  -1.086  1.00  0.00     0.134 A 
ATOM     74  C   UNL     1       2.075  12.697  -2.664  1.00  0.00     0.134 A 
ATOM     75  F   UNL     1      -1.011  12.457  -0.771  1.00  0.00    -0.206 F 
ATOM     76  C   UNL     1       1.131  13.145  -0.093  1.00  0.00     0.040 A 
ATOM     77  C   UNL     1       2.947  13.152  -1.674  1.00  0.00     0.040 A 
ATOM     78  F   UNL     1       2.567  12.497  -3.895  1.00  0.00    -0.206 F 
ATOM     79  C   UNL     1       2.473  13.381  -0.385  1.00  0.00     0.006 A 
ENDBRANCH  51  72
BRANCH  63  80
ATOM     80  C   UNL     1      -4.454  15.334  -6.002  1.00  0.00     0.057 A 
ATOM     81  C   UNL     1      -3.816  16.466  -6.523  1.00  0.00     0.134 A 
ATOM     82  C   UNL     1      -5.727  15.504  -5.444  1.00  0.00     0.134 A 
ATOM     83  F   UNL     1      -2.589  16.369  -7.057  1.00  0.00    -0.206 F 
ATOM     84  C   UNL     1      -4.415  17.725  -6.473  1.00  0.00     0.040 A 
ATOM     85  C   UNL     1      -6.345  16.754  -5.406  1.00  0.00     0.040 A 
ATOM     86  F   UNL     1      -6.392  14.456  -4.934  1.00  0.00    -0.206 F 
ATOM     87  C   UNL     1      -5.686  17.870  -5.917  1.00  0.00     0.006 A 
ENDBRANCH  63  80
ENDBRANCH  37  38
ENDBRANCH  30  32
ENDBRANCH  29  30
ENDBRANCH  28  29
ENDBRANCH  27  28
ENDBRANCH  26  27
ENDBRANCH  25  26
ENDBRANCH   1  25
TORSDOF 21
