REMARK SMILES O=C(OCCOCCOCCOC(=O)[C@@H]1C=C[C@@H]([NH+]2CC3(CCOCC3)C2)C1)c1ccc(-c2c3nc(c(-c4c(F)cccc4F)c4ccc([nH]4)c(-c4c(F)cccc4F)c4nc(c(-c5c(F)cccc5F)c5ccc2[nH]5)C=C4)C=C3)cc1
REMARK SMILES IDX 7 1 6 2 5 3 4 4 3 5 2 6 1 7 29 8 30 9 82 10 31 11 81 12
REMARK SMILES IDX 32 13 33 14 34 15 75 16 35 17 80 18 74 19 76 20 36 21 79 22
REMARK SMILES IDX 73 23 72 24 37 26 63 27 46 28 62 29 47 30 50 31 61 32 77 33
REMARK SMILES IDX 48 34 49 35 60 37 78 38 51 39 38 40 39 41 44 42 40 43 41 44
REMARK SMILES IDX 43 45 45 46 42 47 64 48 65 49 70 50 66 51 67 52 69 53 71 54
REMARK SMILES IDX 68 55 52 56 53 57 58 58 54 59 55 60 57 61 59 62 56 63 8 64
REMARK SMILES IDX 9 65 10 66 11 67 12 68 13 69 14 70 15 71 16 72 28 73 17 74
REMARK SMILES IDX 18 75 19 76 20 77 27 78 21 80 22 81 26 82 23 83 25 84 24 85
REMARK H PARENT 76 25 50 36 19 79
REMARK Flexibility Score: inf
ROOT
ATOM      1  C   UNL     1      -1.878   1.897  -3.198  1.00  0.00     0.188 C 
ENDROOT
BRANCH   1   2
ATOM      2  O   UNL     1      -1.197   0.702  -2.799  1.00  0.00    -0.376 OA
BRANCH   2   3
ATOM      3  C   UNL     1      -2.045  -0.322  -2.273  1.00  0.00     0.202 C 
BRANCH   3   4
ATOM      4  C   UNL     1      -2.470  -0.118  -0.813  1.00  0.00     0.261 C 
BRANCH   4   5
ATOM      5  O   UNL     1      -2.566   1.267  -0.444  1.00  0.00    -0.460 OA
BRANCH   5   6
ATOM      6  C   UNL     1      -1.615   2.054   0.108  1.00  0.00     0.338 C 
ATOM      7  O   UNL     1      -1.929   3.212   0.421  1.00  0.00    -0.246 OA
BRANCH   6   8
ATOM      8  C   UNL     1      -0.204   1.631   0.371  1.00  0.00     0.060 A 
ATOM      9  C   UNL     1       0.448   0.558  -0.241  1.00  0.00     0.016 A 
ATOM     10  C   UNL     1       0.547   2.424   1.262  1.00  0.00     0.016 A 
ATOM     11  C   UNL     1       1.762   0.228   0.066  1.00  0.00     0.010 A 
ATOM     12  C   UNL     1       1.882   2.123   1.552  1.00  0.00     0.010 A 
ATOM     13  C   UNL     1       2.479   0.999   0.974  1.00  0.00    -0.014 A 
BRANCH  13  14
ATOM     14  C   UNL     1       3.786   0.486   1.421  1.00  0.00     0.031 A 
ATOM     15  C   UNL     1       3.841  -0.211   2.743  1.00  0.00     0.074 A 
ATOM     16  C   UNL     1       4.843   0.509   0.591  1.00  0.00     0.049 A 
ATOM     17  N   UNL     1       4.856  -0.760   3.349  1.00  0.00    -0.248 NA
ATOM     18  C   UNL     1       2.566  -0.324   3.474  1.00  0.00     0.031 C 
ATOM     19  C   UNL     1       4.828   1.052  -0.766  1.00  0.00     0.029 A 
ATOM     20  N   UNL     1       6.119   0.041   0.745  1.00  0.00    -0.354 N 
ATOM     21  C   UNL     1       4.349  -1.266   4.537  1.00  0.00     0.074 A 
ATOM     22  C   UNL     1       2.941  -0.947   4.578  1.00  0.00     0.031 C 
ATOM     23  C   UNL     1       6.033   0.877  -1.329  1.00  0.00     0.029 A 
ATOM     24  C   UNL     1       6.921   0.266  -0.348  1.00  0.00     0.049 A 
ATOM     25  H   UNL     1       6.432  -0.413   1.561  1.00  0.00     0.167 HD
ATOM     26  C   UNL     1       5.011  -1.938   5.505  1.00  0.00     0.037 A 
ATOM     27  C   UNL     1       8.235   0.031  -0.512  1.00  0.00     0.037 A 
ATOM     28  C   UNL     1       6.417  -2.224   5.437  1.00  0.00     0.049 A 
ATOM     29  C   UNL     1       8.977  -0.604   0.631  1.00  0.00     0.074 A 
ATOM     30  C   UNL     1       7.224  -2.837   6.374  1.00  0.00     0.029 A 
ATOM     31  N   UNL     1       7.228  -1.898   4.354  1.00  0.00    -0.354 N 
ATOM     32  N   UNL     1       8.508  -1.034   1.780  1.00  0.00    -0.248 NA
ATOM     33  C   UNL     1      10.424  -0.778   0.468  1.00  0.00     0.031 C 
ATOM     34  C   UNL     1       8.534  -2.835   5.881  1.00  0.00     0.029 A 
ATOM     35  C   UNL     1       8.533  -2.274   4.611  1.00  0.00     0.049 A 
ATOM     36  H   UNL     1       6.917  -1.464   3.527  1.00  0.00     0.167 HD
ATOM     37  C   UNL     1       9.595  -1.548   2.470  1.00  0.00     0.074 A 
ATOM     38  C   UNL     1      10.745  -1.391   1.599  1.00  0.00     0.031 C 
ATOM     39  C   UNL     1       9.646  -2.099   3.708  1.00  0.00     0.037 A 
BRANCH  26  40
ATOM     40  C   UNL     1       4.223  -2.311   6.726  1.00  0.00     0.057 A 
ATOM     41  C   UNL     1       3.224  -3.293   6.703  1.00  0.00     0.134 A 
ATOM     42  C   UNL     1       4.421  -1.621   7.929  1.00  0.00     0.134 A 
ATOM     43  F   UNL     1       2.957  -3.966   5.573  1.00  0.00    -0.206 F 
ATOM     44  C   UNL     1       2.425  -3.549   7.820  1.00  0.00     0.040 A 
ATOM     45  C   UNL     1       3.647  -1.886   9.060  1.00  0.00     0.040 A 
ATOM     46  F   UNL     1       5.353  -0.661   8.018  1.00  0.00    -0.206 F 
ATOM     47  C   UNL     1       2.637  -2.844   9.004  1.00  0.00     0.006 A 
ENDBRANCH  26  40
BRANCH  27  48
ATOM     48  C   UNL     1       8.923   0.431  -1.768  1.00  0.00     0.057 A 
ATOM     49  C   UNL     1       9.479  -0.516  -2.635  1.00  0.00     0.134 A 
ATOM     50  C   UNL     1       9.044   1.780  -2.133  1.00  0.00     0.134 A 
ATOM     51  F   UNL     1       9.413  -1.822  -2.339  1.00  0.00    -0.206 F 
ATOM     52  C   UNL     1      10.140  -0.139  -3.807  1.00  0.00     0.040 A 
ATOM     53  C   UNL     1       9.678   2.170  -3.315  1.00  0.00     0.040 A 
ATOM     54  F   UNL     1       8.533   2.742  -1.351  1.00  0.00    -0.206 F 
ATOM     55  C   UNL     1      10.235   1.208  -4.153  1.00  0.00     0.006 A 
ENDBRANCH  27  48
BRANCH  39  56
ATOM     56  C   UNL     1      10.982  -2.597   4.169  1.00  0.00     0.057 A 
ATOM     57  C   UNL     1      12.010  -1.722   4.539  1.00  0.00     0.134 A 
ATOM     58  C   UNL     1      11.220  -3.972   4.290  1.00  0.00     0.134 A 
ATOM     59  F   UNL     1      11.845  -0.394   4.430  1.00  0.00    -0.206 F 
ATOM     60  C   UNL     1      13.239  -2.198   4.995  1.00  0.00     0.040 A 
ATOM     61  C   UNL     1      12.433  -4.459   4.774  1.00  0.00     0.040 A 
ATOM     62  F   UNL     1      10.271  -4.860   3.961  1.00  0.00    -0.206 F 
ATOM     63  C   UNL     1      13.449  -3.570   5.122  1.00  0.00     0.006 A 
ENDBRANCH  39  56
ENDBRANCH  13  14
ENDBRANCH   6   8
ENDBRANCH   5   6
ENDBRANCH   4   5
ENDBRANCH   3   4
ENDBRANCH   2   3
ENDBRANCH   1   2
BRANCH   1  64
ATOM     64  C   UNL     1      -1.299   2.503  -4.483  1.00  0.00     0.188 C 
BRANCH  64  65
ATOM     65  O   UNL     1      -1.449   1.749  -5.687  1.00  0.00    -0.376 OA
BRANCH  65  66
ATOM     66  C   UNL     1      -1.138   0.360  -5.637  1.00  0.00     0.202 C 
BRANCH  66  67
ATOM     67  C   UNL     1       0.326  -0.029  -5.398  1.00  0.00     0.261 C 
BRANCH  67  68
ATOM     68  O   UNL     1       0.972   0.738  -4.363  1.00  0.00    -0.463 OA
BRANCH  68  69
ATOM     69  C   UNL     1       1.979   1.508  -4.814  1.00  0.00     0.313 C 
ATOM     70  O   UNL     1       2.435   1.429  -5.957  1.00  0.00    -0.252 OA
BRANCH  69  71
ATOM     71  C   UNL     1       2.595   2.477  -3.799  1.00  0.00     0.128 C 
ATOM     72  C   UNL     1       2.136   3.151  -2.548  1.00  0.00    -0.010 C 
ATOM     73  C   UNL     1       2.917   3.690  -4.652  1.00  0.00     0.089 C 
ATOM     74  C   UNL     1       2.390   4.475  -2.542  1.00  0.00     0.033 C 
ATOM     75  C   UNL     1       2.710   4.992  -3.911  1.00  0.00     0.208 C 
BRANCH  75  76
ATOM     76  N   UNL     1       3.710   6.042  -4.157  1.00  0.00    -0.328 N 
ATOM     77  C   UNL     1       3.629   6.532  -5.562  1.00  0.00     0.275 C 
ATOM     78  C   UNL     1       5.097   5.596  -4.384  1.00  0.00     0.275 C 
ATOM     79  H   UNL     1       3.531   6.640  -3.349  1.00  0.00     0.348 HD
ATOM     80  C   UNL     1       4.947   5.786  -5.944  1.00  0.00     0.073 C 
ATOM     81  C   UNL     1       6.093   6.655  -6.498  1.00  0.00     0.047 C 
ATOM     82  C   UNL     1       4.830   4.534  -6.848  1.00  0.00     0.047 C 
ATOM     83  C   UNL     1       5.918   6.881  -7.997  1.00  0.00     0.161 C 
ATOM     84  C   UNL     1       4.779   4.872  -8.325  1.00  0.00     0.161 C 
ATOM     85  O   UNL     1       5.915   5.636  -8.692  1.00  0.00    -0.381 OA
ENDBRANCH  75  76
ENDBRANCH  69  71
ENDBRANCH  68  69
ENDBRANCH  67  68
ENDBRANCH  66  67
ENDBRANCH  65  66
ENDBRANCH  64  65
ENDBRANCH   1  64
TORSDOF 18
