REMARK SMILES C[C@H](/N=C(\Cc1ccccc1)C(=O)OC(C)(C)C)C(=O)OCCOCCOCCOC(=O)c1ccc(-c2c3nc(c(-c4c(F)cccc4F)c4ccc([nH]4)c(-c4c(F)cccc4F)c4nc(c(-c5c(F)cccc5F)c5ccc2[nH]5)C=C4)C=C3)cc1
REMARK SMILES IDX 25 1 24 2 23 3 22 4 21 5 19 6 20 7 2 8 1 9 3 10 4 11 5 12
REMARK SMILES IDX 6 13 7 14 11 15 8 16 10 17 9 18 12 19 13 20 14 21 15 22
REMARK SMILES IDX 16 23 17 24 18 25 26 26 27 27 28 28 29 29 30 30 31 31 32 32
REMARK SMILES IDX 33 33 34 34 86 35 35 36 85 37 36 38 37 39 38 40 79 41 39 42
REMARK SMILES IDX 84 43 78 44 80 45 40 46 83 47 77 48 76 49 41 51 67 52 50 53
REMARK SMILES IDX 66 54 51 55 54 56 65 57 81 58 52 59 53 60 64 62 82 63 55 64
REMARK SMILES IDX 42 65 43 66 48 67 44 68 45 69 47 70 49 71 46 72 68 73 69 74
REMARK SMILES IDX 74 75 70 76 71 77 73 78 75 79 72 80 56 81 57 82 62 83 58 84
REMARK SMILES IDX 59 85 61 86 63 87 60 88
REMARK H PARENT 80 50 54 61
REMARK Flexibility Score: inf
ROOT
ATOM      1  C   UNL     1      -2.228  -1.863   0.194  1.00  0.00     0.188 C 
ENDROOT
BRANCH   1   2
ATOM      2  O   UNL     1      -3.580  -1.639   0.575  1.00  0.00    -0.376 OA
BRANCH   2   3
ATOM      3  C   UNL     1      -3.983  -0.324   0.948  1.00  0.00     0.202 C 
BRANCH   3   4
ATOM      4  C   UNL     1      -3.127   0.494   1.933  1.00  0.00     0.261 C 
BRANCH   4   5
ATOM      5  O   UNL     1      -1.725   0.560   1.605  1.00  0.00    -0.462 OA
BRANCH   5   6
ATOM      6  C   UNL     1      -0.858   0.164   2.576  1.00  0.00     0.330 C 
ATOM      7  O   UNL     1      -1.193  -0.092   3.730  1.00  0.00    -0.250 OA
BRANCH   6   8
ATOM      8  C   UNL     1       0.585  -0.035   2.088  1.00  0.00     0.212 C 
ATOM      9  C   UNL     1       1.595   0.491   3.090  1.00  0.00     0.046 C 
BRANCH   8  10
ATOM     10  N   UNL     1       0.874   0.368   0.705  1.00  0.00    -0.267 NA
ATOM     11  C   UNL     1       0.911   1.551   0.199  1.00  0.00     0.125 C 
BRANCH  11  12
ATOM     12  C   UNL     1       0.792   2.839   0.967  1.00  0.00     0.099 C 
BRANCH  12  13
ATOM     13  C   UNL     1       2.132   3.473   1.288  1.00  0.00    -0.042 A 
ATOM     14  C   UNL     1       2.145   4.662   2.026  1.00  0.00     0.004 A 
ATOM     15  C   UNL     1       3.361   2.938   0.861  1.00  0.00     0.004 A 
ATOM     16  C   UNL     1       3.350   5.306   2.312  1.00  0.00     0.000 A 
ATOM     17  C   UNL     1       4.562   3.590   1.134  1.00  0.00     0.000 A 
ATOM     18  C   UNL     1       4.556   4.776   1.858  1.00  0.00     0.000 A 
ENDBRANCH  12  13
ENDBRANCH  11  12
BRANCH  11  19
ATOM     19  C   UNL     1       1.214   1.673  -1.324  1.00  0.00     0.353 C 
ATOM     20  O   UNL     1       1.366   0.700  -2.047  1.00  0.00    -0.245 OA
BRANCH  19  21
ATOM     21  O   UNL     1       1.369   2.966  -1.669  1.00  0.00    -0.455 OA
BRANCH  21  22
ATOM     22  C   UNL     1       1.878   3.374  -2.967  1.00  0.00     0.104 C 
ATOM     23  C   UNL     1       3.290   2.832  -3.219  1.00  0.00     0.056 C 
ATOM     24  C   UNL     1       0.917   2.989  -4.095  1.00  0.00     0.056 C 
ATOM     25  C   UNL     1       1.959   4.907  -2.885  1.00  0.00     0.056 C 
ENDBRANCH  21  22
ENDBRANCH  19  21
ENDBRANCH  11  19
ENDBRANCH   8  10
ENDBRANCH   6   8
ENDBRANCH   5   6
ENDBRANCH   4   5
ENDBRANCH   3   4
ENDBRANCH   2   3
ENDBRANCH   1   2
BRANCH   1  26
ATOM     26  C   UNL     1      -1.578  -0.945  -0.856  1.00  0.00     0.188 C 
BRANCH  26  27
ATOM     27  O   UNL     1      -2.303   0.222  -1.159  1.00  0.00    -0.376 OA
BRANCH  27  28
ATOM     28  C   UNL     1      -2.971   0.276  -2.409  1.00  0.00     0.202 C 
BRANCH  28  29
ATOM     29  C   UNL     1      -3.571  -0.967  -3.110  1.00  0.00     0.261 C 
BRANCH  29  30
ATOM     30  O   UNL     1      -3.067  -2.266  -2.755  1.00  0.00    -0.460 OA
BRANCH  30  31
ATOM     31  C   UNL     1      -2.038  -2.754  -3.491  1.00  0.00     0.338 C 
ATOM     32  O   UNL     1      -1.502  -2.222  -4.449  1.00  0.00    -0.246 OA
BRANCH  31  33
ATOM     33  C   UNL     1      -1.530  -3.979  -2.831  1.00  0.00     0.060 A 
ATOM     34  C   UNL     1      -0.279  -3.956  -2.195  1.00  0.00     0.016 A 
ATOM     35  C   UNL     1      -2.280  -5.155  -2.857  1.00  0.00     0.016 A 
ATOM     36  C   UNL     1       0.230  -5.113  -1.596  1.00  0.00     0.010 A 
ATOM     37  C   UNL     1      -1.758  -6.319  -2.281  1.00  0.00     0.010 A 
ATOM     38  C   UNL     1      -0.490  -6.312  -1.669  1.00  0.00    -0.014 A 
BRANCH  38  39
ATOM     39  C   UNL     1       0.139  -7.594  -1.256  1.00  0.00     0.031 A 
ATOM     40  C   UNL     1       0.708  -8.495  -2.320  1.00  0.00     0.074 A 
ATOM     41  C   UNL     1       0.205  -7.962   0.036  1.00  0.00     0.049 A 
ATOM     42  N   UNL     1       1.219  -9.695  -2.211  1.00  0.00    -0.248 NA
ATOM     43  C   UNL     1       0.691  -7.970  -3.695  1.00  0.00     0.031 C 
ATOM     44  C   UNL     1      -0.268  -7.169   1.169  1.00  0.00     0.029 A 
ATOM     45  N   UNL     1       0.685  -9.115   0.610  1.00  0.00    -0.354 N 
ATOM     46  C   UNL     1       1.575 -10.071  -3.500  1.00  0.00     0.074 A 
ATOM     47  C   UNL     1       1.194  -8.986  -4.379  1.00  0.00     0.031 C 
ATOM     48  C   UNL     1      -0.072  -7.867   2.301  1.00  0.00     0.029 A 
ATOM     49  C   UNL     1       0.505  -9.170   1.971  1.00  0.00     0.049 A 
ATOM     50  H   UNL     1       1.117  -9.834   0.094  1.00  0.00     0.167 HD
ATOM     51  C   UNL     1       2.173 -11.214  -3.915  1.00  0.00     0.037 A 
ATOM     52  C   UNL     1       0.751 -10.167   2.844  1.00  0.00     0.037 A 
ATOM     53  C   UNL     1       2.550 -12.296  -3.042  1.00  0.00     0.049 A 
ATOM     54  C   UNL     1       1.340 -11.464   2.346  1.00  0.00     0.074 A 
ATOM     55  C   UNL     1       3.175 -13.487  -3.368  1.00  0.00     0.029 A 
ATOM     56  N   UNL     1       2.328 -12.323  -1.674  1.00  0.00    -0.354 N 
ATOM     57  N   UNL     1       1.698 -11.801   1.130  1.00  0.00    -0.248 NA
ATOM     58  C   UNL     1       1.563 -12.519   3.346  1.00  0.00     0.031 C 
ATOM     59  C   UNL     1       3.278 -14.260  -2.207  1.00  0.00     0.029 A 
ATOM     60  C   UNL     1       2.777 -13.523  -1.147  1.00  0.00     0.049 A 
ATOM     61  H   UNL     1       1.912 -11.598  -1.155  1.00  0.00     0.167 HD
ATOM     62  C   UNL     1       2.216 -13.088   1.226  1.00  0.00     0.074 A 
ATOM     63  C   UNL     1       2.143 -13.464   2.621  1.00  0.00     0.031 C 
ATOM     64  C   UNL     1       2.709 -13.886   0.246  1.00  0.00     0.037 A 
BRANCH  51  65
ATOM     65  C   UNL     1       2.437 -11.366  -5.385  1.00  0.00     0.057 A 
ATOM     66  C   UNL     1       3.415 -10.612  -6.046  1.00  0.00     0.134 A 
ATOM     67  C   UNL     1       1.734 -12.315  -6.141  1.00  0.00     0.134 A 
ATOM     68  F   UNL     1       4.115  -9.678  -5.385  1.00  0.00    -0.206 F 
ATOM     69  C   UNL     1       3.670 -10.780  -7.409  1.00  0.00     0.040 A 
ATOM     70  C   UNL     1       2.001 -12.513  -7.496  1.00  0.00     0.040 A 
ATOM     71  F   UNL     1       0.788 -13.075  -5.570  1.00  0.00    -0.206 F 
ATOM     72  C   UNL     1       2.968 -11.740  -8.135  1.00  0.00     0.006 A 
ENDBRANCH  51  65
BRANCH  52  73
ATOM     73  C   UNL     1       0.423 -10.003   4.286  1.00  0.00     0.057 A 
ATOM     74  C   UNL     1       1.426  -9.979   5.262  1.00  0.00     0.134 A 
ATOM     75  C   UNL     1      -0.904  -9.918   4.727  1.00  0.00     0.134 A 
ATOM     76  F   UNL     1       2.716 -10.086   4.908  1.00  0.00    -0.206 F 
ATOM     77  C   UNL     1       1.123  -9.904   6.623  1.00  0.00     0.040 A 
ATOM     78  C   UNL     1      -1.220  -9.811   6.082  1.00  0.00     0.040 A 
ATOM     79  F   UNL     1      -1.914  -9.941   3.845  1.00  0.00    -0.206 F 
ATOM     80  C   UNL     1      -0.205  -9.815   7.036  1.00  0.00     0.006 A 
ENDBRANCH  52  73
BRANCH  64  81
ATOM     81  C   UNL     1       3.253 -15.228   0.653  1.00  0.00     0.057 A 
ATOM     82  C   UNL     1       2.424 -16.265   1.099  1.00  0.00     0.134 A 
ATOM     83  C   UNL     1       4.627 -15.495   0.568  1.00  0.00     0.134 A 
ATOM     84  F   UNL     1       1.100 -16.076   1.214  1.00  0.00    -0.206 F 
ATOM     85  C   UNL     1       2.943 -17.506   1.474  1.00  0.00     0.040 A 
ATOM     86  C   UNL     1       5.153 -16.741   0.909  1.00  0.00     0.040 A 
ATOM     87  F   UNL     1       5.479 -14.552   0.137  1.00  0.00    -0.206 F 
ATOM     88  C   UNL     1       4.311 -17.749   1.374  1.00  0.00     0.006 A 
ENDBRANCH  64  81
ENDBRANCH  38  39
ENDBRANCH  31  33
ENDBRANCH  30  31
ENDBRANCH  29  30
ENDBRANCH  28  29
ENDBRANCH  27  28
ENDBRANCH  26  27
ENDBRANCH   1  26
TORSDOF 23
