REMARK SMILES C[C@]1(O)CC[C@H]2[C@H]3CCC4=C/C(=N/OCC(=O)N[C@@H](CO)C(=O)OCCOCCOCCOC(=O)c5ccc(-c6c7nc(c(-c8c(F)cccc8F)c8ccc([nH]8)c(-c8c(F)cccc8F)c8nc(c(-c9c(F)cccc9F)c9ccc6[nH]9)C=C8)C=C7)cc5)CC[C@@]4(C)[C@@H]3CC[C@]21C
REMARK SMILES IDX 27 1 26 2 25 3 24 4 22 5 23 6 19 7 18 8 16 9 17 10 15 12
REMARK SMILES IDX 14 13 13 14 93 15 92 16 91 17 10 18 94 19 90 20 11 21 9 22
REMARK SMILES IDX 7 23 95 24 12 25 8 26 6 27 96 28 97 29 5 30 2 31 98 32 4 33
REMARK SMILES IDX 1 34 3 35 20 37 21 38 28 40 29 41 30 42 31 43 32 44 33 45
REMARK SMILES IDX 34 46 35 47 36 48 37 49 89 50 38 51 88 52 39 53 40 54 41 55
REMARK SMILES IDX 82 56 42 57 87 58 81 59 83 60 43 61 86 62 80 63 79 64 44 66
REMARK SMILES IDX 70 67 53 68 69 69 54 70 57 71 68 72 84 73 55 74 56 75 67 77
REMARK SMILES IDX 85 78 58 79 45 80 46 81 51 82 47 83 48 84 50 85 52 86 49 87
REMARK SMILES IDX 71 88 72 89 77 90 73 91 74 92 76 93 78 94 75 95 59 96 60 97
REMARK SMILES IDX 65 98 61 99 62 100 64 101 66 102 63 103
REMARK H PARENT 18 11 3 36 21 39 83 65 57 76
REMARK Flexibility Score: inf
ROOT
ATOM      1  O   UNL     1      -6.510  -0.054  -1.887  1.00  0.00    -0.376 OA
ENDROOT
BRANCH   1   2
ATOM      2  C   UNL     1      -6.457  -0.889  -3.032  1.00  0.00     0.202 C 
BRANCH   2   3
ATOM      3  C   UNL     1      -5.368  -1.931  -2.820  1.00  0.00     0.261 C 
BRANCH   3   4
ATOM      4  O   UNL     1      -4.045  -1.354  -2.826  1.00  0.00    -0.462 OA
BRANCH   4   5
ATOM      5  C   UNL     1      -3.555  -0.896  -4.027  1.00  0.00     0.331 C 
ATOM      6  O   UNL     1      -4.192  -0.850  -5.071  1.00  0.00    -0.250 OA
BRANCH   5   7
ATOM      7  C   UNL     1      -2.054  -0.588  -3.871  1.00  0.00     0.218 C 
BRANCH   7   8
ATOM      8  N   UNL     1      -1.917   0.432  -2.779  1.00  0.00    -0.338 N 
ATOM      9  C   UNL     1      -1.113   1.415  -2.301  1.00  0.00     0.261 C 
ATOM     10  O   UNL     1      -1.666   2.056  -1.386  1.00  0.00    -0.271 OA
ATOM     11  H   UNL     1      -2.704   0.362  -2.191  1.00  0.00     0.164 HD
BRANCH   9  12
ATOM     12  C   UNL     1       0.315   1.886  -2.766  1.00  0.00     0.363 C 
BRANCH  12  13
ATOM     13  O   UNL     1       1.452   1.054  -2.969  1.00  0.00    -0.385 OA
BRANCH  13  14
ATOM     14  N   UNL     1       2.365   0.976  -1.836  1.00  0.00    -0.091 NA
ATOM     15  C   UNL     1       0.831   0.257   0.489  1.00  0.00     0.016 C 
ATOM     16  C   UNL     1       0.872  -1.206  -0.096  1.00  0.00    -0.008 C 
ATOM     17  C   UNL     1       0.825  -1.482  -1.654  1.00  0.00     0.018 C 
ATOM     18  C   UNL     1       2.268  -1.649   0.279  1.00  0.00    -0.062 C 
ATOM     19  C   UNL     1      -0.406  -1.927   0.425  1.00  0.00     0.002 C 
ATOM     20  C   UNL     1       2.098  -1.325  -2.481  1.00  0.00     0.061 C 
ATOM     21  C   UNL     1       3.270  -0.969  -0.373  1.00  0.00     0.027 C 
ATOM     22  C   UNL     1       2.351  -2.730   1.334  1.00  0.00     0.032 C 
ATOM     23  C   UNL     1      -0.229  -2.637   1.759  1.00  0.00    -0.003 C 
ATOM     24  C   UNL     1      -1.601  -0.968   0.427  1.00  0.00     0.005 C 
ATOM     25  C   UNL     1       2.718  -0.272  -1.647  1.00  0.00     0.080 C 
ATOM     26  C   UNL     1       1.026  -3.535   1.610  1.00  0.00     0.008 C 
ATOM     27  C   UNL     1      -1.585  -3.330   2.180  1.00  0.00     0.001 C 
ATOM     28  C   UNL     1      -2.887  -1.644   0.768  1.00  0.00     0.010 C 
ATOM     29  C   UNL     1      -2.826  -2.370   2.121  1.00  0.00    -0.001 C 
ATOM     30  C   UNL     1      -2.071  -4.511   1.325  1.00  0.00     0.007 C 
ATOM     31  C   UNL     1      -4.077  -3.301   2.190  1.00  0.00     0.068 C 
ATOM     32  C   UNL     1      -2.761  -1.336   3.262  1.00  0.00     0.015 C 
ATOM     33  C   UNL     1      -3.592  -4.622   1.557  1.00  0.00     0.036 C 
ATOM     34  C   UNL     1      -4.680  -3.515   3.575  1.00  0.00     0.042 C 
BRANCH  31  35
ATOM     35  O   UNL     1      -5.161  -2.804   1.387  1.00  0.00    -0.390 OA
ATOM     36  H   UNL     1      -4.848  -2.643   0.483  1.00  0.00     0.211 HD
ENDBRANCH  31  35
ENDBRANCH  13  14
ENDBRANCH  12  13
ENDBRANCH   9  12
ENDBRANCH   7   8
BRANCH   7  37
ATOM     37  C   UNL     1      -1.461  -1.974  -3.527  1.00  0.00     0.193 C 
BRANCH  37  38
ATOM     38  O   UNL     1      -2.168  -3.111  -4.024  1.00  0.00    -0.394 OA
ATOM     39  H   UNL     1      -3.050  -3.145  -3.622  1.00  0.00     0.210 HD
ENDBRANCH  37  38
ENDBRANCH   7  37
ENDBRANCH   5   7
ENDBRANCH   4   5
ENDBRANCH   3   4
ENDBRANCH   2   3
ENDBRANCH   1   2
BRANCH   1  40
ATOM     40  C   UNL     1      -5.577   1.014  -1.872  1.00  0.00     0.188 C 
BRANCH  40  41
ATOM     41  C   UNL     1      -5.056   1.283  -0.452  1.00  0.00     0.188 C 
BRANCH  41  42
ATOM     42  O   UNL     1      -5.867   0.925   0.662  1.00  0.00    -0.376 OA
BRANCH  42  43
ATOM     43  C   UNL     1      -7.267   1.168   0.578  1.00  0.00     0.202 C 
BRANCH  43  44
ATOM     44  C   UNL     1      -7.730   2.614   0.340  1.00  0.00     0.261 C 
BRANCH  44  45
ATOM     45  O   UNL     1      -7.235   3.210  -0.876  1.00  0.00    -0.460 OA
BRANCH  45  46
ATOM     46  C   UNL     1      -6.352   4.231  -0.729  1.00  0.00     0.338 C 
ATOM     47  O   UNL     1      -5.988   4.744   0.314  1.00  0.00    -0.246 OA
BRANCH  46  48
ATOM     48  C   UNL     1      -5.741   4.571  -2.036  1.00  0.00     0.060 A 
ATOM     49  C   UNL     1      -4.353   4.431  -2.201  1.00  0.00     0.016 A 
ATOM     50  C   UNL     1      -6.515   5.112  -3.062  1.00  0.00     0.016 A 
ATOM     51  C   UNL     1      -3.729   4.872  -3.373  1.00  0.00     0.010 A 
ATOM     52  C   UNL     1      -5.886   5.582  -4.220  1.00  0.00     0.010 A 
ATOM     53  C   UNL     1      -4.487   5.502  -4.365  1.00  0.00    -0.014 A 
BRANCH  53  54
ATOM     54  C   UNL     1      -3.839   6.307  -5.432  1.00  0.00     0.031 A 
ATOM     55  C   UNL     1      -3.684   7.786  -5.197  1.00  0.00     0.074 A 
ATOM     56  C   UNL     1      -3.455   5.774  -6.605  1.00  0.00     0.049 A 
ATOM     57  N   UNL     1      -3.398   8.741  -6.044  1.00  0.00    -0.248 NA
ATOM     58  C   UNL     1      -3.899   8.247  -3.816  1.00  0.00     0.031 C 
ATOM     59  C   UNL     1      -3.476   4.353  -6.941  1.00  0.00     0.029 A 
ATOM     60  N   UNL     1      -3.003   6.387  -7.750  1.00  0.00    -0.354 N 
ATOM     61  C   UNL     1      -3.434   9.918  -5.306  1.00  0.00     0.074 A 
ATOM     62  C   UNL     1      -3.770   9.558  -3.946  1.00  0.00     0.031 C 
ATOM     63  C   UNL     1      -3.093   4.205  -8.222  1.00  0.00     0.029 A 
ATOM     64  C   UNL     1      -2.852   5.524  -8.809  1.00  0.00     0.049 A 
ATOM     65  H   UNL     1      -2.807   7.350  -7.805  1.00  0.00     0.167 HD
ATOM     66  C   UNL     1      -3.220  11.186  -5.727  1.00  0.00     0.037 A 
ATOM     67  C   UNL     1      -2.602   5.778 -10.109  1.00  0.00     0.037 A 
ATOM     68  C   UNL     1      -2.886  11.544  -7.079  1.00  0.00     0.049 A 
ATOM     69  C   UNL     1      -2.449   7.205 -10.577  1.00  0.00     0.074 A 
ATOM     70  C   UNL     1      -2.650  12.801  -7.605  1.00  0.00     0.029 A 
ATOM     71  N   UNL     1      -2.745  10.639  -8.119  1.00  0.00    -0.354 N 
ATOM     72  N   UNL     1      -2.503   8.316  -9.883  1.00  0.00    -0.248 NA
ATOM     73  C   UNL     1      -2.212   7.413 -12.015  1.00  0.00     0.031 C 
ATOM     74  C   UNL     1      -2.408  12.661  -8.975  1.00  0.00     0.029 A 
ATOM     75  C   UNL     1      -2.441  11.312  -9.289  1.00  0.00     0.049 A 
ATOM     76  H   UNL     1      -2.845   9.663  -8.037  1.00  0.00     0.167 HD
ATOM     77  C   UNL     1      -2.271   9.346 -10.788  1.00  0.00     0.074 A 
ATOM     78  C   UNL     1      -2.077   8.731 -12.083  1.00  0.00     0.031 C 
ATOM     79  C   UNL     1      -2.220  10.683 -10.566  1.00  0.00     0.037 A 
BRANCH  66  80
ATOM     80  C   UNL     1      -3.386  12.284  -4.719  1.00  0.00     0.057 A 
ATOM     81  C   UNL     1      -2.461  12.493  -3.689  1.00  0.00     0.134 A 
ATOM     82  C   UNL     1      -4.481  13.154  -4.793  1.00  0.00     0.134 A 
ATOM     83  F   UNL     1      -1.400  11.684  -3.553  1.00  0.00    -0.206 F 
ATOM     84  C   UNL     1      -2.631  13.516  -2.754  1.00  0.00     0.040 A 
ATOM     85  C   UNL     1      -4.648  14.196  -3.880  1.00  0.00     0.040 A 
ATOM     86  F   UNL     1      -5.403  13.010  -5.757  1.00  0.00    -0.206 F 
ATOM     87  C   UNL     1      -3.725  14.375  -2.852  1.00  0.00     0.006 A 
ENDBRANCH  66  80
BRANCH  67  88
ATOM     88  C   UNL     1      -2.522   4.662 -11.087  1.00  0.00     0.057 A 
ATOM     89  C   UNL     1      -1.312   4.329 -11.708  1.00  0.00     0.134 A 
ATOM     90  C   UNL     1      -3.656   3.927 -11.454  1.00  0.00     0.134 A 
ATOM     91  F   UNL     1      -0.197   5.017 -11.423  1.00  0.00    -0.206 F 
ATOM     92  C   UNL     1      -1.235   3.318 -12.668  1.00  0.00     0.040 A 
ATOM     93  C   UNL     1      -3.589   2.896 -12.393  1.00  0.00     0.040 A 
ATOM     94  F   UNL     1      -4.848   4.200 -10.902  1.00  0.00    -0.206 F 
ATOM     95  C   UNL     1      -2.376   2.595 -13.009  1.00  0.00     0.006 A 
ENDBRANCH  67  88
BRANCH  79  96
ATOM     96  C   UNL     1      -1.876  11.574 -11.723  1.00  0.00     0.057 A 
ATOM     97  C   UNL     1      -2.792  11.861 -12.741  1.00  0.00     0.134 A 
ATOM     98  C   UNL     1      -0.631  12.218 -11.772  1.00  0.00     0.134 A 
ATOM     99  F   UNL     1      -3.997  11.271 -12.758  1.00  0.00    -0.206 F 
ATOM    100  C   UNL     1      -2.480  12.749 -13.773  1.00  0.00     0.040 A 
ATOM    101  C   UNL     1      -0.317  13.125 -12.784  1.00  0.00     0.040 A 
ATOM    102  F   UNL     1       0.288  11.995 -10.821  1.00  0.00    -0.206 F 
ATOM    103  C   UNL     1      -1.243  13.392 -13.790  1.00  0.00     0.006 A 
ENDBRANCH  79  96
ENDBRANCH  53  54
ENDBRANCH  46  48
ENDBRANCH  45  46
ENDBRANCH  44  45
ENDBRANCH  43  44
ENDBRANCH  42  43
ENDBRANCH  41  42
ENDBRANCH  40  41
ENDBRANCH   1  40
TORSDOF 24
