REMARK SMILES CC[C@@H](C)[C@@H](NC(=O)Cn1nc(-c2ccc3ccccc3c2)ccc1=O)C(=O)OCCOCCOCCOC(=O)c1ccc(-c2c3nc(c(-c4c(F)cccc4F)c4ccc([nH]4)c(-c4c(F)cccc4F)c4nc(c(-c5c(F)cccc5F)c5ccc2[nH]5)C=C4)C=C3)cc1
REMARK SMILES IDX 33 1 32 2 31 3 30 4 29 5 27 6 28 7 5 8 3 9 4 10 2 11 1 12
REMARK SMILES IDX 6 13 7 14 8 16 9 17 10 18 11 19 25 20 12 21 24 22 26 23
REMARK SMILES IDX 23 24 13 25 14 26 22 27 15 28 21 29 16 30 20 31 17 32 19 33
REMARK SMILES IDX 18 34 34 35 35 36 36 37 37 38 38 39 39 40 40 41 41 42 42 43
REMARK SMILES IDX 94 44 43 45 93 46 44 47 45 48 46 49 87 50 47 51 92 52 86 53
REMARK SMILES IDX 88 54 48 55 91 56 85 57 84 58 49 60 75 61 58 62 74 63 59 64
REMARK SMILES IDX 62 65 73 66 89 67 60 68 61 69 72 71 90 72 63 73 50 74 51 75
REMARK SMILES IDX 56 76 52 77 53 78 55 79 57 80 54 81 76 82 77 83 82 84 78 85
REMARK SMILES IDX 79 86 81 87 83 88 80 89 64 90 65 91 70 92 66 93 67 94 69 95
REMARK SMILES IDX 71 96 68 97
REMARK H PARENT 6 15 88 59 62 70
REMARK Flexibility Score: inf
ROOT
ATOM      1  C   UNL     1       1.095  -5.231  -5.585  1.00  0.00     0.188 C 
ENDROOT
BRANCH   1   2
ATOM      2  O   UNL     1       2.558  -5.223  -5.618  1.00  0.00    -0.376 OA
BRANCH   2   3
ATOM      3  C   UNL     1       3.321  -4.245  -6.428  1.00  0.00     0.202 C 
BRANCH   3   4
ATOM      4  C   UNL     1       3.925  -2.583  -5.856  1.00  0.00     0.261 C 
BRANCH   4   5
ATOM      5  O   UNL     1       2.792  -1.306  -4.749  1.00  0.00    -0.462 OA
BRANCH   5   6
ATOM      6  C   UNL     1       1.402  -1.038  -4.268  1.00  0.00     0.328 C 
ATOM      7  O   UNL     1       0.439  -1.811  -4.350  1.00  0.00    -0.250 OA
BRANCH   6   8
ATOM      8  C   UNL     1       1.185   0.267  -3.617  1.00  0.00     0.195 C 
BRANCH   8   9
ATOM      9  C   UNL     1       1.341  -0.005  -2.080  1.00  0.00     0.019 C 
ATOM     10  C   UNL     1       0.860  -1.411  -1.610  1.00  0.00     0.010 C 
BRANCH   9  11
ATOM     11  C   UNL     1       0.651   1.061  -1.218  1.00  0.00     0.002 C 
ATOM     12  C   UNL     1       0.973   0.892   0.268  1.00  0.00     0.004 C 
ENDBRANCH   9  11
ENDBRANCH   8   9
BRANCH   8  13
ATOM     13  N   UNL     1       2.030   1.283  -4.237  1.00  0.00    -0.341 N 
ATOM     14  C   UNL     1       2.106   1.552  -5.597  1.00  0.00     0.242 C 
ATOM     15  H   UNL     1       2.595   1.825  -3.639  1.00  0.00     0.164 HD
ATOM     16  O   UNL     1       1.983   2.746  -5.904  1.00  0.00    -0.273 OA
BRANCH  14  17
ATOM     17  C   UNL     1       2.177   0.473  -6.743  1.00  0.00     0.248 C 
BRANCH  17  18
ATOM     18  N   UNL     1       2.976  -0.732  -6.478  1.00  0.00    -0.220 N 
ATOM     19  N   UNL     1       4.408  -0.379  -5.430  1.00  0.00    -0.169 NA
ATOM     20  C   UNL     1       1.981  -2.204  -6.136  1.00  0.00     0.267 A 
ATOM     21  C   UNL     1       4.686  -1.132  -4.241  1.00  0.00     0.091 A 
ATOM     22  C   UNL     1       2.568  -3.105  -4.427  1.00  0.00     0.075 A 
ATOM     23  O   UNL     1       1.042  -2.493  -6.880  1.00  0.00    -0.268 OA
ATOM     24  C   UNL     1       3.740  -2.640  -3.624  1.00  0.00     0.036 A 
BRANCH  21  25
ATOM     25  C   UNL     1       5.728  -0.757  -3.254  1.00  0.00     0.003 A 
ATOM     26  C   UNL     1       5.279  -0.324  -2.008  1.00  0.00     0.011 A 
ATOM     27  C   UNL     1       7.094  -0.894  -3.487  1.00  0.00     0.019 A 
ATOM     28  C   UNL     1       6.165  -0.031  -0.980  1.00  0.00     0.009 A 
ATOM     29  C   UNL     1       8.014  -0.604  -2.449  1.00  0.00    -0.018 A 
ATOM     30  C   UNL     1       7.534  -0.172  -1.185  1.00  0.00    -0.018 A 
ATOM     31  C   UNL     1       9.404  -0.729  -2.614  1.00  0.00     0.009 A 
ATOM     32  C   UNL     1       8.424   0.114  -0.141  1.00  0.00     0.009 A 
ATOM     33  C   UNL     1      10.284  -0.429  -1.567  1.00  0.00     0.001 A 
ATOM     34  C   UNL     1       9.795  -0.010  -0.333  1.00  0.00     0.001 A 
ENDBRANCH  21  25
ENDBRANCH  17  18
ENDBRANCH  14  17
ENDBRANCH   8  13
ENDBRANCH   6   8
ENDBRANCH   5   6
ENDBRANCH   4   5
ENDBRANCH   3   4
ENDBRANCH   2   3
ENDBRANCH   1   2
BRANCH   1  35
ATOM     35  C   UNL     1       0.436  -5.460  -4.164  1.00  0.00     0.188 C 
BRANCH  35  36
ATOM     36  O   UNL     1       1.254  -5.273  -2.999  1.00  0.00    -0.376 OA
BRANCH  36  37
ATOM     37  C   UNL     1       2.199  -6.297  -2.738  1.00  0.00     0.202 C 
BRANCH  37  38
ATOM     38  C   UNL     1       1.681  -7.259  -1.667  1.00  0.00     0.261 C 
BRANCH  38  39
ATOM     39  O   UNL     1       0.249  -7.244  -1.598  1.00  0.00    -0.460 OA
BRANCH  39  40
ATOM     40  C   UNL     1      -0.287  -6.159  -0.968  1.00  0.00     0.338 C 
ATOM     41  O   UNL     1       0.269  -5.431  -0.163  1.00  0.00    -0.246 OA
BRANCH  40  42
ATOM     42  C   UNL     1      -1.624  -5.894  -1.567  1.00  0.00     0.060 A 
ATOM     43  C   UNL     1      -2.340  -6.923  -2.188  1.00  0.00     0.016 A 
ATOM     44  C   UNL     1      -2.134  -4.587  -1.580  1.00  0.00     0.016 A 
ATOM     45  C   UNL     1      -3.566  -6.656  -2.788  1.00  0.00     0.010 A 
ATOM     46  C   UNL     1      -3.386  -4.325  -2.152  1.00  0.00     0.010 A 
ATOM     47  C   UNL     1      -4.126  -5.368  -2.725  1.00  0.00    -0.014 A 
BRANCH  47  48
ATOM     48  C   UNL     1      -5.571  -5.226  -3.034  1.00  0.00     0.031 A 
ATOM     49  C   UNL     1      -6.081  -4.576  -4.282  1.00  0.00     0.074 A 
ATOM     50  C   UNL     1      -6.431  -5.768  -2.147  1.00  0.00     0.049 A 
ATOM     51  N   UNL     1      -7.312  -4.525  -4.730  1.00  0.00    -0.248 NA
ATOM     52  C   UNL     1      -5.100  -3.893  -5.134  1.00  0.00     0.031 C 
ATOM     53  C   UNL     1      -6.040  -6.403  -0.883  1.00  0.00     0.029 A 
ATOM     54  N   UNL     1      -7.793  -5.904  -2.176  1.00  0.00    -0.354 N 
ATOM     55  C   UNL     1      -7.257  -3.817  -5.923  1.00  0.00     0.074 A 
ATOM     56  C   UNL     1      -5.873  -3.426  -6.109  1.00  0.00     0.031 C 
ATOM     57  C   UNL     1      -7.128  -6.910  -0.289  1.00  0.00     0.029 A 
ATOM     58  C   UNL     1      -8.297  -6.592  -1.097  1.00  0.00     0.049 A 
ATOM     59  H   UNL     1      -8.357  -5.545  -2.899  1.00  0.00     0.167 HD
ATOM     60  C   UNL     1      -8.270  -3.530  -6.779  1.00  0.00     0.037 A 
ATOM     61  C   UNL     1      -9.562  -6.927  -0.791  1.00  0.00     0.037 A 
ATOM     62  C   UNL     1      -9.648  -3.908  -6.567  1.00  0.00     0.049 A 
ATOM     63  C   UNL     1     -10.662  -6.539  -1.738  1.00  0.00     0.074 A 
ATOM     64  C   UNL     1     -10.736  -3.702  -7.400  1.00  0.00     0.029 A 
ATOM     65  N   UNL     1     -10.133  -4.546  -5.435  1.00  0.00    -0.354 N 
ATOM     66  N   UNL     1     -10.581  -5.955  -2.909  1.00  0.00    -0.248 NA
ATOM     67  C   UNL     1     -12.032  -6.861  -1.319  1.00  0.00     0.031 C 
ATOM     68  C   UNL     1     -11.887  -4.148  -6.742  1.00  0.00     0.029 A 
ATOM     69  C   UNL     1     -11.509  -4.702  -5.530  1.00  0.00     0.049 A 
ATOM     70  H   UNL     1      -9.583  -4.844  -4.676  1.00  0.00     0.167 HD
ATOM     71  C   UNL     1     -11.884  -5.871  -3.379  1.00  0.00     0.074 A 
ATOM     72  C   UNL     1     -12.729  -6.493  -2.382  1.00  0.00     0.031 C 
ATOM     73  C   UNL     1     -12.342  -5.324  -4.532  1.00  0.00     0.037 A 
BRANCH  60  74
ATOM     74  C   UNL     1      -7.941  -2.755  -8.025  1.00  0.00     0.057 A 
ATOM     75  C   UNL     1      -8.435  -1.456  -8.211  1.00  0.00     0.134 A 
ATOM     76  C   UNL     1      -7.208  -3.320  -9.076  1.00  0.00     0.134 A 
ATOM     77  F   UNL     1      -9.162  -0.860  -7.253  1.00  0.00    -0.206 F 
ATOM     78  C   UNL     1      -8.216  -0.751  -9.396  1.00  0.00     0.040 A 
ATOM     79  C   UNL     1      -6.958  -2.614 -10.256  1.00  0.00     0.040 A 
ATOM     80  F   UNL     1      -6.710  -4.561  -8.969  1.00  0.00    -0.206 F 
ATOM     81  C   UNL     1      -7.470  -1.329 -10.421  1.00  0.00     0.006 A 
ENDBRANCH  60  74
BRANCH  61  82
ATOM     82  C   UNL     1      -9.874  -7.657   0.466  1.00  0.00     0.057 A 
ATOM     83  C   UNL     1      -9.681  -7.064   1.720  1.00  0.00     0.134 A 
ATOM     84  C   UNL     1     -10.448  -8.934   0.439  1.00  0.00     0.134 A 
ATOM     85  F   UNL     1      -9.122  -5.849   1.818  1.00  0.00    -0.206 F 
ATOM     86  C   UNL     1     -10.063  -7.705   2.898  1.00  0.00     0.040 A 
ATOM     87  C   UNL     1     -10.871  -9.570   1.607  1.00  0.00     0.040 A 
ATOM     88  F   UNL     1     -10.668  -9.551  -0.731  1.00  0.00    -0.206 F 
ATOM     89  C   UNL     1     -10.680  -8.953   2.842  1.00  0.00     0.006 A 
ENDBRANCH  61  82
BRANCH  73  90
ATOM     90  C   UNL     1     -13.820  -5.419  -4.787  1.00  0.00     0.057 A 
ATOM     91  C   UNL     1     -14.314  -6.232  -5.815  1.00  0.00     0.134 A 
ATOM     92  C   UNL     1     -14.757  -4.717  -4.016  1.00  0.00     0.134 A 
ATOM     93  F   UNL     1     -13.476  -6.927  -6.599  1.00  0.00    -0.206 F 
ATOM     94  C   UNL     1     -15.683  -6.348  -6.063  1.00  0.00     0.040 A 
ATOM     95  C   UNL     1     -16.130  -4.855  -4.229  1.00  0.00     0.040 A 
ATOM     96  F   UNL     1     -14.354  -3.933  -3.004  1.00  0.00    -0.206 F 
ATOM     97  C   UNL     1     -16.595  -5.669  -5.259  1.00  0.00     0.006 A 
ENDBRANCH  73  90
ENDBRANCH  47  48
ENDBRANCH  40  42
ENDBRANCH  39  40
ENDBRANCH  38  39
ENDBRANCH  37  38
ENDBRANCH  36  37
ENDBRANCH  35  36
ENDBRANCH   1  35
TORSDOF 23
