REMARK SMILES CCc1ccc(-c2nc(-c3cccc(C(=O)OCCOCCOCCOC(=O)c4ccc(-c5c6nc(c(-c7c(F)cccc7F)c7ccc([nH]7)c(-c7c(F)cccc7F)c7nc(c(-c8c(F)cccc8F)c8ccc5[nH]8)C=C7)C=C6)cc4)c3)no2)o1
REMARK SMILES IDX 21 1 20 2 19 3 18 4 17 5 15 6 16 7 14 8 10 9 11 10 83 11
REMARK SMILES IDX 12 12 13 13 9 14 7 15 8 16 85 17 84 18 6 19 3 20 4 21 86 22
REMARK SMILES IDX 5 23 2 24 1 25 22 26 23 27 24 28 25 29 26 30 27 31 28 32
REMARK SMILES IDX 29 33 30 34 82 35 31 36 81 37 32 38 33 39 34 40 75 41 35 42
REMARK SMILES IDX 80 43 74 44 76 45 36 46 79 47 73 48 72 49 37 51 63 52 46 53
REMARK SMILES IDX 62 54 47 55 50 56 61 57 77 58 48 59 49 60 60 62 78 63 51 64
REMARK SMILES IDX 38 65 39 66 44 67 40 68 41 69 43 70 45 71 42 72 64 73 65 74
REMARK SMILES IDX 70 75 66 76 67 77 69 78 71 79 68 80 52 81 53 82 58 83 54 84
REMARK SMILES IDX 55 85 57 86 59 87 56 88
REMARK H PARENT 76 50 50 61
REMARK Flexibility Score: inf
ROOT
ATOM      1  C   UNL     1      10.659   7.014  -2.062  1.00  0.00     0.188 C 
ENDROOT
BRANCH   1   2
ATOM      2  O   UNL     1      11.634   6.814  -1.057  1.00  0.00    -0.376 OA
BRANCH   2   3
ATOM      3  C   UNL     1      11.250   6.277   0.200  1.00  0.00     0.202 C 
BRANCH   3   4
ATOM      4  C   UNL     1      10.042   6.838   0.958  1.00  0.00     0.261 C 
BRANCH   4   5
ATOM      5  O   UNL     1       8.831   6.851   0.189  1.00  0.00    -0.460 OA
BRANCH   5   6
ATOM      6  C   UNL     1       8.238   8.066   0.056  1.00  0.00     0.338 C 
ATOM      7  O   UNL     1       8.583   9.114   0.571  1.00  0.00    -0.246 OA
BRANCH   6   8
ATOM      8  C   UNL     1       7.212   7.989  -1.005  1.00  0.00     0.060 A 
ATOM      9  C   UNL     1       5.351   6.898  -2.103  1.00  0.00     0.024 A 
ATOM     10  C   UNL     1       5.420   7.841  -3.139  1.00  0.00     0.012 A 
ATOM     11  C   UNL     1       6.261   6.968  -1.037  1.00  0.00     0.027 A 
ATOM     12  C   UNL     1       6.365   8.869  -3.096  1.00  0.00     0.002 A 
ATOM     13  C   UNL     1       7.253   8.950  -2.024  1.00  0.00     0.016 A 
BRANCH   9  14
ATOM     14  C   UNL     1       4.324   5.874  -2.099  1.00  0.00     0.202 A 
ATOM     15  C   UNL     1       2.821   4.615  -1.337  1.00  0.00     0.293 A 
ATOM     16  N   UNL     1       3.612   5.597  -0.960  1.00  0.00    -0.184 NA
ATOM     17  O   UNL     1       3.003   4.271  -2.650  1.00  0.00    -0.330 OA
ATOM     18  N   UNL     1       3.976   5.138  -3.164  1.00  0.00    -0.057 NA
BRANCH  15  19
ATOM     19  C   UNL     1       1.872   3.999  -0.464  1.00  0.00     0.192 A 
ATOM     20  C   UNL     1       0.755   2.409   0.587  1.00  0.00     0.104 A 
ATOM     21  C   UNL     1       0.345   3.601   1.144  1.00  0.00     0.046 A 
ATOM     22  O   UNL     1       1.650   2.647  -0.414  1.00  0.00    -0.456 OA
ATOM     23  C   UNL     1       1.072   4.617   0.482  1.00  0.00     0.056 A 
BRANCH  20  24
ATOM     24  C   UNL     1       0.424   0.995   0.914  1.00  0.00     0.072 C 
ATOM     25  C   UNL     1       0.982  -0.022  -0.066  1.00  0.00     0.012 C 
ENDBRANCH  20  24
ENDBRANCH  15  19
ENDBRANCH   9  14
ENDBRANCH   6   8
ENDBRANCH   5   6
ENDBRANCH   4   5
ENDBRANCH   3   4
ENDBRANCH   2   3
ENDBRANCH   1   2
BRANCH   1  26
ATOM     26  C   UNL     1       9.767   5.852  -2.548  1.00  0.00     0.188 C 
BRANCH  26  27
ATOM     27  O   UNL     1       9.870   4.572  -1.967  1.00  0.00    -0.376 OA
BRANCH  27  28
ATOM     28  C   UNL     1      11.027   3.774  -2.143  1.00  0.00     0.202 C 
BRANCH  28  29
ATOM     29  C   UNL     1      11.954   3.842  -3.364  1.00  0.00     0.261 C 
BRANCH  29  30
ATOM     30  O   UNL     1      12.153   5.131  -3.945  1.00  0.00    -0.460 OA
BRANCH  30  31
ATOM     31  C   UNL     1      11.640   5.274  -5.193  1.00  0.00     0.338 C 
ATOM     32  O   UNL     1      11.013   4.458  -5.842  1.00  0.00    -0.246 OA
BRANCH  31  33
ATOM     33  C   UNL     1      11.832   6.665  -5.628  1.00  0.00     0.060 A 
ATOM     34  C   UNL     1      10.704   7.470  -5.836  1.00  0.00     0.016 A 
ATOM     35  C   UNL     1      13.115   7.143  -5.889  1.00  0.00     0.016 A 
ATOM     36  C   UNL     1      10.857   8.764  -6.332  1.00  0.00     0.010 A 
ATOM     37  C   UNL     1      13.265   8.428  -6.407  1.00  0.00     0.010 A 
ATOM     38  C   UNL     1      12.137   9.232  -6.656  1.00  0.00    -0.014 A 
BRANCH  38  39
ATOM     39  C   UNL     1      12.310  10.477  -7.435  1.00  0.00     0.031 A 
ATOM     40  C   UNL     1      12.481  10.364  -8.923  1.00  0.00     0.074 A 
ATOM     41  C   UNL     1      12.369  11.676  -6.831  1.00  0.00     0.049 A 
ATOM     42  N   UNL     1      12.829  11.276  -9.792  1.00  0.00    -0.248 NA
ATOM     43  C   UNL     1      12.233   9.035  -9.506  1.00  0.00     0.031 C 
ATOM     44  C   UNL     1      12.165  11.917  -5.405  1.00  0.00     0.029 A 
ATOM     45  N   UNL     1      12.650  12.915  -7.349  1.00  0.00    -0.354 N 
ATOM     46  C   UNL     1      12.865  10.628 -11.019  1.00  0.00     0.074 A 
ATOM     47  C   UNL     1      12.515   9.244 -10.783  1.00  0.00     0.031 C 
ATOM     48  C   UNL     1      12.361  13.223  -5.154  1.00  0.00     0.029 A 
ATOM     49  C   UNL     1      12.748  13.896  -6.394  1.00  0.00     0.049 A 
ATOM     50  H   UNL     1      12.771  13.084  -8.312  1.00  0.00     0.167 HD
ATOM     51  C   UNL     1      13.168  11.142 -12.234  1.00  0.00     0.037 A 
ATOM     52  C   UNL     1      13.148  15.178  -6.506  1.00  0.00     0.037 A 
ATOM     53  C   UNL     1      13.521  12.517 -12.459  1.00  0.00     0.049 A 
ATOM     54  C   UNL     1      13.560  15.710  -7.855  1.00  0.00     0.074 A 
ATOM     55  C   UNL     1      13.840  13.140 -13.653  1.00  0.00     0.029 A 
ATOM     56  N   UNL     1      13.611  13.480 -11.466  1.00  0.00    -0.354 N 
ATOM     57  N   UNL     1      13.586  15.097  -9.014  1.00  0.00    -0.248 NA
ATOM     58  C   UNL     1      14.005  17.111  -7.911  1.00  0.00     0.031 C 
ATOM     59  C   UNL     1      14.168  14.470 -13.374  1.00  0.00     0.029 A 
ATOM     60  C   UNL     1      13.998  14.688 -12.016  1.00  0.00     0.049 A 
ATOM     61  H   UNL     1      13.426  13.326 -10.511  1.00  0.00     0.167 HD
ATOM     62  C   UNL     1      14.006  16.045  -9.939  1.00  0.00     0.074 A 
ATOM     63  C   UNL     1      14.231  17.273  -9.208  1.00  0.00     0.031 C 
ATOM     64  C   UNL     1      14.184  15.911 -11.276  1.00  0.00     0.037 A 
BRANCH  51  65
ATOM     65  C   UNL     1      13.166  10.203 -13.402  1.00  0.00     0.057 A 
ATOM     66  C   UNL     1      11.979   9.684 -13.935  1.00  0.00     0.134 A 
ATOM     67  C   UNL     1      14.368   9.833 -14.018  1.00  0.00     0.134 A 
ATOM     68  F   UNL     1      10.796   9.986 -13.380  1.00  0.00    -0.206 F 
ATOM     69  C   UNL     1      11.990   8.814 -15.026  1.00  0.00     0.040 A 
ATOM     70  C   UNL     1      14.390   8.986 -15.126  1.00  0.00     0.040 A 
ATOM     71  F   UNL     1      15.540  10.296 -13.558  1.00  0.00    -0.206 F 
ATOM     72  C   UNL     1      13.198   8.469 -15.630  1.00  0.00     0.006 A 
ENDBRANCH  51  65
BRANCH  52  73
ATOM     73  C   UNL     1      13.207  16.048  -5.303  1.00  0.00     0.057 A 
ATOM     74  C   UNL     1      12.325  17.123  -5.144  1.00  0.00     0.134 A 
ATOM     75  C   UNL     1      14.158  15.840  -4.297  1.00  0.00     0.134 A 
ATOM     76  F   UNL     1      11.408  17.388  -6.086  1.00  0.00    -0.206 F 
ATOM     77  C   UNL     1      12.397  17.970  -4.037  1.00  0.00     0.040 A 
ATOM     78  C   UNL     1      14.225  16.664  -3.172  1.00  0.00     0.040 A 
ATOM     79  F   UNL     1      15.033  14.828  -4.390  1.00  0.00    -0.206 F 
ATOM     80  C   UNL     1      13.347  17.738  -3.044  1.00  0.00     0.006 A 
ENDBRANCH  52  73
BRANCH  64  81
ATOM     81  C   UNL     1      14.570  17.131 -12.058  1.00  0.00     0.057 A 
ATOM     82  C   UNL     1      15.867  17.656 -12.028  1.00  0.00     0.134 A 
ATOM     83  C   UNL     1      13.648  17.732 -12.926  1.00  0.00     0.134 A 
ATOM     84  F   UNL     1      16.794  17.132 -11.211  1.00  0.00    -0.206 F 
ATOM     85  C   UNL     1      16.231  18.740 -12.828  1.00  0.00     0.040 A 
ATOM     86  C   UNL     1      14.006  18.800 -13.748  1.00  0.00     0.040 A 
ATOM     87  F   UNL     1      12.391  17.269 -13.010  1.00  0.00    -0.206 F 
ATOM     88  C   UNL     1      15.303  19.308 -13.700  1.00  0.00     0.006 A 
ENDBRANCH  64  81
ENDBRANCH  38  39
ENDBRANCH  31  33
ENDBRANCH  30  31
ENDBRANCH  29  30
ENDBRANCH  28  29
ENDBRANCH  27  28
ENDBRANCH  26  27
ENDBRANCH   1  26
TORSDOF 20
