REMARK SMILES CC(=O)NS(=O)(=O)c1cc(-c2ccn(C(F)F)c(=O)c2)ccc1C(=O)OCCOCCOCCOC(=O)c1ccc(-c2c3nc(c(-c4c(F)cccc4F)c4ccc([nH]4)c(-c4c(F)cccc4F)c4nc(c(-c5c(F)cccc5F)c5ccc2[nH]5)C=C4)C=C3)cc1
REMARK SMILES IDX 30 1 29 2 28 3 27 4 26 5 24 6 25 7 23 8 8 9 9 10 10 11 22 12
REMARK SMILES IDX 21 13 5 14 6 15 7 16 4 17 1 18 2 19 3 20 11 22 12 23 20 24
REMARK SMILES IDX 13 25 18 26 14 27 19 28 15 29 16 30 17 31 31 32 32 33 33 34
REMARK SMILES IDX 34 35 35 36 36 37 37 38 38 39 39 40 91 41 40 42 90 43 41 44
REMARK SMILES IDX 42 45 43 46 84 47 44 48 89 49 83 50 85 51 45 52 88 53 82 54
REMARK SMILES IDX 81 55 46 57 72 58 55 59 71 60 56 61 59 62 70 63 86 64 57 65
REMARK SMILES IDX 58 66 69 68 87 69 60 70 47 71 48 72 53 73 49 74 50 75 52 76
REMARK SMILES IDX 54 77 51 78 73 79 74 80 79 81 75 82 76 83 78 84 80 85 77 86
REMARK SMILES IDX 61 87 62 88 67 89 63 90 64 91 66 92 68 93 65 94
REMARK H PARENT 4 21 85 56 59 67
REMARK Flexibility Score: inf
ROOT
ATOM      1  C   UNL     1       1.047   6.324   0.101  1.00  0.00     0.188 C 
ENDROOT
BRANCH   1   2
ATOM      2  O   UNL     1       1.387   7.109  -1.033  1.00  0.00    -0.376 OA
BRANCH   2   3
ATOM      3  C   UNL     1       2.752   7.072  -1.436  1.00  0.00     0.202 C 
BRANCH   3   4
ATOM      4  C   UNL     1       3.080   5.853  -2.298  1.00  0.00     0.261 C 
BRANCH   4   5
ATOM      5  O   UNL     1       2.950   4.615  -1.581  1.00  0.00    -0.460 OA
BRANCH   5   6
ATOM      6  C   UNL     1       3.907   4.307  -0.695  1.00  0.00     0.339 C 
ATOM      7  O   UNL     1       4.878   4.990  -0.417  1.00  0.00    -0.246 OA
BRANCH   6   8
ATOM      8  C   UNL     1       3.528   3.096   0.076  1.00  0.00     0.080 A 
ATOM      9  C   UNL     1       3.066   1.888  -0.462  1.00  0.00     0.103 A 
ATOM     10  C   UNL     1       2.926   0.771   0.374  1.00  0.00     0.032 A 
ATOM     11  C   UNL     1       3.062   0.881   1.762  1.00  0.00    -0.017 A 
ATOM     12  C   UNL     1       3.698   3.195   1.471  1.00  0.00     0.018 A 
ATOM     13  C   UNL     1       3.425   2.110   2.311  1.00  0.00     0.010 A 
BRANCH   9  14
ATOM     14  S   UNL     1       2.508   1.755  -2.139  1.00  0.00     0.264 S 
ATOM     15  O   UNL     1       3.686   1.780  -2.977  1.00  0.00    -0.201 OA
ATOM     16  O   UNL     1       1.387   2.641  -2.331  1.00  0.00    -0.201 OA
BRANCH  14  17
ATOM     17  N   UNL     1       1.875   0.202  -2.276  1.00  0.00    -0.249 N 
ATOM     18  C   UNL     1      -0.076   0.169  -0.715  1.00  0.00     0.115 C 
ATOM     19  C   UNL     1       0.497  -0.065  -2.090  1.00  0.00     0.230 C 
ATOM     20  O   UNL     1      -0.118  -0.670  -2.957  1.00  0.00    -0.274 OA
ATOM     21  H   UNL     1       2.481  -0.544  -2.492  1.00  0.00     0.183 HD
ENDBRANCH  14  17
ENDBRANCH   9  14
BRANCH  11  22
ATOM     22  C   UNL     1       2.717  -0.277   2.605  1.00  0.00    -0.011 A 
ATOM     23  C   UNL     1       1.534  -0.302   3.445  1.00  0.00     0.027 A 
ATOM     24  C   UNL     1       3.480  -1.380   2.519  1.00  0.00     0.080 A 
ATOM     25  C   UNL     1       1.199  -1.412   4.114  1.00  0.00     0.095 A 
ATOM     26  C   UNL     1       3.123  -2.621   3.261  1.00  0.00     0.255 A 
ATOM     27  N   UNL     1       1.972  -2.555   4.029  1.00  0.00    -0.258 N 
ATOM     28  O   UNL     1       3.845  -3.603   3.132  1.00  0.00    -0.269 OA
BRANCH  27  29
ATOM     29  C   UNL     1       1.600  -3.747   4.748  1.00  0.00     0.451 C 
ATOM     30  F   UNL     1       1.381  -4.778   3.897  1.00  0.00    -0.185 F 
ATOM     31  F   UNL     1       2.575  -4.115   5.614  1.00  0.00    -0.185 F 
ENDBRANCH  27  29
ENDBRANCH  11  22
ENDBRANCH   6   8
ENDBRANCH   5   6
ENDBRANCH   4   5
ENDBRANCH   3   4
ENDBRANCH   2   3
ENDBRANCH   1   2
BRANCH   1  32
ATOM     32  C   UNL     1       0.236   5.047  -0.191  1.00  0.00     0.188 C 
BRANCH  32  33
ATOM     33  O   UNL     1      -0.679   4.951  -1.272  1.00  0.00    -0.376 OA
BRANCH  33  34
ATOM     34  C   UNL     1      -1.252   6.117  -1.835  1.00  0.00     0.202 C 
BRANCH  34  35
ATOM     35  C   UNL     1      -2.374   6.768  -1.027  1.00  0.00     0.261 C 
BRANCH  35  36
ATOM     36  O   UNL     1      -2.009   7.037   0.335  1.00  0.00    -0.460 OA
BRANCH  36  37
ATOM     37  C   UNL     1      -2.508   6.164   1.241  1.00  0.00     0.338 C 
ATOM     38  O   UNL     1      -3.264   5.229   1.040  1.00  0.00    -0.246 OA
BRANCH  37  39
ATOM     39  C   UNL     1      -1.876   6.398   2.555  1.00  0.00     0.060 A 
ATOM     40  C   UNL     1      -1.387   5.282   3.247  1.00  0.00     0.016 A 
ATOM     41  C   UNL     1      -1.812   7.671   3.126  1.00  0.00     0.016 A 
ATOM     42  C   UNL     1      -0.867   5.428   4.530  1.00  0.00     0.010 A 
ATOM     43  C   UNL     1      -1.311   7.814   4.424  1.00  0.00     0.010 A 
ATOM     44  C   UNL     1      -0.870   6.689   5.141  1.00  0.00    -0.014 A 
BRANCH  44  45
ATOM     45  C   UNL     1      -0.596   6.781   6.593  1.00  0.00     0.031 A 
ATOM     46  C   UNL     1      -1.755   6.690   7.546  1.00  0.00     0.074 A 
ATOM     47  C   UNL     1       0.658   6.901   7.059  1.00  0.00     0.049 A 
ATOM     48  N   UNL     1      -1.760   6.729   8.853  1.00  0.00    -0.248 NA
ATOM     49  C   UNL     1      -3.088   6.527   6.941  1.00  0.00     0.031 C 
ATOM     50  C   UNL     1       1.865   6.963   6.237  1.00  0.00     0.029 A 
ATOM     51  N   UNL     1       1.120   6.994   8.347  1.00  0.00    -0.354 N 
ATOM     52  C   UNL     1      -3.090   6.591   9.227  1.00  0.00     0.074 A 
ATOM     53  C   UNL     1      -3.867   6.492   8.011  1.00  0.00     0.031 C 
ATOM     54  C   UNL     1       2.933   7.098   7.044  1.00  0.00     0.029 A 
ATOM     55  C   UNL     1       2.480   7.152   8.433  1.00  0.00     0.049 A 
ATOM     56  H   UNL     1       0.531   6.952   9.135  1.00  0.00     0.167 HD
ATOM     57  C   UNL     1      -3.617   6.543  10.473  1.00  0.00     0.037 A 
ATOM     58  C   UNL     1       3.264   7.335   9.513  1.00  0.00     0.037 A 
ATOM     59  C   UNL     1      -2.850   6.659  11.683  1.00  0.00     0.049 A 
ATOM     60  C   UNL     1       2.644   7.356  10.886  1.00  0.00     0.074 A 
ATOM     61  C   UNL     1      -3.293   6.616  12.993  1.00  0.00     0.029 A 
ATOM     62  N   UNL     1      -1.479   6.855  11.728  1.00  0.00    -0.354 N 
ATOM     63  N   UNL     1       1.390   7.189  11.230  1.00  0.00    -0.248 NA
ATOM     64  C   UNL     1       3.552   7.588  12.020  1.00  0.00     0.031 C 
ATOM     65  C   UNL     1      -2.193   6.825  13.832  1.00  0.00     0.029 A 
ATOM     66  C   UNL     1      -1.060   6.957  13.044  1.00  0.00     0.049 A 
ATOM     67  H   UNL     1      -0.890   6.913  10.941  1.00  0.00     0.167 HD
ATOM     68  C   UNL     1       1.362   7.270  12.617  1.00  0.00     0.074 A 
ATOM     69  C   UNL     1       2.726   7.490  13.052  1.00  0.00     0.031 C 
ATOM     70  C   UNL     1       0.303   7.168  13.457  1.00  0.00     0.037 A 
BRANCH  57  71
ATOM     71  C   UNL     1      -5.103   6.381  10.579  1.00  0.00     0.057 A 
ATOM     72  C   UNL     1      -5.731   5.157  10.315  1.00  0.00     0.134 A 
ATOM     73  C   UNL     1      -5.912   7.456  10.963  1.00  0.00     0.134 A 
ATOM     74  F   UNL     1      -5.011   4.094   9.924  1.00  0.00    -0.206 F 
ATOM     75  C   UNL     1      -7.115   5.013  10.411  1.00  0.00     0.040 A 
ATOM     76  C   UNL     1      -7.296   7.320  11.082  1.00  0.00     0.040 A 
ATOM     77  F   UNL     1      -5.372   8.655  11.228  1.00  0.00    -0.206 F 
ATOM     78  C   UNL     1      -7.901   6.096  10.801  1.00  0.00     0.006 A 
ENDBRANCH  57  71
BRANCH  58  79
ATOM     79  C   UNL     1       4.726   7.527   9.347  1.00  0.00     0.057 A 
ATOM     80  C   UNL     1       5.637   6.546   9.753  1.00  0.00     0.134 A 
ATOM     81  C   UNL     1       5.246   8.709   8.808  1.00  0.00     0.134 A 
ATOM     82  F   UNL     1       5.198   5.402  10.299  1.00  0.00    -0.206 F 
ATOM     83  C   UNL     1       7.015   6.739   9.643  1.00  0.00     0.040 A 
ATOM     84  C   UNL     1       6.621   8.908   8.672  1.00  0.00     0.040 A 
ATOM     85  F   UNL     1       4.423   9.688   8.402  1.00  0.00    -0.206 F 
ATOM     86  C   UNL     1       7.510   7.922   9.098  1.00  0.00     0.006 A 
ENDBRANCH  58  79
BRANCH  70  87
ATOM     87  C   UNL     1       0.579   7.261  14.928  1.00  0.00     0.057 A 
ATOM     88  C   UNL     1       0.878   8.480  15.548  1.00  0.00     0.134 A 
ATOM     89  C   UNL     1       0.500   6.122  15.741  1.00  0.00     0.134 A 
ATOM     90  F   UNL     1       0.980   9.604  14.823  1.00  0.00    -0.206 F 
ATOM     91  C   UNL     1       1.107   8.561  16.923  1.00  0.00     0.040 A 
ATOM     92  C   UNL     1       0.704   6.195  17.119  1.00  0.00     0.040 A 
ATOM     93  F   UNL     1       0.208   4.926  15.209  1.00  0.00    -0.206 F 
ATOM     94  C   UNL     1       1.014   7.417  17.713  1.00  0.00     0.006 A 
ENDBRANCH  70  87
ENDBRANCH  44  45
ENDBRANCH  37  39
ENDBRANCH  36  37
ENDBRANCH  35  36
ENDBRANCH  34  35
ENDBRANCH  33  34
ENDBRANCH  32  33
ENDBRANCH   1  32
TORSDOF 21
