REMARK SMILES CC(C)(C)c1ccc(NS(=O)(=O)c2cccc(C(=O)OCCOCCOCCOC(=O)c3ccc(-c4c5nc(c(-c6c(F)cccc6F)c6ccc([nH]6)c(-c6c(F)cccc6F)c6nc(c(-c7c(F)cccc7F)c7ccc4[nH]7)C=C6)C=C5)cc3)c2)cc1
REMARK SMILES IDX 24 1 23 2 22 3 21 4 20 5 18 6 19 7 17 8 13 9 14 10 86 11
REMARK SMILES IDX 15 12 16 13 10 14 11 15 12 16 9 17 8 19 5 20 6 21 88 22 7 23
REMARK SMILES IDX 87 24 2 25 1 26 3 27 4 28 25 29 26 30 27 31 28 32 29 33
REMARK SMILES IDX 30 34 31 35 32 36 33 37 85 38 34 39 84 40 35 41 36 42 37 43
REMARK SMILES IDX 78 44 38 45 83 46 77 47 79 48 39 49 82 50 76 51 75 52 40 54
REMARK SMILES IDX 66 55 49 56 65 57 50 58 53 59 64 60 80 61 51 62 52 63 63 65
REMARK SMILES IDX 81 66 54 67 41 68 42 69 47 70 43 71 44 72 46 73 48 74 45 75
REMARK SMILES IDX 67 76 68 77 73 78 69 79 70 80 72 81 74 82 71 83 55 84 56 85
REMARK SMILES IDX 61 86 57 87 58 88 60 89 62 90 59 91
REMARK H PARENT 9 18 79 53 53 64
REMARK Flexibility Score: inf
ROOT
ATOM      1  C   UNL     1       5.502  -2.348  -2.646  1.00  0.00     0.188 C 
ENDROOT
BRANCH   1   2
ATOM      2  O   UNL     1       6.737  -2.482  -1.956  1.00  0.00    -0.376 OA
BRANCH   2   3
ATOM      3  C   UNL     1       7.531  -1.332  -1.707  1.00  0.00     0.202 C 
BRANCH   3   4
ATOM      4  C   UNL     1       7.997  -0.486  -2.904  1.00  0.00     0.261 C 
BRANCH   4   5
ATOM      5  O   UNL     1       6.963  -0.090  -3.828  1.00  0.00    -0.460 OA
BRANCH   5   6
ATOM      6  C   UNL     1       7.011  -0.677  -5.050  1.00  0.00     0.338 C 
ATOM      7  O   UNL     1       7.867  -1.449  -5.451  1.00  0.00    -0.246 OA
BRANCH   6   8
ATOM      8  C   UNL     1       5.753  -0.442  -5.811  1.00  0.00     0.061 A 
ATOM      9  C   UNL     1       3.920   0.893  -6.629  1.00  0.00     0.088 A 
ATOM     10  C   UNL     1       3.397  -0.221  -7.306  1.00  0.00     0.022 A 
ATOM     11  C   UNL     1       5.107   0.800  -5.885  1.00  0.00     0.038 A 
ATOM     12  C   UNL     1       4.021  -1.457  -7.191  1.00  0.00     0.002 A 
ATOM     13  C   UNL     1       5.195  -1.565  -6.449  1.00  0.00     0.016 A 
BRANCH   9  14
ATOM     14  S   UNL     1       2.998   2.414  -6.700  1.00  0.00     0.261 S 
ATOM     15  O   UNL     1       1.793   2.189  -7.468  1.00  0.00    -0.201 OA
ATOM     16  O   UNL     1       3.940   3.446  -7.081  1.00  0.00    -0.201 OA
BRANCH  14  17
ATOM     17  N   UNL     1       2.562   2.742  -5.116  1.00  0.00    -0.280 N 
ATOM     18  H   UNL     1       2.995   3.509  -4.677  1.00  0.00     0.180 HD
BRANCH  17  19
ATOM     19  C   UNL     1       1.612   1.997  -4.352  1.00  0.00     0.049 A 
ATOM     20  C   UNL     1       0.051   0.576  -2.409  1.00  0.00    -0.042 A 
ATOM     21  C   UNL     1       0.749  -0.086  -3.426  1.00  0.00     0.006 A 
ATOM     22  C   UNL     1       0.133   1.982  -2.418  1.00  0.00     0.006 A 
ATOM     23  C   UNL     1       1.516   0.612  -4.376  1.00  0.00     0.027 A 
ATOM     24  C   UNL     1       0.903   2.678  -3.364  1.00  0.00     0.027 A 
BRANCH  20  25
ATOM     25  C   UNL     1      -0.684  -0.148  -1.255  1.00  0.00    -0.013 C 
ATOM     26  C   UNL     1       0.008   0.257   0.077  1.00  0.00     0.016 C 
ATOM     27  C   UNL     1      -0.787  -1.702  -1.355  1.00  0.00     0.016 C 
ATOM     28  C   UNL     1      -2.147   0.341  -1.169  1.00  0.00     0.016 C 
ENDBRANCH  20  25
ENDBRANCH  17  19
ENDBRANCH  14  17
ENDBRANCH   9  14
ENDBRANCH   6   8
ENDBRANCH   5   6
ENDBRANCH   4   5
ENDBRANCH   3   4
ENDBRANCH   2   3
ENDBRANCH   1   2
BRANCH   1  29
ATOM     29  C   UNL     1       4.619  -1.098  -2.455  1.00  0.00     0.188 C 
BRANCH  29  30
ATOM     30  O   UNL     1       5.037  -0.234  -1.416  1.00  0.00    -0.376 OA
BRANCH  30  31
ATOM     31  C   UNL     1       4.183  -0.174  -0.285  1.00  0.00     0.202 C 
BRANCH  31  32
ATOM     32  C   UNL     1       4.197  -1.423   0.618  1.00  0.00     0.261 C 
BRANCH  32  33
ATOM     33  O   UNL     1       3.882  -2.688  -0.007  1.00  0.00    -0.460 OA
BRANCH  33  34
ATOM     34  C   UNL     1       2.650  -2.750  -0.548  1.00  0.00     0.338 C 
ATOM     35  O   UNL     1       1.849  -1.842  -0.581  1.00  0.00    -0.246 OA
BRANCH  34  36
ATOM     36  C   UNL     1       2.393  -4.015  -1.246  1.00  0.00     0.060 A 
ATOM     37  C   UNL     1       2.187  -3.997  -2.634  1.00  0.00     0.016 A 
ATOM     38  C   UNL     1       2.195  -5.178  -0.511  1.00  0.00     0.016 A 
ATOM     39  C   UNL     1       1.797  -5.157  -3.298  1.00  0.00     0.010 A 
ATOM     40  C   UNL     1       1.799  -6.338  -1.176  1.00  0.00     0.010 A 
ATOM     41  C   UNL     1       1.594  -6.334  -2.569  1.00  0.00    -0.014 A 
BRANCH  41  42
ATOM     42  C   UNL     1       1.142  -7.576  -3.233  1.00  0.00     0.031 A 
ATOM     43  C   UNL     1      -0.266  -8.051  -3.041  1.00  0.00     0.074 A 
ATOM     44  C   UNL     1       2.020  -8.306  -3.943  1.00  0.00     0.049 A 
ATOM     45  N   UNL     1      -0.796  -9.209  -3.336  1.00  0.00    -0.248 NA
ATOM     46  C   UNL     1      -1.199  -7.095  -2.425  1.00  0.00     0.031 C 
ATOM     47  C   UNL     1       3.398  -7.917  -4.241  1.00  0.00     0.029 A 
ATOM     48  N   UNL     1       1.889  -9.549  -4.509  1.00  0.00    -0.354 N 
ATOM     49  C   UNL     1      -2.119  -9.134  -2.919  1.00  0.00     0.074 A 
ATOM     50  C   UNL     1      -2.306  -7.820  -2.340  1.00  0.00     0.031 C 
ATOM     51  C   UNL     1       3.998  -8.916  -4.907  1.00  0.00     0.029 A 
ATOM     52  C   UNL     1       3.065 -10.033  -5.029  1.00  0.00     0.049 A 
ATOM     53  H   UNL     1       1.039 -10.044  -4.540  1.00  0.00     0.167 HD
ATOM     54  C   UNL     1      -3.082 -10.082  -3.008  1.00  0.00     0.037 A 
ATOM     55  C   UNL     1       3.367 -11.257  -5.500  1.00  0.00     0.037 A 
ATOM     56  C   UNL     1      -2.876 -11.388  -3.582  1.00  0.00     0.049 A 
ATOM     57  C   UNL     1       2.305 -12.323  -5.508  1.00  0.00     0.074 A 
ATOM     58  C   UNL     1      -3.787 -12.420  -3.727  1.00  0.00     0.029 A 
ATOM     59  N   UNL     1      -1.671 -11.844  -4.097  1.00  0.00    -0.354 N 
ATOM     60  N   UNL     1       1.058 -12.252  -5.110  1.00  0.00    -0.248 NA
ATOM     61  C   UNL     1       2.694 -13.642  -6.027  1.00  0.00     0.031 C 
ATOM     62  C   UNL     1      -3.119 -13.518  -4.279  1.00  0.00     0.029 A 
ATOM     63  C   UNL     1      -1.809 -13.149  -4.540  1.00  0.00     0.049 A 
ATOM     64  H   UNL     1      -0.840 -11.318  -4.141  1.00  0.00     0.167 HD
ATOM     65  C   UNL     1       0.503 -13.499  -5.369  1.00  0.00     0.074 A 
ATOM     66  C   UNL     1       1.550 -14.307  -5.960  1.00  0.00     0.031 C 
ATOM     67  C   UNL     1      -0.762 -13.934  -5.146  1.00  0.00     0.037 A 
BRANCH  54  68
ATOM     68  C   UNL     1      -4.432  -9.758  -2.436  1.00  0.00     0.057 A 
ATOM     69  C   UNL     1      -5.289  -8.824  -3.030  1.00  0.00     0.134 A 
ATOM     70  C   UNL     1      -4.894 -10.417  -1.288  1.00  0.00     0.134 A 
ATOM     71  F   UNL     1      -4.904  -8.148  -4.123  1.00  0.00    -0.206 F 
ATOM     72  C   UNL     1      -6.545  -8.538  -2.491  1.00  0.00     0.040 A 
ATOM     73  C   UNL     1      -6.159 -10.162  -0.757  1.00  0.00     0.040 A 
ATOM     74  F   UNL     1      -4.128 -11.329  -0.671  1.00  0.00    -0.206 F 
ATOM     75  C   UNL     1      -6.986  -9.213  -1.355  1.00  0.00     0.006 A 
ENDBRANCH  54  68
BRANCH  55  76
ATOM     76  C   UNL     1       4.742 -11.551  -5.979  1.00  0.00     0.057 A 
ATOM     77  C   UNL     1       4.996 -11.796  -7.333  1.00  0.00     0.134 A 
ATOM     78  C   UNL     1       5.829 -11.605  -5.098  1.00  0.00     0.134 A 
ATOM     79  F   UNL     1       3.992 -11.778  -8.222  1.00  0.00    -0.206 F 
ATOM     80  C   UNL     1       6.278 -12.104  -7.792  1.00  0.00     0.040 A 
ATOM     81  C   UNL     1       7.121 -11.883  -5.547  1.00  0.00     0.040 A 
ATOM     82  F   UNL     1       5.654 -11.375  -3.788  1.00  0.00    -0.206 F 
ATOM     83  C   UNL     1       7.346 -12.143  -6.898  1.00  0.00     0.006 A 
ENDBRANCH  55  76
BRANCH  67  84
ATOM     84  C   UNL     1      -1.109 -15.321  -5.605  1.00  0.00     0.057 A 
ATOM     85  C   UNL     1      -0.631 -16.466  -4.956  1.00  0.00     0.134 A 
ATOM     86  C   UNL     1      -1.980 -15.508  -6.687  1.00  0.00     0.134 A 
ATOM     87  F   UNL     1       0.217 -16.358  -3.922  1.00  0.00    -0.206 F 
ATOM     88  C   UNL     1      -0.992 -17.747  -5.378  1.00  0.00     0.040 A 
ATOM     89  C   UNL     1      -2.372 -16.782  -7.099  1.00  0.00     0.040 A 
ATOM     90  F   UNL     1      -2.482 -14.453  -7.348  1.00  0.00    -0.206 F 
ATOM     91  C   UNL     1      -1.873 -17.907  -6.447  1.00  0.00     0.006 A 
ENDBRANCH  67  84
ENDBRANCH  41  42
ENDBRANCH  34  36
ENDBRANCH  33  34
ENDBRANCH  32  33
ENDBRANCH  31  32
ENDBRANCH  30  31
ENDBRANCH  29  30
ENDBRANCH   1  29
TORSDOF 21
