REMARK SMILES NS(=O)(=O)c1ccc(-n2nc(NC(=O)NCCCC(=O)OCCOCCOCCOC(=O)c3ccc(-c4c5nc(c(-c6c(F)cccc6F)c6ccc([nH]6)c(-c6c(F)cccc6F)c6nc(c(-c7c(F)cccc7F)c7ccc4[nH]7)C=C6)C=C5)cc3)cc2-c2ccccc2)cc1
REMARK SMILES IDX 23 1 22 2 21 3 19 4 20 5 18 6 17 7 16 8 15 9 12 10 13 11
REMARK SMILES IDX 14 13 11 15 9 16 10 17 88 18 87 19 8 20 5 21 6 22 96 23 7 24
REMARK SMILES IDX 95 25 2 26 3 27 4 28 1 29 89 32 90 33 94 34 91 35 93 36
REMARK SMILES IDX 92 37 24 38 25 39 26 40 27 41 28 42 29 43 30 44 31 45 32 46
REMARK SMILES IDX 33 47 34 48 86 49 35 50 85 51 36 52 37 53 38 54 79 55 39 56
REMARK SMILES IDX 84 57 78 58 80 59 40 60 83 61 77 62 76 63 41 65 67 66 50 67
REMARK SMILES IDX 66 68 51 69 54 70 65 71 81 72 52 73 53 74 64 76 82 77 55 78
REMARK SMILES IDX 42 79 43 80 48 81 44 82 45 83 47 84 49 85 46 86 68 87 69 88
REMARK SMILES IDX 74 89 70 90 71 91 73 92 75 93 72 94 56 95 57 96 62 97 58 98
REMARK SMILES IDX 59 99 61 100 63 101 60 102
REMARK H PARENT 12 12 15 14 1 30 1 31 80 64 54 75
REMARK Flexibility Score: inf
ROOT
ATOM      1  C   UNL     1       7.307  -2.996   1.897  1.00  0.00     0.202 C 
ENDROOT
BRANCH   1   2
ATOM      2  C   UNL     1       8.019  -4.292   1.450  1.00  0.00     0.261 C 
BRANCH   2   3
ATOM      3  O   UNL     1       7.296  -5.537   1.557  1.00  0.00    -0.463 OA
BRANCH   3   4
ATOM      4  C   UNL     1       7.354  -6.173   2.748  1.00  0.00     0.305 C 
ATOM      5  O   UNL     1       8.021  -5.783   3.700  1.00  0.00    -0.252 OA
BRANCH   4   6
ATOM      6  C   UNL     1       6.578  -7.484   2.783  1.00  0.00     0.124 C 
BRANCH   6   7
ATOM      7  C   UNL     1       5.189  -7.637   2.154  1.00  0.00     0.033 C 
BRANCH   7   8
ATOM      8  C   UNL     1       5.010  -7.736   0.634  1.00  0.00     0.118 C 
BRANCH   8   9
ATOM      9  N   UNL     1       5.611  -8.867  -0.018  1.00  0.00    -0.338 N 
ATOM     10  N   UNL     1       4.108  -9.440  -1.806  1.00  0.00    -0.291 N 
ATOM     11  C   UNL     1       5.260  -9.549  -1.121  1.00  0.00     0.320 C 
ATOM     12  H   UNL     1       3.964 -10.215  -2.396  1.00  0.00     0.173 HD
ATOM     13  O   UNL     1       6.047 -10.431  -1.490  1.00  0.00    -0.248 OA
ATOM     14  H   UNL     1       6.425  -9.203   0.423  1.00  0.00     0.165 HD
BRANCH  10  15
ATOM     15  C   UNL     1       3.073  -8.533  -1.902  1.00  0.00     0.157 A 
ATOM     16  N   UNL     1       1.830  -6.823  -1.697  1.00  0.00    -0.231 N 
ATOM     17  N   UNL     1       3.098  -7.255  -1.531  1.00  0.00    -0.149 NA
ATOM     18  C   UNL     1       1.044  -7.707  -2.424  1.00  0.00     0.076 A 
ATOM     19  C   UNL     1       1.830  -8.836  -2.539  1.00  0.00     0.078 A 
BRANCH  16  20
ATOM     20  C   UNL     1       1.473  -5.489  -1.436  1.00  0.00     0.065 A 
ATOM     21  C   UNL     1       0.472  -2.928  -1.446  1.00  0.00     0.082 A 
ATOM     22  C   UNL     1      -0.162  -3.905  -0.660  1.00  0.00     0.024 A 
ATOM     23  C   UNL     1       1.571  -3.228  -2.243  1.00  0.00     0.024 A 
ATOM     24  C   UNL     1       0.335  -5.205  -0.666  1.00  0.00     0.030 A 
ATOM     25  C   UNL     1       2.096  -4.512  -2.216  1.00  0.00     0.030 A 
BRANCH  21  26
ATOM     26  S   UNL     1      -0.051  -1.270  -1.293  1.00  0.00     0.238 S 
ATOM     27  O   UNL     1       0.210  -0.868   0.071  1.00  0.00    -0.207 OA
ATOM     28  O   UNL     1      -1.317  -1.121  -1.958  1.00  0.00    -0.207 OA
BRANCH  26  29
ATOM     29  N   UNL     1       1.024  -0.305  -2.146  1.00  0.00    -0.225 NA
ATOM     30  H   UNL     1       0.738   0.671  -2.070  1.00  0.00     0.137 HD
ATOM     31  H   UNL     1       1.026  -0.583  -3.127  1.00  0.00     0.137 HD
ENDBRANCH  26  29
ENDBRANCH  21  26
ENDBRANCH  16  20
BRANCH  18  32
ATOM     32  C   UNL     1      -0.302  -7.349  -2.901  1.00  0.00     0.000 A 
ATOM     33  C   UNL     1      -0.488  -6.190  -3.681  1.00  0.00     0.010 A 
ATOM     34  C   UNL     1      -1.430  -8.007  -2.406  1.00  0.00     0.010 A 
ATOM     35  C   UNL     1      -1.754  -5.623  -3.840  1.00  0.00     0.001 A 
ATOM     36  C   UNL     1      -2.705  -7.462  -2.606  1.00  0.00     0.001 A 
ATOM     37  C   UNL     1      -2.862  -6.256  -3.292  1.00  0.00     0.000 A 
ENDBRANCH  18  32
ENDBRANCH  10  15
ENDBRANCH   8   9
ENDBRANCH   7   8
ENDBRANCH   6   7
ENDBRANCH   4   6
ENDBRANCH   3   4
ENDBRANCH   2   3
ENDBRANCH   1   2
BRANCH   1  38
ATOM     38  O   UNL     1       6.222  -3.082   2.804  1.00  0.00    -0.376 OA
BRANCH  38  39
ATOM     39  C   UNL     1       5.114  -3.909   2.472  1.00  0.00     0.188 C 
BRANCH  39  40
ATOM     40  C   UNL     1       4.841  -4.246   0.995  1.00  0.00     0.188 C 
BRANCH  40  41
ATOM     41  O   UNL     1       5.408  -3.352   0.056  1.00  0.00    -0.376 OA
BRANCH  41  42
ATOM     42  C   UNL     1       4.501  -2.508  -0.602  1.00  0.00     0.202 C 
BRANCH  42  43
ATOM     43  C   UNL     1       3.858  -1.416   0.234  1.00  0.00     0.261 C 
BRANCH  43  44
ATOM     44  O   UNL     1       3.445  -1.721   1.565  1.00  0.00    -0.460 OA
BRANCH  44  45
ATOM     45  C   UNL     1       2.402  -2.553   1.753  1.00  0.00     0.338 C 
ATOM     46  O   UNL     1       2.067  -3.490   1.058  1.00  0.00    -0.246 OA
BRANCH  45  47
ATOM     47  C   UNL     1       1.556  -2.072   2.846  1.00  0.00     0.060 A 
ATOM     48  C   UNL     1       0.426  -2.860   3.120  1.00  0.00     0.016 A 
ATOM     49  C   UNL     1       1.561  -0.686   2.985  1.00  0.00     0.016 A 
ATOM     50  C   UNL     1      -0.791  -2.227   3.231  1.00  0.00     0.010 A 
ATOM     51  C   UNL     1       0.344  -0.068   2.973  1.00  0.00     0.010 A 
ATOM     52  C   UNL     1      -0.820  -0.846   3.045  1.00  0.00    -0.014 A 
BRANCH  52  53
ATOM     53  C   UNL     1      -2.060  -0.122   3.193  1.00  0.00     0.031 A 
ATOM     54  C   UNL     1      -2.355   0.126   4.612  1.00  0.00     0.074 A 
ATOM     55  C   UNL     1      -2.717   0.423   2.156  1.00  0.00     0.049 A 
ATOM     56  N   UNL     1      -3.403  -0.286   5.239  1.00  0.00    -0.248 NA
ATOM     57  C   UNL     1      -1.298   0.664   5.490  1.00  0.00     0.031 C 
ATOM     58  C   UNL     1      -2.433   0.269   0.746  1.00  0.00     0.029 A 
ATOM     59  N   UNL     1      -3.714   1.345   2.151  1.00  0.00    -0.354 N 
ATOM     60  C   UNL     1      -3.239   0.176   6.532  1.00  0.00     0.074 A 
ATOM     61  C   UNL     1      -1.851   0.502   6.688  1.00  0.00     0.031 C 
ATOM     62  C   UNL     1      -2.987   1.267   0.031  1.00  0.00     0.029 A 
ATOM     63  C   UNL     1      -3.832   2.019   0.932  1.00  0.00     0.049 A 
ATOM     64  H   UNL     1      -4.293   1.522   2.927  1.00  0.00     0.167 HD
ATOM     65  C   UNL     1      -4.319   0.587   7.239  1.00  0.00     0.037 A 
ATOM     66  C   UNL     1      -4.576   3.125   0.697  1.00  0.00     0.037 A 
ATOM     67  C   UNL     1      -5.534   0.016   6.709  1.00  0.00     0.049 A 
ATOM     68  C   UNL     1      -5.616   3.156   1.759  1.00  0.00     0.074 A 
ATOM     69  C   UNL     1      -5.949  -1.280   6.468  1.00  0.00     0.029 A 
ATOM     70  N   UNL     1      -6.357   0.826   5.962  1.00  0.00    -0.354 N 
ATOM     71  N   UNL     1      -6.586   2.281   1.828  1.00  0.00    -0.248 NA
ATOM     72  C   UNL     1      -5.285   3.813   3.017  1.00  0.00     0.031 C 
ATOM     73  C   UNL     1      -6.702  -1.216   5.262  1.00  0.00     0.029 A 
ATOM     74  C   UNL     1      -6.766   0.119   4.859  1.00  0.00     0.049 A 
ATOM     75  H   UNL     1      -6.609   1.752   6.181  1.00  0.00     0.167 HD
ATOM     76  C   UNL     1      -6.679   1.960   3.176  1.00  0.00     0.074 A 
ATOM     77  C   UNL     1      -5.922   3.002   3.868  1.00  0.00     0.031 C 
ATOM     78  C   UNL     1      -7.082   0.717   3.579  1.00  0.00     0.037 A 
BRANCH  65  79
ATOM     79  C   UNL     1      -4.284   1.810   8.112  1.00  0.00     0.057 A 
ATOM     80  C   UNL     1      -5.383   2.066   8.943  1.00  0.00     0.134 A 
ATOM     81  C   UNL     1      -3.366   2.877   7.979  1.00  0.00     0.134 A 
ATOM     82  F   UNL     1      -6.329   1.135   9.133  1.00  0.00    -0.206 F 
ATOM     83  C   UNL     1      -5.591   3.314   9.537  1.00  0.00     0.040 A 
ATOM     84  C   UNL     1      -3.535   4.106   8.614  1.00  0.00     0.040 A 
ATOM     85  F   UNL     1      -2.312   2.838   7.155  1.00  0.00    -0.206 F 
ATOM     86  C   UNL     1      -4.669   4.340   9.369  1.00  0.00     0.006 A 
ENDBRANCH  65  79
BRANCH  66  87
ATOM     87  C   UNL     1      -4.288   4.237  -0.237  1.00  0.00     0.057 A 
ATOM     88  C   UNL     1      -5.270   5.173  -0.585  1.00  0.00     0.134 A 
ATOM     89  C   UNL     1      -2.973   4.554  -0.636  1.00  0.00     0.134 A 
ATOM     90  F   UNL     1      -6.546   4.986  -0.220  1.00  0.00    -0.206 F 
ATOM     91  C   UNL     1      -4.964   6.357  -1.272  1.00  0.00     0.040 A 
ATOM     92  C   UNL     1      -2.655   5.729  -1.327  1.00  0.00     0.040 A 
ATOM     93  F   UNL     1      -1.935   3.773  -0.300  1.00  0.00    -0.206 F 
ATOM     94  C   UNL     1      -3.652   6.643  -1.638  1.00  0.00     0.006 A 
ENDBRANCH  66  87
BRANCH  78  95
ATOM     95  C   UNL     1      -7.664  -0.213   2.546  1.00  0.00     0.057 A 
ATOM     96  C   UNL     1      -6.927  -0.767   1.488  1.00  0.00     0.134 A 
ATOM     97  C   UNL     1      -8.949  -0.728   2.753  1.00  0.00     0.134 A 
ATOM     98  F   UNL     1      -5.654  -0.414   1.274  1.00  0.00    -0.206 F 
ATOM     99  C   UNL     1      -7.452  -1.765   0.660  1.00  0.00     0.040 A 
ATOM    100  C   UNL     1      -9.475  -1.746   1.954  1.00  0.00     0.040 A 
ATOM    101  F   UNL     1      -9.691  -0.293   3.784  1.00  0.00    -0.206 F 
ATOM    102  C   UNL     1      -8.728  -2.265   0.899  1.00  0.00     0.006 A 
ENDBRANCH  78  95
ENDBRANCH  52  53
ENDBRANCH  45  47
ENDBRANCH  44  45
ENDBRANCH  43  44
ENDBRANCH  42  43
ENDBRANCH  41  42
ENDBRANCH  40  41
ENDBRANCH  39  40
ENDBRANCH  38  39
ENDBRANCH   1  38
TORSDOF 25
