REMARK SMILES O=C(OCCOCCOCCOC(=O)c1ccc2nc(-c3c[nH]nc3-c3ccc(F)cc3F)[nH]c2c1)c1ccc(-c2c3nc(c(-c4c(F)cccc4F)c4ccc([nH]4)c(-c4c(F)cccc4F)c4nc(c(-c5c(F)cccc5F)c5ccc2[nH]5)C=C4)C=C3)cc1
REMARK SMILES IDX 7 1 6 2 5 3 4 4 3 5 2 6 1 7 37 8 38 9 90 10 39 11 89 12
REMARK SMILES IDX 40 13 41 14 42 15 83 16 43 17 88 18 82 19 84 20 44 21 87 22
REMARK SMILES IDX 81 23 80 24 45 26 71 27 54 28 70 29 55 30 58 31 69 32 85 33
REMARK SMILES IDX 56 34 57 35 68 37 86 38 59 39 46 40 47 41 52 42 48 43 49 44
REMARK SMILES IDX 51 45 53 46 50 47 72 48 73 49 78 50 74 51 75 52 77 53 79 54
REMARK SMILES IDX 76 55 60 56 61 57 66 58 62 59 63 60 65 61 67 62 64 63 8 64
REMARK SMILES IDX 9 65 10 66 11 67 12 68 13 69 14 70 15 71 16 72 36 73 17 74
REMARK SMILES IDX 35 75 18 76 34 77 19 78 20 79 21 81 22 82 25 83 23 84 24 85
REMARK SMILES IDX 26 87 27 88 32 89 28 90 31 91 33 92 29 93 30 94
REMARK H PARENT 84 25 58 36 34 80 23 86
REMARK Flexibility Score: inf
ROOT
ATOM      1  C   UNL     1       2.378   2.163   0.191  1.00  0.00     0.188 C 
ENDROOT
BRANCH   1   2
ATOM      2  O   UNL     1       3.635   1.521   0.439  1.00  0.00    -0.376 OA
BRANCH   2   3
ATOM      3  C   UNL     1       4.458   1.404  -0.726  1.00  0.00     0.202 C 
BRANCH   3   4
ATOM      4  C   UNL     1       4.165   0.166  -1.588  1.00  0.00     0.261 C 
BRANCH   4   5
ATOM      5  O   UNL     1       2.783  -0.235  -1.525  1.00  0.00    -0.460 OA
BRANCH   5   6
ATOM      6  C   UNL     1       2.230  -1.186  -0.731  1.00  0.00     0.338 C 
ATOM      7  O   UNL     1       1.027  -1.427  -0.821  1.00  0.00    -0.246 OA
BRANCH   6   8
ATOM      8  C   UNL     1       3.024  -2.004   0.230  1.00  0.00     0.060 A 
ATOM      9  C   UNL     1       4.142  -1.534   0.911  1.00  0.00     0.016 A 
ATOM     10  C   UNL     1       2.578  -3.308   0.511  1.00  0.00     0.016 A 
ATOM     11  C   UNL     1       4.893  -2.370   1.720  1.00  0.00     0.010 A 
ATOM     12  C   UNL     1       3.278  -4.130   1.403  1.00  0.00     0.010 A 
ATOM     13  C   UNL     1       4.468  -3.674   1.980  1.00  0.00    -0.014 A 
BRANCH  13  14
ATOM     14  C   UNL     1       5.357  -4.531   2.795  1.00  0.00     0.031 A 
ATOM     15  C   UNL     1       6.104  -5.649   2.132  1.00  0.00     0.074 A 
ATOM     16  C   UNL     1       5.628  -4.176   4.066  1.00  0.00     0.049 A 
ATOM     17  N   UNL     1       6.973  -6.477   2.646  1.00  0.00    -0.248 NA
ATOM     18  C   UNL     1       5.860  -5.851   0.693  1.00  0.00     0.031 C 
ATOM     19  C   UNL     1       5.036  -3.029   4.757  1.00  0.00     0.029 A 
ATOM     20  N   UNL     1       6.504  -4.694   4.982  1.00  0.00    -0.354 N 
ATOM     21  C   UNL     1       7.374  -7.298   1.602  1.00  0.00     0.074 A 
ATOM     22  C   UNL     1       6.639  -6.889   0.427  1.00  0.00     0.031 C 
ATOM     23  C   UNL     1       5.604  -2.897   5.964  1.00  0.00     0.029 A 
ATOM     24  C   UNL     1       6.545  -3.989   6.162  1.00  0.00     0.049 A 
ATOM     25  H   UNL     1       7.053  -5.494   4.812  1.00  0.00     0.167 HD
ATOM     26  C   UNL     1       8.283  -8.298   1.626  1.00  0.00     0.037 A 
ATOM     27  C   UNL     1       7.252  -4.211   7.285  1.00  0.00     0.037 A 
ATOM     28  C   UNL     1       9.012  -8.684   2.803  1.00  0.00     0.049 A 
ATOM     29  C   UNL     1       8.174  -5.395   7.312  1.00  0.00     0.074 A 
ATOM     30  C   UNL     1       9.896  -9.734   2.967  1.00  0.00     0.029 A 
ATOM     31  N   UNL     1       8.946  -8.017   4.018  1.00  0.00    -0.354 N 
ATOM     32  N   UNL     1       8.483  -6.220   6.340  1.00  0.00    -0.248 NA
ATOM     33  C   UNL     1       8.831  -5.694   8.591  1.00  0.00     0.031 C 
ATOM     34  C   UNL     1      10.343  -9.720   4.293  1.00  0.00     0.029 A 
ATOM     35  C   UNL     1       9.765  -8.639   4.942  1.00  0.00     0.049 A 
ATOM     36  H   UNL     1       8.397  -7.219   4.196  1.00  0.00     0.167 HD
ATOM     37  C   UNL     1       9.367  -7.137   6.887  1.00  0.00     0.074 A 
ATOM     38  C   UNL     1       9.573  -6.744   8.268  1.00  0.00     0.031 C 
ATOM     39  C   UNL     1       9.946  -8.216   6.307  1.00  0.00     0.037 A 
BRANCH  26  40
ATOM     40  C   UNL     1       8.502  -9.058   0.354  1.00  0.00     0.057 A 
ATOM     41  C   UNL     1       7.964 -10.341   0.191  1.00  0.00     0.134 A 
ATOM     42  C   UNL     1       9.245  -8.526  -0.707  1.00  0.00     0.134 A 
ATOM     43  F   UNL     1       7.234 -10.901   1.167  1.00  0.00    -0.206 F 
ATOM     44  C   UNL     1       8.166 -11.072  -0.980  1.00  0.00     0.040 A 
ATOM     45  C   UNL     1       9.438  -9.241  -1.891  1.00  0.00     0.040 A 
ATOM     46  F   UNL     1       9.760  -7.290  -0.624  1.00  0.00    -0.206 F 
ATOM     47  C   UNL     1       8.903 -10.521  -2.026  1.00  0.00     0.006 A 
ENDBRANCH  26  40
BRANCH  27  48
ATOM     48  C   UNL     1       7.082  -3.332   8.471  1.00  0.00     0.057 A 
ATOM     49  C   UNL     1       5.863  -3.271   9.162  1.00  0.00     0.134 A 
ATOM     50  C   UNL     1       8.129  -2.538   8.953  1.00  0.00     0.134 A 
ATOM     51  F   UNL     1       4.818  -4.005   8.756  1.00  0.00    -0.206 F 
ATOM     52  C   UNL     1       5.687  -2.445  10.273  1.00  0.00     0.040 A 
ATOM     53  C   UNL     1       7.976  -1.729  10.082  1.00  0.00     0.040 A 
ATOM     54  F   UNL     1       9.327  -2.563   8.351  1.00  0.00    -0.206 F 
ATOM     55  C   UNL     1       6.749  -1.676  10.741  1.00  0.00     0.006 A 
ENDBRANCH  27  48
BRANCH  39  56
ATOM     56  C   UNL     1      10.856  -9.035   7.168  1.00  0.00     0.057 A 
ATOM     57  C   UNL     1      12.242  -8.996   6.982  1.00  0.00     0.134 A 
ATOM     58  C   UNL     1      10.350  -9.898   8.148  1.00  0.00     0.134 A 
ATOM     59  F   UNL     1      12.783  -8.195   6.053  1.00  0.00    -0.206 F 
ATOM     60  C   UNL     1      13.097  -9.796   7.739  1.00  0.00     0.040 A 
ATOM     61  C   UNL     1      11.197 -10.685   8.927  1.00  0.00     0.040 A 
ATOM     62  F   UNL     1       9.030  -9.966   8.378  1.00  0.00    -0.206 F 
ATOM     63  C   UNL     1      12.574 -10.641   8.717  1.00  0.00     0.006 A 
ENDBRANCH  39  56
ENDBRANCH  13  14
ENDBRANCH   6   8
ENDBRANCH   5   6
ENDBRANCH   4   5
ENDBRANCH   3   4
ENDBRANCH   2   3
ENDBRANCH   1   2
BRANCH   1  64
ATOM     64  C   UNL     1       1.911   2.954   1.415  1.00  0.00     0.188 C 
BRANCH  64  65
ATOM     65  O   UNL     1       2.660   4.139   1.685  1.00  0.00    -0.376 OA
BRANCH  65  66
ATOM     66  C   UNL     1       4.036   3.972   2.019  1.00  0.00     0.202 C 
BRANCH  66  67
ATOM     67  C   UNL     1       4.327   3.405   3.410  1.00  0.00     0.261 C 
BRANCH  67  68
ATOM     68  O   UNL     1       3.817   2.074   3.632  1.00  0.00    -0.460 OA
BRANCH  68  69
ATOM     69  C   UNL     1       2.949   1.984   4.665  1.00  0.00     0.338 C 
ATOM     70  O   UNL     1       2.501   2.909   5.335  1.00  0.00    -0.246 OA
BRANCH  69  71
ATOM     71  C   UNL     1       2.662   0.586   5.033  1.00  0.00     0.062 A 
ATOM     72  C   UNL     1       2.960   0.244   6.360  1.00  0.00     0.018 A 
ATOM     73  C   UNL     1       1.973  -0.293   4.173  1.00  0.00     0.044 A 
ATOM     74  C   UNL     1       2.508  -0.956   6.904  1.00  0.00     0.031 A 
ATOM     75  C   UNL     1       1.530  -1.494   4.755  1.00  0.00     0.067 A 
ATOM     76  C   UNL     1       1.738  -1.800   6.098  1.00  0.00     0.089 A 
ATOM     77  N   UNL     1       0.826  -2.582   4.281  1.00  0.00    -0.338 N 
ATOM     78  N   UNL     1       1.074  -2.933   6.454  1.00  0.00    -0.228 NA
ATOM     79  C   UNL     1       0.517  -3.385   5.354  1.00  0.00     0.142 A 
ATOM     80  H   UNL     1       0.588  -2.754   3.341  1.00  0.00     0.168 HD
BRANCH  79  81
ATOM     81  C   UNL     1      -0.359  -4.580   5.352  1.00  0.00     0.063 A 
ATOM     82  C   UNL     1      -0.498  -5.519   4.362  1.00  0.00     0.117 A 
ATOM     83  C   UNL     1      -1.233  -4.990   6.401  1.00  0.00     0.106 A 
ATOM     84  N   UNL     1      -1.328  -6.470   4.887  1.00  0.00    -0.284 N 
ATOM     85  N   UNL     1      -1.843  -6.143   6.083  1.00  0.00    -0.175 NA
ATOM     86  H   UNL     1      -1.530  -7.318   4.429  1.00  0.00     0.189 HD
BRANCH  83  87
ATOM     87  C   UNL     1      -1.610  -4.224   7.582  1.00  0.00     0.039 A 
ATOM     88  C   UNL     1      -2.258  -2.987   7.412  1.00  0.00     0.016 A 
ATOM     89  C   UNL     1      -1.325  -4.668   8.876  1.00  0.00     0.135 A 
ATOM     90  C   UNL     1      -2.595  -2.208   8.519  1.00  0.00     0.040 A 
ATOM     91  C   UNL     1      -1.663  -3.893   9.985  1.00  0.00     0.079 A 
ATOM     92  F   UNL     1      -0.704  -5.838   9.083  1.00  0.00    -0.206 F 
ATOM     93  C   UNL     1      -2.290  -2.668   9.795  1.00  0.00     0.126 A 
ATOM     94  F   UNL     1      -2.607  -1.915  10.856  1.00  0.00    -0.207 F 
ENDBRANCH  83  87
ENDBRANCH  79  81
ENDBRANCH  69  71
ENDBRANCH  68  69
ENDBRANCH  67  68
ENDBRANCH  66  67
ENDBRANCH  65  66
ENDBRANCH  64  65
ENDBRANCH   1  64
TORSDOF 19
