REMARK SMILES C[C@H]1[C@H](C)CC[C@@]2(C(=O)OCCOCCOCCOC(=O)c3ccc(-c4c5nc(c(-c6c(F)cccc6F)c6ccc([nH]6)c(-c6c(F)cccc6F)c6nc(c(-c7c(F)cccc7F)c7ccc4[nH]7)C=C6)C=C5)cc3)CC[C@@]3(C)C(=CC[C@@H]4[C@@]5(C)CC[C@H](O)C(C)(C)[C@@H]5CC[C@]43C)[C@H]12
REMARK SMILES IDX 15 1 14 2 13 3 12 4 11 5 10 6 8 7 9 8 7 9 1 10 2 11 3 12
REMARK SMILES IDX 98 13 4 14 5 15 80 16 6 17 76 18 78 19 81 20 77 21 79 22
REMARK SMILES IDX 96 23 82 24 83 25 95 26 97 27 84 28 94 29 85 30 86 31 93 32
REMARK SMILES IDX 87 33 90 34 88 35 91 36 92 37 89 38 16 40 17 41 18 42 19 43
REMARK SMILES IDX 20 44 21 45 22 46 23 47 75 48 24 49 74 50 25 51 26 52 27 53
REMARK SMILES IDX 68 54 28 55 73 56 67 57 69 58 29 59 72 60 66 61 65 62 30 64
REMARK SMILES IDX 56 65 39 66 55 67 40 68 43 69 54 70 70 71 41 72 42 73 53 75
REMARK SMILES IDX 71 76 44 77 31 78 32 79 37 80 33 81 34 82 36 83 38 84 35 85
REMARK SMILES IDX 57 86 58 87 63 88 59 89 60 90 62 91 64 92 61 93 45 94 46 95
REMARK SMILES IDX 51 96 47 97 48 98 50 99 52 100 49 101
REMARK H PARENT 89 39 69 63 43 74
REMARK Flexibility Score: inf
ROOT
ATOM      1  C   UNL     1      -3.442   0.140   2.784  1.00  0.00     0.188 C 
ENDROOT
BRANCH   1   2
ATOM      2  C   UNL     1      -3.478   1.592   2.232  1.00  0.00     0.188 C 
BRANCH   2   3
ATOM      3  O   UNL     1      -3.713   1.672   0.842  1.00  0.00    -0.376 OA
BRANCH   3   4
ATOM      4  C   UNL     1      -2.581   1.437   0.043  1.00  0.00     0.202 C 
BRANCH   4   5
ATOM      5  C   UNL     1      -1.505   0.502   0.582  1.00  0.00     0.261 C 
BRANCH   5   6
ATOM      6  O   UNL     1      -0.572   0.934   1.659  1.00  0.00    -0.463 OA
BRANCH   6   7
ATOM      7  C   UNL     1      -0.369   1.113   2.991  1.00  0.00     0.312 C 
ATOM      8  O   UNL     1      -1.217   1.249   3.868  1.00  0.00    -0.252 OA
BRANCH   7   9
ATOM      9  C   UNL     1       1.143   0.987   3.346  1.00  0.00     0.075 C 
ATOM     10  C   UNL     1       2.854   0.130  -0.132  1.00  0.00     0.008 C 
ATOM     11  C   UNL     1       1.889   0.049   1.050  1.00  0.00    -0.003 C 
ATOM     12  C   UNL     1       1.897  -1.390   1.697  1.00  0.00    -0.011 C 
ATOM     13  C   UNL     1       2.018   1.282   2.088  1.00  0.00     0.036 C 
ATOM     14  C   UNL     1       1.378  -2.494   0.754  1.00  0.00     0.008 C 
ATOM     15  C   UNL     1       1.040  -1.515   2.958  1.00  0.00     0.005 C 
ATOM     16  C   UNL     1       1.600   2.784   1.723  1.00  0.00    -0.063 C 
ATOM     17  C   UNL     1       1.343  -0.418   3.941  1.00  0.00     0.020 C 
ATOM     18  C   UNL     1       1.565   1.940   4.489  1.00  0.00     0.020 C 
ATOM     19  C   UNL     1       1.793   3.914   2.823  1.00  0.00    -0.006 C 
ATOM     20  C   UNL     1       0.828   3.046   0.647  1.00  0.00    -0.027 C 
ATOM     21  C   UNL     1       1.306   3.404   4.208  1.00  0.00     0.013 C 
ATOM     22  C   UNL     1       3.311   4.189   2.931  1.00  0.00     0.017 C 
ATOM     23  C   UNL     1       0.977   5.314   2.468  1.00  0.00    -0.020 C 
ATOM     24  C   UNL     1      -0.171   4.181   0.592  1.00  0.00     0.032 C 
ATOM     25  C   UNL     1      -0.433   4.848   1.966  1.00  0.00     0.006 C 
ATOM     26  C   UNL     1       0.818   6.295   3.660  1.00  0.00     0.008 C 
ATOM     27  C   UNL     1       1.742   6.125   1.379  1.00  0.00     0.012 C 
ATOM     28  C   UNL     1      -1.698   5.840   2.042  1.00  0.00    -0.025 C 
ATOM     29  C   UNL     1      -0.201   7.428   3.398  1.00  0.00     0.005 C 
ATOM     30  C   UNL     1      -1.894   6.516   0.672  1.00  0.00     0.012 C 
ATOM     31  C   UNL     1      -2.989   5.002   2.341  1.00  0.00     0.010 C 
ATOM     32  C   UNL     1      -1.605   6.832   3.260  1.00  0.00     0.003 C 
ATOM     33  C   UNL     1      -4.261   5.823   2.591  1.00  0.00     0.033 C 
ATOM     34  C   UNL     1      -2.835   7.822   3.442  1.00  0.00    -0.006 C 
ATOM     35  C   UNL     1      -4.093   6.923   3.643  1.00  0.00     0.120 C 
ATOM     36  C   UNL     1      -3.050   8.842   2.305  1.00  0.00     0.014 C 
ATOM     37  C   UNL     1      -2.675   8.687   4.722  1.00  0.00     0.014 C 
BRANCH  35  38
ATOM     38  O   UNL     1      -5.301   7.680   3.725  1.00  0.00    -0.393 OA
ATOM     39  H   UNL     1      -5.468   8.115   2.874  1.00  0.00     0.210 HD
ENDBRANCH  35  38
ENDBRANCH   7   9
ENDBRANCH   6   7
ENDBRANCH   5   6
ENDBRANCH   4   5
ENDBRANCH   3   4
ENDBRANCH   2   3
ENDBRANCH   1   2
BRANCH   1  40
ATOM     40  O   UNL     1      -4.270  -0.852   2.194  1.00  0.00    -0.376 OA
BRANCH  40  41
ATOM     41  C   UNL     1      -5.503  -0.440   1.642  1.00  0.00     0.202 C 
BRANCH  41  42
ATOM     42  C   UNL     1      -6.534   0.156   2.614  1.00  0.00     0.261 C 
BRANCH  42  43
ATOM     43  O   UNL     1      -6.090   1.270   3.426  1.00  0.00    -0.460 OA
BRANCH  43  44
ATOM     44  C   UNL     1      -5.685   0.993   4.697  1.00  0.00     0.338 C 
ATOM     45  O   UNL     1      -5.744  -0.096   5.244  1.00  0.00    -0.246 OA
BRANCH  44  46
ATOM     46  C   UNL     1      -4.996   2.166   5.324  1.00  0.00     0.060 A 
ATOM     47  C   UNL     1      -3.778   1.976   6.002  1.00  0.00     0.016 A 
ATOM     48  C   UNL     1      -5.573   3.433   5.329  1.00  0.00     0.016 A 
ATOM     49  C   UNL     1      -3.188   3.012   6.752  1.00  0.00     0.010 A 
ATOM     50  C   UNL     1      -4.989   4.463   6.089  1.00  0.00     0.010 A 
ATOM     51  C   UNL     1      -3.822   4.254   6.859  1.00  0.00    -0.014 A 
BRANCH  51  52
ATOM     52  C   UNL     1      -3.459   5.228   7.947  1.00  0.00     0.031 A 
ATOM     53  C   UNL     1      -4.429   5.392   9.098  1.00  0.00     0.074 A 
ATOM     54  C   UNL     1      -2.324   5.957   7.983  1.00  0.00     0.049 A 
ATOM     55  N   UNL     1      -4.403   6.226  10.110  1.00  0.00    -0.248 NA
ATOM     56  C   UNL     1      -5.591   4.490   9.097  1.00  0.00     0.031 C 
ATOM     57  C   UNL     1      -1.235   5.895   7.017  1.00  0.00     0.029 A 
ATOM     58  N   UNL     1      -1.916   6.931   8.874  1.00  0.00    -0.354 N 
ATOM     59  C   UNL     1      -5.548   5.956  10.850  1.00  0.00     0.074 A 
ATOM     60  C   UNL     1      -6.280   4.935  10.134  1.00  0.00     0.031 C 
ATOM     61  C   UNL     1      -0.314   6.828   7.328  1.00  0.00     0.029 A 
ATOM     62  C   UNL     1      -0.742   7.557   8.523  1.00  0.00     0.049 A 
ATOM     63  H   UNL     1      -2.421   7.158   9.688  1.00  0.00     0.167 HD
ATOM     64  C   UNL     1      -5.949   6.468  12.038  1.00  0.00     0.037 A 
ATOM     65  C   UNL     1      -0.088   8.598   9.082  1.00  0.00     0.037 A 
ATOM     66  C   UNL     1      -5.235   7.459  12.795  1.00  0.00     0.049 A 
ATOM     67  C   UNL     1      -0.596   9.227  10.359  1.00  0.00     0.074 A 
ATOM     68  C   UNL     1      -5.554   7.989  14.034  1.00  0.00     0.029 A 
ATOM     69  N   UNL     1      -4.062   8.072  12.389  1.00  0.00    -0.354 N 
ATOM     70  N   UNL     1      -1.649   8.920  11.075  1.00  0.00    -0.248 NA
ATOM     71  C   UNL     1       0.200  10.332  10.923  1.00  0.00     0.031 C 
ATOM     72  C   UNL     1      -4.600   8.960  14.356  1.00  0.00     0.029 A 
ATOM     73  C   UNL     1      -3.658   8.995  13.342  1.00  0.00     0.049 A 
ATOM     74  H   UNL     1      -3.586   7.882  11.549  1.00  0.00     0.167 HD
ATOM     75  C   UNL     1      -1.612   9.751  12.192  1.00  0.00     0.074 A 
ATOM     76  C   UNL     1      -0.432  10.577  12.062  1.00  0.00     0.031 C 
ATOM     77  C   UNL     1      -2.476   9.810  13.235  1.00  0.00     0.037 A 
BRANCH  64  78
ATOM     78  C   UNL     1      -7.244   5.949  12.592  1.00  0.00     0.057 A 
ATOM     79  C   UNL     1      -7.368   4.638  13.072  1.00  0.00     0.134 A 
ATOM     80  C   UNL     1      -8.379   6.767  12.640  1.00  0.00     0.134 A 
ATOM     81  F   UNL     1      -6.321   3.799  13.039  1.00  0.00    -0.206 F 
ATOM     82  C   UNL     1      -8.587   4.146  13.540  1.00  0.00     0.040 A 
ATOM     83  C   UNL     1      -9.594   6.296  13.137  1.00  0.00     0.040 A 
ATOM     84  F   UNL     1      -8.325   8.035  12.205  1.00  0.00    -0.206 F 
ATOM     85  C   UNL     1      -9.704   4.979  13.577  1.00  0.00     0.006 A 
ENDBRANCH  64  78
BRANCH  65  86
ATOM     86  C   UNL     1       1.153   9.135   8.457  1.00  0.00     0.057 A 
ATOM     87  C   UNL     1       2.403   8.976   9.068  1.00  0.00     0.134 A 
ATOM     88  C   UNL     1       1.106   9.893   7.280  1.00  0.00     0.134 A 
ATOM     89  F   UNL     1       2.509   8.295  10.219  1.00  0.00    -0.206 F 
ATOM     90  C   UNL     1       3.555   9.571   8.549  1.00  0.00     0.040 A 
ATOM     91  C   UNL     1       2.255  10.474   6.737  1.00  0.00     0.040 A 
ATOM     92  F   UNL     1      -0.060  10.095   6.650  1.00  0.00    -0.206 F 
ATOM     93  C   UNL     1       3.483  10.322   7.378  1.00  0.00     0.006 A 
ENDBRANCH  65  86
BRANCH  77  94
ATOM     94  C   UNL     1      -2.158  10.756  14.361  1.00  0.00     0.057 A 
ATOM     95  C   UNL     1      -2.241  12.147  14.218  1.00  0.00     0.134 A 
ATOM     96  C   UNL     1      -1.798  10.262  15.624  1.00  0.00     0.134 A 
ATOM     97  F   UNL     1      -2.572  12.690  13.037  1.00  0.00    -0.206 F 
ATOM     98  C   UNL     1      -1.951  13.011  15.278  1.00  0.00     0.040 A 
ATOM     99  C   UNL     1      -1.533  11.115  16.698  1.00  0.00     0.040 A 
ATOM    100  F   UNL     1      -1.709   8.941  15.839  1.00  0.00    -0.206 F 
ATOM    101  C   UNL     1      -1.602  12.495  16.524  1.00  0.00     0.006 A 
ENDBRANCH  77  94
ENDBRANCH  51  52
ENDBRANCH  44  46
ENDBRANCH  43  44
ENDBRANCH  42  43
ENDBRANCH  41  42
ENDBRANCH  40  41
ENDBRANCH   1  40
TORSDOF 18
