REMARK SMILES O=C(OCCOCCOCCOC(=O)c1ccc(-c2c3nc(c(-c4c(F)cccc4F)c4ccc([nH]4)c(-c4c(F)cccc4F)c4nc(c(-c5c(F)cccc5F)c5ccc2[nH]5)C=C4)C=C3)cc1)C1=Cc2cc(Cl)c(Cl)c(Cl)c2O[C@@H]1C(F)(F)F
REMARK SMILES IDX 8 1 7 2 6 3 5 4 4 5 3 6 2 7 1 8 69 9 70 10 81 11 71 12 80 13
REMARK SMILES IDX 72 14 79 15 73 16 77 17 74 18 75 19 78 20 76 21 82 22 83 23
REMARK SMILES IDX 84 24 85 25 9 26 10 27 11 28 12 29 13 30 14 31 15 32 16 33
REMARK SMILES IDX 68 34 17 35 67 36 18 37 19 38 20 39 61 40 21 41 66 42 60 43
REMARK SMILES IDX 62 44 22 45 65 46 59 47 58 48 23 50 49 51 32 52 48 53 33 54
REMARK SMILES IDX 36 55 47 56 63 57 34 58 35 59 46 61 64 62 37 63 24 64 25 65
REMARK SMILES IDX 30 66 26 67 27 68 29 69 31 70 28 71 50 72 51 73 56 74 52 75
REMARK SMILES IDX 53 76 55 77 57 78 54 79 38 80 39 81 44 82 40 83 41 84 43 85
REMARK SMILES IDX 45 86 42 87
REMARK H PARENT 62 49 36 60
REMARK Flexibility Score: inf
ROOT
ATOM      1  C   UNL     1       2.192   3.144  -1.534  1.00  0.00     0.188 C 
ENDROOT
BRANCH   1   2
ATOM      2  C   UNL     1       2.456   2.317  -0.268  1.00  0.00     0.188 C 
BRANCH   2   3
ATOM      3  O   UNL     1       3.806   2.071   0.322  1.00  0.00    -0.376 OA
BRANCH   3   4
ATOM      4  C   UNL     1       4.574   0.563   0.655  1.00  0.00     0.202 C 
BRANCH   4   5
ATOM      5  C   UNL     1       3.852  -1.378  -0.002  1.00  0.00     0.261 C 
BRANCH   5   6
ATOM      6  O   UNL     1       2.873  -2.276   0.733  1.00  0.00    -0.460 OA
BRANCH   6   7
ATOM      7  C   UNL     1       3.042  -2.216   2.060  1.00  0.00     0.338 C 
ATOM      8  O   UNL     1       2.331  -2.670   2.923  1.00  0.00    -0.246 OA
BRANCH   7   9
ATOM      9  C   UNL     1       3.945  -1.075   2.071  1.00  0.00     0.087 C 
ATOM     10  C   UNL     1       5.332  -1.351   1.711  1.00  0.00     0.027 C 
ATOM     11  C   UNL     1       2.747   0.009   1.042  1.00  0.00     0.316 C 
ATOM     12  C   UNL     1       6.052  -0.979   0.109  1.00  0.00     0.020 A 
ATOM     13  O   UNL     1       3.439   0.281  -0.767  1.00  0.00    -0.474 OA
ATOM     14  C   UNL     1       7.322  -1.407  -0.158  1.00  0.00     0.034 A 
ATOM     15  C   UNL     1       5.145  -0.257  -1.172  1.00  0.00     0.148 A 
ATOM     16  C   UNL     1       7.776  -1.184  -1.475  1.00  0.00     0.062 A 
ATOM     17  C   UNL     1       5.652  -0.092  -2.439  1.00  0.00     0.103 A 
ATOM     18  Cl  UNL     1       9.402  -1.762  -1.758  1.00  0.00    -0.083 Cl
ATOM     19  C   UNL     1       6.997  -0.560  -2.561  1.00  0.00     0.082 A 
ATOM     20  Cl  UNL     1       4.734   0.524  -3.737  1.00  0.00    -0.079 Cl
ATOM     21  Cl  UNL     1       7.791  -0.403  -4.117  1.00  0.00    -0.081 Cl
BRANCH  11  22
ATOM     22  C   UNL     1       2.504   1.042   2.355  1.00  0.00     0.430 C 
ATOM     23  F   UNL     1       2.249   2.337   2.197  1.00  0.00    -0.167 F 
ATOM     24  F   UNL     1       1.439   0.555   3.055  1.00  0.00    -0.167 F 
ATOM     25  F   UNL     1       3.536   1.004   3.252  1.00  0.00    -0.167 F 
ENDBRANCH  11  22
ENDBRANCH   7   9
ENDBRANCH   6   7
ENDBRANCH   5   6
ENDBRANCH   4   5
ENDBRANCH   3   4
ENDBRANCH   2   3
ENDBRANCH   1   2
BRANCH   1  26
ATOM     26  O   UNL     1       3.151   3.172  -2.553  1.00  0.00    -0.376 OA
BRANCH  26  27
ATOM     27  C   UNL     1       4.456   3.569  -2.162  1.00  0.00     0.202 C 
BRANCH  27  28
ATOM     28  C   UNL     1       4.606   4.911  -1.430  1.00  0.00     0.261 C 
BRANCH  28  29
ATOM     29  O   UNL     1       4.091   4.909  -0.080  1.00  0.00    -0.460 OA
BRANCH  29  30
ATOM     30  C   UNL     1       3.051   5.737   0.185  1.00  0.00     0.338 C 
ATOM     31  O   UNL     1       2.484   6.487  -0.590  1.00  0.00    -0.246 OA
BRANCH  30  32
ATOM     32  C   UNL     1       2.576   5.513   1.565  1.00  0.00     0.060 A 
ATOM     33  C   UNL     1       1.267   5.056   1.782  1.00  0.00     0.016 A 
ATOM     34  C   UNL     1       3.402   5.824   2.645  1.00  0.00     0.016 A 
ATOM     35  C   UNL     1       0.788   4.891   3.083  1.00  0.00     0.010 A 
ATOM     36  C   UNL     1       2.906   5.705   3.946  1.00  0.00     0.010 A 
ATOM     37  C   UNL     1       1.591   5.260   4.170  1.00  0.00    -0.014 A 
BRANCH  37  38
ATOM     38  C   UNL     1       0.972   5.428   5.506  1.00  0.00     0.031 A 
ATOM     39  C   UNL     1       0.457   6.795   5.867  1.00  0.00     0.074 A 
ATOM     40  C   UNL     1       0.848   4.405   6.369  1.00  0.00     0.049 A 
ATOM     41  N   UNL     1      -0.101   7.212   6.974  1.00  0.00    -0.248 NA
ATOM     42  C   UNL     1       0.596   7.835   4.833  1.00  0.00     0.031 C 
ATOM     43  C   UNL     1       1.276   3.030   6.122  1.00  0.00     0.029 A 
ATOM     44  N   UNL     1       0.328   4.373   7.640  1.00  0.00    -0.354 N 
ATOM     45  C   UNL     1      -0.391   8.554   6.763  1.00  0.00     0.074 A 
ATOM     46  C   UNL     1       0.101   8.896   5.447  1.00  0.00     0.031 C 
ATOM     47  C   UNL     1       1.013   2.290   7.214  1.00  0.00     0.029 A 
ATOM     48  C   UNL     1       0.425   3.143   8.246  1.00  0.00     0.049 A 
ATOM     49  H   UNL     1      -0.077   5.157   8.076  1.00  0.00     0.167 HD
ATOM     50  C   UNL     1      -1.026   9.421   7.585  1.00  0.00     0.037 A 
ATOM     51  C   UNL     1       0.095   2.765   9.497  1.00  0.00     0.037 A 
ATOM     52  C   UNL     1      -1.482   9.086   8.907  1.00  0.00     0.049 A 
ATOM     53  C   UNL     1      -0.516   3.780  10.434  1.00  0.00     0.074 A 
ATOM     54  C   UNL     1      -2.124   9.893   9.829  1.00  0.00     0.029 A 
ATOM     55  N   UNL     1      -1.331   7.841   9.500  1.00  0.00    -0.354 N 
ATOM     56  N   UNL     1      -0.817   5.039  10.217  1.00  0.00    -0.248 NA
ATOM     57  C   UNL     1      -0.844   3.317  11.791  1.00  0.00     0.031 C 
ATOM     58  C   UNL     1      -2.301   9.157  11.003  1.00  0.00     0.029 A 
ATOM     59  C   UNL     1      -1.844   7.867  10.786  1.00  0.00     0.049 A 
ATOM     60  H   UNL     1      -0.920   7.056   9.071  1.00  0.00     0.167 HD
ATOM     61  C   UNL     1      -1.403   5.502  11.391  1.00  0.00     0.074 A 
ATOM     62  C   UNL     1      -1.433   4.384  12.309  1.00  0.00     0.031 C 
ATOM     63  C   UNL     1      -1.875   6.740  11.685  1.00  0.00     0.037 A 
BRANCH  50  64
ATOM     64  C   UNL     1      -1.238  10.820   7.080  1.00  0.00     0.057 A 
ATOM     65  C   UNL     1      -2.113  11.099   6.021  1.00  0.00     0.134 A 
ATOM     66  C   UNL     1      -0.574  11.903   7.669  1.00  0.00     0.134 A 
ATOM     67  F   UNL     1      -2.769  10.107   5.400  1.00  0.00    -0.206 F 
ATOM     68  C   UNL     1      -2.296  12.399   5.547  1.00  0.00     0.040 A 
ATOM     69  C   UNL     1      -0.776  13.211   7.228  1.00  0.00     0.040 A 
ATOM     70  F   UNL     1       0.276  11.710   8.689  1.00  0.00    -0.206 F 
ATOM     71  C   UNL     1      -1.632  13.461   6.158  1.00  0.00     0.006 A 
ENDBRANCH  50  64
BRANCH  51  72
ATOM     72  C   UNL     1       0.349   1.373   9.961  1.00  0.00     0.057 A 
ATOM     73  C   UNL     1      -0.699   0.522  10.335  1.00  0.00     0.134 A 
ATOM     74  C   UNL     1       1.653   0.881  10.106  1.00  0.00     0.134 A 
ATOM     75  F   UNL     1      -1.971   0.938  10.246  1.00  0.00    -0.206 F 
ATOM     76  C   UNL     1      -0.462  -0.746  10.870  1.00  0.00     0.040 A 
ATOM     77  C   UNL     1       1.904  -0.399  10.605  1.00  0.00     0.040 A 
ATOM     78  F   UNL     1       2.706   1.640   9.770  1.00  0.00    -0.206 F 
ATOM     79  C   UNL     1       0.845  -1.211  11.003  1.00  0.00     0.006 A 
ENDBRANCH  51  72
BRANCH  63  80
ATOM     80  C   UNL     1      -2.518   6.935  13.031  1.00  0.00     0.057 A 
ATOM     81  C   UNL     1      -1.787   6.886  14.226  1.00  0.00     0.134 A 
ATOM     82  C   UNL     1      -3.890   7.207  13.129  1.00  0.00     0.134 A 
ATOM     83  F   UNL     1      -0.470   6.625  14.208  1.00  0.00    -0.206 F 
ATOM     84  C   UNL     1      -2.403   7.056  15.467  1.00  0.00     0.040 A 
ATOM     85  C   UNL     1      -4.509   7.418  14.362  1.00  0.00     0.040 A 
ATOM     86  F   UNL     1      -4.650   7.286  12.027  1.00  0.00    -0.206 F 
ATOM     87  C   UNL     1      -3.767   7.330  15.537  1.00  0.00     0.006 A 
ENDBRANCH  63  80
ENDBRANCH  37  38
ENDBRANCH  30  32
ENDBRANCH  29  30
ENDBRANCH  28  29
ENDBRANCH  27  28
ENDBRANCH  26  27
ENDBRANCH   1  26
TORSDOF 18
