REMARK SMILES COc1ccc(N2C(=O)/C(=C/c3c(C(=O)OCCOCCOCCOC(=O)c4ccc(-c5c6nc(c(-c7c(F)cccc7F)c7ccc([nH]7)c(-c7c(F)cccc7F)c7nc(c(-c8c(F)cccc8F)c8ccc5[nH]8)C=C7)C=C6)cc4)[nH]c4cc(OC)ccc34)SC2=S)cc1
REMARK SMILES IDX 20 1 19 2 18 3 17 4 16 5 14 6 15 7 13 8 12 9 90 10 82 11
REMARK SMILES IDX 83 12 89 13 84 15 88 16 85 17 11 18 7 19 8 20 92 21 9 22
REMARK SMILES IDX 10 23 91 24 93 25 6 26 3 27 4 28 95 29 5 30 94 31 2 32 1 33
REMARK SMILES IDX 86 34 87 35 21 36 22 37 23 38 24 39 25 40 26 41 27 42 28 43
REMARK SMILES IDX 29 44 81 45 30 46 80 47 31 48 32 49 33 50 74 51 34 52 79 53
REMARK SMILES IDX 73 54 75 55 35 56 78 57 72 58 71 59 36 61 62 62 45 63 61 64
REMARK SMILES IDX 46 65 49 66 60 67 76 68 47 69 48 70 59 72 77 73 50 74 37 75
REMARK SMILES IDX 38 76 43 77 39 78 40 79 42 80 44 81 41 82 63 83 64 84 69 85
REMARK SMILES IDX 65 86 66 87 68 88 70 89 67 90 51 91 52 92 57 93 53 94 54 95
REMARK SMILES IDX 56 96 58 97 55 98
REMARK H PARENT 82 14 75 60 49 71
REMARK Flexibility Score: inf
ROOT
ATOM      1  C   UNL     1       3.853  -4.888   9.784  1.00  0.00     0.188 C 
ENDROOT
BRANCH   1   2
ATOM      2  O   UNL     1       4.633  -3.699   9.783  1.00  0.00    -0.376 OA
BRANCH   2   3
ATOM      3  C   UNL     1       4.944  -3.167   8.483  1.00  0.00     0.202 C 
BRANCH   3   4
ATOM      4  C   UNL     1       5.976  -3.969   7.669  1.00  0.00     0.261 C 
BRANCH   4   5
ATOM      5  O   UNL     1       5.345  -5.118   7.067  1.00  0.00    -0.459 OA
BRANCH   5   6
ATOM      6  C   UNL     1       6.049  -6.270   7.165  1.00  0.00     0.355 C 
ATOM      7  O   UNL     1       7.272  -6.326   7.246  1.00  0.00    -0.244 OA
BRANCH   6   8
ATOM      8  C   UNL     1       5.177  -7.357   7.544  1.00  0.00     0.133 A 
ATOM      9  C   UNL     1       4.023  -7.965   7.042  1.00  0.00     0.016 A 
ATOM     10  C   UNL     1       3.725  -9.081   7.923  1.00  0.00     0.008 A 
ATOM     11  N   UNL     1       5.476  -7.987   8.732  1.00  0.00    -0.348 N 
ATOM     12  C   UNL     1       4.603  -8.996   9.005  1.00  0.00     0.050 A 
ATOM     13  C   UNL     1       2.799 -10.152   7.946  1.00  0.00     0.015 A 
ATOM     14  H   UNL     1       6.231  -7.738   9.313  1.00  0.00     0.167 HD
ATOM     15  C   UNL     1       4.564  -9.836  10.124  1.00  0.00     0.073 A 
ATOM     16  C   UNL     1       2.786 -11.055   9.035  1.00  0.00     0.047 A 
ATOM     17  C   UNL     1       3.652 -10.884  10.111  1.00  0.00     0.120 A 
BRANCH   9  18
ATOM     18  C   UNL     1       3.335  -7.613   5.811  1.00  0.00     0.032 C 
ATOM     19  N   UNL     1       1.720  -4.692   4.284  1.00  0.00    -0.261 N 
ATOM     20  C   UNL     1       2.069  -6.046   4.220  1.00  0.00     0.270 C 
ATOM     21  C   UNL     1       1.985  -4.044   5.478  1.00  0.00     0.152 C 
ATOM     22  O   UNL     1       1.952  -6.802   3.266  1.00  0.00    -0.268 OA
ATOM     23  C   UNL     1       2.653  -6.480   5.544  1.00  0.00     0.081 C 
ATOM     24  S   UNL     1       2.325  -5.247   6.681  1.00  0.00    -0.054 SA
ATOM     25  S   UNL     1       2.080  -2.399   5.792  1.00  0.00    -0.051 S 
BRANCH  19  26
ATOM     26  C   UNL     1       1.173  -3.957   3.198  1.00  0.00     0.051 A 
ATOM     27  C   UNL     1       0.408  -1.811   1.548  1.00  0.00     0.119 A 
ATOM     28  C   UNL     1      -0.439  -2.254   2.564  1.00  0.00     0.048 A 
ATOM     29  C   UNL     1       1.607  -2.491   1.314  1.00  0.00     0.048 A 
ATOM     30  C   UNL     1      -0.064  -3.319   3.382  1.00  0.00     0.030 A 
ATOM     31  C   UNL     1       1.987  -3.573   2.129  1.00  0.00     0.030 A 
BRANCH  27  32
ATOM     32  O   UNL     1      -0.039  -0.695   0.898  1.00  0.00    -0.497 OA
ATOM     33  C   UNL     1       0.787  -0.160  -0.126  1.00  0.00     0.278 C 
ENDBRANCH  27  32
ENDBRANCH  19  26
ENDBRANCH   9  18
BRANCH  17  34
ATOM     34  O   UNL     1       3.603 -11.655  11.241  1.00  0.00    -0.497 OA
ATOM     35  C   UNL     1       3.924 -13.022  10.995  1.00  0.00     0.278 C 
ENDBRANCH  17  34
ENDBRANCH   6   8
ENDBRANCH   5   6
ENDBRANCH   4   5
ENDBRANCH   3   4
ENDBRANCH   2   3
ENDBRANCH   1   2
BRANCH   1  36
ATOM     36  C   UNL     1       2.332  -4.782   9.980  1.00  0.00     0.188 C 
BRANCH  36  37
ATOM     37  O   UNL     1       1.611  -3.784   9.274  1.00  0.00    -0.376 OA
BRANCH  37  38
ATOM     38  C   UNL     1       1.745  -2.431   9.700  1.00  0.00     0.202 C 
BRANCH  38  39
ATOM     39  C   UNL     1       1.270  -2.130  11.123  1.00  0.00     0.261 C 
BRANCH  39  40
ATOM     40  O   UNL     1       2.255  -2.574  12.074  1.00  0.00    -0.460 OA
BRANCH  40  41
ATOM     41  C   UNL     1       1.825  -3.482  12.981  1.00  0.00     0.338 C 
ATOM     42  O   UNL     1       0.678  -3.834  13.195  1.00  0.00    -0.246 OA
BRANCH  41  43
ATOM     43  C   UNL     1       2.999  -4.200  13.517  1.00  0.00     0.060 A 
ATOM     44  C   UNL     1       2.991  -5.602  13.469  1.00  0.00     0.016 A 
ATOM     45  C   UNL     1       4.074  -3.511  14.079  1.00  0.00     0.016 A 
ATOM     46  C   UNL     1       4.038  -6.324  14.034  1.00  0.00     0.010 A 
ATOM     47  C   UNL     1       5.106  -4.234  14.677  1.00  0.00     0.010 A 
ATOM     48  C   UNL     1       5.067  -5.640  14.692  1.00  0.00    -0.014 A 
BRANCH  48  49
ATOM     49  C   UNL     1       5.963  -6.392  15.595  1.00  0.00     0.031 A 
ATOM     50  C   UNL     1       5.514  -6.604  17.014  1.00  0.00     0.074 A 
ATOM     51  C   UNL     1       7.133  -6.887  15.164  1.00  0.00     0.049 A 
ATOM     52  N   UNL     1       6.119  -7.224  17.993  1.00  0.00    -0.248 NA
ATOM     53  C   UNL     1       4.201  -6.041  17.376  1.00  0.00     0.031 C 
ATOM     54  C   UNL     1       7.657  -6.767  13.806  1.00  0.00     0.029 A 
ATOM     55  N   UNL     1       8.098  -7.588  15.841  1.00  0.00    -0.354 N 
ATOM     56  C   UNL     1       5.258  -7.136  19.079  1.00  0.00     0.074 A 
ATOM     57  C   UNL     1       4.102  -6.381  18.651  1.00  0.00     0.031 C 
ATOM     58  C   UNL     1       8.862  -7.363  13.752  1.00  0.00     0.029 A 
ATOM     59  C   UNL     1       9.195  -7.888  15.075  1.00  0.00     0.049 A 
ATOM     60  H   UNL     1       8.010  -7.851  16.785  1.00  0.00     0.167 HD
ATOM     61  C   UNL     1       5.414  -7.644  20.323  1.00  0.00     0.037 A 
ATOM     62  C   UNL     1      10.343  -8.504  15.418  1.00  0.00     0.037 A 
ATOM     63  C   UNL     1       6.575  -8.369  20.759  1.00  0.00     0.049 A 
ATOM     64  C   UNL     1      10.525  -8.996  16.828  1.00  0.00     0.074 A 
ATOM     65  C   UNL     1       6.834  -8.923  21.999  1.00  0.00     0.029 A 
ATOM     66  N   UNL     1       7.680  -8.628  19.963  1.00  0.00    -0.354 N 
ATOM     67  N   UNL     1       9.694  -8.935  17.841  1.00  0.00    -0.248 NA
ATOM     68  C   UNL     1      11.806  -9.646  17.142  1.00  0.00     0.031 C 
ATOM     69  C   UNL     1       8.115  -9.488  21.964  1.00  0.00     0.029 A 
ATOM     70  C   UNL     1       8.635  -9.317  20.691  1.00  0.00     0.049 A 
ATOM     71  H   UNL     1       7.772  -8.362  19.019  1.00  0.00     0.167 HD
ATOM     72  C   UNL     1      10.340  -9.555  18.903  1.00  0.00     0.074 A 
ATOM     73  C   UNL     1      11.628  -9.997  18.408  1.00  0.00     0.031 C 
ATOM     74  C   UNL     1       9.909  -9.745  20.175  1.00  0.00     0.037 A 
BRANCH  61  75
ATOM     75  C   UNL     1       4.304  -7.403  21.300  1.00  0.00     0.057 A 
ATOM     76  C   UNL     1       3.093  -8.102  21.221  1.00  0.00     0.134 A 
ATOM     77  C   UNL     1       4.447  -6.463  22.327  1.00  0.00     0.134 A 
ATOM     78  F   UNL     1       2.888  -9.000  20.245  1.00  0.00    -0.206 F 
ATOM     79  C   UNL     1       2.053  -7.860  22.120  1.00  0.00     0.040 A 
ATOM     80  C   UNL     1       3.421  -6.226  23.244  1.00  0.00     0.040 A 
ATOM     81  F   UNL     1       5.580  -5.757  22.452  1.00  0.00    -0.206 F 
ATOM     82  C   UNL     1       2.219  -6.923  23.139  1.00  0.00     0.006 A 
ENDBRANCH  61  75
BRANCH  62  83
ATOM     83  C   UNL     1      11.417  -8.685  14.412  1.00  0.00     0.057 A 
ATOM     84  C   UNL     1      11.717  -9.949  13.892  1.00  0.00     0.134 A 
ATOM     85  C   UNL     1      12.183  -7.603  13.965  1.00  0.00     0.134 A 
ATOM     86  F   UNL     1      11.031 -11.026  14.302  1.00  0.00    -0.206 F 
ATOM     87  C   UNL     1      12.751 -10.134  12.974  1.00  0.00     0.040 A 
ATOM     88  C   UNL     1      13.208  -7.769  13.032  1.00  0.00     0.040 A 
ATOM     89  F   UNL     1      11.945  -6.367  14.428  1.00  0.00    -0.206 F 
ATOM     90  C   UNL     1      13.498  -9.040  12.538  1.00  0.00     0.006 A 
ENDBRANCH  62  83
BRANCH  74  91
ATOM     91  C   UNL     1      10.828 -10.478  21.104  1.00  0.00     0.057 A 
ATOM     92  C   UNL     1      11.967  -9.869  21.644  1.00  0.00     0.134 A 
ATOM     93  C   UNL     1      10.552 -11.796  21.487  1.00  0.00     0.134 A 
ATOM     94  F   UNL     1      12.291  -8.612  21.306  1.00  0.00    -0.206 F 
ATOM     95  C   UNL     1      12.813 -10.555  22.517  1.00  0.00     0.040 A 
ATOM     96  C   UNL     1      11.378 -12.485  22.376  1.00  0.00     0.040 A 
ATOM     97  F   UNL     1       9.470 -12.432  21.011  1.00  0.00    -0.206 F 
ATOM     98  C   UNL     1      12.516 -11.865  22.889  1.00  0.00     0.006 A 
ENDBRANCH  74  91
ENDBRANCH  48  49
ENDBRANCH  41  43
ENDBRANCH  40  41
ENDBRANCH  39  40
ENDBRANCH  38  39
ENDBRANCH  37  38
ENDBRANCH  36  37
ENDBRANCH   1  36
TORSDOF 21
