REMARK SMILES COc1cc(/C=C2\SC(=S)N([C@H](C)C(=O)Nc3ccc(C(=O)OCCOCCOCCOC(=O)c4ccc(-c5c6nc(c(-c7c(F)cccc7F)c7ccc([nH]7)c(-c7c(F)cccc7F)c7nc(c(-c8c(F)cccc8F)c8ccc5[nH]8)C=C7)C=C6)cc4)cc3)C2=O)ccc1O
REMARK SMILES IDX 26 1 25 2 24 3 23 4 21 5 22 6 20 7 17 8 18 9 90 10 19 11
REMARK SMILES IDX 89 12 16 13 14 14 15 15 12 17 13 18 11 19 6 20 7 21 8 22
REMARK SMILES IDX 91 23 9 24 92 25 10 26 5 27 3 28 4 29 95 30 94 31 93 32 2 33
REMARK SMILES IDX 1 34 96 35 27 37 28 38 29 39 30 40 31 41 32 42 33 43 34 44
REMARK SMILES IDX 35 45 36 46 88 47 37 48 87 49 38 50 39 51 40 52 81 53 41 54
REMARK SMILES IDX 86 55 80 56 82 57 42 58 85 59 79 60 78 61 43 63 69 64 52 65
REMARK SMILES IDX 68 66 53 67 56 68 67 69 83 70 54 71 55 72 66 74 84 75 57 76
REMARK SMILES IDX 44 77 45 78 50 79 46 80 47 81 49 82 51 83 48 84 70 85 71 86
REMARK SMILES IDX 76 87 72 88 73 89 75 90 77 91 74 92 58 93 59 94 64 95 60 96
REMARK SMILES IDX 61 97 63 98 65 99 62 100
REMARK H PARENT 16 16 96 36 82 62 56 73
REMARK Flexibility Score: inf
ROOT
ATOM      1  O   UNL     1      -4.322   0.676   5.422  1.00  0.00    -0.376 OA
ENDROOT
BRANCH   1   2
ATOM      2  C   UNL     1      -3.004   1.206   5.426  1.00  0.00     0.202 C 
BRANCH   2   3
ATOM      3  C   UNL     1      -2.100   0.886   6.612  1.00  0.00     0.261 C 
BRANCH   3   4
ATOM      4  O   UNL     1      -1.841  -0.519   6.716  1.00  0.00    -0.460 OA
BRANCH   4   5
ATOM      5  C   UNL     1      -2.305  -1.103   7.844  1.00  0.00     0.338 C 
ATOM      6  O   UNL     1      -2.862  -0.546   8.777  1.00  0.00    -0.246 OA
BRANCH   5   7
ATOM      7  C   UNL     1      -2.125  -2.573   7.798  1.00  0.00     0.060 A 
ATOM      8  C   UNL     1      -1.485  -5.235   8.208  1.00  0.00     0.041 A 
ATOM      9  C   UNL     1      -2.563  -4.684   8.893  1.00  0.00     0.027 A 
ATOM     10  C   UNL     1      -0.899  -4.544   7.153  1.00  0.00     0.027 A 
ATOM     11  C   UNL     1      -2.863  -3.338   8.709  1.00  0.00     0.018 A 
ATOM     12  C   UNL     1      -1.213  -3.202   6.946  1.00  0.00     0.018 A 
BRANCH   8  13
ATOM     13  N   UNL     1      -1.015  -6.474   8.625  1.00  0.00    -0.324 N 
ATOM     14  C   UNL     1       0.241  -6.831   9.032  1.00  0.00     0.247 C 
ATOM     15  O   UNL     1       0.429  -8.043   9.207  1.00  0.00    -0.272 OA
ATOM     16  H   UNL     1      -1.681  -7.199   8.627  1.00  0.00     0.170 HD
BRANCH  14  17
ATOM     17  C   UNL     1       1.431  -5.835   9.225  1.00  0.00     0.178 C 
ATOM     18  C   UNL     1       2.204  -5.684   7.918  1.00  0.00     0.042 C 
BRANCH  17  19
ATOM     19  N   UNL     1       1.113  -4.623  10.035  1.00  0.00    -0.280 N 
ATOM     20  C   UNL     1       0.319  -3.480  13.410  1.00  0.00     0.029 C 
ATOM     21  C   UNL     1       0.479  -3.582  12.082  1.00  0.00     0.081 C 
ATOM     22  S   UNL     1       0.176  -2.384  10.900  1.00  0.00    -0.054 SA
ATOM     23  C   UNL     1       0.941  -4.827  11.404  1.00  0.00     0.266 C 
ATOM     24  C   UNL     1       1.070  -3.293   9.679  1.00  0.00     0.149 C 
ATOM     25  O   UNL     1       1.143  -5.872  12.006  1.00  0.00    -0.268 OA
ATOM     26  S   UNL     1       1.826  -2.474   8.438  1.00  0.00    -0.052 S 
BRANCH  20  27
ATOM     27  C   UNL     1      -0.387  -2.377  14.079  1.00  0.00    -0.020 A 
ATOM     28  C   UNL     1      -0.633  -0.057  14.800  1.00  0.00     0.161 A 
ATOM     29  C   UNL     1       0.146  -1.091  14.252  1.00  0.00     0.058 A 
ATOM     30  C   UNL     1      -1.959  -0.330  15.150  1.00  0.00     0.157 A 
ATOM     31  C   UNL     1      -2.479  -1.616  15.036  1.00  0.00     0.051 A 
ATOM     32  C   UNL     1      -1.696  -2.635  14.501  1.00  0.00     0.012 A 
BRANCH  28  33
ATOM     33  O   UNL     1       0.002   1.154  14.881  1.00  0.00    -0.493 OA
ATOM     34  C   UNL     1      -0.456   2.077  15.866  1.00  0.00     0.278 C 
ENDBRANCH  28  33
BRANCH  30  35
ATOM     35  O   UNL     1      -2.849   0.629  15.540  1.00  0.00    -0.504 OA
ATOM     36  H   UNL     1      -2.568   1.518  15.637  1.00  0.00     0.293 HD
ENDBRANCH  30  35
ENDBRANCH  20  27
ENDBRANCH  17  19
ENDBRANCH  14  17
ENDBRANCH   8  13
ENDBRANCH   5   7
ENDBRANCH   4   5
ENDBRANCH   3   4
ENDBRANCH   2   3
ENDBRANCH   1   2
BRANCH   1  37
ATOM     37  C   UNL     1      -4.532  -0.726   5.467  1.00  0.00     0.188 C 
BRANCH  37  38
ATOM     38  C   UNL     1      -3.721  -1.687   4.571  1.00  0.00     0.188 C 
BRANCH  38  39
ATOM     39  O   UNL     1      -3.040  -1.218   3.421  1.00  0.00    -0.376 OA
BRANCH  39  40
ATOM     40  C   UNL     1      -3.738  -0.397   2.497  1.00  0.00     0.202 C 
BRANCH  40  41
ATOM     41  C   UNL     1      -4.969  -0.984   1.809  1.00  0.00     0.261 C 
BRANCH  41  42
ATOM     42  O   UNL     1      -6.008  -1.319   2.742  1.00  0.00    -0.460 OA
BRANCH  42  43
ATOM     43  C   UNL     1      -6.365  -2.629   2.757  1.00  0.00     0.338 C 
ATOM     44  O   UNL     1      -5.957  -3.517   2.044  1.00  0.00    -0.246 OA
BRANCH  43  45
ATOM     45  C   UNL     1      -7.233  -2.880   3.926  1.00  0.00     0.060 A 
ATOM     46  C   UNL     1      -6.848  -3.885   4.824  1.00  0.00     0.016 A 
ATOM     47  C   UNL     1      -8.434  -2.192   4.098  1.00  0.00     0.016 A 
ATOM     48  C   UNL     1      -7.689  -4.238   5.877  1.00  0.00     0.010 A 
ATOM     49  C   UNL     1      -9.287  -2.562   5.141  1.00  0.00     0.010 A 
ATOM     50  C   UNL     1      -8.933  -3.610   6.011  1.00  0.00    -0.014 A 
BRANCH  50  51
ATOM     51  C   UNL     1      -9.953  -4.179   6.921  1.00  0.00     0.031 A 
ATOM     52  C   UNL     1     -10.939  -5.165   6.359  1.00  0.00     0.074 A 
ATOM     53  C   UNL     1     -10.011  -3.827   8.216  1.00  0.00     0.049 A 
ATOM     54  N   UNL     1     -11.972  -5.727   6.931  1.00  0.00    -0.248 NA
ATOM     55  C   UNL     1     -10.728  -5.571   4.959  1.00  0.00     0.031 C 
ATOM     56  C   UNL     1      -9.083  -2.922   8.891  1.00  0.00     0.029 A 
ATOM     57  N   UNL     1     -10.907  -4.185   9.191  1.00  0.00    -0.354 N 
ATOM     58  C   UNL     1     -12.537  -6.546   5.963  1.00  0.00     0.074 A 
ATOM     59  C   UNL     1     -11.747  -6.394   4.761  1.00  0.00     0.031 C 
ATOM     60  C   UNL     1      -9.472  -2.780  10.171  1.00  0.00     0.029 A 
ATOM     61  C   UNL     1     -10.692  -3.555  10.392  1.00  0.00     0.049 A 
ATOM     62  H   UNL     1     -11.635  -4.831   9.044  1.00  0.00     0.167 HD
ATOM     63  C   UNL     1     -13.618  -7.354   6.065  1.00  0.00     0.037 A 
ATOM     64  C   UNL     1     -11.418  -3.582  11.526  1.00  0.00     0.037 A 
ATOM     65  C   UNL     1     -14.414  -7.495   7.253  1.00  0.00     0.049 A 
ATOM     66  C   UNL     1     -12.673  -4.413  11.586  1.00  0.00     0.074 A 
ATOM     67  C   UNL     1     -15.527  -8.291   7.457  1.00  0.00     0.029 A 
ATOM     68  N   UNL     1     -14.184  -6.814   8.438  1.00  0.00    -0.354 N 
ATOM     69  N   UNL     1     -13.193  -5.195  10.671  1.00  0.00    -0.248 NA
ATOM     70  C   UNL     1     -13.445  -4.360  12.837  1.00  0.00     0.031 C 
ATOM     71  C   UNL     1     -15.997  -8.059   8.755  1.00  0.00     0.029 A 
ATOM     72  C   UNL     1     -15.149  -7.152   9.371  1.00  0.00     0.049 A 
ATOM     73  H   UNL     1     -13.445  -6.182   8.593  1.00  0.00     0.167 HD
ATOM     74  C   UNL     1     -14.332  -5.750  11.245  1.00  0.00     0.074 A 
ATOM     75  C   UNL     1     -14.425  -5.217  12.588  1.00  0.00     0.031 C 
ATOM     76  C   UNL     1     -15.218  -6.625  10.710  1.00  0.00     0.037 A 
BRANCH  63  77
ATOM     77  C   UNL     1     -14.014  -8.122   4.840  1.00  0.00     0.057 A 
ATOM     78  C   UNL     1     -13.273  -9.220   4.386  1.00  0.00     0.134 A 
ATOM     79  C   UNL     1     -15.154  -7.763   4.111  1.00  0.00     0.134 A 
ATOM     80  F   UNL     1     -12.159  -9.602   5.030  1.00  0.00    -0.206 F 
ATOM     81  C   UNL     1     -13.639  -9.920   3.235  1.00  0.00     0.040 A 
ATOM     82  C   UNL     1     -15.543  -8.469   2.972  1.00  0.00     0.040 A 
ATOM     83  F   UNL     1     -15.907  -6.721   4.494  1.00  0.00    -0.206 F 
ATOM     84  C   UNL     1     -14.780  -9.548   2.528  1.00  0.00     0.006 A 
ENDBRANCH  63  77
BRANCH  64  85
ATOM     85  C   UNL     1     -10.994  -2.781  12.701  1.00  0.00     0.057 A 
ATOM     86  C   UNL     1     -10.514  -3.400  13.861  1.00  0.00     0.134 A 
ATOM     87  C   UNL     1     -11.088  -1.384  12.706  1.00  0.00     0.134 A 
ATOM     88  F   UNL     1     -10.427  -4.737  13.925  1.00  0.00    -0.206 F 
ATOM     89  C   UNL     1     -10.157  -2.660  14.990  1.00  0.00     0.040 A 
ATOM     90  C   UNL     1     -10.713  -0.631  13.819  1.00  0.00     0.040 A 
ATOM     91  F   UNL     1     -11.544  -0.733  11.626  1.00  0.00    -0.206 F 
ATOM     92  C   UNL     1     -10.252  -1.270  14.968  1.00  0.00     0.006 A 
ENDBRANCH  64  85
BRANCH  76  93
ATOM     93  C   UNL     1     -16.338  -7.100  11.587  1.00  0.00     0.057 A 
ATOM     94  C   UNL     1     -17.434  -6.285  11.893  1.00  0.00     0.134 A 
ATOM     95  C   UNL     1     -16.343  -8.410  12.084  1.00  0.00     0.134 A 
ATOM     96  F   UNL     1     -17.483  -5.018  11.457  1.00  0.00    -0.206 F 
ATOM     97  C   UNL     1     -18.492  -6.753  12.677  1.00  0.00     0.040 A 
ATOM     98  C   UNL     1     -17.405  -8.895  12.849  1.00  0.00     0.040 A 
ATOM     99  F   UNL     1     -15.326  -9.243  11.819  1.00  0.00    -0.206 F 
ATOM    100  C   UNL     1     -18.482  -8.064  13.150  1.00  0.00     0.006 A 
ENDBRANCH  76  93
ENDBRANCH  50  51
ENDBRANCH  43  45
ENDBRANCH  42  43
ENDBRANCH  41  42
ENDBRANCH  40  41
ENDBRANCH  39  40
ENDBRANCH  38  39
ENDBRANCH  37  38
ENDBRANCH   1  37
TORSDOF 23
