REMARK SMILES CC1(C)CSC[C@H]([NH2+][C@H](C(=O)OCCOCCOCCOC(=O)c2ccc(-c3c4nc(c(-c5c(F)cccc5F)c5ccc([nH]5)c(-c5c(F)cccc5F)c5nc(c(-c6c(F)cccc6F)c6ccc3[nH]6)C=C5)C=C4)cc2)c2ccccc2)C1
REMARK SMILES IDX 16 1 15 2 14 3 13 4 12 5 10 6 11 7 9 8 8 9 7 12 1 13 2 14
REMARK SMILES IDX 3 15 4 16 84 17 5 18 6 19 78 20 79 21 83 22 80 23 82 24
REMARK SMILES IDX 81 25 17 26 18 27 19 28 20 29 21 30 22 31 23 32 24 33 25 34
REMARK SMILES IDX 77 35 26 36 76 37 27 38 28 39 29 40 70 41 30 42 75 43 69 44
REMARK SMILES IDX 71 45 31 46 74 47 68 48 67 49 32 51 58 52 41 53 57 54 42 55
REMARK SMILES IDX 45 56 56 57 72 58 43 59 44 60 55 62 73 63 46 64 33 65 34 66
REMARK SMILES IDX 39 67 35 68 36 69 38 70 40 71 37 72 59 73 60 74 65 75 61 76
REMARK SMILES IDX 62 77 64 78 66 79 63 80 47 81 48 82 53 83 49 84 50 85 52 86
REMARK SMILES IDX 54 87 51 88
REMARK H PARENT 8 10 8 11 71 50 45 61
REMARK Flexibility Score: inf
ROOT
ATOM      1  C   UNL     1      -2.329   3.786  -0.032  1.00  0.00     0.188 C 
ENDROOT
BRANCH   1   2
ATOM      2  O   UNL     1      -1.908   3.149   1.160  1.00  0.00    -0.376 OA
BRANCH   2   3
ATOM      3  C   UNL     1      -1.073   2.002   1.097  1.00  0.00     0.202 C 
BRANCH   3   4
ATOM      4  C   UNL     1      -1.364   0.893   0.076  1.00  0.00     0.261 C 
BRANCH   4   5
ATOM      5  O   UNL     1      -1.310   1.330  -1.292  1.00  0.00    -0.459 OA
BRANCH   5   6
ATOM      6  C   UNL     1      -1.611   0.361  -2.208  1.00  0.00     0.369 C 
ATOM      7  O   UNL     1      -1.860  -0.800  -1.888  1.00  0.00    -0.245 OA
BRANCH   6   8
ATOM      8  C   UNL     1      -1.734   0.879  -3.676  1.00  0.00     0.325 C 
BRANCH   8   9
ATOM      9  N   UNL     1      -3.178   0.989  -4.046  1.00  0.00    -0.328 N 
ATOM     10  H   UNL     1      -3.223   1.333  -5.005  1.00  0.00     0.347 HD
ATOM     11  H   UNL     1      -3.557   0.052  -3.904  1.00  0.00     0.347 HD
BRANCH   9  12
ATOM     12  C   UNL     1      -4.021   1.867  -3.222  1.00  0.00     0.193 C 
ATOM     13  C   UNL     1      -6.276   1.840  -0.960  1.00  0.00     0.012 C 
ATOM     14  C   UNL     1      -6.509   2.137  -2.459  1.00  0.00    -0.021 C 
ATOM     15  C   UNL     1      -7.950   1.696  -2.794  1.00  0.00     0.012 C 
ATOM     16  C   UNL     1      -6.450   3.641  -2.724  1.00  0.00     0.076 C 
ATOM     17  C   UNL     1      -5.492   1.381  -3.354  1.00  0.00     0.073 C 
ATOM     18  S   UNL     1      -4.838   4.377  -2.452  1.00  0.00    -0.155 SA
ATOM     19  C   UNL     1      -3.909   3.351  -3.601  1.00  0.00     0.134 C 
ENDBRANCH   9  12
ENDBRANCH   8   9
BRANCH   8  20
ATOM     20  C   UNL     1      -0.828   2.037  -4.124  1.00  0.00     0.021 A 
ATOM     21  C   UNL     1       0.421   2.265  -3.519  1.00  0.00     0.010 A 
ATOM     22  C   UNL     1      -1.160   2.865  -5.217  1.00  0.00     0.010 A 
ATOM     23  C   UNL     1       1.222   3.355  -3.884  1.00  0.00     0.001 A 
ATOM     24  C   UNL     1      -0.367   3.961  -5.577  1.00  0.00     0.001 A 
ATOM     25  C   UNL     1       0.815   4.217  -4.895  1.00  0.00     0.000 A 
ENDBRANCH   8  20
ENDBRANCH   6   8
ENDBRANCH   5   6
ENDBRANCH   4   5
ENDBRANCH   3   4
ENDBRANCH   2   3
ENDBRANCH   1   2
BRANCH   1  26
ATOM     26  C   UNL     1      -1.307   4.277  -1.072  1.00  0.00     0.188 C 
BRANCH  26  27
ATOM     27  O   UNL     1       0.032   4.544  -0.690  1.00  0.00    -0.376 OA
BRANCH  27  28
ATOM     28  C   UNL     1       0.239   5.338   0.464  1.00  0.00     0.202 C 
BRANCH  28  29
ATOM     29  C   UNL     1      -0.145   6.819   0.390  1.00  0.00     0.261 C 
BRANCH  29  30
ATOM     30  O   UNL     1      -1.488   7.061  -0.059  1.00  0.00    -0.460 OA
BRANCH  30  31
ATOM     31  C   UNL     1      -1.596   7.661  -1.273  1.00  0.00     0.338 C 
ATOM     32  O   UNL     1      -0.682   7.999  -2.011  1.00  0.00    -0.246 OA
BRANCH  31  33
ATOM     33  C   UNL     1      -3.020   7.767  -1.667  1.00  0.00     0.060 A 
ATOM     34  C   UNL     1      -3.358   7.515  -3.000  1.00  0.00     0.016 A 
ATOM     35  C   UNL     1      -4.018   8.119  -0.752  1.00  0.00     0.016 A 
ATOM     36  C   UNL     1      -4.697   7.571  -3.403  1.00  0.00     0.010 A 
ATOM     37  C   UNL     1      -5.353   8.220  -1.172  1.00  0.00     0.010 A 
ATOM     38  C   UNL     1      -5.715   7.928  -2.495  1.00  0.00    -0.014 A 
BRANCH  38  39
ATOM     39  C   UNL     1      -7.128   8.044  -2.973  1.00  0.00     0.031 A 
ATOM     40  C   UNL     1      -7.463   9.060  -4.026  1.00  0.00     0.074 A 
ATOM     41  C   UNL     1      -8.120   7.255  -2.507  1.00  0.00     0.049 A 
ATOM     42  N   UNL     1      -8.602   9.277  -4.634  1.00  0.00    -0.248 NA
ATOM     43  C   UNL     1      -6.387   9.987  -4.404  1.00  0.00     0.031 C 
ATOM     44  C   UNL     1      -7.988   6.283  -1.432  1.00  0.00     0.029 A 
ATOM     45  N   UNL     1      -9.423   7.090  -2.931  1.00  0.00    -0.354 N 
ATOM     46  C   UNL     1      -8.402  10.416  -5.400  1.00  0.00     0.074 A 
ATOM     47  C   UNL     1      -7.009  10.784  -5.257  1.00  0.00     0.031 C 
ATOM     48  C   UNL     1      -9.087   5.510  -1.397  1.00  0.00     0.029 A 
ATOM     49  C   UNL     1     -10.033   5.970  -2.402  1.00  0.00     0.049 A 
ATOM     50  H   UNL     1      -9.873   7.710  -3.549  1.00  0.00     0.167 HD
ATOM     51  C   UNL     1      -9.315  11.146  -6.083  1.00  0.00     0.037 A 
ATOM     52  C   UNL     1     -11.200   5.372  -2.718  1.00  0.00     0.037 A 
ATOM     53  C   UNL     1     -10.715  10.832  -6.171  1.00  0.00     0.049 A 
ATOM     54  C   UNL     1     -12.169   6.122  -3.589  1.00  0.00     0.074 A 
ATOM     55  C   UNL     1     -11.726  11.556  -6.777  1.00  0.00     0.029 A 
ATOM     56  N   UNL     1     -11.306   9.706  -5.618  1.00  0.00    -0.354 N 
ATOM     57  N   UNL     1     -11.981   7.217  -4.281  1.00  0.00    -0.248 NA
ATOM     58  C   UNL     1     -13.550   5.611  -3.630  1.00  0.00     0.031 C 
ATOM     59  C   UNL     1     -12.938  10.891  -6.551  1.00  0.00     0.029 A 
ATOM     60  C   UNL     1     -12.672   9.726  -5.850  1.00  0.00     0.049 A 
ATOM     61  H   UNL     1     -10.826   8.997  -5.132  1.00  0.00     0.167 HD
ATOM     62  C   UNL     1     -13.231   7.572  -4.769  1.00  0.00     0.074 A 
ATOM     63  C   UNL     1     -14.151   6.524  -4.381  1.00  0.00     0.031 C 
ATOM     64  C   UNL     1     -13.590   8.701  -5.425  1.00  0.00     0.037 A 
BRANCH  51  65
ATOM     65  C   UNL     1      -8.824  12.446  -6.642  1.00  0.00     0.057 A 
ATOM     66  C   UNL     1      -7.985  12.514  -7.760  1.00  0.00     0.134 A 
ATOM     67  C   UNL     1      -9.129  13.645  -5.983  1.00  0.00     0.134 A 
ATOM     68  F   UNL     1      -7.626  11.396  -8.410  1.00  0.00    -0.206 F 
ATOM     69  C   UNL     1      -7.432  13.726  -8.179  1.00  0.00     0.040 A 
ATOM     70  C   UNL     1      -8.604  14.864  -6.407  1.00  0.00     0.040 A 
ATOM     71  F   UNL     1      -9.918  13.644  -4.898  1.00  0.00    -0.206 F 
ATOM     72  C   UNL     1      -7.741  14.904  -7.500  1.00  0.00     0.006 A 
ENDBRANCH  51  65
BRANCH  52  73
ATOM     73  C   UNL     1     -11.557   4.011  -2.223  1.00  0.00     0.057 A 
ATOM     74  C   UNL     1     -11.760   2.966  -3.141  1.00  0.00     0.134 A 
ATOM     75  C   UNL     1     -11.752   3.709  -0.872  1.00  0.00     0.134 A 
ATOM     76  F   UNL     1     -11.624   3.189  -4.457  1.00  0.00    -0.206 F 
ATOM     77  C   UNL     1     -12.145   1.686  -2.735  1.00  0.00     0.040 A 
ATOM     78  C   UNL     1     -12.104   2.424  -0.448  1.00  0.00     0.040 A 
ATOM     79  F   UNL     1     -11.606   4.659   0.063  1.00  0.00    -0.206 F 
ATOM     80  C   UNL     1     -12.309   1.410  -1.381  1.00  0.00     0.006 A 
ENDBRANCH  52  73
BRANCH  64  81
ATOM     81  C   UNL     1     -15.051   8.901  -5.693  1.00  0.00     0.057 A 
ATOM     82  C   UNL     1     -15.937   9.236  -4.659  1.00  0.00     0.134 A 
ATOM     83  C   UNL     1     -15.571   8.813  -6.988  1.00  0.00     0.134 A 
ATOM     84  F   UNL     1     -15.503   9.323  -3.392  1.00  0.00    -0.206 F 
ATOM     85  C   UNL     1     -17.291   9.468  -4.904  1.00  0.00     0.040 A 
ATOM     86  C   UNL     1     -16.919   9.062  -7.249  1.00  0.00     0.040 A 
ATOM     87  F   UNL     1     -14.775   8.499  -8.021  1.00  0.00    -0.206 F 
ATOM     88  C   UNL     1     -17.784   9.389  -6.205  1.00  0.00     0.006 A 
ENDBRANCH  64  81
ENDBRANCH  38  39
ENDBRANCH  31  33
ENDBRANCH  30  31
ENDBRANCH  29  30
ENDBRANCH  28  29
ENDBRANCH  27  28
ENDBRANCH  26  27
ENDBRANCH   1  26
TORSDOF 20
