REMARK SMILES Cc1c(NC(=O)[C@@H]2CC=CC[C@@H]2C(=O)OCCOCCOCCOC(=O)c2ccc(-c3c4nc(c(-c5c(F)cccc5F)c5ccc([nH]5)c(-c5c(F)cccc5F)c5nc(c(-c6c(F)cccc6F)c6ccc3[nH]6)C=C5)C=C4)cc2)cccc1C(=O)N1CCOCC1
REMARK SMILES IDX 19 1 18 2 17 3 16 4 15 5 13 6 14 7 12 8 7 9 8 10 9 11 11 12
REMARK SMILES IDX 10 13 5 14 4 15 6 17 3 18 1 19 2 20 84 21 81 22 83 23 82 24
REMARK SMILES IDX 85 25 86 26 87 27 88 28 92 29 89 30 91 31 90 32 20 33 21 34
REMARK SMILES IDX 22 35 23 36 24 37 25 38 26 39 27 40 28 41 80 42 29 43 79 44
REMARK SMILES IDX 30 45 31 46 32 47 73 48 33 49 78 50 72 51 74 52 34 53 77 54
REMARK SMILES IDX 71 55 70 56 35 58 61 59 44 60 60 61 45 62 48 63 59 64 75 65
REMARK SMILES IDX 46 66 47 67 58 69 76 70 49 71 36 72 37 73 42 74 38 75 39 76
REMARK SMILES IDX 41 77 43 78 40 79 62 80 63 81 68 82 64 83 65 84 67 85 69 86
REMARK SMILES IDX 66 87 50 88 51 89 56 90 52 91 53 92 55 93 57 94 54 95
REMARK H PARENT 4 16 74 57 48 68
REMARK Flexibility Score: inf
ROOT
ATOM      1  C   UNL     1      -7.172  -1.166   0.342  1.00  0.00     0.188 C 
ENDROOT
BRANCH   1   2
ATOM      2  O   UNL     1      -7.057  -2.602   0.262  1.00  0.00    -0.376 OA
BRANCH   2   3
ATOM      3  C   UNL     1      -6.453  -3.425   1.278  1.00  0.00     0.202 C 
BRANCH   3   4
ATOM      4  C   UNL     1      -5.118  -4.406   1.078  1.00  0.00     0.261 C 
BRANCH   4   5
ATOM      5  O   UNL     1      -3.360  -4.086   0.835  1.00  0.00    -0.463 OA
BRANCH   5   6
ATOM      6  C   UNL     1      -2.353  -3.781  -0.175  1.00  0.00     0.310 C 
ATOM      7  O   UNL     1      -2.474  -3.768  -1.407  1.00  0.00    -0.252 OA
BRANCH   6   8
ATOM      8  C   UNL     1      -0.932  -3.350   0.116  1.00  0.00     0.116 C 
ATOM      9  C   UNL     1      -0.311  -3.819   1.388  1.00  0.00     0.097 C 
ATOM     10  C   UNL     1      -0.746  -2.952   2.541  1.00  0.00     0.041 C 
ATOM     11  C   UNL     1      -0.436  -1.506   2.207  1.00  0.00    -0.030 C 
ATOM     12  C   UNL     1      -0.575  -1.905  -0.254  1.00  0.00     0.043 C 
ATOM     13  C   UNL     1      -0.337  -1.044   0.948  1.00  0.00    -0.030 C 
BRANCH   9  14
ATOM     14  C   UNL     1      -0.608  -5.289   1.370  1.00  0.00     0.228 C 
ATOM     15  N   UNL     1       0.177  -5.972   0.434  1.00  0.00    -0.326 N 
ATOM     16  H   UNL     1      -0.131  -6.175  -0.478  1.00  0.00     0.169 HD
ATOM     17  O   UNL     1      -1.564  -5.811   1.931  1.00  0.00    -0.274 OA
BRANCH  15  18
ATOM     18  C   UNL     1       1.449  -6.343   0.917  1.00  0.00     0.044 A 
ATOM     19  C   UNL     1       0.321  -8.475   1.568  1.00  0.00     0.047 C 
ATOM     20  C   UNL     1       1.527  -7.572   1.586  1.00  0.00    -0.015 A 
ATOM     21  C   UNL     1       2.690  -7.835   2.325  1.00  0.00     0.045 A 
ATOM     22  C   UNL     1       2.490  -5.410   0.957  1.00  0.00     0.026 A 
ATOM     23  C   UNL     1       3.665  -6.833   2.490  1.00  0.00     0.014 A 
ATOM     24  C   UNL     1       3.573  -5.629   1.796  1.00  0.00     0.003 A 
BRANCH  21  25
ATOM     25  C   UNL     1       2.835  -9.070   3.127  1.00  0.00     0.254 C 
ATOM     26  O   UNL     1       3.174  -8.942   4.302  1.00  0.00    -0.269 OA
ATOM     27  N   UNL     1       2.504 -10.295   2.564  1.00  0.00    -0.334 N 
ATOM     28  C   UNL     1       2.556 -10.667   1.140  1.00  0.00     0.148 C 
ATOM     29  C   UNL     1       2.164 -11.391   3.463  1.00  0.00     0.148 C 
ATOM     30  C   UNL     1       1.355 -11.539   0.715  1.00  0.00     0.181 C 
ATOM     31  C   UNL     1       0.888 -12.079   2.973  1.00  0.00     0.181 C 
ATOM     32  O   UNL     1       1.081 -12.596   1.646  1.00  0.00    -0.378 OA
ENDBRANCH  21  25
ENDBRANCH  15  18
ENDBRANCH   9  14
ENDBRANCH   6   8
ENDBRANCH   5   6
ENDBRANCH   4   5
ENDBRANCH   3   4
ENDBRANCH   2   3
ENDBRANCH   1   2
BRANCH   1  33
ATOM     33  C   UNL     1      -7.294  -0.440   1.680  1.00  0.00     0.188 C 
BRANCH  33  34
ATOM     34  O   UNL     1      -6.316  -0.950   2.556  1.00  0.00    -0.376 OA
BRANCH  34  35
ATOM     35  C   UNL     1      -6.315  -0.480   3.883  1.00  0.00     0.202 C 
BRANCH  35  36
ATOM     36  C   UNL     1      -5.616   0.883   4.003  1.00  0.00     0.261 C 
BRANCH  36  37
ATOM     37  O   UNL     1      -4.237   0.832   3.543  1.00  0.00    -0.460 OA
BRANCH  37  38
ATOM     38  C   UNL     1      -3.947   1.375   2.317  1.00  0.00     0.338 C 
ATOM     39  O   UNL     1      -4.011   2.581   2.062  1.00  0.00    -0.246 OA
BRANCH  38  40
ATOM     40  C   UNL     1      -3.670   0.315   1.304  1.00  0.00     0.060 A 
ATOM     41  C   UNL     1      -3.690   0.402  -0.098  1.00  0.00     0.016 A 
ATOM     42  C   UNL     1      -3.649  -0.934   1.798  1.00  0.00     0.016 A 
ATOM     43  C   UNL     1      -3.924  -0.763  -0.961  1.00  0.00     0.010 A 
ATOM     44  C   UNL     1      -4.109  -1.938   0.965  1.00  0.00     0.010 A 
ATOM     45  C   UNL     1      -4.272  -2.022  -0.459  1.00  0.00    -0.014 A 
BRANCH  45  46
ATOM     46  C   UNL     1      -4.847  -3.372  -1.404  1.00  0.00     0.031 A 
ATOM     47  C   UNL     1      -4.322  -5.071  -1.559  1.00  0.00     0.074 A 
ATOM     48  C   UNL     1      -5.804  -3.070  -2.304  1.00  0.00     0.049 A 
ATOM     49  N   UNL     1      -4.081  -5.690  -2.700  1.00  0.00    -0.248 NA
ATOM     50  C   UNL     1      -3.902  -6.077  -0.478  1.00  0.00     0.031 C 
ATOM     51  C   UNL     1      -6.542  -3.972  -3.179  1.00  0.00     0.029 A 
ATOM     52  N   UNL     1      -6.236  -1.795  -2.684  1.00  0.00    -0.354 N 
ATOM     53  C   UNL     1      -3.666  -7.015  -2.430  1.00  0.00     0.074 A 
ATOM     54  C   UNL     1      -3.378  -7.128  -1.062  1.00  0.00     0.031 C 
ATOM     55  C   UNL     1      -7.078  -3.243  -4.176  1.00  0.00     0.029 A 
ATOM     56  C   UNL     1      -6.568  -1.887  -4.038  1.00  0.00     0.049 A 
ATOM     57  H   UNL     1      -6.294  -0.995  -2.113  1.00  0.00     0.167 HD
ATOM     58  C   UNL     1      -3.844  -8.084  -3.251  1.00  0.00     0.037 A 
ATOM     59  C   UNL     1      -5.872  -1.182  -4.972  1.00  0.00     0.037 A 
ATOM     60  C   UNL     1      -4.529  -7.632  -4.419  1.00  0.00     0.049 A 
ATOM     61  C   UNL     1      -5.283  -2.092  -6.020  1.00  0.00     0.074 A 
ATOM     62  C   UNL     1      -5.880  -7.484  -4.672  1.00  0.00     0.029 A 
ATOM     63  N   UNL     1      -3.853  -6.781  -5.268  1.00  0.00    -0.354 N 
ATOM     64  N   UNL     1      -5.006  -3.353  -5.820  1.00  0.00    -0.248 NA
ATOM     65  C   UNL     1      -5.009  -1.670  -7.388  1.00  0.00     0.031 C 
ATOM     66  C   UNL     1      -6.017  -6.494  -5.672  1.00  0.00     0.029 A 
ATOM     67  C   UNL     1      -4.749  -6.087  -6.046  1.00  0.00     0.049 A 
ATOM     68  H   UNL     1      -2.874  -6.684  -5.310  1.00  0.00     0.167 HD
ATOM     69  C   UNL     1      -4.566  -3.913  -6.991  1.00  0.00     0.074 A 
ATOM     70  C   UNL     1      -4.580  -2.818  -7.940  1.00  0.00     0.031 C 
ATOM     71  C   UNL     1      -4.247  -5.234  -7.097  1.00  0.00     0.037 A 
BRANCH  58  72
ATOM     72  C   UNL     1      -3.789  -9.505  -2.706  1.00  0.00     0.057 A 
ATOM     73  C   UNL     1      -4.875 -10.380  -2.870  1.00  0.00     0.134 A 
ATOM     74  C   UNL     1      -2.745 -10.007  -1.895  1.00  0.00     0.134 A 
ATOM     75  F   UNL     1      -5.917 -10.060  -3.645  1.00  0.00    -0.206 F 
ATOM     76  C   UNL     1      -4.965 -11.615  -2.210  1.00  0.00     0.040 A 
ATOM     77  C   UNL     1      -2.841 -11.225  -1.196  1.00  0.00     0.040 A 
ATOM     78  F   UNL     1      -1.622  -9.295  -1.695  1.00  0.00    -0.206 F 
ATOM     79  C   UNL     1      -3.963 -12.030  -1.345  1.00  0.00     0.006 A 
ENDBRANCH  58  72
BRANCH  59  80
ATOM     80  C   UNL     1      -5.309   0.123  -4.497  1.00  0.00     0.057 A 
ATOM     81  C   UNL     1      -6.167   1.040  -3.845  1.00  0.00     0.134 A 
ATOM     82  C   UNL     1      -3.940   0.393  -4.407  1.00  0.00     0.134 A 
ATOM     83  F   UNL     1      -7.498   0.864  -3.885  1.00  0.00    -0.206 F 
ATOM     84  C   UNL     1      -5.691   2.097  -3.062  1.00  0.00     0.040 A 
ATOM     85  C   UNL     1      -3.449   1.466  -3.639  1.00  0.00     0.040 A 
ATOM     86  F   UNL     1      -3.042  -0.438  -4.953  1.00  0.00    -0.206 F 
ATOM     87  C   UNL     1      -4.323   2.306  -2.947  1.00  0.00     0.006 A 
ENDBRANCH  59  80
BRANCH  71  88
ATOM     88  C   UNL     1      -3.470  -5.908  -8.203  1.00  0.00     0.057 A 
ATOM     89  C   UNL     1      -2.556  -5.246  -9.027  1.00  0.00     0.134 A 
ATOM     90  C   UNL     1      -3.474  -7.323  -8.326  1.00  0.00     0.134 A 
ATOM     91  F   UNL     1      -2.367  -3.923  -8.950  1.00  0.00    -0.206 F 
ATOM     92  C   UNL     1      -1.737  -5.931  -9.933  1.00  0.00     0.040 A 
ATOM     93  C   UNL     1      -2.606  -8.019  -9.166  1.00  0.00     0.040 A 
ATOM     94  F   UNL     1      -4.295  -8.103  -7.607  1.00  0.00    -0.206 F 
ATOM     95  C   UNL     1      -1.742  -7.320  -9.989  1.00  0.00     0.006 A 
ENDBRANCH  71  88
ENDBRANCH  45  46
ENDBRANCH  38  40
ENDBRANCH  37  38
ENDBRANCH  36  37
ENDBRANCH  35  36
ENDBRANCH  34  35
ENDBRANCH  33  34
ENDBRANCH   1  33
TORSDOF 20
