REMARK SMILES O=C1C[C@H](c2cn[nH]c2C(=O)OCCOCCOCCOC(=O)c2ccc(-c3c4nc(c(-c5c(F)cccc5F)c5ccc([nH]5)c(-c5c(F)cccc5F)c5nc(c(-c6c(F)cccc6F)c6ccc3[nH]6)C=C5)C=C4)cc2)c2c(-c3cccs3)n[nH]c2N1
REMARK SMILES IDX 16 1 15 2 14 3 13 4 12 5 10 6 11 7 9 8 5 9 6 10 7 11 8 12
REMARK SMILES IDX 4 14 1 15 2 16 3 17 88 18 87 19 78 21 86 22 79 23 85 24
REMARK SMILES IDX 80 26 81 27 84 28 82 29 83 30 17 31 18 32 19 33 20 34 21 35
REMARK SMILES IDX 22 36 23 37 24 38 25 39 77 40 26 41 76 42 27 43 28 44 29 45
REMARK SMILES IDX 70 46 30 47 75 48 69 49 71 50 31 51 74 52 68 53 67 54 32 56
REMARK SMILES IDX 58 57 41 58 57 59 42 60 45 61 56 62 72 63 43 64 44 65 55 67
REMARK SMILES IDX 73 68 46 69 33 70 34 71 39 72 35 73 36 74 38 75 40 76 37 77
REMARK SMILES IDX 59 78 60 79 65 80 61 81 62 82 64 83 66 84 63 85 47 86 48 87
REMARK SMILES IDX 53 88 49 89 50 90 52 91 54 92 51 93
REMARK H PARENT 8 13 88 20 86 25 71 55 45 66
REMARK Flexibility Score: inf
ROOT
ATOM      1  C   UNL     1       4.792  -1.572  -4.097  1.00  0.00     0.188 C 
ENDROOT
BRANCH   1   2
ATOM      2  O   UNL     1       5.523  -2.775  -3.969  1.00  0.00    -0.376 OA
BRANCH   2   3
ATOM      3  C   UNL     1       6.359  -2.968  -2.836  1.00  0.00     0.202 C 
BRANCH   3   4
ATOM      4  C   UNL     1       7.088  -1.802  -2.153  1.00  0.00     0.261 C 
BRANCH   4   5
ATOM      5  O   UNL     1       6.253  -0.676  -1.828  1.00  0.00    -0.459 OA
BRANCH   5   6
ATOM      6  C   UNL     1       6.674   0.522  -2.312  1.00  0.00     0.356 C 
ATOM      7  O   UNL     1       7.688   0.677  -2.980  1.00  0.00    -0.244 OA
BRANCH   6   8
ATOM      8  C   UNL     1       5.693   1.568  -2.149  1.00  0.00     0.147 A 
ATOM      9  C   UNL     1       4.728   1.982  -1.223  1.00  0.00     0.013 A 
ATOM     10  C   UNL     1       4.188   3.159  -1.831  1.00  0.00     0.140 A 
ATOM     11  N   UNL     1       4.722   3.446  -3.012  1.00  0.00    -0.183 NA
ATOM     12  N   UNL     1       5.649   2.501  -3.159  1.00  0.00    -0.271 N 
ATOM     13  H   UNL     1       6.256   2.472  -3.933  1.00  0.00     0.190 HD
BRANCH   9  14
ATOM     14  C   UNL     1       4.292   1.548   0.172  1.00  0.00     0.069 C 
ATOM     15  O   UNL     1       0.987  -0.233   0.321  1.00  0.00    -0.275 OA
ATOM     16  C   UNL     1       2.183   0.000   0.506  1.00  0.00     0.226 C 
ATOM     17  C   UNL     1       2.753   1.399   0.305  1.00  0.00     0.114 C 
ATOM     18  N   UNL     1       2.993  -0.976   1.023  1.00  0.00    -0.311 N 
ATOM     19  C   UNL     1       4.337  -0.763   1.107  1.00  0.00     0.132 A 
ATOM     20  H   UNL     1       2.606  -1.826   1.332  1.00  0.00     0.171 HD
ATOM     21  C   UNL     1       4.993   0.385   0.761  1.00  0.00     0.031 A 
ATOM     22  N   UNL     1       5.285  -1.671   1.461  1.00  0.00    -0.262 N 
ATOM     23  C   UNL     1       6.351   0.118   1.067  1.00  0.00     0.108 A 
ATOM     24  N   UNL     1       6.536  -1.170   1.407  1.00  0.00    -0.173 NA
ATOM     25  H   UNL     1       5.080  -2.596   1.729  1.00  0.00     0.192 HD
BRANCH  23  26
ATOM     26  C   UNL     1       7.482   1.083   0.912  1.00  0.00     0.055 A 
ATOM     27  C   UNL     1       8.702   0.755   0.360  1.00  0.00     0.022 A 
ATOM     28  S   UNL     1       7.393   2.736   1.329  1.00  0.00    -0.142 S 
ATOM     29  C   UNL     1       9.524   1.906   0.174  1.00  0.00     0.012 A 
ATOM     30  C   UNL     1       8.951   3.042   0.702  1.00  0.00     0.065 A 
ENDBRANCH  23  26
ENDBRANCH   9  14
ENDBRANCH   6   8
ENDBRANCH   5   6
ENDBRANCH   4   5
ENDBRANCH   3   4
ENDBRANCH   2   3
ENDBRANCH   1   2
BRANCH   1  31
ATOM     31  C   UNL     1       3.670  -1.231  -3.093  1.00  0.00     0.188 C 
BRANCH  31  32
ATOM     32  O   UNL     1       3.664  -1.780  -1.793  1.00  0.00    -0.376 OA
BRANCH  32  33
ATOM     33  C   UNL     1       3.290  -3.107  -1.470  1.00  0.00     0.202 C 
BRANCH  33  34
ATOM     34  C   UNL     1       2.465  -4.036  -2.338  1.00  0.00     0.261 C 
BRANCH  34  35
ATOM     35  O   UNL     1       2.663  -3.849  -3.715  1.00  0.00    -0.460 OA
BRANCH  35  36
ATOM     36  C   UNL     1       1.660  -3.164  -4.298  1.00  0.00     0.338 C 
ATOM     37  O   UNL     1       0.728  -2.596  -3.756  1.00  0.00    -0.246 OA
BRANCH  36  38
ATOM     38  C   UNL     1       1.824  -3.262  -5.743  1.00  0.00     0.060 A 
ATOM     39  C   UNL     1       0.959  -2.486  -6.512  1.00  0.00     0.016 A 
ATOM     40  C   UNL     1       2.579  -4.319  -6.274  1.00  0.00     0.016 A 
ATOM     41  C   UNL     1       0.651  -2.940  -7.768  1.00  0.00     0.010 A 
ATOM     42  C   UNL     1       2.258  -4.781  -7.522  1.00  0.00     0.010 A 
ATOM     43  C   UNL     1       1.226  -4.141  -8.199  1.00  0.00    -0.014 A 
BRANCH  43  44
ATOM     44  C   UNL     1       0.672  -4.737  -9.384  1.00  0.00     0.031 A 
ATOM     45  C   UNL     1       1.102  -4.098 -10.636  1.00  0.00     0.074 A 
ATOM     46  C   UNL     1      -0.137  -5.807  -9.329  1.00  0.00     0.049 A 
ATOM     47  N   UNL     1       0.384  -3.406 -11.452  1.00  0.00    -0.248 NA
ATOM     48  C   UNL     1       2.538  -4.125 -10.945  1.00  0.00     0.031 C 
ATOM     49  C   UNL     1      -0.400  -6.700  -8.197  1.00  0.00     0.029 A 
ATOM     50  N   UNL     1      -0.834  -6.372 -10.345  1.00  0.00    -0.354 N 
ATOM     51  C   UNL     1       1.239  -3.058 -12.486  1.00  0.00     0.074 A 
ATOM     52  C   UNL     1       2.574  -3.389 -12.055  1.00  0.00     0.031 C 
ATOM     53  C   UNL     1      -1.026  -7.810  -8.653  1.00  0.00     0.029 A 
ATOM     54  C   UNL     1      -1.318  -7.638 -10.067  1.00  0.00     0.049 A 
ATOM     55  H   UNL     1      -0.983  -5.921 -11.207  1.00  0.00     0.167 HD
ATOM     56  C   UNL     1       0.763  -2.736 -13.716  1.00  0.00     0.037 A 
ATOM     57  C   UNL     1      -1.841  -8.496 -10.974  1.00  0.00     0.037 A 
ATOM     58  C   UNL     1      -0.633  -2.392 -13.683  1.00  0.00     0.049 A 
ATOM     59  C   UNL     1      -2.241  -7.706 -12.168  1.00  0.00     0.074 A 
ATOM     60  C   UNL     1      -1.375  -1.419 -13.042  1.00  0.00     0.029 A 
ATOM     61  N   UNL     1      -1.539  -3.332 -14.109  1.00  0.00    -0.354 N 
ATOM     62  N   UNL     1      -3.241  -6.870 -12.194  1.00  0.00    -0.248 NA
ATOM     63  C   UNL     1      -1.260  -7.530 -13.231  1.00  0.00     0.031 C 
ATOM     64  C   UNL     1      -2.611  -2.046 -12.713  1.00  0.00     0.029 A 
ATOM     65  C   UNL     1      -2.563  -3.354 -13.196  1.00  0.00     0.049 A 
ATOM     66  H   UNL     1      -1.467  -3.887 -14.919  1.00  0.00     0.167 HD
ATOM     67  C   UNL     1      -2.810  -5.821 -12.994  1.00  0.00     0.074 A 
ATOM     68  C   UNL     1      -1.634  -6.333 -13.690  1.00  0.00     0.031 C 
ATOM     69  C   UNL     1      -3.275  -4.551 -12.808  1.00  0.00     0.037 A 
BRANCH  56  70
ATOM     70  C   UNL     1       1.492  -3.079 -14.980  1.00  0.00     0.057 A 
ATOM     71  C   UNL     1       1.107  -2.480 -16.187  1.00  0.00     0.134 A 
ATOM     72  C   UNL     1       2.376  -4.173 -15.096  1.00  0.00     0.134 A 
ATOM     73  F   UNL     1       0.239  -1.458 -16.200  1.00  0.00    -0.206 F 
ATOM     74  C   UNL     1       1.542  -2.961 -17.427  1.00  0.00     0.040 A 
ATOM     75  C   UNL     1       2.861  -4.625 -16.322  1.00  0.00     0.040 A 
ATOM     76  F   UNL     1       2.731  -4.919 -14.041  1.00  0.00    -0.206 F 
ATOM     77  C   UNL     1       2.423  -4.035 -17.497  1.00  0.00     0.006 A 
ENDBRANCH  56  70
BRANCH  57  78
ATOM     78  C   UNL     1      -1.737  -9.970 -10.996  1.00  0.00     0.057 A 
ATOM     79  C   UNL     1      -2.573 -10.738 -11.818  1.00  0.00     0.134 A 
ATOM     80  C   UNL     1      -0.644 -10.644 -10.421  1.00  0.00     0.134 A 
ATOM     81  F   UNL     1      -3.617 -10.174 -12.443  1.00  0.00    -0.206 F 
ATOM     82  C   UNL     1      -2.323 -12.091 -12.073  1.00  0.00     0.040 A 
ATOM     83  C   UNL     1      -0.390 -11.997 -10.659  1.00  0.00     0.040 A 
ATOM     84  F   UNL     1       0.265  -9.992  -9.681  1.00  0.00    -0.206 F 
ATOM     85  C   UNL     1      -1.222 -12.723 -11.501  1.00  0.00     0.006 A 
ENDBRANCH  57  78
BRANCH  69  86
ATOM     86  C   UNL     1      -4.466  -4.370 -11.907  1.00  0.00     0.057 A 
ATOM     87  C   UNL     1      -4.465  -4.676 -10.538  1.00  0.00     0.134 A 
ATOM     88  C   UNL     1      -5.607  -3.735 -12.412  1.00  0.00     0.134 A 
ATOM     89  F   UNL     1      -3.379  -5.188  -9.943  1.00  0.00    -0.206 F 
ATOM     90  C   UNL     1      -5.569  -4.412  -9.722  1.00  0.00     0.040 A 
ATOM     91  C   UNL     1      -6.703  -3.433 -11.600  1.00  0.00     0.040 A 
ATOM     92  F   UNL     1      -5.657  -3.356 -13.699  1.00  0.00    -0.206 F 
ATOM     93  C   UNL     1      -6.692  -3.783 -10.252  1.00  0.00     0.006 A 
ENDBRANCH  69  86
ENDBRANCH  43  44
ENDBRANCH  36  38
ENDBRANCH  35  36
ENDBRANCH  34  35
ENDBRANCH  33  34
ENDBRANCH  32  33
ENDBRANCH  31  32
ENDBRANCH   1  31
TORSDOF 19
