REMARK SMILES O=CN[C@@H](Cc1cc(Cl)ccc1[N+](=O)[O-])C(=O)OCCOCCOCCOC(=O)c1ccc(-c2c3nc(c(-c4c(F)cccc4F)c4ccc([nH]4)c(-c4c(F)cccc4F)c4nc(c(-c5c(F)cccc5F)c5ccc2[nH]5)C=C4)C=C3)cc1
REMARK SMILES IDX 22 1 21 2 20 3 19 4 18 5 16 6 17 7 4 8 3 9 1 10 2 11 5 13
REMARK SMILES IDX 6 14 7 15 12 16 8 17 11 18 9 19 10 20 13 21 14 22 15 23
REMARK SMILES IDX 23 24 24 25 25 26 26 27 27 28 28 29 29 30 30 31 31 32 83 33
REMARK SMILES IDX 32 34 82 35 33 36 34 37 35 38 76 39 36 40 81 41 75 42 77 43
REMARK SMILES IDX 37 44 80 45 74 46 73 47 38 49 64 50 47 51 63 52 48 53 51 54
REMARK SMILES IDX 62 55 78 56 49 57 50 58 61 60 79 61 52 62 39 63 40 64 45 65
REMARK SMILES IDX 41 66 42 67 44 68 46 69 43 70 65 71 66 72 71 73 67 74 68 75
REMARK SMILES IDX 70 76 72 77 69 78 53 79 54 80 59 81 55 82 56 83 58 84 60 85
REMARK SMILES IDX 57 86
REMARK H PARENT 3 12 77 48 51 59
REMARK Flexibility Score: inf
ROOT
ATOM      1  C   UNL     1       4.678  -0.407   3.549  1.00  0.00     0.188 C 
ENDROOT
BRANCH   1   2
ATOM      2  O   UNL     1       5.560   0.193   4.498  1.00  0.00    -0.376 OA
BRANCH   2   3
ATOM      3  C   UNL     1       5.579   1.606   4.644  1.00  0.00     0.202 C 
BRANCH   3   4
ATOM      4  C   UNL     1       5.865   2.453   3.398  1.00  0.00     0.261 C 
BRANCH   4   5
ATOM      5  O   UNL     1       5.050   2.131   2.252  1.00  0.00    -0.462 OA
BRANCH   5   6
ATOM      6  C   UNL     1       5.708   1.811   1.108  1.00  0.00     0.329 C 
ATOM      7  O   UNL     1       6.928   1.836   0.980  1.00  0.00    -0.250 OA
BRANCH   6   8
ATOM      8  C   UNL     1       4.772   1.600  -0.097  1.00  0.00     0.196 C 
BRANCH   8   9
ATOM      9  N   UNL     1       3.519   0.864   0.035  1.00  0.00    -0.345 N 
ATOM     10  O   UNL     1       2.179  -0.915  -0.405  1.00  0.00    -0.279 OA
ATOM     11  C   UNL     1       3.280  -0.387  -0.449  1.00  0.00     0.337 C 
ATOM     12  H   UNL     1       2.784   1.309   0.516  1.00  0.00     0.164 HD
ENDBRANCH   8   9
BRANCH   8  13
ATOM     13  C   UNL     1       4.532   2.948  -0.808  1.00  0.00     0.079 C 
BRANCH  13  14
ATOM     14  C   UNL     1       4.290   4.255  -0.052  1.00  0.00     0.034 A 
ATOM     15  C   UNL     1       5.106   5.334  -0.477  1.00  0.00     0.031 A 
ATOM     16  C   UNL     1       3.321   4.560   0.935  1.00  0.00     0.272 A 
ATOM     17  C   UNL     1       4.985   6.620   0.056  1.00  0.00     0.041 A 
ATOM     18  C   UNL     1       3.229   5.855   1.495  1.00  0.00     0.087 A 
ATOM     19  Cl  UNL     1       5.971   7.889  -0.551  1.00  0.00    -0.084 Cl
ATOM     20  C   UNL     1       4.059   6.881   1.053  1.00  0.00     0.027 A 
BRANCH  16  21
ATOM     21  N   UNL     1       2.287   3.626   1.387  1.00  0.00     0.062 N 
ATOM     22  O   UNL     1       1.880   3.735   2.551  1.00  0.00    -0.258 OA
ATOM     23  O   UNL     1       1.845   2.822   0.558  1.00  0.00    -0.258 OA
ENDBRANCH  16  21
ENDBRANCH  13  14
ENDBRANCH   8  13
ENDBRANCH   6   8
ENDBRANCH   5   6
ENDBRANCH   4   5
ENDBRANCH   3   4
ENDBRANCH   2   3
ENDBRANCH   1   2
BRANCH   1  24
ATOM     24  C   UNL     1       3.272   0.185   3.325  1.00  0.00     0.188 C 
BRANCH  24  25
ATOM     25  O   UNL     1       2.912   1.168   4.257  1.00  0.00    -0.376 OA
BRANCH  25  26
ATOM     26  C   UNL     1       1.981   0.886   5.276  1.00  0.00     0.202 C 
BRANCH  26  27
ATOM     27  C   UNL     1       1.825  -0.500   5.929  1.00  0.00     0.261 C 
BRANCH  27  28
ATOM     28  O   UNL     1       2.375  -1.630   5.242  1.00  0.00    -0.460 OA
BRANCH  28  29
ATOM     29  C   UNL     1       1.537  -2.330   4.439  1.00  0.00     0.338 C 
ATOM     30  O   UNL     1       0.359  -2.104   4.220  1.00  0.00    -0.246 OA
BRANCH  29  31
ATOM     31  C   UNL     1       2.354  -3.326   3.714  1.00  0.00     0.060 A 
ATOM     32  C   UNL     1       2.530  -3.194   2.330  1.00  0.00     0.016 A 
ATOM     33  C   UNL     1       2.980  -4.362   4.410  1.00  0.00     0.016 A 
ATOM     34  C   UNL     1       3.350  -4.090   1.639  1.00  0.00     0.010 A 
ATOM     35  C   UNL     1       3.775  -5.274   3.713  1.00  0.00     0.010 A 
ATOM     36  C   UNL     1       3.961  -5.149   2.323  1.00  0.00    -0.014 A 
BRANCH  36  37
ATOM     37  C   UNL     1       4.683  -6.216   1.589  1.00  0.00     0.031 A 
ATOM     38  C   UNL     1       3.963  -7.500   1.292  1.00  0.00     0.074 A 
ATOM     39  C   UNL     1       5.970  -6.067   1.226  1.00  0.00     0.049 A 
ATOM     40  N   UNL     1       4.427  -8.621   0.804  1.00  0.00    -0.248 NA
ATOM     41  C   UNL     1       2.523  -7.521   1.595  1.00  0.00     0.031 C 
ATOM     42  C   UNL     1       6.768  -4.857   1.411  1.00  0.00     0.029 A 
ATOM     43  N   UNL     1       6.838  -6.959   0.645  1.00  0.00    -0.354 N 
ATOM     44  C   UNL     1       3.341  -9.485   0.753  1.00  0.00     0.074 A 
ATOM     45  C   UNL     1       2.201  -8.766   1.280  1.00  0.00     0.031 C 
ATOM     46  C   UNL     1       8.018  -5.091   0.974  1.00  0.00     0.029 A 
ATOM     47  C   UNL     1       8.119  -6.479   0.523  1.00  0.00     0.049 A 
ATOM     48  H   UNL     1       6.568  -7.857   0.344  1.00  0.00     0.167 HD
ATOM     49  C   UNL     1       3.299 -10.763   0.306  1.00  0.00     0.037 A 
ATOM     50  C   UNL     1       9.250  -7.101   0.134  1.00  0.00     0.037 A 
ATOM     51  C   UNL     1       4.436 -11.479  -0.209  1.00  0.00     0.049 A 
ATOM     52  C   UNL     1       9.199  -8.556  -0.262  1.00  0.00     0.074 A 
ATOM     53  C   UNL     1       4.489 -12.771  -0.704  1.00  0.00     0.029 A 
ATOM     54  N   UNL     1       5.724 -10.970  -0.284  1.00  0.00    -0.354 N 
ATOM     55  N   UNL     1       8.167  -9.362  -0.328  1.00  0.00    -0.248 NA
ATOM     56  C   UNL     1      10.475  -9.189  -0.631  1.00  0.00     0.031 C 
ATOM     57  C   UNL     1       5.820 -13.065  -1.018  1.00  0.00     0.029 A 
ATOM     58  C   UNL     1       6.586 -11.935  -0.780  1.00  0.00     0.049 A 
ATOM     59  H   UNL     1       5.987 -10.058  -0.022  1.00  0.00     0.167 HD
ATOM     60  C   UNL     1       8.663 -10.585  -0.767  1.00  0.00     0.074 A 
ATOM     61  C   UNL     1      10.085 -10.409  -0.971  1.00  0.00     0.031 C 
ATOM     62  C   UNL     1       8.001 -11.749  -0.980  1.00  0.00     0.037 A 
BRANCH  49  63
ATOM     63  C   UNL     1       1.984 -11.481   0.390  1.00  0.00     0.057 A 
ATOM     64  C   UNL     1       0.901 -11.150  -0.435  1.00  0.00     0.134 A 
ATOM     65  C   UNL     1       1.809 -12.540   1.290  1.00  0.00     0.134 A 
ATOM     66  F   UNL     1       0.998 -10.137  -1.309  1.00  0.00    -0.206 F 
ATOM     67  C   UNL     1      -0.315 -11.831  -0.351  1.00  0.00     0.040 A 
ATOM     68  C   UNL     1       0.608 -13.248   1.363  1.00  0.00     0.040 A 
ATOM     69  F   UNL     1       2.806 -12.912   2.107  1.00  0.00    -0.206 F 
ATOM     70  C   UNL     1      -0.461 -12.889   0.544  1.00  0.00     0.006 A 
ENDBRANCH  49  63
BRANCH  50  71
ATOM     71  C   UNL     1      10.545  -6.370   0.133  1.00  0.00     0.057 A 
ATOM     72  C   UNL     1      11.222  -6.098  -1.062  1.00  0.00     0.134 A 
ATOM     73  C   UNL     1      11.155  -5.961   1.325  1.00  0.00     0.134 A 
ATOM     74  F   UNL     1      10.705  -6.491  -2.235  1.00  0.00    -0.206 F 
ATOM     75  C   UNL     1      12.465  -5.461  -1.070  1.00  0.00     0.040 A 
ATOM     76  C   UNL     1      12.383  -5.297   1.329  1.00  0.00     0.040 A 
ATOM     77  F   UNL     1      10.563  -6.197   2.505  1.00  0.00    -0.206 F 
ATOM     78  C   UNL     1      13.046  -5.053   0.129  1.00  0.00     0.006 A 
ENDBRANCH  50  71
BRANCH  62  79
ATOM     79  C   UNL     1       8.799 -12.919  -1.486  1.00  0.00     0.057 A 
ATOM     80  C   UNL     1       9.720 -13.594  -0.676  1.00  0.00     0.134 A 
ATOM     81  C   UNL     1       8.610 -13.403  -2.788  1.00  0.00     0.134 A 
ATOM     82  F   UNL     1       9.959 -13.177   0.577  1.00  0.00    -0.206 F 
ATOM     83  C   UNL     1      10.441 -14.693  -1.149  1.00  0.00     0.040 A 
ATOM     84  C   UNL     1       9.302 -14.519  -3.261  1.00  0.00     0.040 A 
ATOM     85  F   UNL     1       7.735 -12.812  -3.615  1.00  0.00    -0.206 F 
ATOM     86  C   UNL     1      10.227 -15.163  -2.443  1.00  0.00     0.006 A 
ENDBRANCH  62  79
ENDBRANCH  36  37
ENDBRANCH  29  31
ENDBRANCH  28  29
ENDBRANCH  27  28
ENDBRANCH  26  27
ENDBRANCH  25  26
ENDBRANCH  24  25
ENDBRANCH   1  24
TORSDOF 21
