REMARK SMILES C[C@@H](NC1=[NH+]CCC1)C(=O)OCCOCCOCCOC(=O)c1ccc(-c2c3nc(c(-c4c(F)cccc4F)c4ccc([nH]4)c(-c4c(F)cccc4F)c4nc(c(-c5c(F)cccc5F)c5ccc2[nH]5)C=C4)C=C3)cc1
REMARK SMILES IDX 16 1 15 2 14 3 13 4 12 5 11 6 9 7 10 8 2 9 1 10 3 11 4 12
REMARK SMILES IDX 5 14 8 15 6 16 7 18 17 19 18 20 19 21 20 22 21 23 22 24
REMARK SMILES IDX 23 25 24 26 76 27 25 28 75 29 26 30 27 31 28 32 69 33 29 34
REMARK SMILES IDX 74 35 68 36 70 37 30 38 73 39 67 40 66 41 31 43 57 44 40 45
REMARK SMILES IDX 56 46 41 47 44 48 55 49 71 50 42 51 43 52 54 54 72 55 45 56
REMARK SMILES IDX 32 57 33 58 38 59 34 60 35 61 37 62 39 63 36 64 58 65 59 66
REMARK SMILES IDX 64 67 60 68 61 69 63 70 65 71 62 72 46 73 47 74 52 75 48 76
REMARK SMILES IDX 49 77 51 78 53 79 50 80
REMARK H PARENT 3 13 5 17 70 42 44 53
REMARK Flexibility Score: inf
ROOT
ATOM      1  C   UNL     1      -1.575   1.101   0.809  1.00  0.00     0.188 C 
ENDROOT
BRANCH   1   2
ATOM      2  C   UNL     1      -2.495   1.971  -0.059  1.00  0.00     0.188 C 
BRANCH   2   3
ATOM      3  O   UNL     1      -3.790   1.498  -0.375  1.00  0.00    -0.376 OA
BRANCH   3   4
ATOM      4  C   UNL     1      -3.945   0.187  -0.890  1.00  0.00     0.202 C 
BRANCH   4   5
ATOM      5  C   UNL     1      -3.007  -0.341  -1.982  1.00  0.00     0.261 C 
BRANCH   5   6
ATOM      6  O   UNL     1      -1.610  -0.487  -1.651  1.00  0.00    -0.460 OA
BRANCH   6   7
ATOM      7  C   UNL     1      -0.736   0.345  -2.291  1.00  0.00     0.350 C 
ATOM      8  O   UNL     1      -1.076   1.328  -2.945  1.00  0.00    -0.247 OA
BRANCH   7   9
ATOM      9  C   UNL     1       0.727  -0.121  -2.218  1.00  0.00     0.279 C 
ATOM     10  C   UNL     1       1.190  -0.574  -0.831  1.00  0.00     0.071 C 
BRANCH   9  11
ATOM     11  N   UNL     1       1.053  -1.165  -3.195  1.00  0.00    -0.265 N 
ATOM     12  C   UNL     1       0.151  -1.953  -3.843  1.00  0.00     0.243 C 
ATOM     13  H   UNL     1       2.005  -1.309  -3.400  1.00  0.00     0.305 HD
ATOM     14  N   UNL     1       0.217  -3.247  -3.733  1.00  0.00    -0.279 N 
ATOM     15  C   UNL     1      -0.900  -1.437  -4.787  1.00  0.00     0.131 C 
ATOM     16  C   UNL     1      -0.906  -3.766  -4.540  1.00  0.00     0.234 C 
ATOM     17  H   UNL     1       0.876  -3.770  -3.221  1.00  0.00     0.304 HD
ATOM     18  C   UNL     1      -1.857  -2.598  -4.708  1.00  0.00     0.058 C 
ENDBRANCH   9  11
ENDBRANCH   7   9
ENDBRANCH   6   7
ENDBRANCH   5   6
ENDBRANCH   4   5
ENDBRANCH   3   4
ENDBRANCH   2   3
ENDBRANCH   1   2
BRANCH   1  19
ATOM     19  O   UNL     1      -2.091  -0.093   1.333  1.00  0.00    -0.376 OA
BRANCH  19  20
ATOM     20  C   UNL     1      -2.949  -0.072   2.458  1.00  0.00     0.202 C 
BRANCH  20  21
ATOM     21  C   UNL     1      -3.390   1.185   3.241  1.00  0.00     0.261 C 
BRANCH  21  22
ATOM     22  O   UNL     1      -2.959   2.472   2.791  1.00  0.00    -0.460 OA
BRANCH  22  23
ATOM     23  C   UNL     1      -1.826   2.969   3.342  1.00  0.00     0.338 C 
ATOM     24  O   UNL     1      -1.122   2.437   4.186  1.00  0.00    -0.246 OA
BRANCH  23  25
ATOM     25  C   UNL     1      -1.435   4.173   2.572  1.00  0.00     0.060 A 
ATOM     26  C   UNL     1      -0.214   4.172   1.877  1.00  0.00     0.016 A 
ATOM     27  C   UNL     1      -2.276   5.283   2.514  1.00  0.00     0.016 A 
ATOM     28  C   UNL     1       0.182   5.294   1.146  1.00  0.00     0.010 A 
ATOM     29  C   UNL     1      -1.863   6.418   1.811  1.00  0.00     0.010 A 
ATOM     30  C   UNL     1      -0.617   6.443   1.155  1.00  0.00    -0.014 A 
BRANCH  30  31
ATOM     31  C   UNL     1      -0.057   7.745   0.716  1.00  0.00     0.031 A 
ATOM     32  C   UNL     1       0.490   8.660   1.778  1.00  0.00     0.074 A 
ATOM     33  C   UNL     1      -0.043   8.128  -0.572  1.00  0.00     0.049 A 
ATOM     34  N   UNL     1       0.894   9.900   1.687  1.00  0.00    -0.248 NA
ATOM     35  C   UNL     1       0.580   8.094   3.135  1.00  0.00     0.031 C 
ATOM     36  C   UNL     1      -0.482   7.318  -1.705  1.00  0.00     0.029 A 
ATOM     37  N   UNL     1       0.341   9.321  -1.136  1.00  0.00    -0.354 N 
ATOM     38  C   UNL     1       1.262  10.269   2.975  1.00  0.00     0.074 A 
ATOM     39  C   UNL     1       1.011   9.132   3.832  1.00  0.00     0.031 C 
ATOM     40  C   UNL     1      -0.369   8.049  -2.829  1.00  0.00     0.029 A 
ATOM     41  C   UNL     1       0.109   9.389  -2.488  1.00  0.00     0.049 A 
ATOM     42  H   UNL     1       0.744  10.056  -0.620  1.00  0.00     0.167 HD
ATOM     43  C   UNL     1       1.764  11.450   3.407  1.00  0.00     0.037 A 
ATOM     44  C   UNL     1       0.233  10.426  -3.340  1.00  0.00     0.037 A 
ATOM     45  C   UNL     1       2.008  12.582   2.554  1.00  0.00     0.049 A 
ATOM     46  C   UNL     1       0.712  11.761  -2.825  1.00  0.00     0.074 A 
ATOM     47  C   UNL     1       2.526  13.819   2.892  1.00  0.00     0.029 A 
ATOM     48  N   UNL     1       1.740  12.617   1.194  1.00  0.00    -0.354 N 
ATOM     49  N   UNL     1       1.065  12.104  -1.609  1.00  0.00    -0.248 NA
ATOM     50  C   UNL     1       0.809  12.856  -3.803  1.00  0.00     0.031 C 
ATOM     51  C   UNL     1       2.515  14.623   1.748  1.00  0.00     0.029 A 
ATOM     52  C   UNL     1       2.057  13.864   0.683  1.00  0.00     0.049 A 
ATOM     53  H   UNL     1       1.379  11.866   0.669  1.00  0.00     0.167 HD
ATOM     54  C   UNL     1       1.461  13.435  -1.684  1.00  0.00     0.074 A 
ATOM     55  C   UNL     1       1.308  13.838  -3.066  1.00  0.00     0.031 C 
ATOM     56  C   UNL     1       1.915  14.249  -0.699  1.00  0.00     0.037 A 
BRANCH  43  57
ATOM     57  C   UNL     1       2.038  11.584   4.877  1.00  0.00     0.057 A 
ATOM     58  C   UNL     1       3.072  10.880   5.510  1.00  0.00     0.134 A 
ATOM     59  C   UNL     1       1.259  12.436   5.669  1.00  0.00     0.134 A 
ATOM     60  F   UNL     1       3.844  10.032   4.814  1.00  0.00    -0.206 F 
ATOM     61  C   UNL     1       3.299  10.995   6.883  1.00  0.00     0.040 A 
ATOM     62  C   UNL     1       1.497  12.585   7.036  1.00  0.00     0.040 A 
ATOM     63  F   UNL     1       0.255  13.142   5.127  1.00  0.00    -0.206 F 
ATOM     64  C   UNL     1       2.514  11.855   7.648  1.00  0.00     0.006 A 
ENDBRANCH  43  57
BRANCH  44  65
ATOM     65  C   UNL     1      -0.124  10.259  -4.773  1.00  0.00     0.057 A 
ATOM     66  C   UNL     1       0.853  10.312  -5.775  1.00  0.00     0.134 A 
ATOM     67  C   UNL     1      -1.451  10.069  -5.180  1.00  0.00     0.134 A 
ATOM     68  F   UNL     1       2.138  10.522  -5.453  1.00  0.00    -0.206 F 
ATOM     69  C   UNL     1       0.524  10.198  -7.127  1.00  0.00     0.040 A 
ATOM     70  C   UNL     1      -1.791   9.925  -6.526  1.00  0.00     0.040 A 
ATOM     71  F   UNL     1      -2.436  10.015  -4.271  1.00  0.00    -0.206 F 
ATOM     72  C   UNL     1      -0.802   9.996  -7.505  1.00  0.00     0.006 A 
ENDBRANCH  44  65
BRANCH  56  73
ATOM     73  C   UNL     1       2.341  15.640  -1.081  1.00  0.00     0.057 A 
ATOM     74  C   UNL     1       1.421  16.630  -1.447  1.00  0.00     0.134 A 
ATOM     75  C   UNL     1       3.693  16.006  -1.022  1.00  0.00     0.134 A 
ATOM     76  F   UNL     1       0.113  16.346  -1.532  1.00  0.00    -0.206 F 
ATOM     77  C   UNL     1       1.833  17.927  -1.763  1.00  0.00     0.040 A 
ATOM     78  C   UNL     1       4.113  17.307  -1.305  1.00  0.00     0.040 A 
ATOM     79  F   UNL     1       4.627  15.111  -0.666  1.00  0.00    -0.206 F 
ATOM     80  C   UNL     1       3.181  18.270  -1.684  1.00  0.00     0.006 A 
ENDBRANCH  56  73
ENDBRANCH  30  31
ENDBRANCH  23  25
ENDBRANCH  22  23
ENDBRANCH  21  22
ENDBRANCH  20  21
ENDBRANCH  19  20
ENDBRANCH   1  19
TORSDOF 18
