REMARK SMILES CS(=O)(=O)c1ccc(C2=NN(c3ccc(C(=O)OCCOCCOCCOC(=O)c4ccc(-c5c6nc(c(-c7c(F)cccc7F)c7ccc([nH]7)c(-c7c(F)cccc7F)c7nc(c(-c8c(F)cccc8F)c8ccc5[nH]8)C=C7)C=C6)cc4)cc3)[C@H](c3ccccc3)C2)cc1
REMARK SMILES IDX 22 1 21 2 20 3 19 4 18 5 16 6 17 7 15 8 12 9 13 10 85 11
REMARK SMILES IDX 14 12 84 13 11 14 9 15 10 16 93 17 86 18 8 19 5 20 6 21
REMARK SMILES IDX 95 22 7 23 94 24 2 25 1 26 3 27 4 28 87 29 88 30 92 31 89 32
REMARK SMILES IDX 91 33 90 34 23 35 24 36 25 37 26 38 27 39 28 40 29 41 30 42
REMARK SMILES IDX 31 43 83 44 32 45 82 46 33 47 34 48 35 49 76 50 36 51 81 52
REMARK SMILES IDX 75 53 77 54 37 55 80 56 74 57 73 58 38 60 64 61 47 62 63 63
REMARK SMILES IDX 48 64 51 65 62 66 78 67 49 68 50 69 61 71 79 72 52 73 39 74
REMARK SMILES IDX 40 75 45 76 41 77 42 78 44 79 46 80 43 81 65 82 66 83 71 84
REMARK SMILES IDX 67 85 68 86 70 87 72 88 69 89 53 90 54 91 59 92 55 93 56 94
REMARK SMILES IDX 58 95 60 96 57 97
REMARK H PARENT 77 59 51 70
REMARK Flexibility Score: inf
ROOT
ATOM      1  C   UNL     1       0.589 -13.297  -5.370  1.00  0.00     0.188 C 
ENDROOT
BRANCH   1   2
ATOM      2  O   UNL     1       0.657 -14.589  -5.936  1.00  0.00    -0.376 OA
BRANCH   2   3
ATOM      3  C   UNL     1       1.115 -15.693  -5.172  1.00  0.00     0.202 C 
BRANCH   3   4
ATOM      4  C   UNL     1       2.125 -15.582  -4.019  1.00  0.00     0.261 C 
BRANCH   4   5
ATOM      5  O   UNL     1       1.990 -14.437  -3.170  1.00  0.00    -0.460 OA
BRANCH   5   6
ATOM      6  C   UNL     1       3.005 -13.540  -3.235  1.00  0.00     0.338 C 
ATOM      7  O   UNL     1       4.020 -13.638  -3.905  1.00  0.00    -0.246 OA
BRANCH   6   8
ATOM      8  C   UNL     1       2.659 -12.306  -2.486  1.00  0.00     0.060 A 
ATOM      9  C   UNL     1       2.259  -9.950  -1.012  1.00  0.00     0.060 A 
ATOM     10  C   UNL     1       2.956  -9.911  -2.225  1.00  0.00     0.029 A 
ATOM     11  C   UNL     1       1.641 -11.150  -0.630  1.00  0.00     0.029 A 
ATOM     12  C   UNL     1       3.162 -11.085  -2.956  1.00  0.00     0.018 A 
ATOM     13  C   UNL     1       1.855 -12.331  -1.345  1.00  0.00     0.018 A 
BRANCH   9  14
ATOM     14  N   UNL     1       2.342  -8.903  -0.086  1.00  0.00    -0.257 N 
ATOM     15  C   UNL     1       2.405  -6.816   0.351  1.00  0.00     0.071 C 
ATOM     16  N   UNL     1       1.768  -7.698  -0.357  1.00  0.00    -0.176 NA
ATOM     17  C   UNL     1       3.614  -7.317   1.094  1.00  0.00     0.091 C 
ATOM     18  C   UNL     1       3.553  -8.812   0.756  1.00  0.00     0.144 C 
BRANCH  15  19
ATOM     19  C   UNL     1       1.968  -5.412   0.487  1.00  0.00    -0.002 A 
ATOM     20  C   UNL     1       1.070  -2.809   0.933  1.00  0.00     0.067 A 
ATOM     21  C   UNL     1       0.148  -3.858   0.873  1.00  0.00     0.021 A 
ATOM     22  C   UNL     1       2.438  -3.052   0.769  1.00  0.00     0.021 A 
ATOM     23  C   UNL     1       0.599  -5.159   0.639  1.00  0.00     0.011 A 
ATOM     24  C   UNL     1       2.888  -4.359   0.548  1.00  0.00     0.011 A 
BRANCH  20  25
ATOM     25  S   UNL     1       0.505  -1.158   1.285  1.00  0.00     0.175 S 
ATOM     26  C   UNL     1       1.055  -0.187  -0.091  1.00  0.00     0.163 C 
ATOM     27  O   UNL     1       1.220  -0.720   2.468  1.00  0.00    -0.224 OA
ATOM     28  O   UNL     1      -0.945  -1.174   1.251  1.00  0.00    -0.224 OA
ENDBRANCH  20  25
ENDBRANCH  15  19
BRANCH  18  29
ATOM     29  C   UNL     1       3.514  -9.814   1.908  1.00  0.00    -0.023 A 
ATOM     30  C   UNL     1       3.142  -9.494   3.220  1.00  0.00     0.006 A 
ATOM     31  C   UNL     1       3.818 -11.164   1.633  1.00  0.00     0.006 A 
ATOM     32  C   UNL     1       3.052 -10.487   4.204  1.00  0.00     0.000 A 
ATOM     33  C   UNL     1       3.672 -12.163   2.597  1.00  0.00     0.000 A 
ATOM     34  C   UNL     1       3.291 -11.822   3.888  1.00  0.00     0.000 A 
ENDBRANCH  18  29
ENDBRANCH   9  14
ENDBRANCH   6   8
ENDBRANCH   5   6
ENDBRANCH   4   5
ENDBRANCH   3   4
ENDBRANCH   2   3
ENDBRANCH   1   2
BRANCH   1  35
ATOM     35  C   UNL     1      -0.374 -13.015  -4.200  1.00  0.00     0.188 C 
BRANCH  35  36
ATOM     36  O   UNL     1      -1.018 -14.085  -3.550  1.00  0.00    -0.376 OA
BRANCH  36  37
ATOM     37  C   UNL     1      -2.042 -14.809  -4.211  1.00  0.00     0.202 C 
BRANCH  37  38
ATOM     38  C   UNL     1      -2.884 -14.281  -5.388  1.00  0.00     0.261 C 
BRANCH  38  39
ATOM     39  O   UNL     1      -2.281 -13.318  -6.256  1.00  0.00    -0.460 OA
BRANCH  39  40
ATOM     40  C   UNL     1      -2.756 -12.055  -6.143  1.00  0.00     0.338 C 
ATOM     41  O   UNL     1      -3.613 -11.643  -5.372  1.00  0.00    -0.246 OA
BRANCH  40  42
ATOM     42  C   UNL     1      -1.961 -11.175  -7.012  1.00  0.00     0.060 A 
ATOM     43  C   UNL     1      -1.094 -10.230  -6.440  1.00  0.00     0.016 A 
ATOM     44  C   UNL     1      -2.102 -11.270  -8.394  1.00  0.00     0.016 A 
ATOM     45  C   UNL     1      -0.364  -9.368  -7.259  1.00  0.00     0.010 A 
ATOM     46  C   UNL     1      -1.395 -10.388  -9.209  1.00  0.00     0.010 A 
ATOM     47  C   UNL     1      -0.543  -9.419  -8.646  1.00  0.00    -0.014 A 
BRANCH  47  48
ATOM     48  C   UNL     1      -0.018  -8.352  -9.527  1.00  0.00     0.031 A 
ATOM     49  C   UNL     1      -0.965  -7.269  -9.955  1.00  0.00     0.074 A 
ATOM     50  C   UNL     1       1.239  -8.387 -10.001  1.00  0.00     0.049 A 
ATOM     51  N   UNL     1      -0.831  -6.369 -10.892  1.00  0.00    -0.248 NA
ATOM     52  C   UNL     1      -2.248  -7.208  -9.234  1.00  0.00     0.031 C 
ATOM     53  C   UNL     1       2.264  -9.353  -9.617  1.00  0.00     0.029 A 
ATOM     54  N   UNL     1       1.849  -7.601 -10.947  1.00  0.00    -0.354 N 
ATOM     55  C   UNL     1      -2.022  -5.654 -10.895  1.00  0.00     0.074 A 
ATOM     56  C   UNL     1      -2.871  -6.234  -9.877  1.00  0.00     0.031 C 
ATOM     57  C   UNL     1       3.369  -9.126 -10.349  1.00  0.00     0.029 A 
ATOM     58  C   UNL     1       3.107  -8.034 -11.287  1.00  0.00     0.049 A 
ATOM     59  H   UNL     1       1.426  -6.805 -11.343  1.00  0.00     0.167 HD
ATOM     60  C   UNL     1      -2.374  -4.611 -11.681  1.00  0.00     0.037 A 
ATOM     61  C   UNL     1       3.928  -7.626 -12.275  1.00  0.00     0.037 A 
ATOM     62  C   UNL     1      -1.524  -4.047 -12.694  1.00  0.00     0.049 A 
ATOM     63  C   UNL     1       3.481  -6.520 -13.199  1.00  0.00     0.074 A 
ATOM     64  C   UNL     1      -1.779  -2.981 -13.537  1.00  0.00     0.029 A 
ATOM     65  N   UNL     1      -0.256  -4.514 -13.007  1.00  0.00    -0.354 N 
ATOM     66  N   UNL     1       2.359  -5.839 -13.195  1.00  0.00    -0.248 NA
ATOM     67  C   UNL     1       4.410  -6.129 -14.270  1.00  0.00     0.031 C 
ATOM     68  C   UNL     1      -0.690  -2.839 -14.400  1.00  0.00     0.029 A 
ATOM     69  C   UNL     1       0.274  -3.772 -14.048  1.00  0.00     0.049 A 
ATOM     70  H   UNL     1       0.199  -5.262 -12.556  1.00  0.00     0.167 HD
ATOM     71  C   UNL     1       2.468  -4.914 -14.227  1.00  0.00     0.074 A 
ATOM     72  C   UNL     1       3.762  -5.123 -14.841  1.00  0.00     0.031 C 
ATOM     73  C   UNL     1       1.579  -3.971 -14.625  1.00  0.00     0.037 A 
BRANCH  60  74
ATOM     74  C   UNL     1      -3.751  -4.042 -11.502  1.00  0.00     0.057 A 
ATOM     75  C   UNL     1      -4.115  -3.321 -10.357  1.00  0.00     0.134 A 
ATOM     76  C   UNL     1      -4.718  -4.195 -12.504  1.00  0.00     0.134 A 
ATOM     77  F   UNL     1      -3.241  -3.150  -9.354  1.00  0.00    -0.206 F 
ATOM     78  C   UNL     1      -5.399  -2.795 -10.204  1.00  0.00     0.040 A 
ATOM     79  C   UNL     1      -5.995  -3.647 -12.376  1.00  0.00     0.040 A 
ATOM     80  F   UNL     1      -4.435  -4.870 -13.628  1.00  0.00    -0.206 F 
ATOM     81  C   UNL     1      -6.341  -2.951 -11.220  1.00  0.00     0.006 A 
ENDBRANCH  60  74
BRANCH  61  82
ATOM     82  C   UNL     1       5.247  -8.281 -12.469  1.00  0.00     0.057 A 
ATOM     83  C   UNL     1       6.440  -7.585 -12.240  1.00  0.00     0.134 A 
ATOM     84  C   UNL     1       5.352  -9.605 -12.912  1.00  0.00     0.134 A 
ATOM     85  F   UNL     1       6.407  -6.305 -11.839  1.00  0.00    -0.206 F 
ATOM     86  C   UNL     1       7.686  -8.173 -12.462  1.00  0.00     0.040 A 
ATOM     87  C   UNL     1       6.592 -10.216 -13.111  1.00  0.00     0.040 A 
ATOM     88  F   UNL     1       4.248 -10.329 -13.153  1.00  0.00    -0.206 F 
ATOM     89  C   UNL     1       7.764  -9.495 -12.894  1.00  0.00     0.006 A 
ENDBRANCH  61  82
BRANCH  73  90
ATOM     90  C   UNL     1       1.989  -3.034 -15.725  1.00  0.00     0.057 A 
ATOM     91  C   UNL     1       2.057  -3.436 -17.064  1.00  0.00     0.134 A 
ATOM     92  C   UNL     1       2.223  -1.681 -15.443  1.00  0.00     0.134 A 
ATOM     93  F   UNL     1       1.854  -4.719 -17.400  1.00  0.00    -0.206 F 
ATOM     94  C   UNL     1       2.349  -2.527 -18.082  1.00  0.00     0.040 A 
ATOM     95  C   UNL     1       2.488  -0.758 -16.455  1.00  0.00     0.040 A 
ATOM     96  F   UNL     1       2.163  -1.228 -14.181  1.00  0.00    -0.206 F 
ATOM     97  C   UNL     1       2.552  -1.181 -17.780  1.00  0.00     0.006 A 
ENDBRANCH  73  90
ENDBRANCH  47  48
ENDBRANCH  40  42
ENDBRANCH  39  40
ENDBRANCH  38  39
ENDBRANCH  37  38
ENDBRANCH  36  37
ENDBRANCH  35  36
ENDBRANCH   1  35
TORSDOF 21
