REMARK SMILES O=C(CCC(=O)O[C@@H]1N=C(c2ccccc2)c2cc(Br)ccc2NC1=O)OCCOCCOCCOC(=O)c1ccc(-c2c3nc(c(-c4c(F)cccc4F)c4ccc([nH]4)c(-c4c(F)cccc4F)c4nc(c(-c5c(F)cccc5F)c5ccc2[nH]5)C=C4)C=C3)cc1
REMARK SMILES IDX 29 1 28 2 27 3 2 4 1 5 3 6 4 7 5 8 6 9 7 10 8 11 9 13 10 14
REMARK SMILES IDX 11 15 12 16 16 17 13 18 15 19 14 20 17 21 18 22 23 23 19 24
REMARK SMILES IDX 22 25 20 26 21 27 24 28 25 29 26 31 30 33 31 34 32 35 33 36
REMARK SMILES IDX 34 37 35 38 36 39 37 40 38 41 39 42 40 43 92 44 41 45 91 46
REMARK SMILES IDX 42 47 43 48 44 49 85 50 45 51 90 52 84 53 86 54 46 55 89 56
REMARK SMILES IDX 83 57 82 58 47 60 73 61 56 62 72 63 57 64 60 65 71 66 87 67
REMARK SMILES IDX 58 68 59 69 70 71 88 72 61 73 48 74 49 75 54 76 50 77 51 78
REMARK SMILES IDX 53 79 55 80 52 81 74 82 75 83 80 84 76 85 77 86 79 87 81 88
REMARK SMILES IDX 78 89 62 90 63 91 68 92 64 93 65 94 67 95 69 96 66 97
REMARK H PARENT 24 30 86 59 60 70
REMARK Flexibility Score: 90.00
ROOT
ATOM      1  C   UNL     1       4.618   0.916  -1.216  1.00  0.00     0.202 C 
ENDROOT
BRANCH   1   2
ATOM      2  C   UNL     1       4.326  -0.531  -0.819  1.00  0.00     0.261 C 
BRANCH   2   3
ATOM      3  O   UNL     1       3.117  -0.868  -0.110  1.00  0.00    -0.463 OA
BRANCH   3   4
ATOM      4  C   UNL     1       2.703  -0.487   1.115  1.00  0.00     0.306 C 
ATOM      5  O   UNL     1       1.697  -0.995   1.606  1.00  0.00    -0.252 OA
BRANCH   4   6
ATOM      6  C   UNL     1       3.456   0.584   1.853  1.00  0.00     0.134 C 
BRANCH   6   7
ATOM      7  C   UNL     1       4.144   0.045   3.099  1.00  0.00     0.134 C 
BRANCH   7   8
ATOM      8  C   UNL     1       5.351  -0.811   2.777  1.00  0.00     0.308 C 
ATOM      9  O   UNL     1       6.445  -0.673   3.300  1.00  0.00    -0.252 OA
BRANCH   8  10
ATOM     10  O   UNL     1       5.000  -1.744   1.869  1.00  0.00    -0.430 OA
BRANCH  10  11
ATOM     11  C   UNL     1       5.972  -2.636   1.320  1.00  0.00     0.385 CG0
ATOM     12  G   UNL     1       7.236  -2.002   0.680  1.00  0.00     0.000 G0
BRANCH  11  13
ATOM     13  N   UNL     1       6.307  -3.740   2.185  1.00  0.00    -0.232 NA
ATOM     14  C   UNL     1       6.769  -4.838   1.708  1.00  0.00     0.079 C 
BRANCH  14  15
ATOM     15  C   UNL     1       6.842  -5.915   2.717  1.00  0.00     0.001 A 
ATOM     16  C   UNL     1       5.642  -6.373   3.275  1.00  0.00     0.010 A 
ATOM     17  C   UNL     1       8.077  -6.294   3.237  1.00  0.00     0.010 A 
ATOM     18  C   UNL     1       5.681  -7.224   4.373  1.00  0.00     0.001 A 
ATOM     19  C   UNL     1       8.106  -7.140   4.343  1.00  0.00     0.001 A 
ATOM     20  C   UNL     1       6.912  -7.598   4.912  1.00  0.00     0.000 A 
ENDBRANCH  14  15
BRANCH  14  21
ATOM     21  C   UNL     1       7.210  -5.106   0.308  1.00  0.00     0.025 A 
ATOM     22  C   UNL     1       7.084  -6.415  -0.193  1.00  0.00     0.028 A 
ATOM     23  C   UNL     1       7.852  -4.133  -0.480  1.00  0.00     0.050 A 
ATOM     24  C   UNL     1       7.622  -6.756  -1.435  1.00  0.00     0.018 A 
ATOM     25  C   UNL     1       8.412  -4.505  -1.716  1.00  0.00     0.028 A 
ATOM     26  Br  UNL     1       7.463  -8.526  -2.079  1.00  0.00    -0.051 Br
ATOM     27  C   UNL     1       8.296  -5.809  -2.195  1.00  0.00     0.018 A 
BRANCH  23  28
ATOM     28  N   UNL     1       8.002  -2.779  -0.150  1.00  0.00    -0.320 N 
ATOM     29  C   UNL     1       7.236  -2.002   0.680  1.00  0.00     0.289 CG0
ATOM     30  H   UNL     1       8.764  -2.321  -0.573  1.00  0.00     0.170 HD
ATOM     31  O   UNL     1       7.470  -0.789   0.678  1.00  0.00    -0.268 OA
ATOM     32  G   UNL     1       5.972  -2.636   1.320  1.00  0.00     0.000 G0
ENDBRANCH  23  28
ENDBRANCH  14  21
ENDBRANCH  11  13
ENDBRANCH  10  11
ENDBRANCH   8  10
ENDBRANCH   7   8
ENDBRANCH   6   7
ENDBRANCH   4   6
ENDBRANCH   3   4
ENDBRANCH   2   3
ENDBRANCH   1   2
BRANCH   1  33
ATOM     33  O   UNL     1       3.563   1.824  -1.475  1.00  0.00    -0.376 OA
BRANCH  33  34
ATOM     34  C   UNL     1       2.272   1.327  -1.768  1.00  0.00     0.188 C 
BRANCH  34  35
ATOM     35  C   UNL     1       2.044   0.583  -3.092  1.00  0.00     0.188 C 
BRANCH  35  36
ATOM     36  O   UNL     1       3.054  -0.326  -3.470  1.00  0.00    -0.376 OA
BRANCH  36  37
ATOM     37  C   UNL     1       4.080   0.045  -4.383  1.00  0.00     0.202 C 
BRANCH  37  38
ATOM     38  C   UNL     1       4.238   1.438  -5.019  1.00  0.00     0.261 C 
BRANCH  38  39
ATOM     39  O   UNL     1       3.978   2.555  -4.163  1.00  0.00    -0.460 OA
BRANCH  39  40
ATOM     40  C   UNL     1       2.933   3.341  -4.549  1.00  0.00     0.338 C 
ATOM     41  O   UNL     1       2.233   3.197  -5.525  1.00  0.00    -0.246 OA
BRANCH  40  42
ATOM     42  C   UNL     1       2.628   4.324  -3.489  1.00  0.00     0.060 A 
ATOM     43  C   UNL     1       3.607   5.181  -2.989  1.00  0.00     0.016 A 
ATOM     44  C   UNL     1       1.308   4.399  -3.024  1.00  0.00     0.016 A 
ATOM     45  C   UNL     1       3.251   6.141  -2.038  1.00  0.00     0.010 A 
ATOM     46  C   UNL     1       0.962   5.327  -2.042  1.00  0.00     0.010 A 
ATOM     47  C   UNL     1       1.925   6.229  -1.572  1.00  0.00    -0.014 A 
BRANCH  47  48
ATOM     48  C   UNL     1       1.498   7.426  -0.813  1.00  0.00     0.031 A 
ATOM     49  C   UNL     1       1.417   7.459   0.679  1.00  0.00     0.074 A 
ATOM     50  C   UNL     1       1.165   8.513  -1.533  1.00  0.00     0.049 A 
ATOM     51  N   UNL     1       1.228   8.490   1.464  1.00  0.00    -0.248 NA
ATOM     52  C   UNL     1       1.546   6.176   1.381  1.00  0.00     0.031 C 
ATOM     53  C   UNL     1       1.150   8.573  -2.997  1.00  0.00     0.029 A 
ATOM     54  N   UNL     1       0.795   9.771  -1.140  1.00  0.00    -0.354 N 
ATOM     55  C   UNL     1       1.241   7.992   2.759  1.00  0.00     0.074 A 
ATOM     56  C   UNL     1       1.405   6.554   2.647  1.00  0.00     0.031 C 
ATOM     57  C   UNL     1       0.828   9.816  -3.379  1.00  0.00     0.029 A 
ATOM     58  C   UNL     1       0.611  10.634  -2.191  1.00  0.00     0.049 A 
ATOM     59  H   UNL     1       0.674  10.030  -0.198  1.00  0.00     0.167 HD
ATOM     60  C   UNL     1       1.138   8.677   3.925  1.00  0.00     0.037 A 
ATOM     61  C   UNL     1       0.331  11.948  -2.197  1.00  0.00     0.037 A 
ATOM     62  C   UNL     1       0.937  10.105   4.016  1.00  0.00     0.049 A 
ATOM     63  C   UNL     1       0.208  12.676  -0.893  1.00  0.00     0.074 A 
ATOM     64  C   UNL     1       0.889  10.903   5.149  1.00  0.00     0.029 A 
ATOM     65  N   UNL     1       0.719  10.947   2.934  1.00  0.00    -0.354 N 
ATOM     66  N   UNL     1       0.358  12.223   0.327  1.00  0.00    -0.248 NA
ATOM     67  C   UNL     1      -0.105  14.108  -0.973  1.00  0.00     0.031 C 
ATOM     68  C   UNL     1       0.585  12.213   4.756  1.00  0.00     0.029 A 
ATOM     69  C   UNL     1       0.500  12.246   3.374  1.00  0.00     0.049 A 
ATOM     70  H   UNL     1       0.720  10.665   1.991  1.00  0.00     0.167 HD
ATOM     71  C   UNL     1       0.191  13.319   1.161  1.00  0.00     0.074 A 
ATOM     72  C   UNL     1      -0.054  14.461   0.303  1.00  0.00     0.031 C 
ATOM     73  C   UNL     1       0.242  13.376   2.515  1.00  0.00     0.037 A 
BRANCH  60  74
ATOM     74  C   UNL     1       1.237   7.891   5.203  1.00  0.00     0.057 A 
ATOM     75  C   UNL     1       0.135   7.762   6.058  1.00  0.00     0.134 A 
ATOM     76  C   UNL     1       2.441   7.303   5.615  1.00  0.00     0.134 A 
ATOM     77  F   UNL     1      -1.046   8.313   5.736  1.00  0.00    -0.206 F 
ATOM     78  C   UNL     1       0.224   7.075   7.270  1.00  0.00     0.040 A 
ATOM     79  C   UNL     1       2.537   6.591   6.813  1.00  0.00     0.040 A 
ATOM     80  F   UNL     1       3.538   7.388   4.846  1.00  0.00    -0.206 F 
ATOM     81  C   UNL     1       1.426   6.480   7.647  1.00  0.00     0.006 A 
ENDBRANCH  60  74
BRANCH  61  82
ATOM     82  C   UNL     1       0.228  12.669  -3.487  1.00  0.00     0.057 A 
ATOM     83  C   UNL     1      -0.849  12.465  -4.356  1.00  0.00     0.134 A 
ATOM     84  C   UNL     1       1.217  13.578  -3.879  1.00  0.00     0.134 A 
ATOM     85  F   UNL     1      -1.819  11.594  -4.041  1.00  0.00    -0.206 F 
ATOM     86  C   UNL     1      -0.937  13.138  -5.574  1.00  0.00     0.040 A 
ATOM     87  C   UNL     1       1.128  14.277  -5.082  1.00  0.00     0.040 A 
ATOM     88  F   UNL     1       2.267  13.819  -3.080  1.00  0.00    -0.206 F 
ATOM     89  C   UNL     1       0.049  14.054  -5.936  1.00  0.00     0.006 A 
ENDBRANCH  61  82
BRANCH  73  90
ATOM     90  C   UNL     1       0.054  14.730   3.139  1.00  0.00     0.057 A 
ATOM     91  C   UNL     1       1.130  15.390   3.747  1.00  0.00     0.134 A 
ATOM     92  C   UNL     1      -1.179  15.396   3.116  1.00  0.00     0.134 A 
ATOM     93  F   UNL     1       2.338  14.811   3.811  1.00  0.00    -0.206 F 
ATOM     94  C   UNL     1       0.988  16.665   4.298  1.00  0.00     0.040 A 
ATOM     95  C   UNL     1      -1.325  16.683   3.635  1.00  0.00     0.040 A 
ATOM     96  F   UNL     1      -2.246  14.829   2.532  1.00  0.00    -0.206 F 
ATOM     97  C   UNL     1      -0.239  17.321   4.231  1.00  0.00     0.006 A 
ENDBRANCH  73  90
ENDBRANCH  47  48
ENDBRANCH  40  42
ENDBRANCH  39  40
ENDBRANCH  38  39
ENDBRANCH  37  38
ENDBRANCH  36  37
ENDBRANCH  35  36
ENDBRANCH  34  35
ENDBRANCH  33  34
ENDBRANCH   1  33
TORSDOF 22
