REMARK SMILES O=C(OCCOCCOCCOC(=O)c1ccc(-c2c3nc(c(-c4c(F)cccc4F)c4ccc([nH]4)c(-c4c(F)cccc4F)c4nc(c(-c5c(F)cccc5F)c5ccc2[nH]5)C=C4)C=C3)cc1)C1=NN(c2ccc(S(=O)(=O)[O-])cc2)C(=O)/C1=C/Nc1ccccc1
REMARK SMILES IDX 7 1 6 2 5 3 4 4 3 5 2 6 1 7 69 8 70 9 84 10 71 11 82 12
REMARK SMILES IDX 85 13 83 14 72 15 73 16 81 17 74 18 80 19 75 20 76 21 77 22
REMARK SMILES IDX 78 23 79 24 86 25 87 27 88 28 92 29 89 30 91 31 90 32 8 33
REMARK SMILES IDX 9 34 10 35 11 36 12 37 13 38 14 39 15 40 16 41 68 42 17 43
REMARK SMILES IDX 67 44 18 45 19 46 20 47 61 48 21 49 66 50 60 51 62 52 22 53
REMARK SMILES IDX 65 54 59 55 58 56 23 58 49 59 32 60 48 61 33 62 36 63 47 64
REMARK SMILES IDX 63 65 34 66 35 67 46 69 64 70 37 71 24 72 25 73 30 74 26 75
REMARK SMILES IDX 27 76 29 77 31 78 28 79 50 80 51 81 56 82 52 83 53 84 55 85
REMARK SMILES IDX 57 86 54 87 38 88 39 89 44 90 40 91 41 92 43 93 45 94 42 95
REMARK H PARENT 86 26 62 57 36 68
REMARK Flexibility Score: inf
ROOT
ATOM      1  C   UNL     1       3.016   1.298  -1.444  1.00  0.00     0.188 C 
ENDROOT
BRANCH   1   2
ATOM      2  O   UNL     1       3.942   0.676  -0.571  1.00  0.00    -0.376 OA
BRANCH   2   3
ATOM      3  C   UNL     1       4.771  -0.344  -1.079  1.00  0.00     0.202 C 
BRANCH   3   4
ATOM      4  C   UNL     1       3.966  -1.487  -1.671  1.00  0.00     0.261 C 
BRANCH   4   5
ATOM      5  O   UNL     1       2.881  -1.990  -0.858  1.00  0.00    -0.458 OA
BRANCH   5   6
ATOM      6  C   UNL     1       2.146  -1.154  -0.081  1.00  0.00     0.359 C 
ATOM      7  O   UNL     1       0.983  -0.847  -0.278  1.00  0.00    -0.244 OA
BRANCH   6   8
ATOM      8  C   UNL     1       2.764  -1.003   1.271  1.00  0.00     0.183 C 
ATOM      9  N   UNL     1       3.032  -2.121   1.890  1.00  0.00    -0.157 NA
ATOM     10  C   UNL     1       3.114   0.224   2.041  1.00  0.00     0.093 C 
ATOM     11  N   UNL     1       3.571  -1.803   3.097  1.00  0.00    -0.196 N 
ATOM     12  C   UNL     1       3.796  -0.435   3.264  1.00  0.00     0.282 C 
ATOM     13  C   UNL     1       3.048   1.582   2.062  1.00  0.00     0.099 C 
ATOM     14  O   UNL     1       4.402   0.123   4.162  1.00  0.00    -0.267 OA
BRANCH  11  15
ATOM     15  C   UNL     1       3.650  -2.851   4.050  1.00  0.00     0.069 A 
ATOM     16  C   UNL     1       3.331  -4.164   3.647  1.00  0.00     0.030 A 
ATOM     17  C   UNL     1       3.894  -2.614   5.410  1.00  0.00     0.030 A 
ATOM     18  C   UNL     1       3.179  -5.192   4.572  1.00  0.00     0.021 A 
ATOM     19  C   UNL     1       3.739  -3.642   6.352  1.00  0.00     0.021 A 
ATOM     20  C   UNL     1       3.365  -4.917   5.923  1.00  0.00     0.054 A 
BRANCH  20  21
ATOM     21  S   UNL     1       3.009  -6.210   7.069  1.00  0.00     0.124 S 
ATOM     22  O   UNL     1       1.573  -6.319   7.097  1.00  0.00    -0.237 OA
ATOM     23  O   UNL     1       3.857  -7.341   6.739  1.00  0.00    -0.237 OA
ATOM     24  O   UNL     1       3.473  -5.650   8.509  1.00  0.00    -0.744 OA
ENDBRANCH  20  21
ENDBRANCH  11  15
BRANCH  13  25
ATOM     25  N   UNL     1       2.652   2.796   1.433  1.00  0.00    -0.361 N 
ATOM     26  H   UNL     1       1.994   2.606   0.726  1.00  0.00     0.166 HD
BRANCH  25  27
ATOM     27  C   UNL     1       2.919   4.295   1.502  1.00  0.00     0.038 A 
ATOM     28  C   UNL     1       1.864   5.105   1.063  1.00  0.00     0.026 A 
ATOM     29  C   UNL     1       4.172   4.989   1.446  1.00  0.00     0.026 A 
ATOM     30  C   UNL     1       2.059   6.426   0.568  1.00  0.00     0.002 A 
ATOM     31  C   UNL     1       4.390   6.288   0.930  1.00  0.00     0.002 A 
ATOM     32  C   UNL     1       3.321   7.006   0.464  1.00  0.00     0.000 A 
ENDBRANCH  25  27
ENDBRANCH  13  25
ENDBRANCH   6   8
ENDBRANCH   5   6
ENDBRANCH   4   5
ENDBRANCH   3   4
ENDBRANCH   2   3
ENDBRANCH   1   2
BRANCH   1  33
ATOM     33  C   UNL     1       3.378   2.761  -1.612  1.00  0.00     0.188 C 
BRANCH  33  34
ATOM     34  O   UNL     1       4.134   3.299  -0.528  1.00  0.00    -0.376 OA
BRANCH  34  35
ATOM     35  C   UNL     1       5.454   2.939  -0.097  1.00  0.00     0.202 C 
BRANCH  35  36
ATOM     36  C   UNL     1       5.866   2.486   1.495  1.00  0.00     0.261 C 
BRANCH  36  37
ATOM     37  O   UNL     1       5.184   2.757   2.921  1.00  0.00    -0.460 OA
BRANCH  37  38
ATOM     38  C   UNL     1       4.751   3.639   3.908  1.00  0.00     0.338 C 
ATOM     39  O   UNL     1       5.102   4.803   4.049  1.00  0.00    -0.246 OA
BRANCH  38  40
ATOM     40  C   UNL     1       3.666   3.048   4.877  1.00  0.00     0.060 A 
ATOM     41  C   UNL     1       2.277   2.881   4.586  1.00  0.00     0.016 A 
ATOM     42  C   UNL     1       4.062   2.622   6.137  1.00  0.00     0.016 A 
ATOM     43  C   UNL     1       1.391   2.127   5.402  1.00  0.00     0.010 A 
ATOM     44  C   UNL     1       3.154   1.962   7.006  1.00  0.00     0.010 A 
ATOM     45  C   UNL     1       1.821   1.670   6.644  1.00  0.00    -0.014 A 
BRANCH  45  46
ATOM     46  C   UNL     1       0.862   1.158   7.683  1.00  0.00     0.031 A 
ATOM     47  C   UNL     1       0.348   2.161   8.693  1.00  0.00     0.074 A 
ATOM     48  C   UNL     1       0.474  -0.131   7.808  1.00  0.00     0.049 A 
ATOM     49  N   UNL     1      -0.269   1.972   9.833  1.00  0.00    -0.248 NA
ATOM     50  C   UNL     1       0.582   3.577   8.365  1.00  0.00     0.031 C 
ATOM     51  C   UNL     1       0.766  -1.226   6.883  1.00  0.00     0.029 A 
ATOM     52  N   UNL     1      -0.245  -0.746   8.816  1.00  0.00    -0.354 N 
ATOM     53  C   UNL     1      -0.465   3.241  10.372  1.00  0.00     0.074 A 
ATOM     54  C   UNL     1       0.112   4.187   9.441  1.00  0.00     0.031 C 
ATOM     55  C   UNL     1       0.277  -2.379   7.387  1.00  0.00     0.029 A 
ATOM     56  C   UNL     1      -0.335  -2.115   8.688  1.00  0.00     0.049 A 
ATOM     57  H   UNL     1      -0.656  -0.249   9.560  1.00  0.00     0.167 HD
ATOM     58  C   UNL     1      -1.064   3.595  11.536  1.00  0.00     0.037 A 
ATOM     59  C   UNL     1      -0.811  -3.043   9.545  1.00  0.00     0.037 A 
ATOM     60  C   UNL     1      -1.643   2.668  12.473  1.00  0.00     0.049 A 
ATOM     61  C   UNL     1      -1.336  -2.635  10.901  1.00  0.00     0.074 A 
ATOM     62  C   UNL     1      -2.310   2.938  13.657  1.00  0.00     0.029 A 
ATOM     63  N   UNL     1      -1.611   1.290  12.341  1.00  0.00    -0.354 N 
ATOM     64  N   UNL     1      -1.446  -1.444  11.432  1.00  0.00    -0.248 NA
ATOM     65  C   UNL     1      -1.786  -3.728  11.784  1.00  0.00     0.031 C 
ATOM     66  C   UNL     1      -2.622   1.722  14.274  1.00  0.00     0.029 A 
ATOM     67  C   UNL     1      -2.215   0.698  13.439  1.00  0.00     0.049 A 
ATOM     68  H   UNL     1      -1.218   0.804  11.581  1.00  0.00     0.167 HD
ATOM     69  C   UNL     1      -2.007  -1.642  12.689  1.00  0.00     0.074 A 
ATOM     70  C   UNL     1      -2.194  -3.065  12.854  1.00  0.00     0.031 C 
ATOM     71  C   UNL     1      -2.366  -0.721  13.615  1.00  0.00     0.037 A 
BRANCH  58  72
ATOM     72  C   UNL     1      -1.089   5.056  11.888  1.00  0.00     0.057 A 
ATOM     73  C   UNL     1      -1.869   5.982  11.184  1.00  0.00     0.134 A 
ATOM     74  C   UNL     1      -0.346   5.535  12.976  1.00  0.00     0.134 A 
ATOM     75  F   UNL     1      -2.597   5.594  10.126  1.00  0.00    -0.206 F 
ATOM     76  C   UNL     1      -1.885   7.335  11.528  1.00  0.00     0.040 A 
ATOM     77  C   UNL     1      -0.381   6.879  13.351  1.00  0.00     0.040 A 
ATOM     78  F   UNL     1       0.415   4.702  13.702  1.00  0.00    -0.206 F 
ATOM     79  C   UNL     1      -1.145   7.785  12.620  1.00  0.00     0.006 A 
ENDBRANCH  58  72
BRANCH  59  80
ATOM     80  C   UNL     1      -0.766  -4.502   9.262  1.00  0.00     0.057 A 
ATOM     81  C   UNL     1      -1.888  -5.194   8.792  1.00  0.00     0.134 A 
ATOM     82  C   UNL     1       0.321  -5.264   9.702  1.00  0.00     0.134 A 
ATOM     83  F   UNL     1      -2.991  -4.524   8.431  1.00  0.00    -0.206 F 
ATOM     84  C   UNL     1      -1.925  -6.592   8.771  1.00  0.00     0.040 A 
ATOM     85  C   UNL     1       0.288  -6.660   9.713  1.00  0.00     0.040 A 
ATOM     86  F   UNL     1       1.441  -4.657  10.129  1.00  0.00    -0.206 F 
ATOM     87  C   UNL     1      -0.837  -7.328   9.237  1.00  0.00     0.006 A 
ENDBRANCH  59  80
BRANCH  71  88
ATOM     88  C   UNL     1      -3.055  -1.230  14.848  1.00  0.00     0.057 A 
ATOM     89  C   UNL     1      -2.384  -1.957  15.840  1.00  0.00     0.134 A 
ATOM     90  C   UNL     1      -4.429  -1.017  15.023  1.00  0.00     0.134 A 
ATOM     91  F   UNL     1      -1.073  -2.220  15.721  1.00  0.00    -0.206 F 
ATOM     92  C   UNL     1      -3.062  -2.487  16.940  1.00  0.00     0.040 A 
ATOM     93  C   UNL     1      -5.112  -1.514  16.133  1.00  0.00     0.040 A 
ATOM     94  F   UNL     1      -5.133  -0.330  14.111  1.00  0.00    -0.206 F 
ATOM     95  C   UNL     1      -4.430  -2.263  17.090  1.00  0.00     0.006 A 
ENDBRANCH  71  88
ENDBRANCH  45  46
ENDBRANCH  38  40
ENDBRANCH  37  38
ENDBRANCH  36  37
ENDBRANCH  35  36
ENDBRANCH  34  35
ENDBRANCH  33  34
ENDBRANCH   1  33
TORSDOF 21
