REMARK SMILES Cc1occc1C(=O)NN1C(=O)/C(=C\c2ccc(O[C@H](C)C(=O)OCCOCCOCCOC(=O)c3ccc(-c4c5nc(c(-c6c(F)cccc6F)c6ccc([nH]6)c(-c6c(F)cccc6F)c6nc(c(-c7c(F)cccc7F)c7ccc4[nH]7)C=C6)C=C5)cc3)cc2)SC1=S
REMARK SMILES IDX 27 1 26 2 25 3 24 4 22 5 23 6 20 7 21 8 19 9 18 10 15 11
REMARK SMILES IDX 16 12 91 13 17 14 90 15 14 16 10 17 11 18 93 19 12 20 13 21
REMARK SMILES IDX 92 22 94 23 9 24 7 25 8 26 6 28 1 29 2 30 3 31 4 32 5 33
REMARK SMILES IDX 28 34 29 35 30 36 31 37 32 38 33 39 34 40 35 41 36 42 37 43
REMARK SMILES IDX 89 44 38 45 88 46 39 47 40 48 41 49 82 50 42 51 87 52 81 53
REMARK SMILES IDX 83 54 43 55 86 56 80 57 79 58 44 60 70 61 53 62 69 63 54 64
REMARK SMILES IDX 57 65 68 66 84 67 55 68 56 69 67 71 85 72 58 73 45 74 46 75
REMARK SMILES IDX 51 76 47 77 48 78 50 79 52 80 49 81 71 82 72 83 77 84 73 85
REMARK SMILES IDX 74 86 76 87 78 88 75 89 59 90 60 91 65 92 61 93 62 94 64 95
REMARK SMILES IDX 66 96 63 97
REMARK H PARENT 9 27 83 59 57 70
REMARK Flexibility Score: inf
ROOT
ATOM      1  O   UNL     1       6.719  -1.882  -9.267  1.00  0.00    -0.376 OA
ENDROOT
BRANCH   1   2
ATOM      2  C   UNL     1       5.747  -1.184  -8.502  1.00  0.00     0.202 C 
BRANCH   2   3
ATOM      3  C   UNL     1       4.712  -1.986  -7.697  1.00  0.00     0.261 C 
BRANCH   3   4
ATOM      4  O   UNL     1       5.215  -3.050  -6.861  1.00  0.00    -0.461 OA
BRANCH   4   5
ATOM      5  C   UNL     1       4.962  -4.313  -7.300  1.00  0.00     0.347 C 
ATOM      6  O   UNL     1       4.427  -4.567  -8.376  1.00  0.00    -0.248 OA
BRANCH   5   7
ATOM      7  C   UNL     1       5.325  -5.419  -6.301  1.00  0.00     0.279 C 
ATOM      8  C   UNL     1       6.701  -5.499  -5.631  1.00  0.00     0.066 C 
BRANCH   7   9
ATOM      9  O   UNL     1       4.212  -5.668  -5.452  1.00  0.00    -0.479 OA
BRANCH   9  10
ATOM     10  C   UNL     1       4.012  -4.995  -4.291  1.00  0.00     0.120 A 
ATOM     11  C   UNL     1       3.611  -4.167  -1.649  1.00  0.00    -0.024 A 
ATOM     12  C   UNL     1       4.583  -3.554  -2.442  1.00  0.00     0.012 A 
ATOM     13  C   UNL     1       2.716  -5.055  -2.248  1.00  0.00     0.012 A 
ATOM     14  C   UNL     1       4.762  -3.947  -3.771  1.00  0.00     0.047 A 
ATOM     15  C   UNL     1       2.943  -5.493  -3.550  1.00  0.00     0.047 A 
BRANCH  11  16
ATOM     16  C   UNL     1       3.634  -3.916  -0.204  1.00  0.00     0.029 C 
ATOM     17  N   UNL     1       3.298  -6.942   1.764  1.00  0.00    -0.198 N 
ATOM     18  C   UNL     1       3.605  -6.348   0.552  1.00  0.00     0.285 C 
ATOM     19  C   UNL     1       3.507  -6.203   2.907  1.00  0.00     0.168 C 
ATOM     20  O   UNL     1       3.830  -6.962  -0.480  1.00  0.00    -0.266 OA
ATOM     21  C   UNL     1       3.681  -4.869   0.741  1.00  0.00     0.082 C 
ATOM     22  S   UNL     1       3.796  -4.522   2.437  1.00  0.00    -0.052 SA
ATOM     23  S   UNL     1       3.515  -6.728   4.487  1.00  0.00    -0.050 S 
BRANCH  17  24
ATOM     24  N   UNL     1       3.083  -8.312   1.749  1.00  0.00    -0.254 N 
ATOM     25  C   UNL     1       1.887  -8.978   1.891  1.00  0.00     0.273 C 
ATOM     26  O   UNL     1       1.900 -10.185   1.637  1.00  0.00    -0.267 OA
ATOM     27  H   UNL     1       3.881  -8.876   1.622  1.00  0.00     0.192 HD
BRANCH  25  28
ATOM     28  C   UNL     1       0.671  -8.364   2.420  1.00  0.00     0.082 A 
ATOM     29  C   UNL     1       0.361  -5.850   1.575  1.00  0.00     0.088 C 
ATOM     30  C   UNL     1       0.090  -7.108   2.295  1.00  0.00     0.113 A 
ATOM     31  O   UNL     1      -1.080  -7.054   3.001  1.00  0.00    -0.469 OA
ATOM     32  C   UNL     1      -1.304  -8.275   3.528  1.00  0.00     0.196 A 
ATOM     33  C   UNL     1      -0.283  -9.120   3.188  1.00  0.00     0.056 A 
ENDBRANCH  25  28
ENDBRANCH  17  24
ENDBRANCH  11  16
ENDBRANCH   9  10
ENDBRANCH   7   9
ENDBRANCH   5   7
ENDBRANCH   4   5
ENDBRANCH   3   4
ENDBRANCH   2   3
ENDBRANCH   1   2
BRANCH   1  34
ATOM     34  C   UNL     1       7.570  -2.830  -8.635  1.00  0.00     0.188 C 
BRANCH  34  35
ATOM     35  C   UNL     1       8.016  -2.608  -7.179  1.00  0.00     0.188 C 
BRANCH  35  36
ATOM     36  O   UNL     1       7.711  -1.334  -6.663  1.00  0.00    -0.376 OA
BRANCH  36  37
ATOM     37  C   UNL     1       8.784  -0.496  -6.284  1.00  0.00     0.202 C 
BRANCH  37  38
ATOM     38  C   UNL     1       9.846  -0.153  -7.342  1.00  0.00     0.261 C 
BRANCH  38  39
ATOM     39  O   UNL     1      10.314  -1.238  -8.163  1.00  0.00    -0.460 OA
BRANCH  39  40
ATOM     40  C   UNL     1      11.181  -2.115  -7.602  1.00  0.00     0.338 C 
ATOM     41  O   UNL     1      11.614  -2.092  -6.469  1.00  0.00    -0.246 OA
BRANCH  40  42
ATOM     42  C   UNL     1      11.328  -3.258  -8.540  1.00  0.00     0.060 A 
ATOM     43  C   UNL     1      10.944  -4.540  -8.117  1.00  0.00     0.016 A 
ATOM     44  C   UNL     1      11.819  -3.064  -9.831  1.00  0.00     0.016 A 
ATOM     45  C   UNL     1      11.071  -5.633  -8.979  1.00  0.00     0.010 A 
ATOM     46  C   UNL     1      11.970  -4.164 -10.684  1.00  0.00     0.010 A 
ATOM     47  C   UNL     1      11.623  -5.458 -10.254  1.00  0.00    -0.014 A 
BRANCH  47  48
ATOM     48  C   UNL     1      12.022  -6.637 -11.067  1.00  0.00     0.031 A 
ATOM     49  C   UNL     1      13.466  -7.060 -11.049  1.00  0.00     0.074 A 
ATOM     50  C   UNL     1      11.134  -7.324 -11.809  1.00  0.00     0.049 A 
ATOM     51  N   UNL     1      14.073  -7.988 -11.742  1.00  0.00    -0.248 NA
ATOM     52  C   UNL     1      14.345  -6.328 -10.122  1.00  0.00     0.031 C 
ATOM     53  C   UNL     1       9.700  -7.056 -11.882  1.00  0.00     0.029 A 
ATOM     54  N   UNL     1      11.323  -8.387 -12.660  1.00  0.00    -0.354 N 
ATOM     55  C   UNL     1      15.404  -7.944 -11.347  1.00  0.00     0.074 A 
ATOM     56  C   UNL     1      15.522  -6.879 -10.375  1.00  0.00     0.031 C 
ATOM     57  C   UNL     1       9.140  -7.920 -12.748  1.00  0.00     0.029 A 
ATOM     58  C   UNL     1      10.181  -8.775 -13.318  1.00  0.00     0.049 A 
ATOM     59  H   UNL     1      12.194  -8.828 -12.786  1.00  0.00     0.167 HD
ATOM     60  C   UNL     1      16.436  -8.722 -11.752  1.00  0.00     0.037 A 
ATOM     61  C   UNL     1      10.003  -9.693 -14.290  1.00  0.00     0.037 A 
ATOM     62  C   UNL     1      16.322  -9.780 -12.721  1.00  0.00     0.049 A 
ATOM     63  C   UNL     1      11.184 -10.488 -14.789  1.00  0.00     0.074 A 
ATOM     64  C   UNL     1      17.309 -10.633 -13.184  1.00  0.00     0.029 A 
ATOM     65  N   UNL     1      15.155 -10.121 -13.386  1.00  0.00    -0.354 N 
ATOM     66  N   UNL     1      12.435 -10.454 -14.395  1.00  0.00    -0.248 NA
ATOM     67  C   UNL     1      10.927 -11.451 -15.871  1.00  0.00     0.031 C 
ATOM     68  C   UNL     1      16.752 -11.451 -14.171  1.00  0.00     0.029 A 
ATOM     69  C   UNL     1      15.403 -11.152 -14.277  1.00  0.00     0.049 A 
ATOM     70  H   UNL     1      14.279  -9.693 -13.246  1.00  0.00     0.167 HD
ATOM     71  C   UNL     1      13.102 -11.412 -15.153  1.00  0.00     0.074 A 
ATOM     72  C   UNL     1      12.116 -12.018 -16.022  1.00  0.00     0.031 C 
ATOM     73  C   UNL     1      14.413 -11.758 -15.130  1.00  0.00     0.037 A 
BRANCH  60  74
ATOM     74  C   UNL     1      17.788  -8.436 -11.167  1.00  0.00     0.057 A 
ATOM     75  C   UNL     1      18.094  -8.713  -9.829  1.00  0.00     0.134 A 
ATOM     76  C   UNL     1      18.809  -7.904 -11.966  1.00  0.00     0.134 A 
ATOM     77  F   UNL     1      17.157  -9.208  -9.005  1.00  0.00    -0.206 F 
ATOM     78  C   UNL     1      19.359  -8.450  -9.299  1.00  0.00     0.040 A 
ATOM     79  C   UNL     1      20.086  -7.665 -11.456  1.00  0.00     0.040 A 
ATOM     80  F   UNL     1      18.586  -7.618 -13.257  1.00  0.00    -0.206 F 
ATOM     81  C   UNL     1      20.361  -7.931 -10.116  1.00  0.00     0.006 A 
ENDBRANCH  60  74
BRANCH  61  82
ATOM     82  C   UNL     1       8.657  -9.903 -14.886  1.00  0.00     0.057 A 
ATOM     83  C   UNL     1       7.966 -11.108 -14.714  1.00  0.00     0.134 A 
ATOM     84  C   UNL     1       8.049  -8.922 -15.680  1.00  0.00     0.134 A 
ATOM     85  F   UNL     1       8.508 -12.099 -13.990  1.00  0.00    -0.206 F 
ATOM     86  C   UNL     1       6.732 -11.340 -15.325  1.00  0.00     0.040 A 
ATOM     87  C   UNL     1       6.802  -9.128 -16.272  1.00  0.00     0.040 A 
ATOM     88  F   UNL     1       8.660  -7.747 -15.891  1.00  0.00    -0.206 F 
ATOM     89  C   UNL     1       6.144 -10.344 -16.103  1.00  0.00     0.006 A 
ENDBRANCH  61  82
BRANCH  73  90
ATOM     90  C   UNL     1      14.854 -12.876 -16.034  1.00  0.00     0.057 A 
ATOM     91  C   UNL     1      14.922 -12.728 -17.425  1.00  0.00     0.134 A 
ATOM     92  C   UNL     1      15.261 -14.105 -15.497  1.00  0.00     0.134 A 
ATOM     93  F   UNL     1      14.539 -11.581 -18.007  1.00  0.00    -0.206 F 
ATOM     94  C   UNL     1      15.353 -13.769 -18.251  1.00  0.00     0.040 A 
ATOM     95  C   UNL     1      15.723 -15.143 -16.309  1.00  0.00     0.040 A 
ATOM     96  F   UNL     1      15.234 -14.313 -14.172  1.00  0.00    -0.206 F 
ATOM     97  C   UNL     1      15.763 -14.978 -17.692  1.00  0.00     0.006 A 
ENDBRANCH  73  90
ENDBRANCH  47  48
ENDBRANCH  40  42
ENDBRANCH  39  40
ENDBRANCH  38  39
ENDBRANCH  37  38
ENDBRANCH  36  37
ENDBRANCH  35  36
ENDBRANCH  34  35
ENDBRANCH   1  34
TORSDOF 22
