REMARK SMILES CC1(C)Cc2c(-c3ccccc3)c(-c3ccc(Cl)cc3)c(CC(=O)OCCOCCOCCOC(=O)c3ccc(-c4c5nc(c(-c6c(F)cccc6F)c6ccc([nH]6)c(-c6c(F)cccc6F)c6nc(c(-c7c(F)cccc7F)c7ccc4[nH]7)C=C6)C=C5)cc3)n2C1
REMARK SMILES IDX 29 1 28 2 27 3 26 4 25 5 23 6 24 7 22 8 21 9 1 10 2 11 3 12
REMARK SMILES IDX 4 13 92 14 5 15 91 16 6 17 13 18 7 19 8 20 12 21 9 22 11 23
REMARK SMILES IDX 10 24 14 25 15 26 20 27 16 28 19 29 17 30 18 31 30 32 31 33
REMARK SMILES IDX 32 34 33 35 34 36 35 37 36 38 37 39 38 40 90 41 39 42 89 43
REMARK SMILES IDX 40 44 41 45 42 46 83 47 43 48 88 49 82 50 84 51 44 52 87 53
REMARK SMILES IDX 81 54 80 55 45 57 71 58 54 59 70 60 55 61 58 62 69 63 85 64
REMARK SMILES IDX 56 65 57 66 68 68 86 69 59 70 46 71 47 72 52 73 48 74 49 75
REMARK SMILES IDX 51 76 53 77 50 78 72 79 73 80 78 81 74 82 75 83 77 84 79 85
REMARK SMILES IDX 76 86 60 87 61 88 66 89 62 90 63 91 65 92 67 93 64 94
REMARK H PARENT 84 56 58 67
REMARK Flexibility Score: inf
ROOT
ATOM      1  C   UNL     1      -0.995   3.847   7.418  1.00  0.00     0.188 C 
ENDROOT
BRANCH   1   2
ATOM      2  O   UNL     1      -2.027   4.812   7.494  1.00  0.00    -0.376 OA
BRANCH   2   3
ATOM      3  C   UNL     1      -2.927   4.782   6.403  1.00  0.00     0.202 C 
BRANCH   3   4
ATOM      4  C   UNL     1      -2.268   4.957   5.008  1.00  0.00     0.261 C 
BRANCH   4   5
ATOM      5  O   UNL     1      -1.154   4.034   4.697  1.00  0.00    -0.463 OA
BRANCH   5   6
ATOM      6  C   UNL     1       0.100   4.500   4.471  1.00  0.00     0.311 C 
ATOM      7  O   UNL     1       0.276   5.680   4.159  1.00  0.00    -0.252 OA
BRANCH   6   8
ATOM      8  C   UNL     1       1.349   3.592   4.783  1.00  0.00     0.177 C 
BRANCH   8   9
ATOM      9  C   UNL     1       1.438   2.040   4.784  1.00  0.00     0.037 A 
ATOM     10  C   UNL     1       1.007   0.328   0.092  1.00  0.00     0.013 C 
ATOM     11  C   UNL     1       0.485   0.446   1.528  1.00  0.00    -0.012 C 
ATOM     12  C   UNL     1      -1.044   0.282   1.524  1.00  0.00     0.013 C 
ATOM     13  C   UNL     1       1.131  -0.659   2.404  1.00  0.00     0.063 C 
ATOM     14  C   UNL     1       0.889   1.795   2.215  1.00  0.00     0.129 C 
ATOM     15  C   UNL     1       1.430   0.058   3.658  1.00  0.00     0.027 A 
ATOM     16  N   UNL     1       1.257   1.396   3.575  1.00  0.00    -0.346 N 
ATOM     17  C   UNL     1       1.787  -0.277   4.925  1.00  0.00     0.011 A 
ATOM     18  C   UNL     1       1.886   0.983   5.699  1.00  0.00     0.011 A 
BRANCH  17  19
ATOM     19  C   UNL     1       1.808  -1.693   5.272  1.00  0.00    -0.016 A 
ATOM     20  C   UNL     1       2.952  -2.477   5.103  1.00  0.00     0.009 A 
ATOM     21  C   UNL     1       0.658  -2.275   5.831  1.00  0.00     0.009 A 
ATOM     22  C   UNL     1       2.977  -3.785   5.603  1.00  0.00     0.001 A 
ATOM     23  C   UNL     1       0.703  -3.553   6.383  1.00  0.00     0.001 A 
ATOM     24  C   UNL     1       1.869  -4.305   6.280  1.00  0.00     0.000 A 
ENDBRANCH  17  19
BRANCH  18  25
ATOM     25  C   UNL     1       2.134   0.976   7.255  1.00  0.00    -0.016 A 
ATOM     26  C   UNL     1       2.083  -0.679   8.063  1.00  0.00     0.010 A 
ATOM     27  C   UNL     1       1.533   2.389   8.197  1.00  0.00     0.010 A 
ATOM     28  C   UNL     1       1.299  -0.907   9.708  1.00  0.00     0.021 A 
ATOM     29  C   UNL     1       0.756   2.205   9.839  1.00  0.00     0.021 A 
ATOM     30  C   UNL     1       0.637   0.528  10.604  1.00  0.00     0.041 A 
ATOM     31  Cl  UNL     1      -0.277   0.338  12.054  1.00  0.00    -0.084 Cl
ENDBRANCH  18  25
ENDBRANCH   8   9
ENDBRANCH   6   8
ENDBRANCH   5   6
ENDBRANCH   4   5
ENDBRANCH   3   4
ENDBRANCH   2   3
ENDBRANCH   1   2
BRANCH   1  32
ATOM     32  C   UNL     1      -1.320   2.481   6.777  1.00  0.00     0.188 C 
BRANCH  32  33
ATOM     33  O   UNL     1      -2.611   2.058   7.162  1.00  0.00    -0.376 OA
BRANCH  33  34
ATOM     34  C   UNL     1      -2.708   0.689   7.479  1.00  0.00     0.202 C 
BRANCH  34  35
ATOM     35  C   UNL     1      -2.006   0.335   8.781  1.00  0.00     0.261 C 
BRANCH  35  36
ATOM     36  O   UNL     1      -0.803   1.093   9.046  1.00  0.00    -0.460 OA
BRANCH  36  37
ATOM     37  C   UNL     1       0.539   0.587   8.562  1.00  0.00     0.338 C 
ATOM     38  O   UNL     1       0.113  -0.147   7.629  1.00  0.00    -0.246 OA
BRANCH  37  39
ATOM     39  C   UNL     1       2.447   0.920   9.481  1.00  0.00     0.060 A 
ATOM     40  C   UNL     1       3.699   0.143   9.475  1.00  0.00     0.016 A 
ATOM     41  C   UNL     1       2.836   1.735  10.623  1.00  0.00     0.016 A 
ATOM     42  C   UNL     1       4.120  -0.550  10.637  1.00  0.00     0.010 A 
ATOM     43  C   UNL     1       3.014   1.074  11.830  1.00  0.00     0.010 A 
ATOM     44  C   UNL     1       3.477  -0.226  11.812  1.00  0.00    -0.014 A 
BRANCH  44  45
ATOM     45  C   UNL     1       3.588  -0.932  13.084  1.00  0.00     0.031 A 
ATOM     46  C   UNL     1       4.647  -0.278  13.883  1.00  0.00     0.074 A 
ATOM     47  C   UNL     1       2.752  -1.834  13.651  1.00  0.00     0.049 A 
ATOM     48  N   UNL     1       5.915  -0.513  13.783  1.00  0.00    -0.248 NA
ATOM     49  C   UNL     1       4.325   1.009  14.535  1.00  0.00     0.031 C 
ATOM     50  C   UNL     1       1.464  -2.370  13.213  1.00  0.00     0.029 A 
ATOM     51  N   UNL     1       2.913  -2.454  14.862  1.00  0.00    -0.354 N 
ATOM     52  C   UNL     1       6.491   0.469  14.570  1.00  0.00     0.074 A 
ATOM     53  C   UNL     1       5.546   1.543  14.595  1.00  0.00     0.031 C 
ATOM     54  C   UNL     1       0.879  -3.074  14.217  1.00  0.00     0.029 A 
ATOM     55  C   UNL     1       1.809  -3.170  15.326  1.00  0.00     0.049 A 
ATOM     56  H   UNL     1       3.754  -2.397  15.371  1.00  0.00     0.167 HD
ATOM     57  C   UNL     1       7.443   0.160  15.491  1.00  0.00     0.037 A 
ATOM     58  C   UNL     1       1.696  -3.778  16.540  1.00  0.00     0.037 A 
ATOM     59  C   UNL     1       7.954  -1.174  15.256  1.00  0.00     0.049 A 
ATOM     60  C   UNL     1       3.075  -3.933  17.072  1.00  0.00     0.074 A 
ATOM     61  C   UNL     1       8.522  -1.814  14.170  1.00  0.00     0.029 A 
ATOM     62  N   UNL     1       7.491  -2.176  16.079  1.00  0.00    -0.354 N 
ATOM     63  N   UNL     1       3.965  -4.730  16.550  1.00  0.00    -0.248 NA
ATOM     64  C   UNL     1       3.608  -2.846  17.879  1.00  0.00     0.031 C 
ATOM     65  C   UNL     1       7.960  -3.125  14.171  1.00  0.00     0.029 A 
ATOM     66  C   UNL     1       7.154  -3.257  15.302  1.00  0.00     0.049 A 
ATOM     67  H   UNL     1       7.415  -2.126  17.059  1.00  0.00     0.167 HD
ATOM     68  C   UNL     1       5.148  -4.007  16.582  1.00  0.00     0.074 A 
ATOM     69  C   UNL     1       4.884  -2.888  17.486  1.00  0.00     0.031 C 
ATOM     70  C   UNL     1       6.116  -4.208  15.640  1.00  0.00     0.037 A 
BRANCH  57  71
ATOM     71  C   UNL     1       7.588   0.875  16.818  1.00  0.00     0.057 A 
ATOM     72  C   UNL     1       8.708   0.576  17.608  1.00  0.00     0.134 A 
ATOM     73  C   UNL     1       6.601   1.655  17.470  1.00  0.00     0.134 A 
ATOM     74  F   UNL     1       9.720  -0.152  17.114  1.00  0.00    -0.206 F 
ATOM     75  C   UNL     1       8.800   0.950  18.954  1.00  0.00     0.040 A 
ATOM     76  C   UNL     1       6.708   2.076  18.795  1.00  0.00     0.040 A 
ATOM     77  F   UNL     1       5.433   1.991  16.918  1.00  0.00    -0.206 F 
ATOM     78  C   UNL     1       7.795   1.695  19.555  1.00  0.00     0.006 A 
ENDBRANCH  57  71
BRANCH  58  79
ATOM     79  C   UNL     1       0.513  -4.008  17.410  1.00  0.00     0.057 A 
ATOM     80  C   UNL     1       0.553  -4.910  18.488  1.00  0.00     0.134 A 
ATOM     81  C   UNL     1      -0.580  -3.127  17.396  1.00  0.00     0.134 A 
ATOM     82  F   UNL     1       1.576  -5.768  18.621  1.00  0.00    -0.206 F 
ATOM     83  C   UNL     1      -0.416  -4.914  19.505  1.00  0.00     0.040 A 
ATOM     84  C   UNL     1      -1.555  -3.120  18.404  1.00  0.00     0.040 A 
ATOM     85  F   UNL     1      -0.685  -2.179  16.455  1.00  0.00    -0.206 F 
ATOM     86  C   UNL     1      -1.468  -4.006  19.471  1.00  0.00     0.006 A 
ENDBRANCH  58  79
BRANCH  70  87
ATOM     87  C   UNL     1       5.969  -5.407  14.732  1.00  0.00     0.057 A 
ATOM     88  C   UNL     1       4.929  -5.580  13.804  1.00  0.00     0.134 A 
ATOM     89  C   UNL     1       7.002  -6.349  14.694  1.00  0.00     0.134 A 
ATOM     90  F   UNL     1       3.938  -4.688  13.696  1.00  0.00    -0.206 F 
ATOM     91  C   UNL     1       4.903  -6.654  12.906  1.00  0.00     0.040 A 
ATOM     92  C   UNL     1       7.006  -7.407  13.781  1.00  0.00     0.040 A 
ATOM     93  F   UNL     1       8.056  -6.227  15.515  1.00  0.00    -0.206 F 
ATOM     94  C   UNL     1       5.950  -7.568  12.888  1.00  0.00     0.006 A 
ENDBRANCH  70  87
ENDBRANCH  44  45
ENDBRANCH  37  39
ENDBRANCH  36  37
ENDBRANCH  35  36
ENDBRANCH  34  35
ENDBRANCH  33  34
ENDBRANCH  32  33
ENDBRANCH   1  32
TORSDOF 20
