REMARK SMILES O=C(OCCOCCOCCOC(=O)c1cn2ccccc2n1)c1ccc(-c2c3nc(c(-c4c(F)cccc4F)c4ccc([nH]4)c(-c4c(F)cccc4F)c4nc(c(-c5c(F)cccc5F)c5ccc2[nH]5)C=C4)C=C3)cc1
REMARK SMILES IDX 7 1 6 2 5 3 4 4 3 5 2 6 1 7 24 8 25 9 77 10 26 11 76 12
REMARK SMILES IDX 27 13 28 14 29 15 70 16 30 17 75 18 69 19 71 20 31 21 74 22
REMARK SMILES IDX 68 23 67 24 32 26 58 27 41 28 57 29 42 30 45 31 56 32 72 33
REMARK SMILES IDX 43 34 44 35 55 37 73 38 46 39 33 40 34 41 39 42 35 43 36 44
REMARK SMILES IDX 38 45 40 46 37 47 59 48 60 49 65 50 61 51 62 52 64 53 66 54
REMARK SMILES IDX 63 55 47 56 48 57 53 58 49 59 50 60 52 61 54 62 51 63 8 64
REMARK SMILES IDX 9 65 10 66 11 67 12 68 13 69 14 70 15 71 16 72 23 73 17 74
REMARK SMILES IDX 22 75 18 76 21 77 19 78 20 79
REMARK H PARENT 71 25 45 36
REMARK Flexibility Score: inf
ROOT
ATOM      1  C   UNL     1       2.365   1.867  -1.128  1.00  0.00     0.188 C 
ENDROOT
BRANCH   1   2
ATOM      2  O   UNL     1       3.690   1.590  -0.651  1.00  0.00    -0.376 OA
BRANCH   2   3
ATOM      3  C   UNL     1       4.452   0.747  -1.519  1.00  0.00     0.202 C 
BRANCH   3   4
ATOM      4  C   UNL     1       4.279  -0.754  -1.256  1.00  0.00     0.261 C 
BRANCH   4   5
ATOM      5  O   UNL     1       2.911  -1.094  -0.982  1.00  0.00    -0.460 OA
BRANCH   5   6
ATOM      6  C   UNL     1       2.317  -1.284   0.223  1.00  0.00     0.338 C 
ATOM      7  O   UNL     1       1.138  -1.636   0.244  1.00  0.00    -0.246 OA
BRANCH   6   8
ATOM      8  C   UNL     1       3.026  -1.149   1.536  1.00  0.00     0.060 A 
ATOM      9  C   UNL     1       4.154  -0.362   1.771  1.00  0.00     0.016 A 
ATOM     10  C   UNL     1       2.477  -1.846   2.628  1.00  0.00     0.016 A 
ATOM     11  C   UNL     1       4.805  -0.381   3.001  1.00  0.00     0.010 A 
ATOM     12  C   UNL     1       3.085  -1.814   3.889  1.00  0.00     0.010 A 
ATOM     13  C   UNL     1       4.285  -1.118   4.065  1.00  0.00    -0.014 A 
BRANCH  13  14
ATOM     14  C   UNL     1       5.074  -1.226   5.311  1.00  0.00     0.031 A 
ATOM     15  C   UNL     1       5.784  -2.513   5.611  1.00  0.00     0.074 A 
ATOM     16  C   UNL     1       5.256  -0.144   6.090  1.00  0.00     0.049 A 
ATOM     17  N   UNL     1       6.540  -2.823   6.631  1.00  0.00    -0.248 NA
ATOM     18  C   UNL     1       5.640  -3.590   4.618  1.00  0.00     0.031 C 
ATOM     19  C   UNL     1       4.699   1.183   5.830  1.00  0.00     0.029 A 
ATOM     20  N   UNL     1       5.988   0.019   7.237  1.00  0.00    -0.354 N 
ATOM     21  C   UNL     1       6.962  -4.126   6.402  1.00  0.00     0.074 A 
ATOM     22  C   UNL     1       6.357  -4.561   5.163  1.00  0.00     0.031 C 
ATOM     23  C   UNL     1       5.128   2.031   6.778  1.00  0.00     0.029 A 
ATOM     24  C   UNL     1       5.941   1.296   7.739  1.00  0.00     0.049 A 
ATOM     25  H   UNL     1       6.498  -0.709   7.660  1.00  0.00     0.167 HD
ATOM     26  C   UNL     1       7.790  -4.888   7.154  1.00  0.00     0.037 A 
ATOM     27  C   UNL     1       6.481   1.808   8.860  1.00  0.00     0.037 A 
ATOM     28  C   UNL     1       8.376  -4.453   8.392  1.00  0.00     0.049 A 
ATOM     29  C   UNL     1       7.308   0.910   9.735  1.00  0.00     0.074 A 
ATOM     30  C   UNL     1       9.161  -5.166   9.279  1.00  0.00     0.029 A 
ATOM     31  N   UNL     1       8.239  -3.174   8.913  1.00  0.00    -0.354 N 
ATOM     32  N   UNL     1       7.645  -0.343   9.544  1.00  0.00    -0.248 NA
ATOM     33  C   UNL     1       7.824   1.492  10.980  1.00  0.00     0.031 C 
ATOM     34  C   UNL     1       9.477  -4.324  10.352  1.00  0.00     0.029 A 
ATOM     35  C   UNL     1       8.916  -3.079  10.116  1.00  0.00     0.049 A 
ATOM     36  H   UNL     1       7.734  -2.442   8.490  1.00  0.00     0.167 HD
ATOM     37  C   UNL     1       8.420  -0.698  10.638  1.00  0.00     0.074 A 
ATOM     38  C   UNL     1       8.519   0.479  11.479  1.00  0.00     0.031 C 
ATOM     39  C   UNL     1       8.994  -1.891  10.927  1.00  0.00     0.037 A 
BRANCH  26  40
ATOM     40  C   UNL     1       8.061  -6.277   6.661  1.00  0.00     0.057 A 
ATOM     41  C   UNL     1       8.912  -6.520   5.576  1.00  0.00     0.134 A 
ATOM     42  C   UNL     1       7.433  -7.379   7.253  1.00  0.00     0.134 A 
ATOM     43  F   UNL     1       9.522  -5.503   4.948  1.00  0.00    -0.206 F 
ATOM     44  C   UNL     1       9.111  -7.811   5.080  1.00  0.00     0.040 A 
ATOM     45  C   UNL     1       7.637  -8.675   6.778  1.00  0.00     0.040 A 
ATOM     46  F   UNL     1       6.599  -7.212   8.291  1.00  0.00    -0.206 F 
ATOM     47  C   UNL     1       8.472  -8.893   5.684  1.00  0.00     0.006 A 
ENDBRANCH  26  40
BRANCH  27  48
ATOM     48  C   UNL     1       6.226   3.222   9.233  1.00  0.00     0.057 A 
ATOM     49  C   UNL     1       7.243   4.181   9.201  1.00  0.00     0.134 A 
ATOM     50  C   UNL     1       4.955   3.643   9.647  1.00  0.00     0.134 A 
ATOM     51  F   UNL     1       8.486   3.835   8.833  1.00  0.00    -0.206 F 
ATOM     52  C   UNL     1       7.011   5.505   9.578  1.00  0.00     0.040 A 
ATOM     53  C   UNL     1       4.704   4.968  10.008  1.00  0.00     0.040 A 
ATOM     54  F   UNL     1       3.934   2.775   9.696  1.00  0.00    -0.206 F 
ATOM     55  C   UNL     1       5.736   5.902   9.979  1.00  0.00     0.006 A 
ENDBRANCH  27  48
BRANCH  39  56
ATOM     56  C   UNL     1       9.786  -1.967  12.195  1.00  0.00     0.057 A 
ATOM     57  C   UNL     1       9.161  -2.053  13.444  1.00  0.00     0.134 A 
ATOM     58  C   UNL     1      11.185  -1.985  12.161  1.00  0.00     0.134 A 
ATOM     59  F   UNL     1       7.823  -2.025  13.538  1.00  0.00    -0.206 F 
ATOM     60  C   UNL     1       9.903  -2.138  14.622  1.00  0.00     0.040 A 
ATOM     61  C   UNL     1      11.938  -2.088  13.331  1.00  0.00     0.040 A 
ATOM     62  F   UNL     1      11.840  -1.909  10.992  1.00  0.00    -0.206 F 
ATOM     63  C   UNL     1      11.296  -2.162  14.566  1.00  0.00     0.006 A 
ENDBRANCH  39  56
ENDBRANCH  13  14
ENDBRANCH   6   8
ENDBRANCH   5   6
ENDBRANCH   4   5
ENDBRANCH   3   4
ENDBRANCH   2   3
ENDBRANCH   1   2
BRANCH   1  64
ATOM     64  C   UNL     1       1.887   3.251  -0.676  1.00  0.00     0.188 C 
BRANCH  64  65
ATOM     65  O   UNL     1       2.499   4.347  -1.369  1.00  0.00    -0.376 OA
BRANCH  65  66
ATOM     66  C   UNL     1       3.911   4.485  -1.218  1.00  0.00     0.202 C 
BRANCH  66  67
ATOM     67  C   UNL     1       4.368   5.069   0.120  1.00  0.00     0.261 C 
BRANCH  67  68
ATOM     68  O   UNL     1       3.815   4.377   1.247  1.00  0.00    -0.458 OA
BRANCH  68  69
ATOM     69  C   UNL     1       3.461   5.178   2.291  1.00  0.00     0.358 C 
ATOM     70  O   UNL     1       3.681   6.389   2.339  1.00  0.00    -0.244 OA
BRANCH  69  71
ATOM     71  C   UNL     1       2.846   4.467   3.410  1.00  0.00     0.167 A 
ATOM     72  C   UNL     1       2.946   4.881   4.726  1.00  0.00     0.128 A 
ATOM     73  N   UNL     1       2.045   3.334   3.330  1.00  0.00    -0.222 NA
ATOM     74  N   UNL     1       2.188   4.014   5.458  1.00  0.00    -0.306 N 
ATOM     75  C   UNL     1       1.627   3.109   4.563  1.00  0.00     0.137 A 
ATOM     76  C   UNL     1       1.978   3.985   6.833  1.00  0.00     0.093 A 
ATOM     77  C   UNL     1       0.742   2.135   5.115  1.00  0.00     0.048 A 
ATOM     78  C   UNL     1       1.170   3.046   7.351  1.00  0.00     0.018 A 
ATOM     79  C   UNL     1       0.521   2.108   6.446  1.00  0.00     0.005 A 
ENDBRANCH  69  71
ENDBRANCH  68  69
ENDBRANCH  67  68
ENDBRANCH  66  67
ENDBRANCH  65  66
ENDBRANCH  64  65
ENDBRANCH   1  64
TORSDOF 17
