REMARK SMILES COc1ccc2c(CC(=O)OCCOCCOCCOC(=O)c3ccc(-c4c5nc(c(-c6c(F)cccc6F)c6ccc([nH]6)c(-c6c(F)cccc6F)c6nc(c(-c7c(F)cccc7F)c7ccc4[nH]7)C=C6)C=C5)cc3)c(C(=O)c3cc(C)ccn3)[nH]c2c1
REMARK SMILES IDX 15 1 14 2 13 3 12 4 11 5 9 6 10 7 8 8 7 9 3 10 4 11 89 12
REMARK SMILES IDX 5 13 88 14 6 15 87 16 77 17 2 19 1 20 78 21 79 22 80 23
REMARK SMILES IDX 81 24 86 25 82 26 85 27 83 28 84 29 16 30 17 31 18 32 19 33
REMARK SMILES IDX 20 34 21 35 22 36 23 37 24 38 76 39 25 40 75 41 26 42 27 43
REMARK SMILES IDX 28 44 69 45 29 46 74 47 68 48 70 49 30 50 73 51 67 52 66 53
REMARK SMILES IDX 31 55 57 56 40 57 56 58 41 59 44 60 55 61 71 62 42 63 43 64
REMARK SMILES IDX 54 66 72 67 45 68 32 69 33 70 38 71 34 72 35 73 37 74 39 75
REMARK SMILES IDX 36 76 58 77 59 78 64 79 60 80 61 81 63 82 65 83 62 84 46 85
REMARK SMILES IDX 47 86 52 87 48 88 49 89 51 90 53 91 50 92
REMARK H PARENT 87 18 70 54 44 65
REMARK Flexibility Score: inf
ROOT
ATOM      1  C   UNL     1       2.810   7.713   6.316  1.00  0.00     0.188 C 
ENDROOT
BRANCH   1   2
ATOM      2  O   UNL     1       4.035   8.392   6.046  1.00  0.00    -0.376 OA
BRANCH   2   3
ATOM      3  C   UNL     1       4.612   8.243   4.755  1.00  0.00     0.202 C 
BRANCH   3   4
ATOM      4  C   UNL     1       5.059   6.822   4.391  1.00  0.00     0.261 C 
BRANCH   4   5
ATOM      5  O   UNL     1       3.962   5.886   4.441  1.00  0.00    -0.463 OA
BRANCH   5   6
ATOM      6  C   UNL     1       4.210   4.675   5.002  1.00  0.00     0.310 C 
ATOM      7  O   UNL     1       5.339   4.263   5.255  1.00  0.00    -0.252 OA
BRANCH   6   8
ATOM      8  C   UNL     1       2.958   3.947   5.471  1.00  0.00     0.161 C 
BRANCH   8   9
ATOM      9  C   UNL     1       1.764   3.893   4.546  1.00  0.00     0.000 A 
ATOM     10  C   UNL     1       0.974   1.947   0.904  1.00  0.00     0.120 A 
ATOM     11  C   UNL     1       2.306   1.924   1.313  1.00  0.00     0.047 A 
ATOM     12  C   UNL     1       0.026   2.706   1.593  1.00  0.00     0.073 A 
ATOM     13  C   UNL     1       2.709   2.596   2.476  1.00  0.00     0.014 A 
ATOM     14  C   UNL     1       0.439   3.330   2.774  1.00  0.00     0.050 A 
ATOM     15  C   UNL     1       1.747   3.276   3.250  1.00  0.00     0.004 A 
ATOM     16  N   UNL     1      -0.289   4.049   3.687  1.00  0.00    -0.351 N 
ATOM     17  C   UNL     1       0.424   4.170   4.860  1.00  0.00     0.093 A 
ATOM     18  H   UNL     1      -1.186   4.423   3.528  1.00  0.00     0.167 HD
BRANCH  10  19
ATOM     19  O   UNL     1       0.518   1.271  -0.198  1.00  0.00    -0.497 OA
ATOM     20  C   UNL     1       0.902  -0.104  -0.198  1.00  0.00     0.278 C 
ENDBRANCH  10  19
BRANCH  17  21
ATOM     21  C   UNL     1      -0.195   4.438   6.151  1.00  0.00     0.227 C 
ATOM     22  O   UNL     1       0.369   4.222   7.221  1.00  0.00    -0.285 OA
BRANCH  21  23
ATOM     23  C   UNL     1      -1.597   4.948   6.199  1.00  0.00     0.113 A 
ATOM     24  C   UNL     1      -2.647   4.093   6.522  1.00  0.00     0.036 A 
ATOM     25  N   UNL     1      -1.742   6.282   5.990  1.00  0.00    -0.253 NA
ATOM     26  C   UNL     1      -3.927   4.640   6.663  1.00  0.00    -0.047 A 
ATOM     27  C   UNL     1      -2.978   6.789   6.194  1.00  0.00     0.112 A 
ATOM     28  C   UNL     1      -5.125   3.790   6.968  1.00  0.00     0.044 C 
ATOM     29  C   UNL     1      -4.081   6.023   6.532  1.00  0.00     0.023 A 
ENDBRANCH  21  23
ENDBRANCH  17  21
ENDBRANCH   8   9
ENDBRANCH   6   8
ENDBRANCH   5   6
ENDBRANCH   4   5
ENDBRANCH   3   4
ENDBRANCH   2   3
ENDBRANCH   1   2
BRANCH   1  30
ATOM     30  C   UNL     1       1.748   7.606   5.201  1.00  0.00     0.188 C 
BRANCH  30  31
ATOM     31  O   UNL     1       1.725   8.728   4.327  1.00  0.00    -0.376 OA
BRANCH  31  32
ATOM     32  C   UNL     1       0.529   9.492   4.388  1.00  0.00     0.202 C 
BRANCH  32  33
ATOM     33  C   UNL     1       0.475  10.343   5.654  1.00  0.00     0.261 C 
BRANCH  33  34
ATOM     34  O   UNL     1       0.377   9.517   6.835  1.00  0.00    -0.460 OA
BRANCH  34  35
ATOM     35  C   UNL     1      -0.825   9.413   7.426  1.00  0.00     0.338 C 
ATOM     36  O   UNL     1      -1.859   9.985   7.082  1.00  0.00    -0.246 OA
BRANCH  35  37
ATOM     37  C   UNL     1      -0.757   8.520   8.606  1.00  0.00     0.060 A 
ATOM     38  C   UNL     1      -0.152   7.261   8.555  1.00  0.00     0.016 A 
ATOM     39  C   UNL     1      -1.428   8.900   9.767  1.00  0.00     0.016 A 
ATOM     40  C   UNL     1      -0.289   6.357   9.616  1.00  0.00     0.010 A 
ATOM     41  C   UNL     1      -1.505   8.022  10.855  1.00  0.00     0.010 A 
ATOM     42  C   UNL     1      -0.972   6.722  10.780  1.00  0.00    -0.014 A 
BRANCH  42  43
ATOM     43  C   UNL     1      -1.206   5.752  11.890  1.00  0.00     0.031 A 
ATOM     44  C   UNL     1      -2.616   5.413  12.303  1.00  0.00     0.074 A 
ATOM     45  C   UNL     1      -0.184   5.174  12.552  1.00  0.00     0.049 A 
ATOM     46  N   UNL     1      -3.047   4.811  13.384  1.00  0.00    -0.248 NA
ATOM     47  C   UNL     1      -3.684   5.816  11.375  1.00  0.00     0.031 C 
ATOM     48  C   UNL     1       1.235   5.322  12.232  1.00  0.00     0.029 A 
ATOM     49  N   UNL     1      -0.191   4.349  13.654  1.00  0.00    -0.354 N 
ATOM     50  C   UNL     1      -4.434   4.818  13.296  1.00  0.00     0.074 A 
ATOM     51  C   UNL     1      -4.773   5.482  12.054  1.00  0.00     0.031 C 
ATOM     52  C   UNL     1       1.960   4.610  13.110  1.00  0.00     0.029 A 
ATOM     53  C   UNL     1       1.066   4.022  14.103  1.00  0.00     0.049 A 
ATOM     54  H   UNL     1      -1.018   4.024  14.079  1.00  0.00     0.167 HD
ATOM     55  C   UNL     1      -5.343   4.322  14.171  1.00  0.00     0.037 A 
ATOM     56  C   UNL     1       1.463   3.370  15.214  1.00  0.00     0.037 A 
ATOM     57  C   UNL     1      -5.014   3.618  15.386  1.00  0.00     0.049 A 
ATOM     58  C   UNL     1       0.440   2.880  16.201  1.00  0.00     0.074 A 
ATOM     59  C   UNL     1      -5.872   3.083  16.333  1.00  0.00     0.029 A 
ATOM     60  N   UNL     1      -3.726   3.334  15.813  1.00  0.00    -0.354 N 
ATOM     61  N   UNL     1      -0.867   2.957  16.151  1.00  0.00    -0.248 NA
ATOM     62  C   UNL     1       0.954   2.224  17.413  1.00  0.00     0.031 C 
ATOM     63  C   UNL     1      -5.103   2.509  17.352  1.00  0.00     0.029 A 
ATOM     64  C   UNL     1      -3.767   2.642  17.015  1.00  0.00     0.049 A 
ATOM     65  H   UNL     1      -2.904   3.587  15.335  1.00  0.00     0.167 HD
ATOM     66  C   UNL     1      -1.330   2.341  17.307  1.00  0.00     0.074 A 
ATOM     67  C   UNL     1      -0.166   1.878  18.031  1.00  0.00     0.031 C 
ATOM     68  C   UNL     1      -2.607   2.176  17.730  1.00  0.00     0.037 A 
BRANCH  55  69
ATOM     69  C   UNL     1      -6.795   4.560  13.870  1.00  0.00     0.057 A 
ATOM     70  C   UNL     1      -7.470   3.878  12.851  1.00  0.00     0.134 A 
ATOM     71  C   UNL     1      -7.537   5.461  14.646  1.00  0.00     0.134 A 
ATOM     72  F   UNL     1      -6.814   3.014  12.060  1.00  0.00    -0.206 F 
ATOM     73  C   UNL     1      -8.826   4.098  12.601  1.00  0.00     0.040 A 
ATOM     74  C   UNL     1      -8.898   5.670  14.422  1.00  0.00     0.040 A 
ATOM     75  F   UNL     1      -6.953   6.143  15.643  1.00  0.00    -0.206 F 
ATOM     76  C   UNL     1      -9.546   4.991  13.393  1.00  0.00     0.006 A 
ENDBRANCH  55  69
BRANCH  56  77
ATOM     77  C   UNL     1       2.911   3.178  15.483  1.00  0.00     0.057 A 
ATOM     78  C   UNL     1       3.488   1.903  15.454  1.00  0.00     0.134 A 
ATOM     79  C   UNL     1       3.744   4.257  15.804  1.00  0.00     0.134 A 
ATOM     80  F   UNL     1       2.734   0.827  15.187  1.00  0.00    -0.206 F 
ATOM     81  C   UNL     1       4.839   1.706  15.747  1.00  0.00     0.040 A 
ATOM     82  C   UNL     1       5.102   4.078  16.069  1.00  0.00     0.040 A 
ATOM     83  F   UNL     1       3.250   5.503  15.855  1.00  0.00    -0.206 F 
ATOM     84  C   UNL     1       5.651   2.798  16.049  1.00  0.00     0.006 A 
ENDBRANCH  56  77
BRANCH  68  85
ATOM     85  C   UNL     1      -2.813   1.422  19.014  1.00  0.00     0.057 A 
ATOM     86  C   UNL     1      -2.478   1.971  20.260  1.00  0.00     0.134 A 
ATOM     87  C   UNL     1      -3.352   0.131  19.002  1.00  0.00     0.134 A 
ATOM     88  F   UNL     1      -1.943   3.199  20.341  1.00  0.00    -0.206 F 
ATOM     89  C   UNL     1      -2.640   1.248  21.442  1.00  0.00     0.040 A 
ATOM     90  C   UNL     1      -3.545  -0.592  20.183  1.00  0.00     0.040 A 
ATOM     91  F   UNL     1      -3.704  -0.452  17.846  1.00  0.00    -0.206 F 
ATOM     92  C   UNL     1      -3.179  -0.038  21.405  1.00  0.00     0.006 A 
ENDBRANCH  68  85
ENDBRANCH  42  43
ENDBRANCH  35  37
ENDBRANCH  34  35
ENDBRANCH  33  34
ENDBRANCH  32  33
ENDBRANCH  31  32
ENDBRANCH  30  31
ENDBRANCH   1  30
TORSDOF 21
