REMARK SMILES O=C(OCCOCCOCCOC(=O)c1ccc(-c2c3nc(c(-c4c(F)cccc4F)c4ccc([nH]4)c(-c4c(F)cccc4F)c4nc(c(-c5c(F)cccc5F)c5ccc2[nH]5)C=C4)C=C3)cc1)C1=Cc2cc(S(F)(F)(F)(F)F)cc(Br)c2O[C@@H]1C(F)(F)F
REMARK SMILES IDX 8 1 7 2 6 3 5 4 4 5 3 6 2 7 1 8 69 9 70 10 85 11 71 12 84 13
REMARK SMILES IDX 72 14 83 15 73 16 81 17 80 18 82 19 86 20 87 21 88 22 89 23
REMARK SMILES IDX 74 24 75 25 76 26 77 27 78 28 79 29 9 30 10 31 11 32 12 33
REMARK SMILES IDX 13 34 14 35 15 36 16 37 68 38 17 39 67 40 18 41 19 42 20 43
REMARK SMILES IDX 61 44 21 45 66 46 60 47 62 48 22 49 65 50 59 51 58 52 23 54
REMARK SMILES IDX 49 55 32 56 48 57 33 58 36 59 47 60 63 61 34 62 35 63 46 65
REMARK SMILES IDX 64 66 37 67 24 68 25 69 30 70 26 71 27 72 29 73 31 74 28 75
REMARK SMILES IDX 50 76 51 77 56 78 52 79 53 80 55 81 57 82 54 83 38 84 39 85
REMARK SMILES IDX 44 86 40 87 41 88 43 89 45 90 42 91
REMARK H PARENT 62 53 36 64
REMARK Flexibility Score: inf
ROOT
ATOM      1  C   UNL     1       2.582   1.478   2.080  1.00  0.00     0.188 C 
ENDROOT
BRANCH   1   2
ATOM      2  C   UNL     1       3.088   0.152   1.537  1.00  0.00     0.188 C 
BRANCH   2   3
ATOM      3  O   UNL     1       4.508   0.152   1.537  1.00  0.00    -0.376 OA
BRANCH   3   4
ATOM      4  C   UNL     1       4.981   1.210   0.718  1.00  0.00     0.202 C 
BRANCH   4   5
ATOM      5  C   UNL     1       4.475   1.017  -0.703  1.00  0.00     0.261 C 
BRANCH   5   6
ATOM      6  O   UNL     1       3.055   1.017  -0.703  1.00  0.00    -0.460 OA
BRANCH   6   7
ATOM      7  C   UNL     1       2.345   0.045   0.050  1.00  0.00     0.338 C 
ATOM      8  O   UNL     1       1.074   0.045   0.050  1.00  0.00    -0.246 OA
BRANCH   7   9
ATOM      9  C   UNL     1       3.105  -0.996   0.856  1.00  0.00     0.087 C 
ATOM     10  C   UNL     1       4.465  -0.996   0.856  1.00  0.00     0.027 C 
ATOM     11  C   UNL     1       2.345  -2.037   1.661  1.00  0.00     0.316 C 
ATOM     12  C   UNL     1       5.225   0.045   0.050  1.00  0.00     0.020 A 
ATOM     13  O   UNL     1       3.616   1.548   0.943  1.00  0.00    -0.474 OA
ATOM     14  C   UNL     1       6.253  -0.270  -0.823  1.00  0.00     0.036 A 
ATOM     15  C   UNL     1       4.773   1.288   0.162  1.00  0.00     0.142 A 
ATOM     16  C   UNL     1       6.940   0.859  -1.330  1.00  0.00     0.109 A 
ATOM     17  C   UNL     1       5.413   2.325  -0.472  1.00  0.00     0.062 A 
ATOM     18  C   UNL     1       6.474   2.094  -1.303  1.00  0.00     0.044 A 
ATOM     19  Br  UNL     1       4.799   4.163  -0.179  1.00  0.00    -0.047 Br
BRANCH  11  20
ATOM     20  C   UNL     1       2.712  -1.908   3.131  1.00  0.00     0.430 C 
ATOM     21  F   UNL     1       2.391  -0.692   3.563  1.00  0.00    -0.167 F 
ATOM     22  F   UNL     1       2.047  -2.819   3.836  1.00  0.00    -0.167 F 
ATOM     23  F   UNL     1       4.020  -2.100   3.280  1.00  0.00    -0.167 F 
ENDBRANCH  11  20
BRANCH  16  24
ATOM     24  S   UNL     1       8.571   0.591  -2.068  1.00  0.00     0.310 S 
ATOM     25  F   UNL     1       9.281   0.544  -0.650  1.00  0.00    -0.094 F 
ATOM     26  F   UNL     1       8.804   2.149  -2.057  1.00  0.00    -0.094 F 
ATOM     27  F   UNL     1       9.969   0.358  -2.707  1.00  0.00    -0.094 F 
ATOM     28  F   UNL     1       8.378  -0.972  -1.941  1.00  0.00    -0.094 F 
ATOM     29  F   UNL     1       7.198   0.806  -1.315  1.00  0.00    -0.094 F 
ENDBRANCH  16  24
ENDBRANCH   7   9
ENDBRANCH   6   7
ENDBRANCH   5   6
ENDBRANCH   4   5
ENDBRANCH   3   4
ENDBRANCH   2   3
ENDBRANCH   1   2
BRANCH   1  30
ATOM     30  O   UNL     1       3.055   2.537   1.260  1.00  0.00    -0.376 OA
BRANCH  30  31
ATOM     31  C   UNL     1       4.475   2.537   1.260  1.00  0.00     0.202 C 
BRANCH  31  32
ATOM     32  C   UNL     1       4.981   2.730   2.680  1.00  0.00     0.261 C 
BRANCH  32  33
ATOM     33  O   UNL     1       4.508   1.671   3.500  1.00  0.00    -0.460 OA
BRANCH  33  34
ATOM     34  C   UNL     1       3.112   1.466   3.659  1.00  0.00     0.338 C 
ATOM     35  O   UNL     1       2.286   2.230   3.067  1.00  0.00    -0.246 OA
BRANCH  34  36
ATOM     36  C   UNL     1       2.606   0.332   4.536  1.00  0.00     0.060 A 
ATOM     37  C   UNL     1       1.475  -0.389   4.190  1.00  0.00     0.016 A 
ATOM     38  C   UNL     1       3.191   0.171   5.717  1.00  0.00     0.016 A 
ATOM     39  C   UNL     1       0.863  -1.053   5.279  1.00  0.00     0.010 A 
ATOM     40  C   UNL     1       2.603  -0.602   6.689  1.00  0.00     0.010 A 
ATOM     41  C   UNL     1       1.453  -1.296   6.436  1.00  0.00    -0.014 A 
BRANCH  41  42
ATOM     42  C   UNL     1       0.884  -2.294   7.431  1.00  0.00     0.031 A 
ATOM     43  C   UNL     1       0.561  -1.751   8.676  1.00  0.00     0.074 A 
ATOM     44  C   UNL     1       0.573  -3.587   7.046  1.00  0.00     0.049 A 
ATOM     45  N   UNL     1      -0.108  -2.337   9.670  1.00  0.00    -0.248 NA
ATOM     46  C   UNL     1       0.920  -0.390   9.100  1.00  0.00     0.031 C 
ATOM     47  C   UNL     1       0.888  -4.138   5.788  1.00  0.00     0.029 A 
ATOM     48  N   UNL     1      -0.078  -4.554   7.779  1.00  0.00    -0.354 N 
ATOM     49  C   UNL     1      -0.239  -1.495  10.697  1.00  0.00     0.074 A 
ATOM     50  C   UNL     1       0.426  -0.233  10.347  1.00  0.00     0.031 C 
ATOM     51  C   UNL     1       0.444  -5.423   5.769  1.00  0.00     0.029 A 
ATOM     52  C   UNL     1      -0.157  -5.695   7.012  1.00  0.00     0.049 A 
ATOM     53  H   UNL     1      -0.427  -4.447   8.694  1.00  0.00     0.167 HD
ATOM     54  C   UNL     1      -0.889  -1.730  11.910  1.00  0.00     0.037 A 
ATOM     55  C   UNL     1      -0.715  -6.915   7.361  1.00  0.00     0.037 A 
ATOM     56  C   UNL     1      -1.485  -2.936  12.241  1.00  0.00     0.049 A 
ATOM     57  C   UNL     1      -1.314  -7.168   8.597  1.00  0.00     0.074 A 
ATOM     58  C   UNL     1      -2.151  -3.187  13.457  1.00  0.00     0.029 A 
ATOM     59  N   UNL     1      -1.542  -4.085  11.484  1.00  0.00    -0.354 N 
ATOM     60  N   UNL     1      -1.479  -6.314   9.608  1.00  0.00    -0.248 NA
ATOM     61  C   UNL     1      -1.879  -8.466   8.989  1.00  0.00     0.031 C 
ATOM     62  C   UNL     1      -2.595  -4.472  13.437  1.00  0.00     0.029 A 
ATOM     63  C   UNL     1      -2.213  -5.045  12.209  1.00  0.00     0.049 A 
ATOM     64  H   UNL     1      -1.168  -4.200  10.581  1.00  0.00     0.167 HD
ATOM     65  C   UNL     1      -2.112  -6.914  10.618  1.00  0.00     0.074 A 
ATOM     66  C   UNL     1      -2.372  -8.309  10.238  1.00  0.00     0.031 C 
ATOM     67  C   UNL     1      -2.487  -6.353  11.840  1.00  0.00     0.037 A 
BRANCH  54  68
ATOM     68  C   UNL     1      -0.946  -0.599  12.924  1.00  0.00     0.057 A 
ATOM     69  C   UNL     1      -1.540   0.612  12.608  1.00  0.00     0.134 A 
ATOM     70  C   UNL     1      -0.392  -0.805  14.113  1.00  0.00     0.134 A 
ATOM     71  F   UNL     1      -2.320   0.781  11.543  1.00  0.00    -0.206 F 
ATOM     72  C   UNL     1      -1.242   1.652  13.520  1.00  0.00     0.040 A 
ATOM     73  C   UNL     1      -0.256   0.228  15.009  1.00  0.00     0.040 A 
ATOM     74  F   UNL     1       0.035  -2.021  14.439  1.00  0.00    -0.206 F 
ATOM     75  C   UNL     1      -0.767   1.466  14.738  1.00  0.00     0.006 A 
ENDBRANCH  54  68
BRANCH  55  76
ATOM     76  C   UNL     1      -0.673  -8.040   6.340  1.00  0.00     0.057 A 
ATOM     77  C   UNL     1      -1.876  -8.570   5.903  1.00  0.00     0.134 A 
ATOM     78  C   UNL     1       0.487  -8.493   5.880  1.00  0.00     0.134 A 
ATOM     79  F   UNL     1      -3.050  -7.991   6.136  1.00  0.00    -0.206 F 
ATOM     80  C   UNL     1      -1.741  -9.782   5.185  1.00  0.00     0.040 A 
ATOM     81  C   UNL     1       0.534  -9.604   5.071  1.00  0.00     0.040 A 
ATOM     82  F   UNL     1       1.615  -7.867   6.203  1.00  0.00    -0.206 F 
ATOM     83  C   UNL     1      -0.615 -10.213   4.648  1.00  0.00     0.006 A 
ENDBRANCH  55  76
BRANCH  67  84
ATOM     84  C   UNL     1      -3.240  -7.230  12.827  1.00  0.00     0.057 A 
ATOM     85  C   UNL     1      -2.751  -8.462  13.229  1.00  0.00     0.134 A 
ATOM     86  C   UNL     1      -4.451  -6.819  13.185  1.00  0.00     0.134 A 
ATOM     87  F   UNL     1      -1.472  -8.807  13.113  1.00  0.00    -0.206 F 
ATOM     88  C   UNL     1      -3.736  -9.320  13.774  1.00  0.00     0.040 A 
ATOM     89  C   UNL     1      -5.314  -7.668  13.836  1.00  0.00     0.040 A 
ATOM     90  F   UNL     1      -4.833  -5.575  12.912  1.00  0.00    -0.206 F 
ATOM     91  C   UNL     1      -4.917  -8.922  14.212  1.00  0.00     0.006 A 
ENDBRANCH  67  84
ENDBRANCH  41  42
ENDBRANCH  34  36
ENDBRANCH  33  34
ENDBRANCH  32  33
ENDBRANCH  31  32
ENDBRANCH  30  31
ENDBRANCH   1  30
TORSDOF 19
