REMARK SMILES CC(C)(C)[NH2+]CC(=O)N1Cc2nc[nH]c2C[C@@H]1C(=O)OCCOCCOCCOC(=O)c1ccc(-c2c3nc(c(-c4c(F)cccc4F)c4ccc([nH]4)c(-c4c(F)cccc4F)c4nc(c(-c5c(F)cccc5F)c5ccc2[nH]5)C=C4)C=C3)cc1
REMARK SMILES IDX 24 1 23 2 22 3 21 4 20 5 18 6 19 7 17 8 9 9 10 10 11 11
REMARK SMILES IDX 16 12 12 13 15 14 13 15 14 16 7 18 8 19 6 20 5 21 2 24 1 25
REMARK SMILES IDX 3 26 4 27 25 28 26 29 27 30 28 31 29 32 30 33 31 34 32 35
REMARK SMILES IDX 33 36 85 37 34 38 84 39 35 40 36 41 37 42 78 43 38 44 83 45
REMARK SMILES IDX 77 46 79 47 39 48 82 49 76 50 75 51 40 53 66 54 49 55 65 56
REMARK SMILES IDX 50 57 53 58 64 59 80 60 51 61 52 62 63 64 81 65 54 66 41 67
REMARK SMILES IDX 42 68 47 69 43 70 44 71 46 72 48 73 45 74 67 75 68 76 73 77
REMARK SMILES IDX 69 78 70 79 72 80 74 81 71 82 55 83 56 84 61 85 57 86 58 87
REMARK SMILES IDX 60 88 62 89 59 90
REMARK H PARENT 14 17 5 22 5 23 79 52 53 63
REMARK Flexibility Score: inf
ROOT
ATOM      1  C   UNL     1      -2.000  -1.382  -4.001  1.00  0.00     0.188 C 
ENDROOT
BRANCH   1   2
ATOM      2  O   UNL     1      -3.060  -0.460  -3.916  1.00  0.00    -0.376 OA
BRANCH   2   3
ATOM      3  C   UNL     1      -3.005   0.351  -2.762  1.00  0.00     0.202 C 
BRANCH   3   4
ATOM      4  C   UNL     1      -1.628   0.933  -2.525  1.00  0.00     0.261 C 
BRANCH   4   5
ATOM      5  O   UNL     1      -0.485   0.031  -2.262  1.00  0.00    -0.462 OA
BRANCH   5   6
ATOM      6  C   UNL     1      -0.244  -0.879  -1.296  1.00  0.00     0.329 C 
ATOM      7  O   UNL     1      -1.125  -1.245  -0.522  1.00  0.00    -0.250 OA
BRANCH   6   8
ATOM      8  C   UNL     1       1.203  -1.643  -1.439  1.00  0.00     0.201 C 
ATOM      9  N   UNL     1       2.756  -1.217  -1.596  1.00  0.00    -0.318 N 
ATOM     10  C   UNL     1       3.734  -2.348  -1.546  1.00  0.00     0.178 C 
ATOM     11  C   UNL     1       3.211  -3.579  -2.201  1.00  0.00     0.081 A 
ATOM     12  C   UNL     1       0.825  -2.801  -2.415  1.00  0.00     0.093 C 
ATOM     13  N   UNL     1       3.957  -4.688  -2.519  1.00  0.00    -0.240 NA
ATOM     14  C   UNL     1       1.907  -3.776  -2.564  1.00  0.00     0.042 A 
ATOM     15  C   UNL     1       3.119  -5.516  -3.110  1.00  0.00     0.197 A 
ATOM     16  N   UNL     1       1.853  -5.000  -3.164  1.00  0.00    -0.348 N 
ATOM     17  H   UNL     1       1.059  -5.427  -3.559  1.00  0.00     0.167 HD
BRANCH   9  18
ATOM     18  C   UNL     1       3.393  -0.037  -2.043  1.00  0.00     0.278 C 
ATOM     19  O   UNL     1       3.931  -0.041  -3.163  1.00  0.00    -0.268 OA
BRANCH  18  20
ATOM     20  C   UNL     1       3.855   1.139  -1.033  1.00  0.00     0.362 C 
BRANCH  20  21
ATOM     21  N   UNL     1       2.885   2.146  -0.446  1.00  0.00    -0.334 N 
ATOM     22  H   UNL     1       3.121   2.296   0.535  1.00  0.00     0.347 HD
ATOM     23  H   UNL     1       2.967   3.009  -0.984  1.00  0.00     0.347 HD
BRANCH  21  24
ATOM     24  C   UNL     1       1.508   1.695  -0.532  1.00  0.00     0.088 C 
ATOM     25  C   UNL     1       1.556   0.538   0.511  1.00  0.00     0.078 C 
ATOM     26  C   UNL     1       1.327   1.738  -2.090  1.00  0.00     0.078 C 
ATOM     27  C   UNL     1       0.386   2.580   0.053  1.00  0.00     0.078 C 
ENDBRANCH  21  24
ENDBRANCH  20  21
ENDBRANCH  18  20
ENDBRANCH   9  18
ENDBRANCH   6   8
ENDBRANCH   5   6
ENDBRANCH   4   5
ENDBRANCH   3   4
ENDBRANCH   2   3
ENDBRANCH   1   2
BRANCH   1  28
ATOM     28  C   UNL     1      -0.839  -1.008  -4.956  1.00  0.00     0.188 C 
BRANCH  28  29
ATOM     29  O   UNL     1      -1.036  -0.256  -6.144  1.00  0.00    -0.376 OA
BRANCH  29  30
ATOM     30  C   UNL     1      -2.318  -0.134  -6.726  1.00  0.00     0.202 C 
BRANCH  30  31
ATOM     31  C   UNL     1      -2.866  -1.380  -7.407  1.00  0.00     0.261 C 
BRANCH  31  32
ATOM     32  O   UNL     1      -3.096  -2.430  -6.486  1.00  0.00    -0.460 OA
BRANCH  32  33
ATOM     33  C   UNL     1      -2.114  -3.351  -6.346  1.00  0.00     0.338 C 
ATOM     34  O   UNL     1      -1.071  -3.446  -6.946  1.00  0.00    -0.246 OA
BRANCH  33  35
ATOM     35  C   UNL     1      -2.555  -4.282  -5.287  1.00  0.00     0.060 A 
ATOM     36  C   UNL     1      -1.723  -5.366  -5.042  1.00  0.00     0.016 A 
ATOM     37  C   UNL     1      -3.901  -4.240  -4.890  1.00  0.00     0.016 A 
ATOM     38  C   UNL     1      -2.353  -6.566  -4.903  1.00  0.00     0.010 A 
ATOM     39  C   UNL     1      -4.536  -5.429  -4.791  1.00  0.00     0.010 A 
ATOM     40  C   UNL     1      -3.749  -6.557  -4.973  1.00  0.00    -0.014 A 
BRANCH  40  41
ATOM     41  C   UNL     1      -4.421  -7.794  -5.242  1.00  0.00     0.031 A 
ATOM     42  C   UNL     1      -4.398  -8.631  -4.034  1.00  0.00     0.074 A 
ATOM     43  C   UNL     1      -5.013  -7.969  -6.440  1.00  0.00     0.049 A 
ATOM     44  N   UNL     1      -3.758  -9.735  -3.860  1.00  0.00    -0.248 NA
ATOM     45  C   UNL     1      -4.890  -8.022  -2.780  1.00  0.00     0.031 C 
ATOM     46  C   UNL     1      -5.170  -6.979  -7.521  1.00  0.00     0.029 A 
ATOM     47  N   UNL     1      -5.732  -9.028  -6.894  1.00  0.00    -0.354 N 
ATOM     48  C   UNL     1      -4.048 -10.102  -2.551  1.00  0.00     0.074 A 
ATOM     49  C   UNL     1      -4.474  -8.911  -1.880  1.00  0.00     0.031 C 
ATOM     50  C   UNL     1      -6.135  -7.390  -8.372  1.00  0.00     0.029 A 
ATOM     51  C   UNL     1      -6.560  -8.716  -7.976  1.00  0.00     0.049 A 
ATOM     52  H   UNL     1      -5.676  -9.929  -6.500  1.00  0.00     0.167 HD
ATOM     53  C   UNL     1      -4.335 -11.404  -2.287  1.00  0.00     0.037 A 
ATOM     54  C   UNL     1      -7.588  -9.490  -8.402  1.00  0.00     0.037 A 
ATOM     55  C   UNL     1      -3.783 -12.245  -3.327  1.00  0.00     0.049 A 
ATOM     56  C   UNL     1      -7.355 -10.845  -7.841  1.00  0.00     0.074 A 
ATOM     57  C   UNL     1      -2.519 -12.577  -3.765  1.00  0.00     0.029 A 
ATOM     58  N   UNL     1      -4.652 -12.514  -4.354  1.00  0.00    -0.354 N 
ATOM     59  N   UNL     1      -6.354 -11.607  -8.192  1.00  0.00    -0.248 NA
ATOM     60  C   UNL     1      -7.972 -11.180  -6.565  1.00  0.00     0.031 C 
ATOM     61  C   UNL     1      -2.643 -12.815  -5.166  1.00  0.00     0.029 A 
ATOM     62  C   UNL     1      -3.983 -12.681  -5.533  1.00  0.00     0.049 A 
ATOM     63  H   UNL     1      -5.630 -12.578  -4.255  1.00  0.00     0.167 HD
ATOM     64  C   UNL     1      -5.949 -12.220  -7.015  1.00  0.00     0.074 A 
ATOM     65  C   UNL     1      -7.065 -12.040  -6.091  1.00  0.00     0.031 C 
ATOM     66  C   UNL     1      -4.633 -12.535  -6.819  1.00  0.00     0.037 A 
BRANCH  53  67
ATOM     67  C   UNL     1      -5.570 -11.829  -1.502  1.00  0.00     0.057 A 
ATOM     68  C   UNL     1      -5.816 -13.208  -1.375  1.00  0.00     0.134 A 
ATOM     69  C   UNL     1      -6.668 -11.004  -1.166  1.00  0.00     0.134 A 
ATOM     70  F   UNL     1      -4.853 -14.104  -1.640  1.00  0.00    -0.206 F 
ATOM     71  C   UNL     1      -7.081 -13.723  -1.068  1.00  0.00     0.040 A 
ATOM     72  C   UNL     1      -7.925 -11.509  -0.824  1.00  0.00     0.040 A 
ATOM     73  F   UNL     1      -6.637  -9.670  -1.218  1.00  0.00    -0.206 F 
ATOM     74  C   UNL     1      -8.147 -12.873  -0.811  1.00  0.00     0.006 A 
ENDBRANCH  53  67
BRANCH  54  75
ATOM     75  C   UNL     1      -8.899  -9.065  -8.941  1.00  0.00     0.057 A 
ATOM     76  C   UNL     1      -9.726  -9.964  -9.629  1.00  0.00     0.134 A 
ATOM     77  C   UNL     1      -9.494  -7.849  -8.557  1.00  0.00     0.134 A 
ATOM     78  F   UNL     1      -9.262 -11.166  -9.998  1.00  0.00    -0.206 F 
ATOM     79  C   UNL     1     -11.072  -9.681  -9.898  1.00  0.00     0.040 A 
ATOM     80  C   UNL     1     -10.834  -7.552  -8.825  1.00  0.00     0.040 A 
ATOM     81  F   UNL     1      -8.819  -6.948  -7.829  1.00  0.00    -0.206 F 
ATOM     82  C   UNL     1     -11.634  -8.476  -9.486  1.00  0.00     0.006 A 
ENDBRANCH  54  75
BRANCH  66  83
ATOM     83  C   UNL     1      -3.750 -12.575  -8.034  1.00  0.00     0.057 A 
ATOM     84  C   UNL     1      -3.381 -11.455  -8.793  1.00  0.00     0.134 A 
ATOM     85  C   UNL     1      -3.157 -13.795  -8.374  1.00  0.00     0.134 A 
ATOM     86  F   UNL     1      -3.835 -10.232  -8.486  1.00  0.00    -0.206 F 
ATOM     87  C   UNL     1      -2.489 -11.555  -9.865  1.00  0.00     0.040 A 
ATOM     88  C   UNL     1      -2.239 -13.903  -9.419  1.00  0.00     0.040 A 
ATOM     89  F   UNL     1      -3.427 -14.899  -7.659  1.00  0.00    -0.206 F 
ATOM     90  C   UNL     1      -1.909 -12.782 -10.176  1.00  0.00     0.006 A 
ENDBRANCH  66  83
ENDBRANCH  40  41
ENDBRANCH  33  35
ENDBRANCH  32  33
ENDBRANCH  31  32
ENDBRANCH  30  31
ENDBRANCH  29  30
ENDBRANCH  28  29
ENDBRANCH   1  28
TORSDOF 21
