REMARK SMILES CC(C)C[C@H](Nc1ncnc2scc(-c3ccccc3)c12)C(=O)OCCOCCOCCOC(=O)c1ccc(-c2c3nc(c(-c4c(F)cccc4F)c4ccc([nH]4)c(-c4c(F)cccc4F)c4nc(c(-c5c(F)cccc5F)c5ccc2[nH]5)C=C4)C=C3)cc1
REMARK SMILES IDX 28 1 27 2 26 3 25 4 24 5 22 6 23 7 5 8 4 9 2 10 1 11 3 12
REMARK SMILES IDX 6 13 7 15 8 16 21 17 9 18 11 19 14 20 10 21 12 22 13 23
REMARK SMILES IDX 15 24 16 25 20 26 17 27 19 28 18 29 29 30 30 31 31 32 32 33
REMARK SMILES IDX 33 34 34 35 35 36 36 37 37 38 89 39 38 40 88 41 39 42 40 43
REMARK SMILES IDX 41 44 82 45 42 46 87 47 81 48 83 49 43 50 86 51 80 52 79 53
REMARK SMILES IDX 44 55 70 56 53 57 69 58 54 59 57 60 68 61 84 62 55 63 56 64
REMARK SMILES IDX 67 66 85 67 58 68 45 69 46 70 51 71 47 72 48 73 50 74 52 75
REMARK SMILES IDX 49 76 71 77 72 78 77 79 73 80 74 81 76 82 78 83 75 84 59 85
REMARK SMILES IDX 60 86 65 87 61 88 62 89 64 90 66 91 63 92
REMARK H PARENT 6 14 83 54 57 65
REMARK Flexibility Score: inf
ROOT
ATOM      1  C   UNL     1      -4.704  -0.380   0.309  1.00  0.00     0.188 C 
ENDROOT
BRANCH   1   2
ATOM      2  O   UNL     1      -5.671  -0.017  -0.672  1.00  0.00    -0.376 OA
BRANCH   2   3
ATOM      3  C   UNL     1      -5.662  -0.660  -1.933  1.00  0.00     0.202 C 
BRANCH   3   4
ATOM      4  C   UNL     1      -4.649  -0.126  -2.942  1.00  0.00     0.261 C 
BRANCH   4   5
ATOM      5  O   UNL     1      -3.278  -0.311  -2.553  1.00  0.00    -0.462 OA
BRANCH   5   6
ATOM      6  C   UNL     1      -2.694   0.764  -1.954  1.00  0.00     0.328 C 
ATOM      7  O   UNL     1      -3.287   1.801  -1.665  1.00  0.00    -0.250 OA
BRANCH   6   8
ATOM      8  C   UNL     1      -1.174   0.640  -1.835  1.00  0.00     0.191 C 
BRANCH   8   9
ATOM      9  C   UNL     1      -0.595   1.112  -3.180  1.00  0.00     0.040 C 
BRANCH   9  10
ATOM     10  C   UNL     1      -0.657   2.628  -3.438  1.00  0.00    -0.015 C 
ATOM     11  C   UNL     1       0.243   3.395  -2.469  1.00  0.00     0.007 C 
ATOM     12  C   UNL     1      -0.229   2.909  -4.880  1.00  0.00     0.007 C 
ENDBRANCH   9  10
ENDBRANCH   8   9
BRANCH   8  13
ATOM     13  N   UNL     1      -0.663  -0.723  -1.558  1.00  0.00    -0.356 N 
ATOM     14  H   UNL     1      -0.842  -1.481  -2.160  1.00  0.00     0.163 HD
BRANCH  13  15
ATOM     15  C   UNL     1       0.088  -0.866  -0.391  1.00  0.00     0.139 A 
ATOM     16  N   UNL     1      -0.532  -0.603   0.785  1.00  0.00    -0.219 NA
ATOM     17  C   UNL     1       1.457  -1.253  -0.355  1.00  0.00     0.062 A 
ATOM     18  C   UNL     1       0.160  -0.746   1.928  1.00  0.00     0.225 A 
ATOM     19  C   UNL     1       2.046  -1.278   0.905  1.00  0.00     0.129 A 
ATOM     20  C   UNL     1       2.446  -1.625  -1.345  1.00  0.00     0.006 A 
ATOM     21  N   UNL     1       1.443  -1.049   2.076  1.00  0.00    -0.225 NA
ATOM     22  S   UNL     1       3.708  -1.637   0.888  1.00  0.00    -0.123 S 
ATOM     23  C   UNL     1       3.702  -1.824  -0.801  1.00  0.00     0.076 A 
BRANCH  20  24
ATOM     24  C   UNL     1       2.270  -1.835  -2.768  1.00  0.00    -0.017 A 
ATOM     25  C   UNL     1       2.003  -3.123  -3.242  1.00  0.00     0.009 A 
ATOM     26  C   UNL     1       2.398  -0.773  -3.664  1.00  0.00     0.009 A 
ATOM     27  C   UNL     1       1.832  -3.339  -4.608  1.00  0.00     0.001 A 
ATOM     28  C   UNL     1       2.194  -0.986  -5.028  1.00  0.00     0.001 A 
ATOM     29  C   UNL     1       1.911  -2.268  -5.498  1.00  0.00     0.000 A 
ENDBRANCH  20  24
ENDBRANCH  13  15
ENDBRANCH   8  13
ENDBRANCH   6   8
ENDBRANCH   5   6
ENDBRANCH   4   5
ENDBRANCH   3   4
ENDBRANCH   2   3
ENDBRANCH   1   2
BRANCH   1  30
ATOM     30  C   UNL     1      -3.963  -1.731   0.226  1.00  0.00     0.188 C 
BRANCH  30  31
ATOM     31  O   UNL     1      -4.729  -2.904  -0.031  1.00  0.00    -0.376 OA
BRANCH  31  32
ATOM     32  C   UNL     1      -5.921  -3.091   0.727  1.00  0.00     0.202 C 
BRANCH  32  33
ATOM     33  C   UNL     1      -5.694  -3.277   2.225  1.00  0.00     0.261 C 
BRANCH  33  34
ATOM     34  O   UNL     1      -5.410  -2.007   2.842  1.00  0.00    -0.460 OA
BRANCH  34  35
ATOM     35  C   UNL     1      -4.470  -2.027   3.798  1.00  0.00     0.338 C 
ATOM     36  O   UNL     1      -3.905  -3.015   4.273  1.00  0.00    -0.246 OA
BRANCH  35  37
ATOM     37  C   UNL     1      -4.095  -0.664   4.191  1.00  0.00     0.060 A 
ATOM     38  C   UNL     1      -3.019  -0.055   3.542  1.00  0.00     0.016 A 
ATOM     39  C   UNL     1      -4.618  -0.110   5.357  1.00  0.00     0.016 A 
ATOM     40  C   UNL     1      -2.363   1.023   4.136  1.00  0.00     0.010 A 
ATOM     41  C   UNL     1      -3.983   0.996   5.932  1.00  0.00     0.010 A 
ATOM     42  C   UNL     1      -2.796   1.509   5.374  1.00  0.00    -0.014 A 
BRANCH  42  43
ATOM     43  C   UNL     1      -1.890   2.356   6.200  1.00  0.00     0.031 A 
ATOM     44  C   UNL     1      -1.303   1.765   7.461  1.00  0.00     0.074 A 
ATOM     45  C   UNL     1      -1.519   3.592   5.823  1.00  0.00     0.049 A 
ATOM     46  N   UNL     1      -0.648   2.351   8.431  1.00  0.00    -0.248 NA
ATOM     47  C   UNL     1      -1.489   0.317   7.654  1.00  0.00     0.031 C 
ATOM     48  C   UNL     1      -1.906   4.257   4.581  1.00  0.00     0.029 A 
ATOM     49  N   UNL     1      -0.716   4.509   6.458  1.00  0.00    -0.354 N 
ATOM     50  C   UNL     1      -0.409   1.360   9.377  1.00  0.00     0.074 A 
ATOM     51  C   UNL     1      -0.981   0.135   8.863  1.00  0.00     0.031 C 
ATOM     52  C   UNL     1      -1.331   5.471   4.538  1.00  0.00     0.029 A 
ATOM     53  C   UNL     1      -0.587   5.693   5.776  1.00  0.00     0.049 A 
ATOM     54  H   UNL     1      -0.276   4.333   7.321  1.00  0.00     0.167 HD
ATOM     55  C   UNL     1       0.227   1.459  10.569  1.00  0.00     0.037 A 
ATOM     56  C   UNL     1       0.031   6.838   6.127  1.00  0.00     0.037 A 
ATOM     57  C   UNL     1       0.866   2.654  11.050  1.00  0.00     0.049 A 
ATOM     58  C   UNL     1       0.712   6.938   7.466  1.00  0.00     0.074 A 
ATOM     59  C   UNL     1       1.524   2.861  12.250  1.00  0.00     0.029 A 
ATOM     60  N   UNL     1       0.952   3.838  10.335  1.00  0.00    -0.354 N 
ATOM     61  N   UNL     1       0.845   6.026   8.398  1.00  0.00    -0.248 NA
ATOM     62  C   UNL     1       1.315   8.235   7.806  1.00  0.00     0.031 C 
ATOM     63  C   UNL     1       1.994   4.179  12.268  1.00  0.00     0.029 A 
ATOM     64  C   UNL     1       1.655   4.780  11.066  1.00  0.00     0.049 A 
ATOM     65  H   UNL     1       0.570   3.987   9.440  1.00  0.00     0.167 HD
ATOM     66  C   UNL     1       1.564   6.630   9.422  1.00  0.00     0.074 A 
ATOM     67  C   UNL     1       1.850   7.983   8.992  1.00  0.00     0.031 C 
ATOM     68  C   UNL     1       1.950   6.113  10.614  1.00  0.00     0.037 A 
BRANCH  55  69
ATOM     69  C   UNL     1       0.223   0.248  11.453  1.00  0.00     0.057 A 
ATOM     70  C   UNL     1       1.031  -0.866  11.201  1.00  0.00     0.134 A 
ATOM     71  C   UNL     1      -0.604   0.207  12.584  1.00  0.00     0.134 A 
ATOM     72  F   UNL     1       1.829  -0.897  10.123  1.00  0.00    -0.206 F 
ATOM     73  C   UNL     1       1.000  -1.990  12.029  1.00  0.00     0.040 A 
ATOM     74  C   UNL     1      -0.626  -0.901  13.432  1.00  0.00     0.040 A 
ATOM     75  F   UNL     1      -1.401   1.244  12.883  1.00  0.00    -0.206 F 
ATOM     76  C   UNL     1       0.173  -2.007  13.152  1.00  0.00     0.006 A 
ENDBRANCH  55  69
BRANCH  56  77
ATOM     77  C   UNL     1       0.012   8.004   5.209  1.00  0.00     0.057 A 
ATOM     78  C   UNL     1       1.178   8.438   4.568  1.00  0.00     0.134 A 
ATOM     79  C   UNL     1      -1.163   8.728   4.974  1.00  0.00     0.134 A 
ATOM     80  F   UNL     1       2.340   7.803   4.777  1.00  0.00    -0.206 F 
ATOM     81  C   UNL     1       1.179   9.559   3.735  1.00  0.00     0.040 A 
ATOM     82  C   UNL     1      -1.181   9.835   4.125  1.00  0.00     0.040 A 
ATOM     83  F   UNL     1      -2.311   8.365   5.563  1.00  0.00    -0.206 F 
ATOM     84  C   UNL     1      -0.005  10.257   3.508  1.00  0.00     0.006 A 
ENDBRANCH  56  77
BRANCH  68  85
ATOM     85  C   UNL     1       2.763   6.995  11.513  1.00  0.00     0.057 A 
ATOM     86  C   UNL     1       2.185   8.041  12.241  1.00  0.00     0.134 A 
ATOM     87  C   UNL     1       4.136   6.770  11.675  1.00  0.00     0.134 A 
ATOM     88  F   UNL     1       0.877   8.313  12.119  1.00  0.00    -0.206 F 
ATOM     89  C   UNL     1       2.950   8.849  13.085  1.00  0.00     0.040 A 
ATOM     90  C   UNL     1       4.907   7.559  12.530  1.00  0.00     0.040 A 
ATOM     91  F   UNL     1       4.748   5.778  11.011  1.00  0.00    -0.206 F 
ATOM     92  C   UNL     1       4.314   8.605  13.234  1.00  0.00     0.006 A 
ENDBRANCH  68  85
ENDBRANCH  42  43
ENDBRANCH  35  37
ENDBRANCH  34  35
ENDBRANCH  33  34
ENDBRANCH  32  33
ENDBRANCH  31  32
ENDBRANCH  30  31
ENDBRANCH   1  30
TORSDOF 22
