REMARK SMILES C[C@@H](c1ccccc1)[C@@H]1[NH2+][C@@H](C(=O)OCCOCCOCCOC(=O)c2ccc(-c3c4nc(c(-c5c(F)cccc5F)c5ccc([nH]5)c(-c5c(F)cccc5F)c5nc(c(-c6c(F)cccc6F)c6ccc3[nH]6)C=C5)C=C4)cc2)CS1
REMARK SMILES IDX 18 1 17 2 16 3 15 4 14 5 12 6 13 7 11 8 9 9 10 10 81 11
REMARK SMILES IDX 80 14 2 15 1 16 3 17 4 18 8 19 5 20 7 21 6 22 19 23 20 24
REMARK SMILES IDX 21 25 22 26 23 27 24 28 25 29 26 30 27 31 79 32 28 33 78 34
REMARK SMILES IDX 29 35 30 36 31 37 72 38 32 39 77 40 71 41 73 42 33 43 76 44
REMARK SMILES IDX 70 45 69 46 34 48 60 49 43 50 59 51 44 52 47 53 58 54 74 55
REMARK SMILES IDX 45 56 46 57 57 59 75 60 48 61 35 62 36 63 41 64 37 65 38 66
REMARK SMILES IDX 40 67 42 68 39 69 61 70 62 71 67 72 63 73 64 74 66 75 68 76
REMARK SMILES IDX 65 77 49 78 50 79 55 80 51 81 52 82 54 83 56 84 53 85
REMARK H PARENT 10 12 10 13 73 47 47 58
REMARK Flexibility Score: inf
ROOT
ATOM      1  C   UNL     1      -4.703  -0.937  -0.925  1.00  0.00     0.188 C 
ENDROOT
BRANCH   1   2
ATOM      2  O   UNL     1      -5.472  -1.668  -1.876  1.00  0.00    -0.376 OA
BRANCH   2   3
ATOM      3  C   UNL     1      -5.063  -2.974  -2.247  1.00  0.00     0.202 C 
BRANCH   3   4
ATOM      4  C   UNL     1      -3.647  -3.168  -2.810  1.00  0.00     0.261 C 
BRANCH   4   5
ATOM      5  O   UNL     1      -2.686  -2.194  -2.369  1.00  0.00    -0.459 OA
BRANCH   5   6
ATOM      6  C   UNL     1      -2.087  -1.434  -3.328  1.00  0.00     0.365 C 
ATOM      7  O   UNL     1      -2.275  -1.568  -4.532  1.00  0.00    -0.245 OA
BRANCH   6   8
ATOM      8  C   UNL     1      -1.143  -0.357  -2.751  1.00  0.00     0.304 C 
ATOM      9  C   UNL     1      -0.811   1.064  -0.817  1.00  0.00     0.249 C 
ATOM     10  N   UNL     1      -1.151  -0.293  -1.259  1.00  0.00    -0.322 N 
ATOM     11  S   UNL     1      -1.722   2.141  -1.958  1.00  0.00    -0.092 SA
ATOM     12  H   UNL     1      -2.079  -0.538  -0.914  1.00  0.00     0.348 HD
ATOM     13  H   UNL     1      -0.463  -0.949  -0.890  1.00  0.00     0.348 HD
ATOM     14  C   UNL     1      -1.526   0.997  -3.354  1.00  0.00     0.153 C 
BRANCH   9  15
ATOM     15  C   UNL     1       0.714   1.340  -0.590  1.00  0.00     0.085 C 
ATOM     16  C   UNL     1       1.356   0.185   0.201  1.00  0.00     0.020 C 
BRANCH  15  17
ATOM     17  C   UNL     1       1.479   1.733  -1.844  1.00  0.00    -0.038 A 
ATOM     18  C   UNL     1       2.086   0.797  -2.689  1.00  0.00     0.004 A 
ATOM     19  C   UNL     1       1.475   3.085  -2.235  1.00  0.00     0.004 A 
ATOM     20  C   UNL     1       2.584   1.187  -3.934  1.00  0.00     0.000 A 
ATOM     21  C   UNL     1       1.969   3.472  -3.478  1.00  0.00     0.000 A 
ATOM     22  C   UNL     1       2.506   2.519  -4.337  1.00  0.00     0.000 A 
ENDBRANCH  15  17
ENDBRANCH   9  15
ENDBRANCH   6   8
ENDBRANCH   5   6
ENDBRANCH   4   5
ENDBRANCH   3   4
ENDBRANCH   2   3
ENDBRANCH   1   2
BRANCH   1  23
ATOM     23  C   UNL     1      -3.989  -1.678   0.234  1.00  0.00     0.188 C 
BRANCH  23  24
ATOM     24  O   UNL     1      -4.538  -2.954   0.454  1.00  0.00    -0.376 OA
BRANCH  24  25
ATOM     25  C   UNL     1      -5.267  -3.195   1.632  1.00  0.00     0.202 C 
BRANCH  25  26
ATOM     26  C   UNL     1      -6.380  -2.237   2.093  1.00  0.00     0.261 C 
BRANCH  26  27
ATOM     27  O   UNL     1      -6.380  -0.898   1.575  1.00  0.00    -0.460 OA
BRANCH  27  28
ATOM     28  C   UNL     1      -5.820   0.062   2.340  1.00  0.00     0.338 C 
ATOM     29  O   UNL     1      -5.222  -0.099   3.403  1.00  0.00    -0.246 OA
BRANCH  28  30
ATOM     30  C   UNL     1      -5.900   1.363   1.645  1.00  0.00     0.060 A 
ATOM     31  C   UNL     1      -4.718   2.005   1.251  1.00  0.00     0.016 A 
ATOM     32  C   UNL     1      -7.136   1.975   1.423  1.00  0.00     0.016 A 
ATOM     33  C   UNL     1      -4.767   3.274   0.662  1.00  0.00     0.010 A 
ATOM     34  C   UNL     1      -7.182   3.253   0.851  1.00  0.00     0.010 A 
ATOM     35  C   UNL     1      -5.997   3.925   0.495  1.00  0.00    -0.014 A 
BRANCH  35  36
ATOM     36  C   UNL     1      -6.054   5.362   0.114  1.00  0.00     0.031 A 
ATOM     37  C   UNL     1      -6.263   6.389   1.196  1.00  0.00     0.074 A 
ATOM     38  C   UNL     1      -5.941   5.763  -1.165  1.00  0.00     0.049 A 
ATOM     39  N   UNL     1      -6.462   7.679   1.097  1.00  0.00    -0.248 NA
ATOM     40  C   UNL     1      -6.251   5.886   2.579  1.00  0.00     0.031 C 
ATOM     41  C   UNL     1      -5.685   4.891  -2.308  1.00  0.00     0.029 A 
ATOM     42  N   UNL     1      -6.051   7.018  -1.716  1.00  0.00    -0.354 N 
ATOM     43  C   UNL     1      -6.611   8.139   2.400  1.00  0.00     0.074 A 
ATOM     44  C   UNL     1      -6.506   6.987   3.270  1.00  0.00     0.031 C 
ATOM     45  C   UNL     1      -5.680   5.633  -3.429  1.00  0.00     0.029 A 
ATOM     46  C   UNL     1      -5.970   7.026  -3.088  1.00  0.00     0.049 A 
ATOM     47  H   UNL     1      -6.176   7.834  -1.179  1.00  0.00     0.167 HD
ATOM     48  C   UNL     1      -6.813   9.406   2.836  1.00  0.00     0.037 A 
ATOM     49  C   UNL     1      -6.141   8.034  -3.967  1.00  0.00     0.037 A 
ATOM     50  C   UNL     1      -6.924  10.555   1.976  1.00  0.00     0.049 A 
ATOM     51  C   UNL     1      -6.455   9.422  -3.465  1.00  0.00     0.074 A 
ATOM     52  C   UNL     1      -7.115  11.880   2.329  1.00  0.00     0.029 A 
ATOM     53  N   UNL     1      -6.864  10.516   0.591  1.00  0.00    -0.354 N 
ATOM     54  N   UNL     1      -6.577   9.851  -2.232  1.00  0.00    -0.248 NA
ATOM     55  C   UNL     1      -6.655  10.467  -4.482  1.00  0.00     0.031 C 
ATOM     56  C   UNL     1      -7.228  12.634   1.156  1.00  0.00     0.029 A 
ATOM     57  C   UNL     1      -7.043  11.789   0.074  1.00  0.00     0.049 A 
ATOM     58  H   UNL     1      -6.716   9.704   0.055  1.00  0.00     0.167 HD
ATOM     59  C   UNL     1      -6.831  11.216  -2.325  1.00  0.00     0.074 A 
ATOM     60  C   UNL     1      -6.837  11.546  -3.733  1.00  0.00     0.031 C 
ATOM     61  C   UNL     1      -7.036  12.114  -1.330  1.00  0.00     0.037 A 
BRANCH  48  62
ATOM     62  C   UNL     1      -6.962   9.611   4.316  1.00  0.00     0.057 A 
ATOM     63  C   UNL     1      -5.881   9.476   5.197  1.00  0.00     0.134 A 
ATOM     64  C   UNL     1      -8.199   9.976   4.863  1.00  0.00     0.134 A 
ATOM     65  F   UNL     1      -4.672   9.116   4.741  1.00  0.00    -0.206 F 
ATOM     66  C   UNL     1      -6.032   9.671   6.572  1.00  0.00     0.040 A 
ATOM     67  C   UNL     1      -8.356  10.201   6.231  1.00  0.00     0.040 A 
ATOM     68  F   UNL     1      -9.274  10.129   4.075  1.00  0.00    -0.206 F 
ATOM     69  C   UNL     1      -7.271  10.041   7.091  1.00  0.00     0.006 A 
ENDBRANCH  48  62
BRANCH  49  70
ATOM     70  C   UNL     1      -6.044   7.775  -5.428  1.00  0.00     0.057 A 
ATOM     71  C   UNL     1      -5.002   8.313  -6.193  1.00  0.00     0.134 A 
ATOM     72  C   UNL     1      -7.011   7.017  -6.100  1.00  0.00     0.134 A 
ATOM     73  F   UNL     1      -4.063   9.075  -5.613  1.00  0.00    -0.206 F 
ATOM     74  C   UNL     1      -4.935   8.124  -7.575  1.00  0.00     0.040 A 
ATOM     75  C   UNL     1      -6.940   6.796  -7.477  1.00  0.00     0.040 A 
ATOM     76  F   UNL     1      -8.039   6.479  -5.428  1.00  0.00    -0.206 F 
ATOM     77  C   UNL     1      -5.904   7.358  -8.220  1.00  0.00     0.006 A 
ENDBRANCH  49  70
BRANCH  61  78
ATOM     78  C   UNL     1      -7.234  13.553  -1.718  1.00  0.00     0.057 A 
ATOM     79  C   UNL     1      -8.404  14.003  -2.343  1.00  0.00     0.134 A 
ATOM     80  C   UNL     1      -6.256  14.511  -1.416  1.00  0.00     0.134 A 
ATOM     81  F   UNL     1      -9.376  13.139  -2.670  1.00  0.00    -0.206 F 
ATOM     82  C   UNL     1      -8.584  15.348  -2.675  1.00  0.00     0.040 A 
ATOM     83  C   UNL     1      -6.437  15.863  -1.716  1.00  0.00     0.040 A 
ATOM     84  F   UNL     1      -5.115  14.153  -0.808  1.00  0.00    -0.206 F 
ATOM     85  C   UNL     1      -7.602  16.283  -2.353  1.00  0.00     0.006 A 
ENDBRANCH  61  78
ENDBRANCH  35  36
ENDBRANCH  28  30
ENDBRANCH  27  28
ENDBRANCH  26  27
ENDBRANCH  25  26
ENDBRANCH  24  25
ENDBRANCH  23  24
ENDBRANCH   1  23
TORSDOF 19
