REMARK SMILES O=C(OCCOCCOCCOC(=O)c1ccccc1Nc1nc(Cl)nc(Nc2ccc(N3CCOCC3=O)cc2)n1)c1ccc(-c2c3nc(c(-c4c(F)cccc4F)c4ccc([nH]4)c(-c4c(F)cccc4F)c4nc(c(-c5c(F)cccc5F)c5ccc2[nH]5)C=C4)C=C3)cc1
REMARK SMILES IDX 9 1 8 2 7 3 6 4 5 5 4 6 3 7 2 8 1 9 43 10 44 11 96 12 45 13
REMARK SMILES IDX 95 14 46 15 47 16 48 17 89 18 49 19 94 20 88 21 90 22 50 23
REMARK SMILES IDX 93 24 87 25 86 26 51 28 77 29 60 30 76 31 61 32 64 33 75 34
REMARK SMILES IDX 91 35 62 36 63 37 74 39 92 40 65 41 52 42 53 43 58 44 54 45
REMARK SMILES IDX 55 46 57 47 59 48 56 49 78 50 79 51 84 52 80 53 81 54 83 55
REMARK SMILES IDX 85 56 82 57 66 58 67 59 72 60 68 61 69 62 71 63 73 64 70 65
REMARK SMILES IDX 10 66 11 67 12 68 13 69 14 70 15 71 16 72 20 73 17 74 19 75
REMARK SMILES IDX 18 76 21 77 22 79 23 80 42 81 24 82 27 83 25 84 26 85 28 86
REMARK SMILES IDX 29 88 30 89 41 90 31 91 40 92 32 93 33 94 34 95 38 96 35 97
REMARK SMILES IDX 37 98 39 99 36 100
REMARK H PARENT 90 27 64 38 21 78 28 87
REMARK Flexibility Score: inf
ROOT
ATOM      1  O   UNL     1       2.678   0.952  -4.320  1.00  0.00    -0.376 OA
ENDROOT
BRANCH   1   2
ATOM      2  C   UNL     1       1.905   0.876  -3.123  1.00  0.00     0.188 C 
BRANCH   2   3
ATOM      3  C   UNL     1       2.397  -0.120  -2.073  1.00  0.00     0.188 C 
BRANCH   3   4
ATOM      4  O   UNL     1       3.678   0.241  -1.539  1.00  0.00    -0.376 OA
BRANCH   4   5
ATOM      5  C   UNL     1       4.562  -0.877  -1.398  1.00  0.00     0.202 C 
BRANCH   5   6
ATOM      6  C   UNL     1       4.394  -1.642  -0.079  1.00  0.00     0.261 C 
BRANCH   6   7
ATOM      7  O   UNL     1       3.027  -1.662   0.367  1.00  0.00    -0.460 OA
BRANCH   7   8
ATOM      8  C   UNL     1       2.393  -0.773   1.173  1.00  0.00     0.338 C 
ATOM      9  O   UNL     1       1.190  -0.931   1.384  1.00  0.00    -0.246 OA
BRANCH   8  10
ATOM     10  C   UNL     1       3.081   0.346   1.891  1.00  0.00     0.060 A 
ATOM     11  C   UNL     1       4.250   0.985   1.474  1.00  0.00     0.016 A 
ATOM     12  C   UNL     1       2.478   0.798   3.079  1.00  0.00     0.016 A 
ATOM     13  C   UNL     1       4.901   1.902   2.296  1.00  0.00     0.010 A 
ATOM     14  C   UNL     1       3.089   1.770   3.878  1.00  0.00     0.010 A 
ATOM     15  C   UNL     1       4.348   2.267   3.524  1.00  0.00    -0.014 A 
BRANCH  15  16
ATOM     16  C   UNL     1       5.191   3.011   4.486  1.00  0.00     0.031 A 
ATOM     17  C   UNL     1       5.785   2.254   5.644  1.00  0.00     0.074 A 
ATOM     18  C   UNL     1       5.521   4.295   4.255  1.00  0.00     0.049 A 
ATOM     19  N   UNL     1       6.606   2.667   6.574  1.00  0.00    -0.248 NA
ATOM     20  C   UNL     1       5.413   0.833   5.764  1.00  0.00     0.031 C 
ATOM     21  C   UNL     1       5.057   5.092   3.119  1.00  0.00     0.029 A 
ATOM     22  N   UNL     1       6.350   5.143   4.942  1.00  0.00    -0.354 N 
ATOM     23  C   UNL     1       6.826   1.568   7.396  1.00  0.00     0.074 A 
ATOM     24  C   UNL     1       6.043   0.474   6.870  1.00  0.00     0.031 C 
ATOM     25  C   UNL     1       5.635   6.304   3.171  1.00  0.00     0.029 A 
ATOM     26  C   UNL     1       6.477   6.383   4.360  1.00  0.00     0.049 A 
ATOM     27  H   UNL     1       6.811   4.889   5.774  1.00  0.00     0.167 HD
ATOM     28  C   UNL     1       7.615   1.478   8.492  1.00  0.00     0.037 A 
ATOM     29  C   UNL     1       7.197   7.452   4.754  1.00  0.00     0.037 A 
ATOM     30  C   UNL     1       8.407   2.564   8.996  1.00  0.00     0.049 A 
ATOM     31  C   UNL     1       8.041   7.325   5.998  1.00  0.00     0.074 A 
ATOM     32  C   UNL     1       9.218   2.601  10.115  1.00  0.00     0.029 A 
ATOM     33  N   UNL     1       8.488   3.812   8.396  1.00  0.00    -0.354 N 
ATOM     34  N   UNL     1       8.246   6.276   6.759  1.00  0.00    -0.248 NA
ATOM     35  C   UNL     1       8.756   8.532   6.437  1.00  0.00     0.031 C 
ATOM     36  C   UNL     1       9.769   3.885  10.209  1.00  0.00     0.029 A 
ATOM     37  C   UNL     1       9.324   4.633   9.130  1.00  0.00     0.049 A 
ATOM     38  H   UNL     1       8.020   4.074   7.570  1.00  0.00     0.167 HD
ATOM     39  C   UNL     1       9.135   6.688   7.743  1.00  0.00     0.074 A 
ATOM     40  C   UNL     1       9.453   8.073   7.464  1.00  0.00     0.031 C 
ATOM     41  C   UNL     1       9.636   5.997   8.796  1.00  0.00     0.037 A 
BRANCH  28  42
ATOM     42  C   UNL     1       7.605   0.175   9.233  1.00  0.00     0.057 A 
ATOM     43  C   UNL     1       8.253  -0.966   8.743  1.00  0.00     0.134 A 
ATOM     44  C   UNL     1       6.907   0.055  10.441  1.00  0.00     0.134 A 
ATOM     45  F   UNL     1       8.914  -0.924   7.576  1.00  0.00    -0.206 F 
ATOM     46  C   UNL     1       8.186  -2.188   9.417  1.00  0.00     0.040 A 
ATOM     47  C   UNL     1       6.850  -1.155  11.134  1.00  0.00     0.040 A 
ATOM     48  F   UNL     1       6.260   1.108  10.961  1.00  0.00    -0.206 F 
ATOM     49  C   UNL     1       7.485  -2.284  10.617  1.00  0.00     0.006 A 
ENDBRANCH  28  42
BRANCH  29  50
ATOM     50  C   UNL     1       7.170   8.728   3.985  1.00  0.00     0.057 A 
ATOM     51  C   UNL     1       8.334   9.261   3.416  1.00  0.00     0.134 A 
ATOM     52  C   UNL     1       5.994   9.475   3.840  1.00  0.00     0.134 A 
ATOM     53  F   UNL     1       9.500   8.606   3.526  1.00  0.00    -0.206 F 
ATOM     54  C   UNL     1       8.334  10.486   2.744  1.00  0.00     0.040 A 
ATOM     55  C   UNL     1       5.973  10.687   3.145  1.00  0.00     0.040 A 
ATOM     56  F   UNL     1       4.842   9.038   4.370  1.00  0.00    -0.206 F 
ATOM     57  C   UNL     1       7.147  11.199   2.600  1.00  0.00     0.006 A 
ENDBRANCH  29  50
BRANCH  41  58
ATOM     58  C   UNL     1      10.598   6.729   9.681  1.00  0.00     0.057 A 
ATOM     59  C   UNL     1      10.166   7.715  10.576  1.00  0.00     0.134 A 
ATOM     60  C   UNL     1      11.966   6.436   9.643  1.00  0.00     0.134 A 
ATOM     61  F   UNL     1       8.868   8.049  10.645  1.00  0.00    -0.206 F 
ATOM     62  C   UNL     1      11.068   8.409  11.382  1.00  0.00     0.040 A 
ATOM     63  C   UNL     1      12.874   7.107  10.461  1.00  0.00     0.040 A 
ATOM     64  F   UNL     1      12.439   5.496   8.811  1.00  0.00    -0.206 F 
ATOM     65  C   UNL     1      12.426   8.102  11.329  1.00  0.00     0.006 A 
ENDBRANCH  41  58
ENDBRANCH  15  16
ENDBRANCH   8  10
ENDBRANCH   7   8
ENDBRANCH   6   7
ENDBRANCH   5   6
ENDBRANCH   4   5
ENDBRANCH   3   4
ENDBRANCH   2   3
ENDBRANCH   1   2
BRANCH   1  66
ATOM     66  C   UNL     1       4.010   1.449  -4.209  1.00  0.00     0.202 C 
BRANCH  66  67
ATOM     67  C   UNL     1       4.162   2.944  -3.913  1.00  0.00     0.261 C 
BRANCH  67  68
ATOM     68  O   UNL     1       3.612   3.349  -2.648  1.00  0.00    -0.460 OA
BRANCH  68  69
ATOM     69  C   UNL     1       2.543   4.180  -2.723  1.00  0.00     0.340 C 
ATOM     70  O   UNL     1       1.952   4.554  -3.720  1.00  0.00    -0.246 OA
BRANCH  69  71
ATOM     71  C   UNL     1       2.253   4.727  -1.390  1.00  0.00     0.083 A 
ATOM     72  C   UNL     1       1.197   4.205  -0.639  1.00  0.00     0.018 A 
ATOM     73  C   UNL     1       2.972   5.862  -0.974  1.00  0.00     0.055 A 
ATOM     74  C   UNL     1       0.867   4.806   0.574  1.00  0.00     0.001 A 
ATOM     75  C   UNL     1       2.667   6.408   0.277  1.00  0.00     0.027 A 
ATOM     76  C   UNL     1       1.606   5.896   1.035  1.00  0.00     0.002 A 
BRANCH  73  77
ATOM     77  N   UNL     1       3.916   6.428  -1.838  1.00  0.00    -0.323 N 
ATOM     78  H   UNL     1       3.846   6.105  -2.766  1.00  0.00     0.170 HD
BRANCH  77  79
ATOM     79  C   UNL     1       4.926   7.350  -1.647  1.00  0.00     0.233 A 
ATOM     80  N   UNL     1       5.752   7.263  -0.624  1.00  0.00    -0.182 NA
ATOM     81  N   UNL     1       5.023   8.245  -2.620  1.00  0.00    -0.176 NA
ATOM     82  C   UNL     1       6.737   8.142  -0.690  1.00  0.00     0.228 A 
ATOM     83  C   UNL     1       5.979   9.153  -2.508  1.00  0.00     0.233 A 
ATOM     84  Cl  UNL     1       8.033   7.888   0.386  1.00  0.00    -0.041 Cl
ATOM     85  N   UNL     1       6.897   9.125  -1.560  1.00  0.00    -0.182 NA
BRANCH  83  86
ATOM     86  N   UNL     1       5.888  10.189  -3.428  1.00  0.00    -0.324 N 
ATOM     87  H   UNL     1       5.217  10.050  -4.135  1.00  0.00     0.170 HD
BRANCH  86  88
ATOM     88  C   UNL     1       6.587  11.391  -3.522  1.00  0.00     0.041 A 
ATOM     89  C   UNL     1       5.901  12.535  -3.946  1.00  0.00     0.028 A 
ATOM     90  C   UNL     1       7.907  11.532  -3.098  1.00  0.00     0.028 A 
ATOM     91  C   UNL     1       6.506  13.794  -3.897  1.00  0.00     0.028 A 
ATOM     92  C   UNL     1       8.527  12.783  -3.084  1.00  0.00     0.028 A 
ATOM     93  C   UNL     1       7.824  13.933  -3.453  1.00  0.00     0.044 A 
BRANCH  93  94
ATOM     94  N   UNL     1       8.413  15.225  -3.315  1.00  0.00    -0.308 N 
ATOM     95  C   UNL     1       7.620  16.242  -2.611  1.00  0.00     0.154 C 
ATOM     96  C   UNL     1       9.781  15.429  -3.538  1.00  0.00     0.253 C 
ATOM     97  C   UNL     1       8.165  17.652  -2.783  1.00  0.00     0.183 C 
ATOM     98  C   UNL     1      10.298  16.846  -3.239  1.00  0.00     0.260 C 
ATOM     99  O   UNL     1      10.545  14.600  -4.037  1.00  0.00    -0.272 OA
ATOM    100  O   UNL     1       9.531  17.675  -2.381  1.00  0.00    -0.370 OA
ENDBRANCH  93  94
ENDBRANCH  86  88
ENDBRANCH  83  86
ENDBRANCH  77  79
ENDBRANCH  73  77
ENDBRANCH  69  71
ENDBRANCH  68  69
ENDBRANCH  67  68
ENDBRANCH  66  67
ENDBRANCH   1  66
TORSDOF 22
