REMARK SMILES O=C(COc1ccccc1/C=N\N1CC[NH+](Cc2ccc(Cl)cc2)CC1)OCCOCCOCCOC(=O)c1ccc(-c2c3nc(c(-c4c(F)cccc4F)c4ccc([nH]4)c(-c4c(F)cccc4F)c4nc(c(-c5c(F)cccc5F)c5ccc2[nH]5)C=C4)C=C3)cc1
REMARK SMILES IDX 29 1 28 2 27 3 2 4 1 5 3 6 4 7 5 8 6 9 10 10 7 11 9 12 8 13
REMARK SMILES IDX 11 14 12 15 13 16 14 17 26 18 15 19 25 20 16 21 17 23 18 24
REMARK SMILES IDX 19 25 24 26 20 27 23 28 21 29 22 30 30 31 31 32 32 33 33 34
REMARK SMILES IDX 34 35 35 36 36 37 37 38 38 39 39 40 40 41 92 42 41 43 91 44
REMARK SMILES IDX 42 45 43 46 44 47 85 48 45 49 90 50 84 51 86 52 46 53 89 54
REMARK SMILES IDX 83 55 82 56 47 58 73 59 56 60 72 61 57 62 60 63 71 64 87 65
REMARK SMILES IDX 58 66 59 67 70 69 88 70 61 71 48 72 49 73 54 74 50 75 51 76
REMARK SMILES IDX 53 77 55 78 52 79 74 80 75 81 80 82 76 83 77 84 79 85 81 86
REMARK SMILES IDX 78 87 62 88 63 89 68 90 64 91 65 92 67 93 69 94 66 95
REMARK H PARENT 16 22 86 57 60 68
REMARK Flexibility Score: inf
ROOT
ATOM      1  C   UNL     1       5.299   0.092  -0.669  1.00  0.00     0.202 C 
ENDROOT
BRANCH   1   2
ATOM      2  C   UNL     1       4.432  -0.843   0.164  1.00  0.00     0.261 C 
BRANCH   2   3
ATOM      3  O   UNL     1       2.991  -0.708   0.088  1.00  0.00    -0.461 OA
BRANCH   3   4
ATOM      4  C   UNL     1       2.128   0.227   0.537  1.00  0.00     0.344 C 
ATOM      5  O   UNL     1       0.933   0.151   0.247  1.00  0.00    -0.248 OA
BRANCH   4   6
ATOM      6  C   UNL     1       2.643   1.468   1.238  1.00  0.00     0.352 C 
BRANCH   6   7
ATOM      7  O   UNL     1       3.867   1.359   1.940  1.00  0.00    -0.481 OA
BRANCH   7   8
ATOM      8  C   UNL     1       3.649   1.300   3.288  1.00  0.00     0.129 A 
ATOM      9  C   UNL     1       3.937   2.446   4.025  1.00  0.00     0.047 A 
ATOM     10  C   UNL     1       3.245   0.132   3.940  1.00  0.00     0.037 A 
ATOM     11  C   UNL     1       3.810   2.418   5.413  1.00  0.00     0.004 A 
ATOM     12  C   UNL     1       3.185   0.087   5.325  1.00  0.00     0.013 A 
ATOM     13  C   UNL     1       3.437   1.239   6.062  1.00  0.00     0.001 A 
BRANCH  10  14
ATOM     14  C   UNL     1       3.141  -1.128   3.228  1.00  0.00     0.145 C 
ATOM     15  N   UNL     1       2.189  -1.978   3.054  1.00  0.00    -0.185 NA
BRANCH  15  16
ATOM     16  N   UNL     1       0.929  -1.927   3.495  1.00  0.00    -0.286 NA
ATOM     17  C   UNL     1       0.434  -3.239   3.912  1.00  0.00     0.200 C 
ATOM     18  C   UNL     1       0.175  -0.861   4.158  1.00  0.00     0.200 C 
ATOM     19  C   UNL     1       0.558  -3.386   5.434  1.00  0.00     0.286 C 
ATOM     20  C   UNL     1      -0.011  -1.029   5.696  1.00  0.00     0.286 C 
ATOM     21  N   UNL     1      -0.180  -2.394   6.228  1.00  0.00    -0.328 N 
ATOM     22  H   UNL     1       0.260  -2.373   7.148  1.00  0.00     0.348 HD
BRANCH  21  23
ATOM     23  C   UNL     1      -1.553  -2.784   6.577  1.00  0.00     0.299 C 
BRANCH  23  24
ATOM     24  C   UNL     1      -2.573  -2.678   5.467  1.00  0.00     0.006 A 
ATOM     25  C   UNL     1      -3.264  -1.475   5.261  1.00  0.00     0.011 A 
ATOM     26  C   UNL     1      -2.761  -3.733   4.563  1.00  0.00     0.011 A 
ATOM     27  C   UNL     1      -4.019  -1.284   4.105  1.00  0.00     0.021 A 
ATOM     28  C   UNL     1      -3.497  -3.535   3.394  1.00  0.00     0.021 A 
ATOM     29  C   UNL     1      -4.101  -2.303   3.159  1.00  0.00     0.041 A 
ATOM     30  Cl  UNL     1      -4.927  -2.024   1.677  1.00  0.00    -0.084 Cl
ENDBRANCH  23  24
ENDBRANCH  21  23
ENDBRANCH  15  16
ENDBRANCH  10  14
ENDBRANCH   7   8
ENDBRANCH   6   7
ENDBRANCH   4   6
ENDBRANCH   3   4
ENDBRANCH   2   3
ENDBRANCH   1   2
BRANCH   1  31
ATOM     31  O   UNL     1       4.932   0.247  -2.018  1.00  0.00    -0.376 OA
BRANCH  31  32
ATOM     32  C   UNL     1       3.634   0.751  -2.250  1.00  0.00     0.188 C 
BRANCH  32  33
ATOM     33  C   UNL     1       2.654  -0.292  -2.829  1.00  0.00     0.188 C 
BRANCH  33  34
ATOM     34  O   UNL     1       3.156  -1.480  -3.425  1.00  0.00    -0.376 OA
BRANCH  34  35
ATOM     35  C   UNL     1       4.372  -1.433  -4.150  1.00  0.00     0.202 C 
BRANCH  35  36
ATOM     36  C   UNL     1       4.495  -0.446  -5.326  1.00  0.00     0.261 C 
BRANCH  36  37
ATOM     37  O   UNL     1       4.165   0.933  -5.046  1.00  0.00    -0.460 OA
BRANCH  37  38
ATOM     38  C   UNL     1       2.975   1.387  -5.518  1.00  0.00     0.338 C 
ATOM     39  O   UNL     1       2.188   0.773  -6.226  1.00  0.00    -0.246 OA
BRANCH  38  40
ATOM     40  C   UNL     1       2.629   2.701  -4.907  1.00  0.00     0.060 A 
ATOM     41  C   UNL     1       1.424   2.822  -4.192  1.00  0.00     0.016 A 
ATOM     42  C   UNL     1       3.456   3.816  -5.050  1.00  0.00     0.016 A 
ATOM     43  C   UNL     1       1.021   4.056  -3.666  1.00  0.00     0.010 A 
ATOM     44  C   UNL     1       3.036   5.060  -4.549  1.00  0.00     0.010 A 
ATOM     45  C   UNL     1       1.797   5.199  -3.891  1.00  0.00    -0.014 A 
BRANCH  45  46
ATOM     46  C   UNL     1       1.218   6.556  -3.673  1.00  0.00     0.031 A 
ATOM     47  C   UNL     1       0.651   7.285  -4.867  1.00  0.00     0.074 A 
ATOM     48  C   UNL     1       1.177   7.147  -2.464  1.00  0.00     0.049 A 
ATOM     49  N   UNL     1       0.191   8.507  -4.961  1.00  0.00    -0.248 NA
ATOM     50  C   UNL     1       0.608   6.527  -6.127  1.00  0.00     0.031 C 
ATOM     51  C   UNL     1       1.627   6.552  -1.210  1.00  0.00     0.029 A 
ATOM     52  N   UNL     1       0.744   8.403  -2.103  1.00  0.00    -0.354 N 
ATOM     53  C   UNL     1      -0.179   8.668  -6.292  1.00  0.00     0.074 A 
ATOM     54  C   UNL     1       0.137   7.431  -6.971  1.00  0.00     0.031 C 
ATOM     55  C   UNL     1       1.469   7.450  -0.220  1.00  0.00     0.029 A 
ATOM     56  C   UNL     1       0.939   8.696  -0.774  1.00  0.00     0.049 A 
ATOM     57  H   UNL     1       0.332   9.033  -2.738  1.00  0.00     0.167 HD
ATOM     58  C   UNL     1      -0.738   9.744  -6.897  1.00  0.00     0.037 A 
ATOM     59  C   UNL     1       0.741   9.844  -0.091  1.00  0.00     0.037 A 
ATOM     60  C   UNL     1      -1.060  10.978  -6.230  1.00  0.00     0.049 A 
ATOM     61  C   UNL     1       0.199  11.061  -0.803  1.00  0.00     0.074 A 
ATOM     62  C   UNL     1      -1.643  12.116  -6.760  1.00  0.00     0.029 A 
ATOM     63  N   UNL     1      -0.818  11.240  -4.891  1.00  0.00    -0.354 N 
ATOM     64  N   UNL     1      -0.161  11.198  -2.057  1.00  0.00    -0.248 NA
ATOM     65  C   UNL     1       0.035  12.285  -0.001  1.00  0.00     0.031 C 
ATOM     66  C   UNL     1      -1.699  13.088  -5.757  1.00  0.00     0.029 A 
ATOM     67  C   UNL     1      -1.213  12.533  -4.585  1.00  0.00     0.049 A 
ATOM     68  H   UNL     1      -0.424  10.603  -4.253  1.00  0.00     0.167 HD
ATOM     69  C   UNL     1      -0.628  12.504  -2.182  1.00  0.00     0.074 A 
ATOM     70  C   UNL     1      -0.513  13.116  -0.876  1.00  0.00     0.031 C 
ATOM     71  C   UNL     1      -1.112  13.135  -3.280  1.00  0.00     0.037 A 
BRANCH  58  72
ATOM     72  C   UNL     1      -1.009   9.644  -8.371  1.00  0.00     0.057 A 
ATOM     73  C   UNL     1      -2.015   8.818  -8.889  1.00  0.00     0.134 A 
ATOM     74  C   UNL     1      -0.273  10.412  -9.282  1.00  0.00     0.134 A 
ATOM     75  F   UNL     1      -2.749   8.046  -8.072  1.00  0.00    -0.206 F 
ATOM     76  C   UNL     1      -2.259   8.737 -10.261  1.00  0.00     0.040 A 
ATOM     77  C   UNL     1      -0.529  10.364 -10.653  1.00  0.00     0.040 A 
ATOM     78  F   UNL     1       0.701  11.230  -8.854  1.00  0.00    -0.206 F 
ATOM     79  C   UNL     1      -1.519   9.518 -11.147  1.00  0.00     0.006 A 
ENDBRANCH  58  72
BRANCH  59  80
ATOM     80  C   UNL     1       1.077   9.922   1.357  1.00  0.00     0.057 A 
ATOM     81  C   UNL     1       0.082  10.096   2.326  1.00  0.00     0.134 A 
ATOM     82  C   UNL     1       2.404   9.873   1.802  1.00  0.00     0.134 A 
ATOM     83  F   UNL     1      -1.206  10.184   1.963  1.00  0.00    -0.206 F 
ATOM     84  C   UNL     1       0.393  10.238   3.680  1.00  0.00     0.040 A 
ATOM     85  C   UNL     1       2.728   9.984   3.156  1.00  0.00     0.040 A 
ATOM     86  F   UNL     1       3.407   9.713   0.927  1.00  0.00    -0.206 F 
ATOM     87  C   UNL     1       1.720  10.177   4.099  1.00  0.00     0.006 A 
ENDBRANCH  59  80
BRANCH  71  88
ATOM     88  C   UNL     1      -1.611  14.544  -3.117  1.00  0.00     0.057 A 
ATOM     89  C   UNL     1      -0.746  15.623  -2.896  1.00  0.00     0.134 A 
ATOM     90  C   UNL     1      -2.978  14.832  -3.239  1.00  0.00     0.134 A 
ATOM     91  F   UNL     1       0.574  15.421  -2.761  1.00  0.00    -0.206 F 
ATOM     92  C   UNL     1      -1.223  16.931  -2.778  1.00  0.00     0.040 A 
ATOM     93  C   UNL     1      -3.464  16.137  -3.153  1.00  0.00     0.040 A 
ATOM     94  F   UNL     1      -3.864  13.849  -3.463  1.00  0.00    -0.206 F 
ATOM     95  C   UNL     1      -2.586  17.192  -2.915  1.00  0.00     0.006 A 
ENDBRANCH  71  88
ENDBRANCH  45  46
ENDBRANCH  38  40
ENDBRANCH  37  38
ENDBRANCH  36  37
ENDBRANCH  35  36
ENDBRANCH  34  35
ENDBRANCH  33  34
ENDBRANCH  32  33
ENDBRANCH  31  32
ENDBRANCH   1  31
TORSDOF 23
