REMARK SMILES C=CCOc1cccc(NS(=O)(=O)c2c[nH]c(C(=O)OCCOCCOCCOC(=O)c3ccc(-c4c5nc(c(-c6c(F)cccc6F)c6ccc([nH]6)c(-c6c(F)cccc6F)c6nc(c(-c7c(F)cccc7F)c7ccc4[nH]7)C=C6)C=C5)cc3)c2)c1
REMARK SMILES IDX 22 1 21 2 20 3 18 4 19 5 17 6 14 7 15 8 86 9 16 10 11 12
REMARK SMILES IDX 12 13 13 14 10 15 9 17 5 18 6 19 87 20 7 21 8 22 4 23 3 24
REMARK SMILES IDX 2 25 1 26 23 27 24 28 25 29 26 30 27 31 28 32 29 33 30 34
REMARK SMILES IDX 31 35 32 36 33 37 85 38 34 39 84 40 35 41 36 42 37 43 78 44
REMARK SMILES IDX 38 45 83 46 77 47 79 48 39 49 82 50 76 51 75 52 40 54 66 55
REMARK SMILES IDX 49 56 65 57 50 58 53 59 64 60 80 61 51 62 52 63 63 65 81 66
REMARK SMILES IDX 54 67 41 68 42 69 47 70 43 71 44 72 46 73 48 74 45 75 67 76
REMARK SMILES IDX 68 77 73 78 69 79 70 80 72 81 74 82 71 83 55 84 56 85 61 86
REMARK SMILES IDX 57 87 58 88 60 89 62 90 59 91
REMARK H PARENT 16 11 10 16 79 53 53 64
REMARK Flexibility Score: inf
ROOT
ATOM      1  C   UNL     1      -1.787 -11.238   6.468  1.00  0.00     0.202 C 
ENDROOT
BRANCH   1   2
ATOM      2  C   UNL     1      -1.522 -10.935   4.976  1.00  0.00     0.261 C 
BRANCH   2   3
ATOM      3  O   UNL     1      -0.729  -9.776   4.680  1.00  0.00    -0.459 OA
BRANCH   3   4
ATOM      4  C   UNL     1      -1.406  -8.694   4.221  1.00  0.00     0.354 C 
ATOM      5  O   UNL     1      -2.605  -8.664   3.956  1.00  0.00    -0.244 OA
BRANCH   4   6
ATOM      6  C   UNL     1      -0.592  -7.511   4.347  1.00  0.00     0.126 A 
ATOM      7  C   UNL     1       0.936  -5.849   4.281  1.00  0.00     0.106 A 
ATOM      8  C   UNL     1      -0.051  -5.487   5.177  1.00  0.00     0.105 A 
ATOM      9  C   UNL     1       0.665  -7.181   3.861  1.00  0.00     0.057 A 
ATOM     10  N   UNL     1      -1.032  -6.431   5.087  1.00  0.00    -0.354 N 
ATOM     11  H   UNL     1      -1.927  -6.353   5.491  1.00  0.00     0.166 HD
BRANCH   7  12
ATOM     12  S   UNL     1       2.161  -4.787   3.688  1.00  0.00     0.263 S 
ATOM     13  O   UNL     1       3.116  -5.648   3.025  1.00  0.00    -0.201 OA
ATOM     14  O   UNL     1       2.536  -3.977   4.826  1.00  0.00    -0.201 OA
BRANCH  12  15
ATOM     15  N   UNL     1       1.517  -3.752   2.496  1.00  0.00    -0.279 N 
ATOM     16  H   UNL     1       2.008  -3.603   1.656  1.00  0.00     0.180 HD
BRANCH  15  17
ATOM     17  C   UNL     1       0.257  -3.095   2.716  1.00  0.00     0.052 A 
ATOM     18  C   UNL     1      -1.052  -1.068   2.765  1.00  0.00     0.121 A 
ATOM     19  C   UNL     1      -2.224  -1.790   2.977  1.00  0.00     0.046 A 
ATOM     20  C   UNL     1       0.192  -1.706   2.708  1.00  0.00     0.073 A 
ATOM     21  C   UNL     1      -2.164  -3.177   2.981  1.00  0.00     0.006 A 
ATOM     22  C   UNL     1      -0.938  -3.817   2.777  1.00  0.00     0.027 A 
BRANCH  18  23
ATOM     23  O   UNL     1      -1.141   0.288   2.587  1.00  0.00    -0.489 OA
BRANCH  23  24
ATOM     24  C   UNL     1      -1.059   0.615   1.186  1.00  0.00     0.257 C 
BRANCH  24  25
ATOM     25  C   UNL     1       0.369   0.898   0.812  1.00  0.00     0.006 C 
ATOM     26  C   UNL     1       1.047   0.256  -0.150  1.00  0.00     0.007 C 
ENDBRANCH  24  25
ENDBRANCH  23  24
ENDBRANCH  18  23
ENDBRANCH  15  17
ENDBRANCH  12  15
ENDBRANCH   7  12
ENDBRANCH   4   6
ENDBRANCH   3   4
ENDBRANCH   2   3
ENDBRANCH   1   2
BRANCH   1  27
ATOM     27  O   UNL     1      -2.207 -10.238   7.389  1.00  0.00    -0.376 OA
BRANCH  27  28
ATOM     28  C   UNL     1      -1.556  -8.977   7.433  1.00  0.00     0.188 C 
BRANCH  28  29
ATOM     29  C   UNL     1      -0.016  -8.889   7.410  1.00  0.00     0.188 C 
BRANCH  29  30
ATOM     30  O   UNL     1       0.620 -10.092   7.044  1.00  0.00    -0.376 OA
BRANCH  30  31
ATOM     31  C   UNL     1       1.265 -10.888   8.022  1.00  0.00     0.202 C 
BRANCH  31  32
ATOM     32  C   UNL     1       0.605 -11.201   9.370  1.00  0.00     0.261 C 
BRANCH  32  33
ATOM     33  O   UNL     1      -0.247 -10.205   9.909  1.00  0.00    -0.460 OA
BRANCH  33  34
ATOM     34  C   UNL     1       0.438  -9.164  10.412  1.00  0.00     0.338 C 
ATOM     35  O   UNL     1       1.622  -8.907  10.271  1.00  0.00    -0.246 OA
BRANCH  34  36
ATOM     36  C   UNL     1      -0.432  -8.391  11.281  1.00  0.00     0.060 A 
ATOM     37  C   UNL     1      -0.149  -7.026  11.358  1.00  0.00     0.016 A 
ATOM     38  C   UNL     1      -0.993  -9.128  12.329  1.00  0.00     0.016 A 
ATOM     39  C   UNL     1      -0.196  -6.441  12.598  1.00  0.00     0.010 A 
ATOM     40  C   UNL     1      -0.981  -8.560  13.577  1.00  0.00     0.010 A 
ATOM     41  C   UNL     1      -0.537  -7.237  13.700  1.00  0.00    -0.014 A 
BRANCH  41  42
ATOM     42  C   UNL     1      -0.662  -6.563  14.987  1.00  0.00     0.031 A 
ATOM     43  C   UNL     1      -2.086  -5.958  15.070  1.00  0.00     0.074 A 
ATOM     44  C   UNL     1       0.468  -6.573  15.768  1.00  0.00     0.049 A 
ATOM     45  N   UNL     1      -2.531  -4.982  15.790  1.00  0.00    -0.248 NA
ATOM     46  C   UNL     1      -3.177  -6.476  14.178  1.00  0.00     0.031 C 
ATOM     47  C   UNL     1       1.733  -7.294  15.458  1.00  0.00     0.029 A 
ATOM     48  N   UNL     1       0.803  -5.986  16.970  1.00  0.00    -0.354 N 
ATOM     49  C   UNL     1      -3.938  -4.956  15.653  1.00  0.00     0.074 A 
ATOM     50  C   UNL     1      -4.262  -5.798  14.551  1.00  0.00     0.031 C 
ATOM     51  C   UNL     1       2.696  -7.018  16.372  1.00  0.00     0.029 A 
ATOM     52  C   UNL     1       2.165  -6.123  17.381  1.00  0.00     0.049 A 
ATOM     53  H   UNL     1       0.142  -5.500  17.514  1.00  0.00     0.167 HD
ATOM     54  C   UNL     1      -4.748  -4.371  16.581  1.00  0.00     0.037 A 
ATOM     55  C   UNL     1       2.804  -5.516  18.439  1.00  0.00     0.037 A 
ATOM     56  C   UNL     1      -3.943  -3.728  17.562  1.00  0.00     0.049 A 
ATOM     57  C   UNL     1       1.708  -4.903  19.193  1.00  0.00     0.074 A 
ATOM     58  C   UNL     1      -3.144  -2.619  17.472  1.00  0.00     0.029 A 
ATOM     59  N   UNL     1      -3.552  -4.500  18.630  1.00  0.00    -0.354 N 
ATOM     60  N   UNL     1       0.858  -5.572  19.909  1.00  0.00    -0.248 NA
ATOM     61  C   UNL     1       1.468  -3.464  19.050  1.00  0.00     0.031 C 
ATOM     62  C   UNL     1      -1.982  -3.032  18.149  1.00  0.00     0.029 A 
ATOM     63  C   UNL     1      -2.242  -4.193  18.888  1.00  0.00     0.049 A 
ATOM     64  H   UNL     1      -4.108  -5.150  19.117  1.00  0.00     0.167 HD
ATOM     65  C   UNL     1      -0.199  -4.702  19.974  1.00  0.00     0.074 A 
ATOM     66  C   UNL     1       0.347  -3.375  19.759  1.00  0.00     0.031 C 
ATOM     67  C   UNL     1      -1.440  -5.136  19.628  1.00  0.00     0.037 A 
BRANCH  54  68
ATOM     68  C   UNL     1      -6.208  -4.516  16.885  1.00  0.00     0.057 A 
ATOM     69  C   UNL     1      -6.793  -3.561  17.749  1.00  0.00     0.134 A 
ATOM     70  C   UNL     1      -6.922  -5.705  16.711  1.00  0.00     0.134 A 
ATOM     71  F   UNL     1      -6.222  -2.360  17.940  1.00  0.00    -0.206 F 
ATOM     72  C   UNL     1      -7.920  -3.840  18.520  1.00  0.00     0.040 A 
ATOM     73  C   UNL     1      -8.086  -5.973  17.444  1.00  0.00     0.040 A 
ATOM     74  F   UNL     1      -6.474  -6.682  15.913  1.00  0.00    -0.206 F 
ATOM     75  C   UNL     1      -8.557  -5.064  18.387  1.00  0.00     0.006 A 
ENDBRANCH  54  68
BRANCH  55  76
ATOM     76  C   UNL     1       4.187  -5.258  19.009  1.00  0.00     0.057 A 
ATOM     77  C   UNL     1       5.392  -5.802  18.563  1.00  0.00     0.134 A 
ATOM     78  C   UNL     1       4.357  -4.293  20.052  1.00  0.00     0.134 A 
ATOM     79  F   UNL     1       5.410  -6.809  17.681  1.00  0.00    -0.206 F 
ATOM     80  C   UNL     1       6.649  -5.335  19.022  1.00  0.00     0.040 A 
ATOM     81  C   UNL     1       5.588  -3.780  20.470  1.00  0.00     0.040 A 
ATOM     82  F   UNL     1       3.318  -3.784  20.728  1.00  0.00    -0.206 F 
ATOM     83  C   UNL     1       6.750  -4.288  19.937  1.00  0.00     0.006 A 
ENDBRANCH  55  76
BRANCH  67  84
ATOM     84  C   UNL     1      -1.642  -6.644  19.729  1.00  0.00     0.057 A 
ATOM     85  C   UNL     1      -1.380  -7.308  20.937  1.00  0.00     0.134 A 
ATOM     86  C   UNL     1      -1.962  -7.487  18.651  1.00  0.00     0.134 A 
ATOM     87  F   UNL     1      -1.110  -6.603  22.046  1.00  0.00    -0.206 F 
ATOM     88  C   UNL     1      -1.379  -8.707  21.049  1.00  0.00     0.040 A 
ATOM     89  C   UNL     1      -1.963  -8.888  18.742  1.00  0.00     0.040 A 
ATOM     90  F   UNL     1      -2.296  -6.985  17.465  1.00  0.00    -0.206 F 
ATOM     91  C   UNL     1      -1.658  -9.505  19.945  1.00  0.00     0.006 A 
ENDBRANCH  67  84
ENDBRANCH  41  42
ENDBRANCH  34  36
ENDBRANCH  33  34
ENDBRANCH  32  33
ENDBRANCH  31  32
ENDBRANCH  30  31
ENDBRANCH  29  30
ENDBRANCH  28  29
ENDBRANCH  27  28
ENDBRANCH   1  27
TORSDOF 23
