REMARK SMILES C[C@@H](C(=O)OCCOCCOCCOC(=O)c1ccc(-c2c3nc(c(-c4c(F)cccc4F)c4ccc([nH]4)c(-c4c(F)cccc4F)c4nc(c(-c5c(F)cccc5F)c5ccc2[nH]5)C=C4)C=C3)cc1)c1ccc(C[C@H]2CCC[C@H]2O)cc1-c1ccc(O)cc1
REMARK SMILES IDX 9 1 8 2 7 3 6 4 5 5 3 6 4 7 2 8 1 9 71 10 72 11 83 12 73 13
REMARK SMILES IDX 82 14 74 15 84 16 85 17 90 18 86 19 89 20 87 21 88 22 75 24
REMARK SMILES IDX 76 25 77 26 80 27 78 28 79 29 81 30 10 32 11 33 12 34 13 35
REMARK SMILES IDX 14 36 15 37 16 38 17 39 18 40 70 41 19 42 69 43 20 44 21 45
REMARK SMILES IDX 22 46 63 47 23 48 68 49 62 50 64 51 24 52 67 53 61 54 60 55
REMARK SMILES IDX 25 57 51 58 34 59 50 60 35 61 38 62 49 63 65 64 36 65 37 66
REMARK SMILES IDX 48 68 66 69 39 70 26 71 27 72 32 73 28 74 29 75 31 76 33 77
REMARK SMILES IDX 30 78 52 79 53 80 58 81 54 82 55 83 57 84 59 85 56 86 40 87
REMARK SMILES IDX 41 88 46 89 42 90 43 91 45 92 47 93 44 94
REMARK H PARENT 88 23 81 31 64 56 38 67
REMARK Flexibility Score: inf
ROOT
ATOM      1  C   UNL     1       0.632   0.037   3.848  1.00  0.00     0.188 C 
ENDROOT
BRANCH   1   2
ATOM      2  O   UNL     1       1.803  -0.358   4.534  1.00  0.00    -0.376 OA
BRANCH   2   3
ATOM      3  C   UNL     1       2.223  -1.695   4.379  1.00  0.00     0.202 C 
BRANCH   3   4
ATOM      4  C   UNL     1       2.834  -2.153   3.040  1.00  0.00     0.261 C 
BRANCH   4   5
ATOM      5  O   UNL     1       2.361  -1.642   1.781  1.00  0.00    -0.463 OA
BRANCH   5   6
ATOM      6  C   UNL     1       1.135  -2.059   1.373  1.00  0.00     0.313 C 
ATOM      7  O   UNL     1       0.326  -2.534   2.161  1.00  0.00    -0.252 OA
BRANCH   6   8
ATOM      8  C   UNL     1       0.922  -1.937  -0.160  1.00  0.00     0.127 C 
ATOM      9  C   UNL     1       1.647  -0.710  -0.739  1.00  0.00     0.025 C 
BRANCH   8  10
ATOM     10  C   UNL     1      -0.580  -2.004  -0.504  1.00  0.00    -0.026 A 
ATOM     11  C   UNL     1      -1.287  -0.845  -0.879  1.00  0.00     0.005 A 
ATOM     12  C   UNL     1      -1.323  -3.198  -0.301  1.00  0.00    -0.014 A 
ATOM     13  C   UNL     1      -2.680  -0.800  -0.800  1.00  0.00     0.004 A 
ATOM     14  C   UNL     1      -2.716  -3.114  -0.177  1.00  0.00     0.012 A 
ATOM     15  C   UNL     1      -3.366  -1.887  -0.263  1.00  0.00    -0.047 A 
BRANCH  12  16
ATOM     16  C   UNL     1      -0.716  -4.531  -0.213  1.00  0.00    -0.018 A 
ATOM     17  C   UNL     1      -0.609  -5.296  -1.382  1.00  0.00     0.012 A 
ATOM     18  C   UNL     1      -0.281  -5.099   0.994  1.00  0.00     0.012 A 
ATOM     19  C   UNL     1       0.000  -6.548  -1.360  1.00  0.00     0.047 A 
ATOM     20  C   UNL     1       0.383  -6.324   1.013  1.00  0.00     0.047 A 
ATOM     21  C   UNL     1       0.532  -7.030  -0.173  1.00  0.00     0.115 A 
BRANCH  21  22
ATOM     22  O   UNL     1       1.203  -8.215  -0.209  1.00  0.00    -0.508 OA
ATOM     23  H   UNL     1       1.293  -8.678  -1.019  1.00  0.00     0.293 HD
ENDBRANCH  21  22
ENDBRANCH  12  16
BRANCH  15  24
ATOM     24  C   UNL     1      -4.667  -1.685   0.473  1.00  0.00     0.041 C 
BRANCH  24  25
ATOM     25  C   UNL     1      -4.493  -1.509   2.005  1.00  0.00     0.022 C 
ATOM     26  C   UNL     1      -3.907  -2.687   2.793  1.00  0.00     0.007 C 
ATOM     27  C   UNL     1      -3.694  -0.297   2.516  1.00  0.00     0.117 C 
ATOM     28  C   UNL     1      -3.508  -2.110   4.145  1.00  0.00     0.003 C 
ATOM     29  C   UNL     1      -3.078  -0.688   3.856  1.00  0.00     0.032 C 
BRANCH  27  30
ATOM     30  O   UNL     1      -2.615   0.154   1.723  1.00  0.00    -0.393 OA
ATOM     31  H   UNL     1      -1.937  -0.538   1.677  1.00  0.00     0.210 HD
ENDBRANCH  27  30
ENDBRANCH  24  25
ENDBRANCH  15  24
ENDBRANCH   8  10
ENDBRANCH   6   8
ENDBRANCH   5   6
ENDBRANCH   4   5
ENDBRANCH   3   4
ENDBRANCH   2   3
ENDBRANCH   1   2
BRANCH   1  32
ATOM     32  C   UNL     1       0.909   1.003   2.689  1.00  0.00     0.188 C 
BRANCH  32  33
ATOM     33  O   UNL     1       2.146   1.706   2.633  1.00  0.00    -0.376 OA
BRANCH  33  34
ATOM     34  C   UNL     1       2.773   2.092   3.846  1.00  0.00     0.202 C 
BRANCH  34  35
ATOM     35  C   UNL     1       2.005   2.980   4.843  1.00  0.00     0.261 C 
BRANCH  35  36
ATOM     36  O   UNL     1       0.578   2.792   4.931  1.00  0.00    -0.460 OA
BRANCH  36  37
ATOM     37  C   UNL     1      -0.177   3.685   4.238  1.00  0.00     0.338 C 
ATOM     38  O   UNL     1       0.234   4.617   3.572  1.00  0.00    -0.246 OA
BRANCH  37  39
ATOM     39  C   UNL     1      -1.616   3.302   4.272  1.00  0.00     0.060 A 
ATOM     40  C   UNL     1      -2.293   3.215   3.054  1.00  0.00     0.016 A 
ATOM     41  C   UNL     1      -2.328   3.100   5.462  1.00  0.00     0.016 A 
ATOM     42  C   UNL     1      -3.665   2.931   3.028  1.00  0.00     0.010 A 
ATOM     43  C   UNL     1      -3.716   2.830   5.431  1.00  0.00     0.010 A 
ATOM     44  C   UNL     1      -4.406   2.734   4.214  1.00  0.00    -0.014 A 
BRANCH  44  45
ATOM     45  C   UNL     1      -5.900   2.577   4.112  1.00  0.00     0.031 A 
ATOM     46  C   UNL     1      -6.700   3.780   3.718  1.00  0.00     0.074 A 
ATOM     47  C   UNL     1      -6.577   1.424   4.319  1.00  0.00     0.049 A 
ATOM     48  N   UNL     1      -7.992   3.888   3.546  1.00  0.00    -0.248 NA
ATOM     49  C   UNL     1      -5.959   5.043   3.596  1.00  0.00     0.031 C 
ATOM     50  C   UNL     1      -6.016   0.217   4.890  1.00  0.00     0.029 A 
ATOM     51  N   UNL     1      -7.873   1.045   4.021  1.00  0.00    -0.354 N 
ATOM     52  C   UNL     1      -8.230   5.243   3.392  1.00  0.00     0.074 A 
ATOM     53  C   UNL     1      -6.944   5.908   3.420  1.00  0.00     0.031 C 
ATOM     54  C   UNL     1      -6.853  -0.814   4.697  1.00  0.00     0.029 A 
ATOM     55  C   UNL     1      -8.095  -0.318   4.125  1.00  0.00     0.049 A 
ATOM     56  H   UNL     1      -8.574   1.685   3.759  1.00  0.00     0.167 HD
ATOM     57  C   UNL     1      -9.421   5.881   3.320  1.00  0.00     0.037 A 
ATOM     58  C   UNL     1      -9.175  -1.078   3.836  1.00  0.00     0.037 A 
ATOM     59  C   UNL     1     -10.700   5.224   3.348  1.00  0.00     0.049 A 
ATOM     60  C   UNL     1     -10.476  -0.360   3.598  1.00  0.00     0.074 A 
ATOM     61  C   UNL     1     -11.960   5.793   3.318  1.00  0.00     0.029 A 
ATOM     62  N   UNL     1     -10.884   3.850   3.421  1.00  0.00    -0.354 N 
ATOM     63  N   UNL     1     -10.692   0.928   3.495  1.00  0.00    -0.248 NA
ATOM     64  C   UNL     1     -11.697  -1.180   3.558  1.00  0.00     0.031 C 
ATOM     65  C   UNL     1     -12.908   4.766   3.403  1.00  0.00     0.029 A 
ATOM     66  C   UNL     1     -12.239   3.553   3.429  1.00  0.00     0.049 A 
ATOM     67  H   UNL     1     -10.160   3.184   3.462  1.00  0.00     0.167 HD
ATOM     68  C   UNL     1     -12.069   1.079   3.444  1.00  0.00     0.074 A 
ATOM     69  C   UNL     1     -12.639  -0.253   3.445  1.00  0.00     0.031 C 
ATOM     70  C   UNL     1     -12.794   2.224   3.447  1.00  0.00     0.037 A 
BRANCH  57  71
ATOM     71  C   UNL     1      -9.360   7.378   3.328  1.00  0.00     0.057 A 
ATOM     72  C   UNL     1      -8.875   8.110   2.237  1.00  0.00     0.134 A 
ATOM     73  C   UNL     1      -9.713   8.088   4.482  1.00  0.00     0.134 A 
ATOM     74  F   UNL     1      -8.482   7.482   1.118  1.00  0.00    -0.206 F 
ATOM     75  C   UNL     1      -8.704   9.493   2.309  1.00  0.00     0.040 A 
ATOM     76  C   UNL     1      -9.576   9.474   4.555  1.00  0.00     0.040 A 
ATOM     77  F   UNL     1     -10.171   7.444   5.567  1.00  0.00    -0.206 F 
ATOM     78  C   UNL     1      -9.057  10.178   3.471  1.00  0.00     0.006 A 
ENDBRANCH  57  71
BRANCH  58  79
ATOM     79  C   UNL     1      -9.135  -2.577   3.830  1.00  0.00     0.057 A 
ATOM     80  C   UNL     1      -9.454  -3.296   2.665  1.00  0.00     0.134 A 
ATOM     81  C   UNL     1      -8.820  -3.339   4.961  1.00  0.00     0.134 A 
ATOM     82  F   UNL     1      -9.826  -2.646   1.551  1.00  0.00    -0.206 F 
ATOM     83  C   UNL     1      -9.447  -4.695   2.624  1.00  0.00     0.040 A 
ATOM     84  C   UNL     1      -8.761  -4.737   4.924  1.00  0.00     0.040 A 
ATOM     85  F   UNL     1      -8.559  -2.740   6.132  1.00  0.00    -0.206 F 
ATOM     86  C   UNL     1      -9.079  -5.420   3.754  1.00  0.00     0.006 A 
ENDBRANCH  58  79
BRANCH  70  87
ATOM     87  C   UNL     1     -14.285   2.077   3.447  1.00  0.00     0.057 A 
ATOM     88  C   UNL     1     -14.989   1.664   4.586  1.00  0.00     0.134 A 
ATOM     89  C   UNL     1     -15.026   2.365   2.295  1.00  0.00     0.134 A 
ATOM     90  F   UNL     1     -14.335   1.358   5.717  1.00  0.00    -0.206 F 
ATOM     91  C   UNL     1     -16.378   1.521   4.572  1.00  0.00     0.040 A 
ATOM     92  C   UNL     1     -16.416   2.248   2.275  1.00  0.00     0.040 A 
ATOM     93  F   UNL     1     -14.410   2.768   1.174  1.00  0.00    -0.206 F 
ATOM     94  C   UNL     1     -17.095   1.818   3.414  1.00  0.00     0.006 A 
ENDBRANCH  70  87
ENDBRANCH  44  45
ENDBRANCH  37  39
ENDBRANCH  36  37
ENDBRANCH  35  36
ENDBRANCH  34  35
ENDBRANCH  33  34
ENDBRANCH  32  33
ENDBRANCH   1  32
TORSDOF 23
