REMARK SMILES CC1=Nc2c(c(C)nn2-c2ccc(F)cc2)[C@H](c2ccc(C(=O)OCCOCCOCCOC(=O)c3ccc(-c4c5nc(c(-c6c(F)cccc6F)c6ccc([nH]6)c(-c6c(F)cccc6F)c6nc(c(-c7c(F)cccc7F)c7ccc4[nH]7)C=C6)C=C5)cc3)cc2)S1
REMARK SMILES IDX 28 1 27 2 26 3 25 4 24 5 22 6 23 7 21 8 18 9 19 10 91 11
REMARK SMILES IDX 20 12 90 13 17 14 1 15 2 16 3 17 92 18 4 19 5 20 9 21 6 22
REMARK SMILES IDX 8 23 7 24 10 25 11 26 16 27 12 28 15 29 13 30 14 31 29 32
REMARK SMILES IDX 30 33 31 34 32 35 33 36 34 37 35 38 36 39 37 40 89 41 38 42
REMARK SMILES IDX 88 43 39 44 40 45 41 46 82 47 42 48 87 49 81 50 83 51 43 52
REMARK SMILES IDX 86 53 80 54 79 55 44 57 70 58 53 59 69 60 54 61 57 62 68 63
REMARK SMILES IDX 84 64 55 65 56 66 67 68 85 69 58 70 45 71 46 72 51 73 47 74
REMARK SMILES IDX 48 75 50 76 52 77 49 78 71 79 72 80 77 81 73 82 74 83 76 84
REMARK SMILES IDX 78 85 75 86 59 87 60 88 65 89 61 90 62 91 64 92 66 93 63 94
REMARK H PARENT 83 56 57 67
REMARK Flexibility Score: inf
ROOT
ATOM      1  C   UNL     1       1.966   3.885   8.583  1.00  0.00     0.188 C 
ENDROOT
BRANCH   1   2
ATOM      2  O   UNL     1       2.244   3.249   9.822  1.00  0.00    -0.376 OA
BRANCH   2   3
ATOM      3  C   UNL     1       1.139   2.536  10.381  1.00  0.00     0.202 C 
BRANCH   3   4
ATOM      4  C   UNL     1       0.823   1.195   9.698  1.00  0.00     0.261 C 
BRANCH   4   5
ATOM      5  O   UNL     1       0.570   1.295   8.286  1.00  0.00    -0.460 OA
BRANCH   5   6
ATOM      6  C   UNL     1      -0.625   1.811   7.920  1.00  0.00     0.338 C 
ATOM      7  O   UNL     1      -1.517   2.147   8.679  1.00  0.00    -0.246 OA
BRANCH   6   8
ATOM      8  C   UNL     1      -0.648   2.061   6.451  1.00  0.00     0.060 A 
ATOM      9  C   UNL     1      -0.801   2.626   3.668  1.00  0.00    -0.030 A 
ATOM     10  C   UNL     1      -1.558   3.352   4.609  1.00  0.00     0.006 A 
ATOM     11  C   UNL     1       0.081   1.647   4.164  1.00  0.00     0.006 A 
ATOM     12  C   UNL     1      -1.482   3.077   5.979  1.00  0.00     0.016 A 
ATOM     13  C   UNL     1       0.146   1.355   5.539  1.00  0.00     0.016 A 
BRANCH   9  14
ATOM     14  C   UNL     1      -1.048   2.872   2.183  1.00  0.00     0.119 C 
ATOM     15  C   UNL     1       0.784  -0.120  -0.040  1.00  0.00     0.075 C 
ATOM     16  C   UNL     1       0.400   1.250   0.451  1.00  0.00     0.074 C 
ATOM     17  N   UNL     1       1.222   2.226   0.229  1.00  0.00    -0.227 NA
ATOM     18  S   UNL     1      -1.188   1.345   1.197  1.00  0.00    -0.098 SA
ATOM     19  C   UNL     1       0.911   3.452   0.710  1.00  0.00     0.161 A 
ATOM     20  C   UNL     1      -0.033   3.811   1.649  1.00  0.00     0.038 A 
ATOM     21  N   UNL     1       1.565   4.621   0.336  1.00  0.00    -0.215 N 
ATOM     22  C   UNL     1       0.150   5.207   1.824  1.00  0.00     0.067 A 
ATOM     23  N   UNL     1       1.195   5.666   1.123  1.00  0.00    -0.171 NA
ATOM     24  C   UNL     1      -0.648   6.156   2.639  1.00  0.00     0.069 C 
BRANCH  21  25
ATOM     25  C   UNL     1       2.450   4.820  -0.758  1.00  0.00     0.067 A 
ATOM     26  C   UNL     1       2.294   4.078  -1.941  1.00  0.00     0.031 A 
ATOM     27  C   UNL     1       3.464   5.783  -0.665  1.00  0.00     0.031 A 
ATOM     28  C   UNL     1       3.159   4.290  -3.016  1.00  0.00     0.041 A 
ATOM     29  C   UNL     1       4.354   5.956  -1.729  1.00  0.00     0.041 A 
ATOM     30  C   UNL     1       4.191   5.212  -2.894  1.00  0.00     0.123 A 
ATOM     31  F   UNL     1       5.039   5.389  -3.916  1.00  0.00    -0.207 F 
ENDBRANCH  21  25
ENDBRANCH   9  14
ENDBRANCH   6   8
ENDBRANCH   5   6
ENDBRANCH   4   5
ENDBRANCH   3   4
ENDBRANCH   2   3
ENDBRANCH   1   2
BRANCH   1  32
ATOM     32  C   UNL     1       2.689   3.304   7.352  1.00  0.00     0.188 C 
BRANCH  32  33
ATOM     33  O   UNL     1       3.367   2.055   7.404  1.00  0.00    -0.376 OA
BRANCH  33  34
ATOM     34  C   UNL     1       4.230   1.744   8.489  1.00  0.00     0.202 C 
BRANCH  34  35
ATOM     35  C   UNL     1       5.434   2.634   8.780  1.00  0.00     0.261 C 
BRANCH  35  36
ATOM     36  O   UNL     1       5.118   4.015   8.907  1.00  0.00    -0.460 OA
BRANCH  36  37
ATOM     37  C   UNL     1       5.422   4.749   7.813  1.00  0.00     0.338 C 
ATOM     38  O   UNL     1       5.799   4.333   6.731  1.00  0.00    -0.246 OA
BRANCH  37  39
ATOM     39  C   UNL     1       5.287   6.182   8.118  1.00  0.00     0.060 A 
ATOM     40  C   UNL     1       5.426   7.066   7.044  1.00  0.00     0.016 A 
ATOM     41  C   UNL     1       5.247   6.642   9.441  1.00  0.00     0.016 A 
ATOM     42  C   UNL     1       5.722   8.390   7.302  1.00  0.00     0.010 A 
ATOM     43  C   UNL     1       5.548   7.967   9.700  1.00  0.00     0.010 A 
ATOM     44  C   UNL     1       5.870   8.803   8.629  1.00  0.00    -0.014 A 
BRANCH  44  45
ATOM     45  C   UNL     1       6.520  10.083   8.851  1.00  0.00     0.031 A 
ATOM     46  C   UNL     1       5.697  11.306   8.741  1.00  0.00     0.074 A 
ATOM     47  C   UNL     1       7.812  10.152   9.223  1.00  0.00     0.049 A 
ATOM     48  N   UNL     1       5.876  12.319   7.957  1.00  0.00    -0.248 NA
ATOM     49  C   UNL     1       4.519  11.406   9.611  1.00  0.00     0.031 C 
ATOM     50  C   UNL     1       8.671   9.056   9.679  1.00  0.00     0.029 A 
ATOM     51  N   UNL     1       8.599  11.255   9.373  1.00  0.00    -0.354 N 
ATOM     52  C   UNL     1       4.928  13.259   8.337  1.00  0.00     0.074 A 
ATOM     53  C   UNL     1       4.064  12.619   9.299  1.00  0.00     0.031 C 
ATOM     54  C   UNL     1       9.782   9.575  10.245  1.00  0.00     0.029 A 
ATOM     55  C   UNL     1       9.764  11.020  10.083  1.00  0.00     0.049 A 
ATOM     56  H   UNL     1       8.360  12.139   9.010  1.00  0.00     0.167 HD
ATOM     57  C   UNL     1       5.006  14.567   7.976  1.00  0.00     0.037 A 
ATOM     58  C   UNL     1      10.611  11.954  10.571  1.00  0.00     0.037 A 
ATOM     59  C   UNL     1       5.892  14.796   6.873  1.00  0.00     0.049 A 
ATOM     60  C   UNL     1      10.376  13.222   9.839  1.00  0.00     0.074 A 
ATOM     61  C   UNL     1       5.938  14.381   5.557  1.00  0.00     0.029 A 
ATOM     62  N   UNL     1       7.117  15.355   7.131  1.00  0.00    -0.354 N 
ATOM     63  N   UNL     1      10.701  13.439   8.596  1.00  0.00    -0.248 NA
ATOM     64  C   UNL     1       9.464  14.195  10.422  1.00  0.00     0.031 C 
ATOM     65  C   UNL     1       7.322  14.318   5.226  1.00  0.00     0.029 A 
ATOM     66  C   UNL     1       8.038  14.688   6.364  1.00  0.00     0.049 A 
ATOM     67  H   UNL     1       7.301  16.098   7.751  1.00  0.00     0.167 HD
ATOM     68  C   UNL     1       9.742  14.325   8.128  1.00  0.00     0.074 A 
ATOM     69  C   UNL     1       9.104  14.860   9.323  1.00  0.00     0.031 C 
ATOM     70  C   UNL     1       9.364  14.331   6.817  1.00  0.00     0.037 A 
BRANCH  57  71
ATOM     71  C   UNL     1       4.468  15.676   8.826  1.00  0.00     0.057 A 
ATOM     72  C   UNL     1       4.471  15.622  10.234  1.00  0.00     0.134 A 
ATOM     73  C   UNL     1       4.158  16.922   8.263  1.00  0.00     0.134 A 
ATOM     74  F   UNL     1       4.879  14.527  10.893  1.00  0.00    -0.206 F 
ATOM     75  C   UNL     1       4.138  16.718  11.031  1.00  0.00     0.040 A 
ATOM     76  C   UNL     1       3.868  18.041   9.052  1.00  0.00     0.040 A 
ATOM     77  F   UNL     1       4.183  17.099   6.934  1.00  0.00    -0.206 F 
ATOM     78  C   UNL     1       3.849  17.939  10.439  1.00  0.00     0.006 A 
ENDBRANCH  57  71
BRANCH  58  79
ATOM     79  C   UNL     1      11.449  11.888  11.790  1.00  0.00     0.057 A 
ATOM     80  C   UNL     1      11.092  11.096  12.897  1.00  0.00     0.134 A 
ATOM     81  C   UNL     1      12.495  12.796  11.996  1.00  0.00     0.134 A 
ATOM     82  F   UNL     1      10.049  10.257  12.847  1.00  0.00    -0.206 F 
ATOM     83  C   UNL     1      11.739  11.199  14.132  1.00  0.00     0.040 A 
ATOM     84  C   UNL     1      13.140  12.922  13.233  1.00  0.00     0.040 A 
ATOM     85  F   UNL     1      12.879  13.629  11.018  1.00  0.00    -0.206 F 
ATOM     86  C   UNL     1      12.758  12.125  14.308  1.00  0.00     0.006 A 
ENDBRANCH  58  79
BRANCH  70  87
ATOM     87  C   UNL     1      10.252  13.632   5.829  1.00  0.00     0.057 A 
ATOM     88  C   UNL     1      10.777  14.361   4.755  1.00  0.00     0.134 A 
ATOM     89  C   UNL     1      10.480  12.248   5.833  1.00  0.00     0.134 A 
ATOM     90  F   UNL     1      10.546  15.680   4.655  1.00  0.00    -0.206 F 
ATOM     91  C   UNL     1      11.509  13.747   3.736  1.00  0.00     0.040 A 
ATOM     92  C   UNL     1      11.239  11.627   4.836  1.00  0.00     0.040 A 
ATOM     93  F   UNL     1       9.929  11.459   6.765  1.00  0.00    -0.206 F 
ATOM     94  C   UNL     1      11.752  12.377   3.781  1.00  0.00     0.006 A 
ENDBRANCH  70  87
ENDBRANCH  44  45
ENDBRANCH  37  39
ENDBRANCH  36  37
ENDBRANCH  35  36
ENDBRANCH  34  35
ENDBRANCH  33  34
ENDBRANCH  32  33
ENDBRANCH   1  32
TORSDOF 19
