REMARK SMILES C[C@](Nc1ncc([N+](=O)[O-])cc1Br)(C(=O)OCCOCCOCCOC(=O)c1ccc(-c2c3nc(c(-c4c(F)cccc4F)c4ccc([nH]4)c(-c4c(F)cccc4F)c4nc(c(-c5c(F)cccc5F)c5ccc2[nH]5)C=C4)C=C3)cc1)C1CC1
REMARK SMILES IDX 20 1 19 2 18 3 17 4 16 5 14 6 15 7 2 8 1 9 82 10 83 11 84 12
REMARK SMILES IDX 3 13 4 15 5 16 12 17 6 18 11 19 13 20 7 21 8 22 9 23 10 24
REMARK SMILES IDX 21 25 22 26 23 27 24 28 25 29 26 30 27 31 28 32 29 33 81 34
REMARK SMILES IDX 30 35 80 36 31 37 32 38 33 39 74 40 34 41 79 42 73 43 75 44
REMARK SMILES IDX 35 45 78 46 72 47 71 48 36 50 62 51 45 52 61 53 46 54 49 55
REMARK SMILES IDX 60 56 76 57 47 58 48 59 59 61 77 62 50 63 37 64 38 65 43 66
REMARK SMILES IDX 39 67 40 68 42 69 44 70 41 71 63 72 64 73 69 74 65 75 66 76
REMARK SMILES IDX 68 77 70 78 67 79 51 80 52 81 57 82 53 83 54 84 56 85 58 86
REMARK SMILES IDX 55 87
REMARK H PARENT 3 14 75 49 49 60
REMARK Flexibility Score: inf
ROOT
ATOM      1  C   UNL     1      -2.404  -0.273  -1.401  1.00  0.00     0.188 C 
ENDROOT
BRANCH   1   2
ATOM      2  O   UNL     1      -3.581  -0.435  -0.624  1.00  0.00    -0.376 OA
BRANCH   2   3
ATOM      3  C   UNL     1      -3.524  -1.426   0.391  1.00  0.00     0.202 C 
BRANCH   3   4
ATOM      4  C   UNL     1      -2.496  -1.154   1.498  1.00  0.00     0.261 C 
BRANCH   4   5
ATOM      5  O   UNL     1      -1.113  -1.209   1.078  1.00  0.00    -0.461 OA
BRANCH   5   6
ATOM      6  C   UNL     1      -0.643  -2.431   0.694  1.00  0.00     0.331 C 
ATOM      7  O   UNL     1      -1.346  -3.437   0.708  1.00  0.00    -0.249 OA
BRANCH   6   8
ATOM      8  C   UNL     1       0.892  -2.413   0.370  1.00  0.00     0.137 C 
ATOM      9  C   UNL     1       1.510  -2.947   1.677  1.00  0.00     0.047 C 
BRANCH   8  10
ATOM     10  C   UNL     1       1.286  -3.313  -0.814  1.00  0.00     0.026 C 
ATOM     11  C   UNL     1       0.637  -4.619  -1.202  1.00  0.00     0.007 C 
ATOM     12  C   UNL     1       0.448  -3.404  -2.071  1.00  0.00     0.007 C 
ENDBRANCH   8  10
BRANCH   8  13
ATOM     13  N   UNL     1       1.394  -1.025   0.077  1.00  0.00    -0.354 N 
ATOM     14  H   UNL     1       0.808  -0.242   0.187  1.00  0.00     0.163 HD
BRANCH  13  15
ATOM     15  C   UNL     1       2.714  -0.879  -0.354  1.00  0.00     0.141 A 
ATOM     16  N   UNL     1       3.681  -1.429   0.411  1.00  0.00    -0.231 NA
ATOM     17  C   UNL     1       3.030  -0.352  -1.615  1.00  0.00     0.067 A 
ATOM     18  C   UNL     1       4.903  -1.644  -0.134  1.00  0.00     0.199 A 
ATOM     19  C   UNL     1       4.259  -0.649  -2.204  1.00  0.00     0.106 A 
ATOM     20  Br  UNL     1       1.875   0.771  -2.578  1.00  0.00    -0.047 Br
ATOM     21  C   UNL     1       5.193  -1.344  -1.449  1.00  0.00     0.288 A 
BRANCH  21  22
ATOM     22  N   UNL     1       6.440  -1.790  -2.032  1.00  0.00     0.064 N 
ATOM     23  O   UNL     1       7.409  -1.920  -1.274  1.00  0.00    -0.258 OA
ATOM     24  O   UNL     1       6.442  -2.032  -3.246  1.00  0.00    -0.258 OA
ENDBRANCH  21  22
ENDBRANCH  13  15
ENDBRANCH   8  13
ENDBRANCH   6   8
ENDBRANCH   5   6
ENDBRANCH   4   5
ENDBRANCH   3   4
ENDBRANCH   2   3
ENDBRANCH   1   2
BRANCH   1  25
ATOM     25  C   UNL     1      -1.553   0.939  -0.973  1.00  0.00     0.188 C 
BRANCH  25  26
ATOM     26  O   UNL     1      -2.185   1.948  -0.194  1.00  0.00    -0.376 OA
BRANCH  26  27
ATOM     27  C   UNL     1      -3.389   2.505  -0.722  1.00  0.00     0.202 C 
BRANCH  27  28
ATOM     28  C   UNL     1      -3.285   3.111  -2.126  1.00  0.00     0.261 C 
BRANCH  28  29
ATOM     29  O   UNL     1      -3.027   2.101  -3.123  1.00  0.00    -0.460 OA
BRANCH  29  30
ATOM     30  C   UNL     1      -2.395   2.531  -4.234  1.00  0.00     0.338 C 
ATOM     31  O   UNL     1      -2.133   3.695  -4.527  1.00  0.00    -0.246 OA
BRANCH  30  32
ATOM     32  C   UNL     1      -1.999   1.391  -5.082  1.00  0.00     0.060 A 
ATOM     33  C   UNL     1      -1.006   0.509  -4.650  1.00  0.00     0.016 A 
ATOM     34  C   UNL     1      -2.501   1.274  -6.375  1.00  0.00     0.016 A 
ATOM     35  C   UNL     1      -0.468  -0.452  -5.505  1.00  0.00     0.010 A 
ATOM     36  C   UNL     1      -1.997   0.280  -7.224  1.00  0.00     0.010 A 
ATOM     37  C   UNL     1      -0.956  -0.571  -6.806  1.00  0.00    -0.014 A 
BRANCH  37  38
ATOM     38  C   UNL     1      -0.338  -1.520  -7.766  1.00  0.00     0.031 A 
ATOM     39  C   UNL     1       0.429  -0.980  -8.939  1.00  0.00     0.074 A 
ATOM     40  C   UNL     1      -0.463  -2.850  -7.605  1.00  0.00     0.049 A 
ATOM     41  N   UNL     1       0.808  -1.589 -10.032  1.00  0.00    -0.248 NA
ATOM     42  C   UNL     1       0.824   0.436  -8.867  1.00  0.00     0.031 C 
ATOM     43  C   UNL     1      -1.082  -3.514  -6.457  1.00  0.00     0.029 A 
ATOM     44  N   UNL     1      -0.098  -3.884  -8.433  1.00  0.00    -0.354 N 
ATOM     45  C   UNL     1       1.437  -0.619 -10.803  1.00  0.00     0.074 A 
ATOM     46  C   UNL     1       1.411   0.612 -10.043  1.00  0.00     0.031 C 
ATOM     47  C   UNL     1      -1.081  -4.841  -6.668  1.00  0.00     0.029 A 
ATOM     48  C   UNL     1      -0.539  -5.111  -7.996  1.00  0.00     0.049 A 
ATOM     49  H   UNL     1       0.427  -3.759  -9.256  1.00  0.00     0.167 HD
ATOM     50  C   UNL     1       1.970  -0.748 -12.040  1.00  0.00     0.037 A 
ATOM     51  C   UNL     1      -0.576  -6.300  -8.628  1.00  0.00     0.037 A 
ATOM     52  C   UNL     1       2.024  -1.986 -12.771  1.00  0.00     0.049 A 
ATOM     53  C   UNL     1      -0.076  -6.398 -10.045  1.00  0.00     0.074 A 
ATOM     54  C   UNL     1       2.563  -2.225 -14.023  1.00  0.00     0.029 A 
ATOM     55  N   UNL     1       1.522  -3.192 -12.312  1.00  0.00    -0.354 N 
ATOM     56  N   UNL     1       0.470  -5.472 -10.795  1.00  0.00    -0.248 NA
ATOM     57  C   UNL     1      -0.228  -7.699 -10.714  1.00  0.00     0.031 C 
ATOM     58  C   UNL     1       2.345  -3.569 -14.341  1.00  0.00     0.029 A 
ATOM     59  C   UNL     1       1.705  -4.174 -13.271  1.00  0.00     0.049 A 
ATOM     60  H   UNL     1       1.098  -3.331 -11.435  1.00  0.00     0.167 HD
ATOM     61  C   UNL     1       0.734  -6.078 -12.017  1.00  0.00     0.074 A 
ATOM     62  C   UNL     1       0.307  -7.456 -11.903  1.00  0.00     0.031 C 
ATOM     63  C   UNL     1       1.275  -5.540 -13.137  1.00  0.00     0.037 A 
BRANCH  50  64
ATOM     64  C   UNL     1       2.483   0.488 -12.711  1.00  0.00     0.057 A 
ATOM     65  C   UNL     1       3.714   1.064 -12.377  1.00  0.00     0.134 A 
ATOM     66  C   UNL     1       1.751   1.075 -13.751  1.00  0.00     0.134 A 
ATOM     67  F   UNL     1       4.454   0.556 -11.381  1.00  0.00    -0.206 F 
ATOM     68  C   UNL     1       4.196   2.188 -13.052  1.00  0.00     0.040 A 
ATOM     69  C   UNL     1       2.230   2.187 -14.444  1.00  0.00     0.040 A 
ATOM     70  F   UNL     1       0.564   0.568 -14.118  1.00  0.00    -0.206 F 
ATOM     71  C   UNL     1       3.457   2.747 -14.094  1.00  0.00     0.006 A 
ENDBRANCH  50  64
BRANCH  51  72
ATOM     72  C   UNL     1      -1.204  -7.476  -7.971  1.00  0.00     0.057 A 
ATOM     73  C   UNL     1      -0.450  -8.597  -7.609  1.00  0.00     0.134 A 
ATOM     74  C   UNL     1      -2.583  -7.521  -7.730  1.00  0.00     0.134 A 
ATOM     75  F   UNL     1       0.871  -8.626  -7.843  1.00  0.00    -0.206 F 
ATOM     76  C   UNL     1      -1.046  -9.726  -7.045  1.00  0.00     0.040 A 
ATOM     77  C   UNL     1      -3.188  -8.632  -7.141  1.00  0.00     0.040 A 
ATOM     78  F   UNL     1      -3.364  -6.482  -8.061  1.00  0.00    -0.206 F 
ATOM     79  C   UNL     1      -2.419  -9.743  -6.805  1.00  0.00     0.006 A 
ENDBRANCH  51  72
BRANCH  63  80
ATOM     80  C   UNL     1       1.448  -6.444 -14.319  1.00  0.00     0.057 A 
ATOM     81  C   UNL     1       0.362  -6.821 -15.118  1.00  0.00     0.134 A 
ATOM     82  C   UNL     1       2.719  -6.896 -14.695  1.00  0.00     0.134 A 
ATOM     83  F   UNL     1      -0.882  -6.432 -14.801  1.00  0.00    -0.206 F 
ATOM     84  C   UNL     1       0.533  -7.627 -16.244  1.00  0.00     0.040 A 
ATOM     85  C   UNL     1       2.905  -7.683 -15.831  1.00  0.00     0.040 A 
ATOM     86  F   UNL     1       3.801  -6.562 -13.975  1.00  0.00    -0.206 F 
ATOM     87  C   UNL     1       1.809  -8.053 -16.608  1.00  0.00     0.006 A 
ENDBRANCH  63  80
ENDBRANCH  37  38
ENDBRANCH  30  32
ENDBRANCH  29  30
ENDBRANCH  28  29
ENDBRANCH  27  28
ENDBRANCH  26  27
ENDBRANCH  25  26
ENDBRANCH   1  25
TORSDOF 21
