REMARK SMILES O=C(OCCOCCOCCOC(=O)c1ccc(-c2c3nc(c(-c4c(F)cccc4F)c4ccc([nH]4)c(-c4c(F)cccc4F)c4nc(c(-c5c(F)cccc5F)c5ccc2[nH]5)C=C4)C=C3)cc1)C1=Cc2c(ccc(Cl)c2Sc2ccccc2)O[C@H]1C(F)(F)F
REMARK SMILES IDX 7 1 6 2 5 3 4 4 3 5 2 6 1 7 69 8 70 9 86 10 71 11 85 12
REMARK SMILES IDX 72 13 77 14 73 15 75 16 74 17 76 18 87 19 88 20 89 21 90 22
REMARK SMILES IDX 78 23 79 24 80 25 84 26 81 27 83 28 82 29 8 30 9 31 10 32
REMARK SMILES IDX 11 33 12 34 13 35 14 36 15 37 16 38 68 39 17 40 67 41 18 42
REMARK SMILES IDX 19 43 20 44 61 45 21 46 66 47 60 48 62 49 22 50 65 51 59 52
REMARK SMILES IDX 58 53 23 55 49 56 32 57 48 58 33 59 36 60 47 61 63 62 34 63
REMARK SMILES IDX 35 64 46 66 64 67 37 68 24 69 25 70 30 71 26 72 27 73 29 74
REMARK SMILES IDX 31 75 28 76 50 77 51 78 56 79 52 80 53 81 55 82 57 83 54 84
REMARK SMILES IDX 38 85 39 86 44 87 40 88 41 89 43 90 45 91 42 92
REMARK H PARENT 62 54 36 65
REMARK Flexibility Score: inf
ROOT
ATOM      1  C   UNL     1       3.214   2.412  -2.798  1.00  0.00     0.188 C 
ENDROOT
BRANCH   1   2
ATOM      2  O   UNL     1       3.789   2.271  -1.513  1.00  0.00    -0.376 OA
BRANCH   2   3
ATOM      3  C   UNL     1       3.269   1.194  -0.810  1.00  0.00     0.202 C 
BRANCH   3   4
ATOM      4  C   UNL     1       2.396   1.506   0.460  1.00  0.00     0.261 C 
BRANCH   4   5
ATOM      5  O   UNL     1       2.969   2.408   1.454  1.00  0.00    -0.460 OA
BRANCH   5   6
ATOM      6  C   UNL     1       3.384   1.912   2.663  1.00  0.00     0.338 C 
ATOM      7  O   UNL     1       3.026   2.364   3.744  1.00  0.00    -0.246 OA
BRANCH   6   8
ATOM      8  C   UNL     1       4.419   0.862   2.604  1.00  0.00     0.087 C 
ATOM      9  C   UNL     1       4.341   0.271   1.427  1.00  0.00     0.028 C 
ATOM     10  C   UNL     1       5.841   1.105   3.030  1.00  0.00     0.316 C 
ATOM     11  C   UNL     1       4.895  -0.991   1.107  1.00  0.00     0.033 A 
ATOM     12  O   UNL     1       6.761   0.088   2.392  1.00  0.00    -0.475 OA
ATOM     13  C   UNL     1       6.253  -0.938   1.573  1.00  0.00     0.129 A 
ATOM     14  C   UNL     1       4.304  -1.901   0.149  1.00  0.00     0.042 A 
ATOM     15  C   UNL     1       7.141  -1.841   1.040  1.00  0.00     0.049 A 
ATOM     16  C   UNL     1       5.296  -2.784  -0.353  1.00  0.00     0.055 A 
ATOM     17  C   UNL     1       6.663  -2.742   0.077  1.00  0.00     0.025 A 
ATOM     18  Cl  UNL     1       4.978  -3.949  -1.604  1.00  0.00    -0.083 Cl
BRANCH  10  19
ATOM     19  C   UNL     1       6.283   2.576   2.715  1.00  0.00     0.430 C 
ATOM     20  F   UNL     1       6.281   2.831   1.384  1.00  0.00    -0.167 F 
ATOM     21  F   UNL     1       5.459   3.487   3.287  1.00  0.00    -0.167 F 
ATOM     22  F   UNL     1       7.524   2.849   3.176  1.00  0.00    -0.167 F 
ENDBRANCH  10  19
BRANCH  14  23
ATOM     23  S   UNL     1       2.527  -2.163  -0.593  1.00  0.00    -0.088 SA
BRANCH  23  24
ATOM     24  C   UNL     1       1.015  -1.110  -0.574  1.00  0.00     0.012 A 
ATOM     25  C   UNL     1      -0.104  -1.442   0.192  1.00  0.00     0.015 A 
ATOM     26  C   UNL     1       0.689  -0.086  -1.495  1.00  0.00     0.015 A 
ATOM     27  C   UNL     1      -1.213  -0.559   0.338  1.00  0.00     0.001 A 
ATOM     28  C   UNL     1      -0.296   0.903  -1.260  1.00  0.00     0.001 A 
ATOM     29  C   UNL     1      -1.224   0.691  -0.269  1.00  0.00     0.000 A 
ENDBRANCH  23  24
ENDBRANCH  14  23
ENDBRANCH   6   8
ENDBRANCH   5   6
ENDBRANCH   4   5
ENDBRANCH   3   4
ENDBRANCH   2   3
ENDBRANCH   1   2
BRANCH   1  30
ATOM     30  C   UNL     1       2.945   1.208  -3.754  1.00  0.00     0.188 C 
BRANCH  30  31
ATOM     31  O   UNL     1       3.601   1.147  -5.010  1.00  0.00    -0.376 OA
BRANCH  31  32
ATOM     32  C   UNL     1       4.992   1.399  -4.999  1.00  0.00     0.202 C 
BRANCH  32  33
ATOM     33  C   UNL     1       5.225   2.687  -5.798  1.00  0.00     0.261 C 
BRANCH  33  34
ATOM     34  O   UNL     1       4.595   3.840  -5.182  1.00  0.00    -0.460 OA
BRANCH  34  35
ATOM     35  C   UNL     1       3.277   4.075  -5.458  1.00  0.00     0.338 C 
ATOM     36  O   UNL     1       2.611   3.545  -6.330  1.00  0.00    -0.246 OA
BRANCH  35  37
ATOM     37  C   UNL     1       2.670   4.938  -4.387  1.00  0.00     0.060 A 
ATOM     38  C   UNL     1       1.327   4.720  -4.016  1.00  0.00     0.016 A 
ATOM     39  C   UNL     1       3.432   5.854  -3.653  1.00  0.00     0.016 A 
ATOM     40  C   UNL     1       0.749   5.436  -2.954  1.00  0.00     0.010 A 
ATOM     41  C   UNL     1       2.841   6.602  -2.621  1.00  0.00     0.010 A 
ATOM     42  C   UNL     1       1.485   6.431  -2.293  1.00  0.00    -0.014 A 
BRANCH  42  43
ATOM     43  C   UNL     1       0.770   7.512  -1.553  1.00  0.00     0.031 A 
ATOM     44  C   UNL     1       0.213   8.642  -2.388  1.00  0.00     0.074 A 
ATOM     45  C   UNL     1       0.618   7.547  -0.215  1.00  0.00     0.049 A 
ATOM     46  N   UNL     1      -0.420   9.727  -2.020  1.00  0.00    -0.248 NA
ATOM     47  C   UNL     1       0.400   8.524  -3.846  1.00  0.00     0.031 C 
ATOM     48  C   UNL     1       1.076   6.532   0.730  1.00  0.00     0.029 A 
ATOM     49  N   UNL     1       0.034   8.507   0.583  1.00  0.00    -0.354 N 
ATOM     50  C   UNL     1      -0.722  10.401  -3.197  1.00  0.00     0.074 A 
ATOM     51  C   UNL     1      -0.175   9.628  -4.288  1.00  0.00     0.031 C 
ATOM     52  C   UNL     1       0.775   6.934   1.981  1.00  0.00     0.029 A 
ATOM     53  C   UNL     1       0.123   8.245   1.930  1.00  0.00     0.049 A 
ATOM     54  H   UNL     1      -0.407   9.309   0.220  1.00  0.00     0.167 HD
ATOM     55  C   UNL     1      -1.398  11.560  -3.369  1.00  0.00     0.037 A 
ATOM     56  C   UNL     1      -0.258   8.986   2.993  1.00  0.00     0.037 A 
ATOM     57  C   UNL     1      -1.901  12.377  -2.300  1.00  0.00     0.049 A 
ATOM     58  C   UNL     1      -0.921  10.331   2.780  1.00  0.00     0.074 A 
ATOM     59  C   UNL     1      -2.579  13.580  -2.384  1.00  0.00     0.029 A 
ATOM     60  N   UNL     1      -1.763  12.084  -0.954  1.00  0.00    -0.354 N 
ATOM     61  N   UNL     1      -1.243  10.934   1.661  1.00  0.00    -0.248 NA
ATOM     62  C   UNL     1      -1.276  11.096   3.987  1.00  0.00     0.031 C 
ATOM     63  C   UNL     1      -2.810  14.041  -1.084  1.00  0.00     0.029 A 
ATOM     64  C   UNL     1      -2.326  13.096  -0.195  1.00  0.00     0.049 A 
ATOM     65  H   UNL     1      -1.330  11.278  -0.592  1.00  0.00     0.167 HD
ATOM     66  C   UNL     1      -1.865  12.124   2.030  1.00  0.00     0.074 A 
ATOM     67  C   UNL     1      -1.895  12.150   3.476  1.00  0.00     0.031 C 
ATOM     68  C   UNL     1      -2.365  13.110   1.244  1.00  0.00     0.037 A 
BRANCH  55  69
ATOM     69  C   UNL     1      -1.610  12.022  -4.779  1.00  0.00     0.057 A 
ATOM     70  C   UNL     1      -2.518  11.379  -5.630  1.00  0.00     0.134 A 
ATOM     71  C   UNL     1      -0.918  13.129  -5.283  1.00  0.00     0.134 A 
ATOM     72  F   UNL     1      -3.192  10.296  -5.213  1.00  0.00    -0.206 F 
ATOM     73  C   UNL     1      -2.721  11.814  -6.940  1.00  0.00     0.040 A 
ATOM     74  C   UNL     1      -1.131  13.589  -6.582  1.00  0.00     0.040 A 
ATOM     75  F   UNL     1      -0.030  13.784  -4.519  1.00  0.00    -0.206 F 
ATOM     76  C   UNL     1      -2.032  12.928  -7.416  1.00  0.00     0.006 A 
ENDBRANCH  55  69
BRANCH  56  77
ATOM     77  C   UNL     1      -0.008   8.513   4.384  1.00  0.00     0.057 A 
ATOM     78  C   UNL     1      -1.065   8.214   5.254  1.00  0.00     0.134 A 
ATOM     79  C   UNL     1       1.289   8.446   4.907  1.00  0.00     0.134 A 
ATOM     80  F   UNL     1      -2.334   8.299   4.829  1.00  0.00    -0.206 F 
ATOM     81  C   UNL     1      -0.844   7.900   6.598  1.00  0.00     0.040 A 
ATOM     82  C   UNL     1       1.526   8.102   6.240  1.00  0.00     0.040 A 
ATOM     83  F   UNL     1       2.347   8.737   4.135  1.00  0.00    -0.206 F 
ATOM     84  C   UNL     1       0.457   7.840   7.093  1.00  0.00     0.006 A 
ENDBRANCH  56  77
BRANCH  68  85
ATOM     85  C   UNL     1      -3.027  14.277   1.921  1.00  0.00     0.057 A 
ATOM     86  C   UNL     1      -2.300  15.226   2.651  1.00  0.00     0.134 A 
ATOM     87  C   UNL     1      -4.411  14.474   1.810  1.00  0.00     0.134 A 
ATOM     88  F   UNL     1      -0.973  15.097   2.803  1.00  0.00    -0.206 F 
ATOM     89  C   UNL     1      -2.928  16.308   3.274  1.00  0.00     0.040 A 
ATOM     90  C   UNL     1      -5.045  15.568   2.402  1.00  0.00     0.040 A 
ATOM     91  F   UNL     1      -5.168  13.615   1.112  1.00  0.00    -0.206 F 
ATOM     92  C   UNL     1      -4.304  16.483   3.146  1.00  0.00     0.006 A 
ENDBRANCH  68  85
ENDBRANCH  42  43
ENDBRANCH  35  37
ENDBRANCH  34  35
ENDBRANCH  33  34
ENDBRANCH  32  33
ENDBRANCH  31  32
ENDBRANCH  30  31
ENDBRANCH   1  30
TORSDOF 20
