REMARK SMILES [NH3+]C[C@H]1CC[C@@H](C(=O)Nc2ccc(O)c(C(=O)OCCOCCOCCOC(=O)c3ccc(-c4c5nc(c(-c6c(F)cccc6F)c6ccc([nH]6)c(-c6c(F)cccc6F)c6nc(c(-c7c(F)cccc7F)c7ccc4[nH]7)C=C6)C=C5)cc3)c2)O1
REMARK SMILES IDX 22 1 21 2 20 3 19 4 18 5 16 6 17 7 15 8 10 9 11 10 84 11
REMARK SMILES IDX 12 12 13 13 9 14 7 15 8 16 6 18 3 19 4 20 85 21 5 22 2 23
REMARK SMILES IDX 1 24 14 28 23 30 24 31 25 32 26 33 27 34 28 35 29 36 30 37
REMARK SMILES IDX 31 38 83 39 32 40 82 41 33 42 34 43 35 44 76 45 36 46 81 47
REMARK SMILES IDX 75 48 77 49 37 50 80 51 74 52 73 53 38 55 64 56 47 57 63 58
REMARK SMILES IDX 48 59 51 60 62 61 78 62 49 63 50 64 61 66 79 67 52 68 39 69
REMARK SMILES IDX 40 70 45 71 41 72 42 73 44 74 46 75 43 76 65 77 66 78 71 79
REMARK SMILES IDX 67 80 68 81 70 82 72 83 69 84 53 85 54 86 59 87 55 88 56 89
REMARK SMILES IDX 58 90 60 91 57 92
REMARK H PARENT 9 17 1 25 1 26 1 27 14 29 77 54 51 65
REMARK Flexibility Score: inf
ROOT
ATOM      1  C   UNL     1       1.422 -11.679  -3.380  1.00  0.00     0.188 C 
ENDROOT
BRANCH   1   2
ATOM      2  O   UNL     1       0.638 -12.806  -3.752  1.00  0.00    -0.376 OA
BRANCH   2   3
ATOM      3  C   UNL     1      -0.187 -12.722  -4.913  1.00  0.00     0.202 C 
BRANCH   3   4
ATOM      4  C   UNL     1      -1.165 -11.547  -5.032  1.00  0.00     0.261 C 
BRANCH   4   5
ATOM      5  O   UNL     1      -0.483 -10.287  -5.042  1.00  0.00    -0.460 OA
BRANCH   5   6
ATOM      6  C   UNL     1      -0.991  -9.323  -4.229  1.00  0.00     0.342 C 
ATOM      7  O   UNL     1      -1.996  -9.382  -3.561  1.00  0.00    -0.246 OA
BRANCH   6   8
ATOM      8  C   UNL     1       0.031  -8.264  -4.058  1.00  0.00     0.103 A 
ATOM      9  C   UNL     1       1.334  -6.949  -2.509  1.00  0.00     0.042 A 
ATOM     10  C   UNL     1       2.070  -6.436  -3.578  1.00  0.00     0.030 A 
ATOM     11  C   UNL     1       0.354  -7.908  -2.738  1.00  0.00     0.045 A 
ATOM     12  C   UNL     1       1.754  -6.787  -4.891  1.00  0.00     0.049 A 
ATOM     13  C   UNL     1       0.716  -7.684  -5.132  1.00  0.00     0.130 A 
BRANCH   9  14
ATOM     14  N   UNL     1       1.639  -6.567  -1.202  1.00  0.00    -0.324 N 
ATOM     15  C   UNL     1       1.677  -5.288  -0.697  1.00  0.00     0.253 C 
ATOM     16  O   UNL     1       2.291  -5.086   0.353  1.00  0.00    -0.272 OA
ATOM     17  H   UNL     1       1.851  -7.293  -0.572  1.00  0.00     0.170 HD
BRANCH  15  18
ATOM     18  C   UNL     1       0.772  -4.210  -1.349  1.00  0.00     0.208 C 
ATOM     19  C   UNL     1       1.003  -1.884  -1.101  1.00  0.00     0.174 C 
ATOM     20  C   UNL     1       0.810  -2.170  -2.575  1.00  0.00     0.041 C 
ATOM     21  O   UNL     1       0.608  -3.100  -0.443  1.00  0.00    -0.359 OA
ATOM     22  C   UNL     1       1.238  -3.616  -2.668  1.00  0.00     0.045 C 
BRANCH  19  23
ATOM     23  C   UNL     1       2.467  -1.522  -0.762  1.00  0.00     0.291 C 
BRANCH  23  24
ATOM     24  N   UNL     1       2.802  -1.755   0.643  1.00  0.00    -0.355 N 
ATOM     25  H   UNL     1       3.775  -1.500   0.808  1.00  0.00     0.344 HD
ATOM     26  H   UNL     1       2.666  -2.742   0.865  1.00  0.00     0.344 HD
ATOM     27  H   UNL     1       2.196  -1.187   1.236  1.00  0.00     0.344 HD
ENDBRANCH  23  24
ENDBRANCH  19  23
ENDBRANCH  15  18
ENDBRANCH   9  14
BRANCH  13  28
ATOM     28  O   UNL     1       0.383  -7.995  -6.418  1.00  0.00    -0.507 OA
ATOM     29  H   UNL     1       0.848  -7.601  -7.130  1.00  0.00     0.293 HD
ENDBRANCH  13  28
ENDBRANCH   6   8
ENDBRANCH   5   6
ENDBRANCH   4   5
ENDBRANCH   3   4
ENDBRANCH   2   3
ENDBRANCH   1   2
BRANCH   1  30
ATOM     30  C   UNL     1       2.388 -11.053  -4.407  1.00  0.00     0.188 C 
BRANCH  30  31
ATOM     31  O   UNL     1       2.344 -11.594  -5.703  1.00  0.00    -0.376 OA
BRANCH  31  32
ATOM     32  C   UNL     1       3.184 -12.670  -6.077  1.00  0.00     0.202 C 
BRANCH  32  33
ATOM     33  C   UNL     1       3.943 -13.607  -5.116  1.00  0.00     0.261 C 
BRANCH  33  34
ATOM     34  O   UNL     1       3.933 -13.308  -3.720  1.00  0.00    -0.460 OA
BRANCH  34  35
ATOM     35  C   UNL     1       5.011 -12.637  -3.256  1.00  0.00     0.338 C 
ATOM     36  O   UNL     1       5.953 -12.214  -3.902  1.00  0.00    -0.246 OA
BRANCH  35  37
ATOM     37  C   UNL     1       4.799 -12.327  -1.830  1.00  0.00     0.060 A 
ATOM     38  C   UNL     1       4.796 -10.982  -1.441  1.00  0.00     0.016 A 
ATOM     39  C   UNL     1       4.674 -13.345  -0.880  1.00  0.00     0.016 A 
ATOM     40  C   UNL     1       4.732 -10.651  -0.089  1.00  0.00     0.010 A 
ATOM     41  C   UNL     1       4.626 -13.011   0.477  1.00  0.00     0.010 A 
ATOM     42  C   UNL     1       4.705 -11.666   0.878  1.00  0.00    -0.014 A 
BRANCH  42  43
ATOM     43  C   UNL     1       4.996 -11.315   2.289  1.00  0.00     0.031 A 
ATOM     44  C   UNL     1       6.417 -11.439   2.774  1.00  0.00     0.074 A 
ATOM     45  C   UNL     1       4.040 -10.844   3.108  1.00  0.00     0.049 A 
ATOM     46  N   UNL     1       6.921 -11.169   3.951  1.00  0.00    -0.248 NA
ATOM     47  C   UNL     1       7.402 -11.933   1.797  1.00  0.00     0.031 C 
ATOM     48  C   UNL     1       2.636 -10.650   2.752  1.00  0.00     0.029 A 
ATOM     49  N   UNL     1       4.116 -10.439   4.418  1.00  0.00    -0.354 N 
ATOM     50  C   UNL     1       8.276 -11.460   3.855  1.00  0.00     0.074 A 
ATOM     51  C   UNL     1       8.513 -11.957   2.518  1.00  0.00     0.031 C 
ATOM     52  C   UNL     1       1.979 -10.169   3.823  1.00  0.00     0.029 A 
ATOM     53  C   UNL     1       2.912 -10.039   4.942  1.00  0.00     0.049 A 
ATOM     54  H   UNL     1       4.955 -10.437   4.933  1.00  0.00     0.167 HD
ATOM     55  C   UNL     1       9.242 -11.314   4.792  1.00  0.00     0.037 A 
ATOM     56  C   UNL     1       2.602  -9.626   6.186  1.00  0.00     0.037 A 
ATOM     57  C   UNL     1       9.014 -10.815   6.121  1.00  0.00     0.049 A 
ATOM     58  C   UNL     1       3.689  -9.518   7.225  1.00  0.00     0.074 A 
ATOM     59  C   UNL     1       9.932 -10.619   7.137  1.00  0.00     0.029 A 
ATOM     60  N   UNL     1       7.777 -10.435   6.617  1.00  0.00    -0.354 N 
ATOM     61  N   UNL     1       4.972  -9.765   7.113  1.00  0.00    -0.248 NA
ATOM     62  C   UNL     1       3.283  -9.064   8.564  1.00  0.00     0.031 C 
ATOM     63  C   UNL     1       9.243 -10.159   8.264  1.00  0.00     0.029 A 
ATOM     64  C   UNL     1       7.905 -10.023   7.933  1.00  0.00     0.049 A 
ATOM     65  H   UNL     1       6.934 -10.455   6.110  1.00  0.00     0.167 HD
ATOM     66  C   UNL     1       5.529  -9.461   8.350  1.00  0.00     0.074 A 
ATOM     67  C   UNL     1       4.447  -9.002   9.194  1.00  0.00     0.031 C 
ATOM     68  C   UNL     1       6.820  -9.553   8.754  1.00  0.00     0.037 A 
BRANCH  55  69
ATOM     69  C   UNL     1      10.636 -11.718   4.416  1.00  0.00     0.057 A 
ATOM     70  C   UNL     1      11.420 -10.947   3.550  1.00  0.00     0.134 A 
ATOM     71  C   UNL     1      11.214 -12.872   4.960  1.00  0.00     0.134 A 
ATOM     72  F   UNL     1      10.918  -9.841   2.980  1.00  0.00    -0.206 F 
ATOM     73  C   UNL     1      12.727 -11.316   3.227  1.00  0.00     0.040 A 
ATOM     74  C   UNL     1      12.527 -13.238   4.664  1.00  0.00     0.040 A 
ATOM     75  F   UNL     1      10.515 -13.654   5.797  1.00  0.00    -0.206 F 
ATOM     76  C   UNL     1      13.287 -12.460   3.792  1.00  0.00     0.006 A 
ENDBRANCH  55  69
BRANCH  56  77
ATOM     77  C   UNL     1       1.198  -9.291   6.540  1.00  0.00     0.057 A 
ATOM     78  C   UNL     1       0.817  -7.979   6.847  1.00  0.00     0.134 A 
ATOM     79  C   UNL     1       0.219 -10.286   6.639  1.00  0.00     0.134 A 
ATOM     80  F   UNL     1       1.718  -6.986   6.799  1.00  0.00    -0.206 F 
ATOM     81  C   UNL     1      -0.478  -7.673   7.268  1.00  0.00     0.040 A 
ATOM     82  C   UNL     1      -1.087  -9.990   7.034  1.00  0.00     0.040 A 
ATOM     83  F   UNL     1       0.519 -11.563   6.360  1.00  0.00    -0.206 F 
ATOM     84  C   UNL     1      -1.435  -8.681   7.361  1.00  0.00     0.006 A 
ENDBRANCH  56  77
BRANCH  68  85
ATOM     85  C   UNL     1       7.140  -9.104  10.150  1.00  0.00     0.057 A 
ATOM     86  C   UNL     1       6.754  -9.845  11.275  1.00  0.00     0.134 A 
ATOM     87  C   UNL     1       7.870  -7.929  10.369  1.00  0.00     0.134 A 
ATOM     88  F   UNL     1       6.044 -10.975  11.134  1.00  0.00    -0.206 F 
ATOM     89  C   UNL     1       7.057  -9.416  12.568  1.00  0.00     0.040 A 
ATOM     90  C   UNL     1       8.203  -7.505  11.656  1.00  0.00     0.040 A 
ATOM     91  F   UNL     1       8.283  -7.180   9.335  1.00  0.00    -0.206 F 
ATOM     92  C   UNL     1       7.788  -8.246  12.761  1.00  0.00     0.006 A 
ENDBRANCH  68  85
ENDBRANCH  42  43
ENDBRANCH  35  37
ENDBRANCH  34  35
ENDBRANCH  33  34
ENDBRANCH  32  33
ENDBRANCH  31  32
ENDBRANCH  30  31
ENDBRANCH   1  30
TORSDOF 22
