REMARK SMILES C[NH2+]C[C@H](C)C(=O)N1CCc2cc(C(=O)OCCOCCOCCOC(=O)c3ccc(-c4c5nc(c(-c6c(F)cccc6F)c6ccc([nH]6)c(-c6c(F)cccc6F)c6nc(c(-c7c(F)cccc7F)c7ccc4[nH]7)C=C6)C=C5)cc3)ccc21
REMARK SMILES IDX 20 1 19 2 18 3 17 4 16 5 14 6 15 7 13 8 8 9 9 10 84 11 10 12
REMARK SMILES IDX 11 13 83 14 12 15 82 16 6 17 7 18 4 19 5 20 3 21 2 22 1 23
REMARK SMILES IDX 21 26 22 27 23 28 24 29 25 30 26 31 27 32 28 33 29 34 81 35
REMARK SMILES IDX 30 36 80 37 31 38 32 39 33 40 74 41 34 42 79 43 73 44 75 45
REMARK SMILES IDX 35 46 78 47 72 48 71 49 36 51 62 52 45 53 61 54 46 55 49 56
REMARK SMILES IDX 60 57 76 58 47 59 48 60 59 62 77 63 50 64 37 65 38 66 43 67
REMARK SMILES IDX 39 68 40 69 42 70 44 71 41 72 63 73 64 74 69 75 65 76 66 77
REMARK SMILES IDX 68 78 70 79 67 80 51 81 52 82 57 83 53 84 54 85 56 86 58 87
REMARK SMILES IDX 55 88
REMARK H PARENT 2 24 2 25 75 50 49 61
REMARK Flexibility Score: inf
ROOT
ATOM      1  C   UNL     1      -4.708  -4.692   6.766  1.00  0.00     0.188 C 
ENDROOT
BRANCH   1   2
ATOM      2  O   UNL     1      -4.249  -5.455   7.867  1.00  0.00    -0.376 OA
BRANCH   2   3
ATOM      3  C   UNL     1      -2.865  -5.507   8.181  1.00  0.00     0.202 C 
BRANCH   3   4
ATOM      4  C   UNL     1      -1.790  -5.672   7.097  1.00  0.00     0.261 C 
BRANCH   4   5
ATOM      5  O   UNL     1      -1.939  -4.805   5.968  1.00  0.00    -0.460 OA
BRANCH   5   6
ATOM      6  C   UNL     1      -2.231  -5.421   4.797  1.00  0.00     0.338 C 
ATOM      7  O   UNL     1      -2.309  -6.621   4.595  1.00  0.00    -0.246 OA
BRANCH   6   8
ATOM      8  C   UNL     1      -2.647  -4.418   3.794  1.00  0.00     0.060 A 
ATOM      9  N   UNL     1      -3.681  -2.118   0.535  1.00  0.00    -0.311 N 
ATOM     10  C   UNL     1      -4.892  -2.794   0.034  1.00  0.00     0.130 C 
ATOM     11  C   UNL     1      -3.335  -2.682   1.763  1.00  0.00     0.047 A 
ATOM     12  C   UNL     1      -5.237  -3.913   1.024  1.00  0.00     0.059 C 
ATOM     13  C   UNL     1      -4.093  -3.829   1.983  1.00  0.00    -0.022 A 
ATOM     14  C   UNL     1      -2.403  -2.273   2.694  1.00  0.00     0.027 A 
ATOM     15  C   UNL     1      -3.738  -4.732   2.970  1.00  0.00     0.021 A 
ATOM     16  C   UNL     1      -2.031  -3.160   3.705  1.00  0.00     0.018 A 
BRANCH   9  17
ATOM     17  C   UNL     1      -2.978  -1.316  -0.336  1.00  0.00     0.235 C 
ATOM     18  O   UNL     1      -3.599  -0.680  -1.202  1.00  0.00    -0.274 OA
BRANCH  17  19
ATOM     19  C   UNL     1      -1.442  -1.381  -0.463  1.00  0.00     0.131 C 
ATOM     20  C   UNL     1      -0.561  -0.825   0.645  1.00  0.00     0.024 C 
BRANCH  19  21
ATOM     21  C   UNL     1      -0.957  -2.721  -1.063  1.00  0.00     0.273 C 
BRANCH  21  22
ATOM     22  N   UNL     1      -0.664  -3.822  -0.140  1.00  0.00    -0.348 N 
ATOM     23  C   UNL     1      -1.558  -4.956  -0.316  1.00  0.00     0.330 C 
ATOM     24  H   UNL     1       0.294  -4.134  -0.298  1.00  0.00     0.346 HD
ATOM     25  H   UNL     1      -0.795  -3.471   0.809  1.00  0.00     0.346 HD
ENDBRANCH  21  22
ENDBRANCH  19  21
ENDBRANCH  17  19
ENDBRANCH   9  17
ENDBRANCH   6   8
ENDBRANCH   5   6
ENDBRANCH   4   5
ENDBRANCH   3   4
ENDBRANCH   2   3
ENDBRANCH   1   2
BRANCH   1  26
ATOM     26  C   UNL     1      -4.349  -3.197   6.638  1.00  0.00     0.188 C 
BRANCH  26  27
ATOM     27  O   UNL     1      -3.437  -2.655   7.559  1.00  0.00    -0.376 OA
BRANCH  27  28
ATOM     28  C   UNL     1      -3.868  -2.270   8.853  1.00  0.00     0.202 C 
BRANCH  28  29
ATOM     29  C   UNL     1      -5.321  -2.284   9.373  1.00  0.00     0.261 C 
BRANCH  29  30
ATOM     30  O   UNL     1      -6.311  -2.993   8.623  1.00  0.00    -0.460 OA
BRANCH  30  31
ATOM     31  C   UNL     1      -7.164  -2.227   7.903  1.00  0.00     0.338 C 
ATOM     32  O   UNL     1      -7.158  -1.007   7.792  1.00  0.00    -0.246 OA
BRANCH  31  33
ATOM     33  C   UNL     1      -8.028  -3.106   7.098  1.00  0.00     0.060 A 
ATOM     34  C   UNL     1      -7.883  -3.115   5.702  1.00  0.00     0.016 A 
ATOM     35  C   UNL     1      -8.998  -3.895   7.717  1.00  0.00     0.016 A 
ATOM     36  C   UNL     1      -8.723  -3.905   4.918  1.00  0.00     0.010 A 
ATOM     37  C   UNL     1      -9.854  -4.666   6.928  1.00  0.00     0.010 A 
ATOM     38  C   UNL     1      -9.739  -4.655   5.525  1.00  0.00    -0.014 A 
BRANCH  38  39
ATOM     39  C   UNL     1     -10.802  -5.281   4.703  1.00  0.00     0.031 A 
ATOM     40  C   UNL     1     -12.113  -4.558   4.561  1.00  0.00     0.074 A 
ATOM     41  C   UNL     1     -10.619  -6.471   4.106  1.00  0.00     0.049 A 
ATOM     42  N   UNL     1     -13.224  -4.952   3.996  1.00  0.00    -0.248 NA
ATOM     43  C   UNL     1     -12.177  -3.208   5.144  1.00  0.00     0.031 C 
ATOM     44  C   UNL     1      -9.383  -7.249   4.127  1.00  0.00     0.029 A 
ATOM     45  N   UNL     1     -11.493  -7.243   3.380  1.00  0.00    -0.354 N 
ATOM     46  C   UNL     1     -14.123  -3.907   4.167  1.00  0.00     0.074 A 
ATOM     47  C   UNL     1     -13.436  -2.874   4.912  1.00  0.00     0.031 C 
ATOM     48  C   UNL     1      -9.583  -8.400   3.461  1.00  0.00     0.029 A 
ATOM     49  C   UNL     1     -10.971  -8.457   3.004  1.00  0.00     0.049 A 
ATOM     50  H   UNL     1     -12.405  -6.953   3.150  1.00  0.00     0.167 HD
ATOM     51  C   UNL     1     -15.404  -3.814   3.738  1.00  0.00     0.037 A 
ATOM     52  C   UNL     1     -11.560  -9.503   2.392  1.00  0.00     0.037 A 
ATOM     53  C   UNL     1     -16.087  -4.847   3.006  1.00  0.00     0.049 A 
ATOM     54  C   UNL     1     -13.015  -9.414   2.005  1.00  0.00     0.074 A 
ATOM     55  C   UNL     1     -17.382  -4.845   2.518  1.00  0.00     0.029 A 
ATOM     56  N   UNL     1     -15.533  -6.072   2.666  1.00  0.00    -0.354 N 
ATOM     57  N   UNL     1     -13.854  -8.416   2.153  1.00  0.00    -0.248 NA
ATOM     58  C   UNL     1     -13.606 -10.600   1.366  1.00  0.00     0.031 C 
ATOM     59  C   UNL     1     -17.630  -6.090   1.933  1.00  0.00     0.029 A 
ATOM     60  C   UNL     1     -16.468  -6.844   1.998  1.00  0.00     0.049 A 
ATOM     61  H   UNL     1     -14.611  -6.351   2.870  1.00  0.00     0.167 HD
ATOM     62  C   UNL     1     -15.054  -8.838   1.592  1.00  0.00     0.074 A 
ATOM     63  C   UNL     1     -14.834 -10.180   1.096  1.00  0.00     0.031 C 
ATOM     64  C   UNL     1     -16.231  -8.172   1.492  1.00  0.00     0.037 A 
BRANCH  51  65
ATOM     65  C   UNL     1     -16.158  -2.562   4.082  1.00  0.00     0.057 A 
ATOM     66  C   UNL     1     -15.854  -1.327   3.495  1.00  0.00     0.134 A 
ATOM     67  C   UNL     1     -17.218  -2.598   4.998  1.00  0.00     0.134 A 
ATOM     68  F   UNL     1     -14.841  -1.219   2.622  1.00  0.00    -0.206 F 
ATOM     69  C   UNL     1     -16.559  -0.168   3.826  1.00  0.00     0.040 A 
ATOM     70  C   UNL     1     -17.949  -1.453   5.314  1.00  0.00     0.040 A 
ATOM     71  F   UNL     1     -17.564  -3.749   5.594  1.00  0.00    -0.206 F 
ATOM     72  C   UNL     1     -17.615  -0.231   4.733  1.00  0.00     0.006 A 
ENDBRANCH  51  65
BRANCH  52  73
ATOM     73  C   UNL     1     -10.786 -10.741   2.116  1.00  0.00     0.057 A 
ATOM     74  C   UNL     1     -10.490 -11.133   0.805  1.00  0.00     0.134 A 
ATOM     75  C   UNL     1     -10.352 -11.579   3.151  1.00  0.00     0.134 A 
ATOM     76  F   UNL     1     -10.900 -10.386  -0.231  1.00  0.00    -0.206 F 
ATOM     77  C   UNL     1      -9.811 -12.322   0.531  1.00  0.00     0.040 A 
ATOM     78  C   UNL     1      -9.647 -12.756   2.893  1.00  0.00     0.040 A 
ATOM     79  F   UNL     1     -10.605 -11.263   4.430  1.00  0.00    -0.206 F 
ATOM     80  C   UNL     1      -9.383 -13.135   1.579  1.00  0.00     0.006 A 
ENDBRANCH  52  73
BRANCH  64  81
ATOM     81  C   UNL     1     -17.360  -8.854   0.770  1.00  0.00     0.057 A 
ATOM     82  C   UNL     1     -18.048  -9.943   1.318  1.00  0.00     0.134 A 
ATOM     83  C   UNL     1     -17.799  -8.372  -0.472  1.00  0.00     0.134 A 
ATOM     84  F   UNL     1     -17.674 -10.461   2.497  1.00  0.00    -0.206 F 
ATOM     85  C   UNL     1     -19.119 -10.540   0.649  1.00  0.00     0.040 A 
ATOM     86  C   UNL     1     -18.886  -8.941  -1.135  1.00  0.00     0.040 A 
ATOM     87  F   UNL     1     -17.191  -7.324  -1.049  1.00  0.00    -0.206 F 
ATOM     88  C   UNL     1     -19.546 -10.034  -0.577  1.00  0.00     0.006 A 
ENDBRANCH  64  81
ENDBRANCH  38  39
ENDBRANCH  31  33
ENDBRANCH  30  31
ENDBRANCH  29  30
ENDBRANCH  28  29
ENDBRANCH  27  28
ENDBRANCH  26  27
ENDBRANCH   1  26
TORSDOF 21
