REMARK SMILES Cc1cc(/C=C2/C(=O)NC(=S)N=C2OCCOCCOCCOC(=O)c2ccc(-c3c4nc(c(-c5c(F)cccc5F)c5ccc([nH]5)c(-c5c(F)cccc5F)c5nc(c(-c6c(F)cccc6F)c6ccc3[nH]6)C=C5)C=C4)cc2)c(C)n1-c1cccc(C(=O)[O-])c1
REMARK SMILES IDX 18 1 17 2 16 3 15 4 14 5 13 6 5 7 6 8 7 9 8 10 9 11 12 12
REMARK SMILES IDX 10 13 11 15 4 16 1 17 2 18 3 19 82 20 80 21 81 22 83 23
REMARK SMILES IDX 84 24 91 25 85 26 87 27 86 28 88 29 89 30 90 31 19 32 20 33
REMARK SMILES IDX 21 34 22 35 23 36 24 37 25 38 26 39 27 40 79 41 28 42 78 43
REMARK SMILES IDX 29 44 30 45 31 46 72 47 32 48 77 49 71 50 73 51 33 52 76 53
REMARK SMILES IDX 70 54 69 55 34 57 60 58 43 59 59 60 44 61 47 62 58 63 74 64
REMARK SMILES IDX 45 65 46 66 57 68 75 69 48 70 35 71 36 72 41 73 37 74 38 75
REMARK SMILES IDX 40 76 42 77 39 78 61 79 62 80 67 81 63 82 64 83 66 84 68 85
REMARK SMILES IDX 65 86 49 87 50 88 55 89 51 90 52 91 54 92 56 93 53 94
REMARK H PARENT 9 14 73 56 47 67
REMARK Flexibility Score: inf
ROOT
ATOM      1  C   UNL     1       1.318   2.684  -8.154  1.00  0.00     0.188 C 
ENDROOT
BRANCH   1   2
ATOM      2  O   UNL     1       1.562   4.011  -7.716  1.00  0.00    -0.376 OA
BRANCH   2   3
ATOM      3  C   UNL     1       1.346   4.416  -6.371  1.00  0.00     0.201 C 
BRANCH   3   4
ATOM      4  C   UNL     1      -0.051   4.246  -5.782  1.00  0.00     0.260 C 
BRANCH   4   5
ATOM      5  O   UNL     1      -0.290   2.879  -5.378  1.00  0.00    -0.475 OA
BRANCH   5   6
ATOM      6  C   UNL     1      -1.194   2.158  -6.072  1.00  0.00     0.229 C 
ATOM      7  C   UNL     1      -0.956   0.085  -4.546  1.00  0.00     0.029 C 
ATOM      8  C   UNL     1      -1.257   0.736  -5.689  1.00  0.00     0.103 C 
ATOM      9  C   UNL     1      -1.747  -0.152  -6.800  1.00  0.00     0.262 C 
ATOM     10  O   UNL     1      -1.680  -1.346  -6.803  1.00  0.00    -0.269 OA
ATOM     11  N   UNL     1      -2.298   0.538  -7.860  1.00  0.00    -0.297 N 
ATOM     12  N   UNL     1      -1.810   2.690  -7.072  1.00  0.00    -0.184 NA
ATOM     13  C   UNL     1      -2.421   1.891  -7.987  1.00  0.00     0.203 C 
ATOM     14  H   UNL     1      -2.640  -0.005  -8.607  1.00  0.00     0.172 HD
ATOM     15  S   UNL     1      -3.184   2.487  -9.355  1.00  0.00    -0.038 S 
BRANCH   7  16
ATOM     16  C   UNL     1      -0.456   0.482  -3.260  1.00  0.00    -0.003 A 
ATOM     17  C   UNL     1       1.215  -0.298  -0.017  1.00  0.00     0.065 C 
ATOM     18  C   UNL     1       0.602   0.251  -1.260  1.00  0.00     0.020 A 
ATOM     19  C   UNL     1       0.221  -0.426  -2.400  1.00  0.00     0.031 A 
ATOM     20  N   UNL     1       0.281   1.588  -1.452  1.00  0.00    -0.318 N 
ATOM     21  C   UNL     1      -0.614   1.656  -2.536  1.00  0.00     0.027 A 
ATOM     22  C   UNL     1      -1.452   2.852  -2.820  1.00  0.00     0.065 C 
BRANCH  20  23
ATOM     23  C   UNL     1       0.897   2.704  -0.799  1.00  0.00     0.046 A 
ATOM     24  C   UNL     1       0.162   3.852  -0.487  1.00  0.00     0.026 A 
ATOM     25  C   UNL     1       2.292   2.715  -0.634  1.00  0.00     0.036 A 
ATOM     26  C   UNL     1       0.807   5.039  -0.148  1.00  0.00     0.003 A 
ATOM     27  C   UNL     1       2.940   3.904  -0.265  1.00  0.00    -0.001 A 
ATOM     28  C   UNL     1       2.195   5.073  -0.063  1.00  0.00     0.010 A 
BRANCH  27  29
ATOM     29  C   UNL     1       4.410   3.998  -0.114  1.00  0.00     0.072 C 
ATOM     30  O   UNL     1       5.044   5.028   0.055  1.00  0.00    -0.545 OA
ATOM     31  O   UNL     1       5.020   2.803  -0.136  1.00  0.00    -0.545 OA
ENDBRANCH  27  29
ENDBRANCH  20  23
ENDBRANCH   7  16
ENDBRANCH   5   6
ENDBRANCH   4   5
ENDBRANCH   3   4
ENDBRANCH   2   3
ENDBRANCH   1   2
BRANCH   1  32
ATOM     32  C   UNL     1       1.967   1.472  -7.469  1.00  0.00     0.188 C 
BRANCH  32  33
ATOM     33  O   UNL     1       3.185   1.651  -6.789  1.00  0.00    -0.376 OA
BRANCH  33  34
ATOM     34  C   UNL     1       4.142   2.477  -7.421  1.00  0.00     0.202 C 
BRANCH  34  35
ATOM     35  C   UNL     1       4.722   2.133  -8.845  1.00  0.00     0.261 C 
BRANCH  35  36
ATOM     36  O   UNL     1       3.989   2.066 -10.155  1.00  0.00    -0.460 OA
BRANCH  36  37
ATOM     37  C   UNL     1       3.778   0.852 -10.828  1.00  0.00     0.338 C 
ATOM     38  O   UNL     1       3.643  -0.198 -10.214  1.00  0.00    -0.246 OA
BRANCH  37  39
ATOM     39  C   UNL     1       3.804   0.854 -12.423  1.00  0.00     0.060 A 
ATOM     40  C   UNL     1       3.118   0.046 -13.393  1.00  0.00     0.016 A 
ATOM     41  C   UNL     1       4.647   1.685 -13.075  1.00  0.00     0.016 A 
ATOM     42  C   UNL     1       3.233   0.122 -14.992  1.00  0.00     0.010 A 
ATOM     43  C   UNL     1       4.686   1.703 -14.560  1.00  0.00     0.010 A 
ATOM     44  C   UNL     1       4.091   0.980 -15.728  1.00  0.00    -0.014 A 
BRANCH  44  45
ATOM     45  C   UNL     1       3.843   1.740 -17.433  1.00  0.00     0.031 A 
ATOM     46  C   UNL     1       2.841   2.763 -17.003  1.00  0.00     0.074 A 
ATOM     47  C   UNL     1       4.440   2.177 -18.807  1.00  0.00     0.049 A 
ATOM     48  N   UNL     1       3.107   3.196 -15.791  1.00  0.00    -0.248 NA
ATOM     49  C   UNL     1       2.320   3.851 -17.797  1.00  0.00     0.031 C 
ATOM     50  C   UNL     1       5.782   1.896 -19.420  1.00  0.00     0.029 A 
ATOM     51  N   UNL     1       4.011   3.164 -20.007  1.00  0.00    -0.354 N 
ATOM     52  C   UNL     1       3.924   4.236 -16.133  1.00  0.00     0.074 A 
ATOM     53  C   UNL     1       2.950   4.826 -17.110  1.00  0.00     0.031 C 
ATOM     54  C   UNL     1       6.130   2.687 -20.480  1.00  0.00     0.029 A 
ATOM     55  C   UNL     1       5.084   3.642 -20.965  1.00  0.00     0.049 A 
ATOM     56  H   UNL     1       3.075   3.450 -20.115  1.00  0.00     0.167 HD
ATOM     57  C   UNL     1       5.348   4.284 -16.137  1.00  0.00     0.037 A 
ATOM     58  C   UNL     1       5.431   4.463 -22.150  1.00  0.00     0.037 A 
ATOM     59  C   UNL     1       5.799   5.632 -16.386  1.00  0.00     0.049 A 
ATOM     60  C   UNL     1       6.324   5.411 -21.403  1.00  0.00     0.074 A 
ATOM     61  C   UNL     1       5.158   6.663 -17.034  1.00  0.00     0.029 A 
ATOM     62  N   UNL     1       7.112   5.859 -16.779  1.00  0.00    -0.354 N 
ATOM     63  N   UNL     1       7.612   5.403 -21.257  1.00  0.00    -0.248 NA
ATOM     64  C   UNL     1       5.639   6.634 -20.917  1.00  0.00     0.031 C 
ATOM     65  C   UNL     1       5.599   6.148 -18.252  1.00  0.00     0.029 A 
ATOM     66  C   UNL     1       6.989   6.023 -18.131  1.00  0.00     0.049 A 
ATOM     67  H   UNL     1       7.926   5.892 -16.225  1.00  0.00     0.167 HD
ATOM     68  C   UNL     1       7.777   6.388 -20.290  1.00  0.00     0.074 A 
ATOM     69  C   UNL     1       6.678   7.319 -20.439  1.00  0.00     0.031 C 
ATOM     70  C   UNL     1       8.086   5.911 -19.051  1.00  0.00     0.037 A 
BRANCH  57  71
ATOM     71  C   UNL     1       6.619   3.179 -15.850  1.00  0.00     0.057 A 
ATOM     72  C   UNL     1       6.860   1.822 -16.277  1.00  0.00     0.134 A 
ATOM     73  C   UNL     1       7.581   3.552 -14.898  1.00  0.00     0.134 A 
ATOM     74  F   UNL     1       6.109   1.154 -17.134  1.00  0.00    -0.206 F 
ATOM     75  C   UNL     1       7.823   0.934 -15.749  1.00  0.00     0.040 A 
ATOM     76  C   UNL     1       8.586   2.691 -14.394  1.00  0.00     0.040 A 
ATOM     77  F   UNL     1       7.568   4.789 -14.386  1.00  0.00    -0.206 F 
ATOM     78  C   UNL     1       8.685   1.364 -14.780  1.00  0.00     0.006 A 
ENDBRANCH  57  71
BRANCH  58  79
ATOM     79  C   UNL     1       5.331   5.477 -23.572  1.00  0.00     0.057 A 
ATOM     80  C   UNL     1       5.439   4.927 -24.869  1.00  0.00     0.134 A 
ATOM     81  C   UNL     1       5.599   6.927 -23.714  1.00  0.00     0.134 A 
ATOM     82  F   UNL     1       5.476   3.599 -25.032  1.00  0.00    -0.206 F 
ATOM     83  C   UNL     1       5.641   5.708 -26.085  1.00  0.00     0.040 A 
ATOM     84  C   UNL     1       5.743   7.701 -24.892  1.00  0.00     0.040 A 
ATOM     85  F   UNL     1       5.904   7.767 -22.728  1.00  0.00    -0.206 F 
ATOM     86  C   UNL     1       5.755   7.095 -26.107  1.00  0.00     0.006 A 
ENDBRANCH  58  79
BRANCH  70  87
ATOM     87  C   UNL     1       9.232   4.963 -19.082  1.00  0.00     0.057 A 
ATOM     88  C   UNL     1      10.445   5.369 -19.655  1.00  0.00     0.134 A 
ATOM     89  C   UNL     1       9.121   3.614 -18.759  1.00  0.00     0.134 A 
ATOM     90  F   UNL     1      10.634   6.654 -19.997  1.00  0.00    -0.206 F 
ATOM     91  C   UNL     1      11.472   4.466 -19.933  1.00  0.00     0.040 A 
ATOM     92  C   UNL     1      10.139   2.693 -19.019  1.00  0.00     0.040 A 
ATOM     93  F   UNL     1       7.992   3.146 -18.236  1.00  0.00    -0.206 F 
ATOM     94  C   UNL     1      11.317   3.118 -19.623  1.00  0.00     0.006 A 
ENDBRANCH  70  87
ENDBRANCH  44  45
ENDBRANCH  37  39
ENDBRANCH  36  37
ENDBRANCH  35  36
ENDBRANCH  34  35
ENDBRANCH  33  34
ENDBRANCH  32  33
ENDBRANCH   1  32
TORSDOF 19
