REMARK SMILES Cc1cc(Br)c(C)c([C@@H]2[NH2+][C@H](C(=O)OCCOCCOCCOC(=O)c3ccc(-c4c5nc(c(-c6c(F)cccc6F)c6ccc([nH]6)c(-c6c(F)cccc6F)c6nc(c(-c7c(F)cccc7F)c7ccc4[nH]7)C=C6)C=C5)cc3)CS2)c1O
REMARK SMILES IDX 18 1 17 2 16 3 15 4 14 5 12 6 13 7 11 8 9 9 10 10 81 11
REMARK SMILES IDX 80 14 8 15 1 16 2 17 3 18 82 19 4 20 5 21 6 22 7 23 83 24
REMARK SMILES IDX 19 26 20 27 21 28 22 29 23 30 24 31 25 32 26 33 27 34 79 35
REMARK SMILES IDX 28 36 78 37 29 38 30 39 31 40 72 41 32 42 77 43 71 44 73 45
REMARK SMILES IDX 33 46 76 47 70 48 69 49 34 51 60 52 43 53 59 54 44 55 47 56
REMARK SMILES IDX 58 57 74 58 45 59 46 60 57 62 75 63 48 64 35 65 36 66 41 67
REMARK SMILES IDX 37 68 38 69 40 70 42 71 39 72 61 73 62 74 67 75 63 76 64 77
REMARK SMILES IDX 66 78 68 79 65 80 49 81 50 82 55 83 51 84 52 85 54 86 56 87
REMARK SMILES IDX 53 88
REMARK H PARENT 10 12 10 13 83 25 73 50 47 61
REMARK Flexibility Score: inf
ROOT
ATOM      1  C   UNL     1      -3.820   1.950   0.445  1.00  0.00     0.188 C 
ENDROOT
BRANCH   1   2
ATOM      2  O   UNL     1      -3.574   1.433  -0.860  1.00  0.00    -0.376 OA
BRANCH   2   3
ATOM      3  C   UNL     1      -2.356   0.723  -1.067  1.00  0.00     0.202 C 
BRANCH   3   4
ATOM      4  C   UNL     1      -1.081   1.489  -0.713  1.00  0.00     0.261 C 
BRANCH   4   5
ATOM      5  O   UNL     1      -1.032   1.845   0.680  1.00  0.00    -0.459 OA
BRANCH   5   6
ATOM      6  C   UNL     1      -0.344   2.978   0.982  1.00  0.00     0.365 C 
ATOM      7  O   UNL     1       0.274   3.632   0.143  1.00  0.00    -0.245 OA
BRANCH   6   8
ATOM      8  C   UNL     1      -0.541   3.469   2.431  1.00  0.00     0.304 C 
ATOM      9  C   UNL     1       0.189   1.831   4.039  1.00  0.00     0.278 C 
ATOM     10  N   UNL     1      -0.997   2.468   3.440  1.00  0.00    -0.319 N 
ATOM     11  S   UNL     1       1.470   3.090   4.175  1.00  0.00    -0.087 SA
ATOM     12  H   UNL     1      -1.539   2.935   4.167  1.00  0.00     0.348 HD
ATOM     13  H   UNL     1      -1.582   1.763   2.992  1.00  0.00     0.348 HD
ATOM     14  C   UNL     1       0.699   4.189   2.957  1.00  0.00     0.153 C 
BRANCH   9  15
ATOM     15  C   UNL     1       0.507   0.480   3.398  1.00  0.00     0.066 A 
ATOM     16  C   UNL     1       2.118  -0.897   0.169  1.00  0.00     0.048 C 
ATOM     17  C   UNL     1       1.398  -0.811   1.484  1.00  0.00    -0.008 A 
ATOM     18  C   UNL     1       0.841  -1.972   2.019  1.00  0.00     0.023 A 
ATOM     19  C   UNL     1       1.268   0.385   2.205  1.00  0.00     0.128 A 
ATOM     20  C   UNL     1       0.139  -1.937   3.223  1.00  0.00     0.021 A 
ATOM     21  Br  UNL     1      -0.515  -3.615   3.854  1.00  0.00    -0.051 Br
ATOM     22  C   UNL     1      -0.071  -0.724   3.917  1.00  0.00    -0.023 A 
ATOM     23  C   UNL     1      -0.857  -0.768   5.211  1.00  0.00     0.046 C 
BRANCH  19  24
ATOM     24  O   UNL     1       1.873   1.517   1.728  1.00  0.00    -0.507 OA
ATOM     25  H   UNL     1       2.381   1.480   0.942  1.00  0.00     0.293 HD
ENDBRANCH  19  24
ENDBRANCH   9  15
ENDBRANCH   6   8
ENDBRANCH   5   6
ENDBRANCH   4   5
ENDBRANCH   3   4
ENDBRANCH   2   3
ENDBRANCH   1   2
BRANCH   1  26
ATOM     26  C   UNL     1      -3.634   1.017   1.658  1.00  0.00     0.188 C 
BRANCH  26  27
ATOM     27  O   UNL     1      -3.500  -0.350   1.302  1.00  0.00    -0.376 OA
BRANCH  27  28
ATOM     28  C   UNL     1      -4.368  -1.239   1.984  1.00  0.00     0.202 C 
BRANCH  28  29
ATOM     29  C   UNL     1      -5.749  -1.303   1.325  1.00  0.00     0.261 C 
BRANCH  29  30
ATOM     30  O   UNL     1      -6.375  -0.022   1.127  1.00  0.00    -0.460 OA
BRANCH  30  31
ATOM     31  C   UNL     1      -6.839   0.621   2.221  1.00  0.00     0.338 C 
ATOM     32  O   UNL     1      -6.833   0.210   3.369  1.00  0.00    -0.246 OA
BRANCH  31  33
ATOM     33  C   UNL     1      -7.151   2.015   1.822  1.00  0.00     0.060 A 
ATOM     34  C   UNL     1      -7.867   2.285   0.651  1.00  0.00     0.016 A 
ATOM     35  C   UNL     1      -6.649   3.071   2.597  1.00  0.00     0.016 A 
ATOM     36  C   UNL     1      -8.109   3.609   0.274  1.00  0.00     0.010 A 
ATOM     37  C   UNL     1      -6.876   4.395   2.209  1.00  0.00     0.010 A 
ATOM     38  C   UNL     1      -7.632   4.673   1.060  1.00  0.00    -0.014 A 
BRANCH  38  39
ATOM     39  C   UNL     1      -8.139   6.045   0.811  1.00  0.00     0.031 A 
ATOM     40  C   UNL     1      -7.402   7.053  -0.013  1.00  0.00     0.074 A 
ATOM     41  C   UNL     1      -9.331   6.359   1.354  1.00  0.00     0.049 A 
ATOM     42  N   UNL     1      -7.800   8.241  -0.397  1.00  0.00    -0.248 NA
ATOM     43  C   UNL     1      -6.050   6.696  -0.460  1.00  0.00     0.031 C 
ATOM     44  C   UNL     1     -10.127   5.460   2.192  1.00  0.00     0.029 A 
ATOM     45  N   UNL     1     -10.084   7.501   1.276  1.00  0.00    -0.354 N 
ATOM     46  C   UNL     1      -6.763   8.766  -1.156  1.00  0.00     0.074 A 
ATOM     47  C   UNL     1      -5.697   7.784  -1.137  1.00  0.00     0.031 C 
ATOM     48  C   UNL     1     -11.269   6.075   2.530  1.00  0.00     0.029 A 
ATOM     49  C   UNL     1     -11.279   7.411   1.944  1.00  0.00     0.049 A 
ATOM     50  H   UNL     1      -9.796   8.306   0.788  1.00  0.00     0.167 HD
ATOM     51  C   UNL     1      -6.721   9.949  -1.818  1.00  0.00     0.037 A 
ATOM     52  C   UNL     1     -12.286   8.296   2.059  1.00  0.00     0.037 A 
ATOM     53  C   UNL     1      -7.781  10.930  -1.812  1.00  0.00     0.049 A 
ATOM     54  C   UNL     1     -12.195   9.612   1.348  1.00  0.00     0.074 A 
ATOM     55  C   UNL     1      -7.840  12.139  -2.487  1.00  0.00     0.029 A 
ATOM     56  N   UNL     1      -8.960  10.825  -1.089  1.00  0.00    -0.354 N 
ATOM     57  N   UNL     1     -11.242  10.063   0.571  1.00  0.00    -0.248 NA
ATOM     58  C   UNL     1     -13.323  10.536   1.520  1.00  0.00     0.031 C 
ATOM     59  C   UNL     1      -9.029  12.785  -2.134  1.00  0.00     0.029 A 
ATOM     60  C   UNL     1      -9.737  11.958  -1.278  1.00  0.00     0.049 A 
ATOM     61  H   UNL     1      -9.208  10.058  -0.523  1.00  0.00     0.167 HD
ATOM     62  C   UNL     1     -11.663  11.313   0.141  1.00  0.00     0.074 A 
ATOM     63  C   UNL     1     -12.964  11.544   0.736  1.00  0.00     0.031 C 
ATOM     64  C   UNL     1     -11.027  12.187  -0.675  1.00  0.00     0.037 A 
BRANCH  51  65
ATOM     65  C   UNL     1      -5.495  10.259  -2.628  1.00  0.00     0.057 A 
ATOM     66  C   UNL     1      -5.242   9.611  -3.844  1.00  0.00     0.134 A 
ATOM     67  C   UNL     1      -4.617  11.283  -2.249  1.00  0.00     0.134 A 
ATOM     68  F   UNL     1      -6.045   8.623  -4.268  1.00  0.00    -0.206 F 
ATOM     69  C   UNL     1      -4.156   9.963  -4.649  1.00  0.00     0.040 A 
ATOM     70  C   UNL     1      -3.541  11.659  -3.055  1.00  0.00     0.040 A 
ATOM     71  F   UNL     1      -4.810  11.956  -1.105  1.00  0.00    -0.206 F 
ATOM     72  C   UNL     1      -3.307  10.997  -4.259  1.00  0.00     0.006 A 
ENDBRANCH  51  65
BRANCH  52  73
ATOM     73  C   UNL     1     -13.489   7.922   2.838  1.00  0.00     0.057 A 
ATOM     74  C   UNL     1     -14.691   7.611   2.195  1.00  0.00     0.134 A 
ATOM     75  C   UNL     1     -13.449   7.811   4.233  1.00  0.00     0.134 A 
ATOM     76  F   UNL     1     -14.788   7.708   0.861  1.00  0.00    -0.206 F 
ATOM     77  C   UNL     1     -15.816   7.205   2.913  1.00  0.00     0.040 A 
ATOM     78  C   UNL     1     -14.560   7.385   4.961  1.00  0.00     0.040 A 
ATOM     79  F   UNL     1     -12.319   8.082   4.902  1.00  0.00    -0.206 F 
ATOM     80  C   UNL     1     -15.749   7.083   4.300  1.00  0.00     0.006 A 
ENDBRANCH  52  73
BRANCH  64  81
ATOM     81  C   UNL     1     -11.731  13.475  -0.985  1.00  0.00     0.057 A 
ATOM     82  C   UNL     1     -11.847  14.497  -0.035  1.00  0.00     0.134 A 
ATOM     83  C   UNL     1     -12.261  13.714  -2.260  1.00  0.00     0.134 A 
ATOM     84  F   UNL     1     -11.373  14.326   1.209  1.00  0.00    -0.206 F 
ATOM     85  C   UNL     1     -12.478  15.706  -0.337  1.00  0.00     0.040 A 
ATOM     86  C   UNL     1     -12.873  14.926  -2.580  1.00  0.00     0.040 A 
ATOM     87  F   UNL     1     -12.179  12.778  -3.218  1.00  0.00    -0.206 F 
ATOM     88  C   UNL     1     -12.986  15.925  -1.615  1.00  0.00     0.006 A 
ENDBRANCH  64  81
ENDBRANCH  38  39
ENDBRANCH  31  33
ENDBRANCH  30  31
ENDBRANCH  29  30
ENDBRANCH  28  29
ENDBRANCH  27  28
ENDBRANCH  26  27
ENDBRANCH   1  26
TORSDOF 19
