REMARK SMILES CO[C@@H]1C[C@H](C(=O)OCCOCCOCCOC(=O)c2ccc(-c3c4nc(c(-c5c(F)cccc5F)c5ccc([nH]5)c(-c5c(F)cccc5F)c5nc(c(-c6c(F)cccc6F)c6ccc3[nH]6)C=C5)C=C4)cc2)N(C(=O)c2ccc([N+](=O)[O-])s2)C1
REMARK SMILES IDX 12 1 11 2 10 3 9 4 8 5 6 6 7 7 5 8 3 9 4 10 85 11 74 12 2 13
REMARK SMILES IDX 1 14 75 15 76 16 77 17 78 18 84 19 79 20 80 21 81 22 82 23
REMARK SMILES IDX 83 24 13 25 14 26 15 27 16 28 17 29 18 30 19 31 20 32 21 33
REMARK SMILES IDX 73 34 22 35 72 36 23 37 24 38 25 39 66 40 26 41 71 42 65 43
REMARK SMILES IDX 67 44 27 45 70 46 64 47 63 48 28 50 54 51 37 52 53 53 38 54
REMARK SMILES IDX 41 55 52 56 68 57 39 58 40 59 51 61 69 62 42 63 29 64 30 65
REMARK SMILES IDX 35 66 31 67 32 68 34 69 36 70 33 71 55 72 56 73 61 74 57 75
REMARK SMILES IDX 58 76 60 77 62 78 59 79 43 80 44 81 49 82 45 83 46 84 48 85
REMARK SMILES IDX 50 86 47 87
REMARK H PARENT 67 49 41 60
REMARK Flexibility Score: inf
ROOT
ATOM      1  C   UNL     1      -2.417   5.791  -1.135  1.00  0.00     0.188 C 
ENDROOT
BRANCH   1   2
ATOM      2  O   UNL     1      -3.600   5.611  -1.905  1.00  0.00    -0.376 OA
BRANCH   2   3
ATOM      3  C   UNL     1      -3.876   4.288  -2.379  1.00  0.00     0.202 C 
BRANCH   3   4
ATOM      4  C   UNL     1      -2.760   3.594  -3.179  1.00  0.00     0.261 C 
BRANCH   4   5
ATOM      5  O   UNL     1      -1.530   3.443  -2.434  1.00  0.00    -0.462 OA
BRANCH   5   6
ATOM      6  C   UNL     1      -0.409   3.902  -3.049  1.00  0.00     0.329 C 
ATOM      7  O   UNL     1      -0.385   4.311  -4.206  1.00  0.00    -0.250 OA
BRANCH   6   8
ATOM      8  C   UNL     1       0.801   4.049  -2.097  1.00  0.00     0.198 C 
ATOM      9  C   UNL     1       1.714   1.908  -1.345  1.00  0.00     0.140 C 
ATOM     10  C   UNL     1       0.876   3.116  -0.891  1.00  0.00     0.071 C 
ATOM     11  C   UNL     1       2.252   2.286  -2.729  1.00  0.00     0.152 C 
ATOM     12  N   UNL     1       2.000   3.708  -2.853  1.00  0.00    -0.321 N 
BRANCH   9  13
ATOM     13  O   UNL     1       0.898   0.742  -1.408  1.00  0.00    -0.380 OA
ATOM     14  C   UNL     1       0.831   0.067  -0.153  1.00  0.00     0.195 C 
ENDBRANCH   9  13
BRANCH  12  15
ATOM     15  C   UNL     1       2.660   4.484  -3.796  1.00  0.00     0.265 C 
ATOM     16  O   UNL     1       3.485   3.977  -4.554  1.00  0.00    -0.268 OA
BRANCH  15  17
ATOM     17  C   UNL     1       2.374   5.911  -3.810  1.00  0.00     0.099 A 
ATOM     18  C   UNL     1       2.518   6.843  -2.796  1.00  0.00     0.033 A 
ATOM     19  S   UNL     1       1.851   6.649  -5.269  1.00  0.00    -0.058 S 
ATOM     20  C   UNL     1       2.135   8.156  -3.208  1.00  0.00     0.099 A 
ATOM     21  C   UNL     1       1.726   8.171  -4.525  1.00  0.00     0.324 A 
BRANCH  21  22
ATOM     22  N   UNL     1       1.256   9.316  -5.261  1.00  0.00     0.074 N 
ATOM     23  O   UNL     1       1.301  10.403  -4.667  1.00  0.00    -0.258 OA
ATOM     24  O   UNL     1       0.833   9.149  -6.411  1.00  0.00    -0.258 OA
ENDBRANCH  21  22
ENDBRANCH  15  17
ENDBRANCH  12  15
ENDBRANCH   6   8
ENDBRANCH   5   6
ENDBRANCH   4   5
ENDBRANCH   3   4
ENDBRANCH   2   3
ENDBRANCH   1   2
BRANCH   1  25
ATOM     25  C   UNL     1      -2.316   4.961   0.151  1.00  0.00     0.188 C 
BRANCH  25  26
ATOM     26  O   UNL     1      -2.801   3.637   0.031  1.00  0.00    -0.376 OA
BRANCH  26  27
ATOM     27  C   UNL     1      -3.182   2.937   1.214  1.00  0.00     0.202 C 
BRANCH  27  28
ATOM     28  C   UNL     1      -4.244   3.601   2.117  1.00  0.00     0.261 C 
BRANCH  28  29
ATOM     29  O   UNL     1      -3.896   4.886   2.672  1.00  0.00    -0.460 OA
BRANCH  29  30
ATOM     30  C   UNL     1      -2.705   4.996   3.302  1.00  0.00     0.338 C 
ATOM     31  O   UNL     1      -1.993   4.075   3.678  1.00  0.00    -0.246 OA
BRANCH  30  32
ATOM     32  C   UNL     1      -2.249   6.408   3.204  1.00  0.00     0.060 A 
ATOM     33  C   UNL     1      -0.901   6.642   2.892  1.00  0.00     0.016 A 
ATOM     34  C   UNL     1      -3.129   7.487   3.333  1.00  0.00     0.016 A 
ATOM     35  C   UNL     1      -0.418   7.947   2.771  1.00  0.00     0.010 A 
ATOM     36  C   UNL     1      -2.643   8.796   3.224  1.00  0.00     0.010 A 
ATOM     37  C   UNL     1      -1.276   9.033   2.989  1.00  0.00    -0.014 A 
BRANCH  37  38
ATOM     38  C   UNL     1      -0.701  10.380   3.240  1.00  0.00     0.031 A 
ATOM     39  C   UNL     1      -0.498  10.796   4.675  1.00  0.00     0.074 A 
ATOM     40  C   UNL     1      -0.331  11.210   2.248  1.00  0.00     0.049 A 
ATOM     41  N   UNL     1      -0.052  11.924   5.164  1.00  0.00    -0.248 NA
ATOM     42  C   UNL     1      -0.854   9.795   5.695  1.00  0.00     0.031 C 
ATOM     43  C   UNL     1      -0.427  10.925   0.819  1.00  0.00     0.029 A 
ATOM     44  N   UNL     1       0.199  12.477   2.306  1.00  0.00    -0.354 N 
ATOM     45  C   UNL     1      -0.081  11.770   6.545  1.00  0.00     0.074 A 
ATOM     46  C   UNL     1      -0.623  10.457   6.816  1.00  0.00     0.031 C 
ATOM     47  C   UNL     1       0.015  11.995   0.133  1.00  0.00     0.029 A 
ATOM     48  C   UNL     1       0.397  13.049   1.073  1.00  0.00     0.049 A 
ATOM     49  H   UNL     1       0.415  12.932   3.151  1.00  0.00     0.167 HD
ATOM     50  C   UNL     1       0.317  12.636   7.507  1.00  0.00     0.037 A 
ATOM     51  C   UNL     1       0.817  14.288   0.745  1.00  0.00     0.037 A 
ATOM     52  C   UNL     1       0.846  13.948   7.248  1.00  0.00     0.049 A 
ATOM     53  C   UNL     1       1.182  15.269   1.832  1.00  0.00     0.074 A 
ATOM     54  C   UNL     1       1.278  14.898   8.156  1.00  0.00     0.029 A 
ATOM     55  N   UNL     1       1.005  14.499   5.985  1.00  0.00    -0.354 N 
ATOM     56  N   UNL     1       1.169  15.108   3.134  1.00  0.00    -0.248 NA
ATOM     57  C   UNL     1       1.627  16.604   1.401  1.00  0.00     0.031 C 
ATOM     58  C   UNL     1       1.649  16.044   7.446  1.00  0.00     0.029 A 
ATOM     59  C   UNL     1       1.509  15.784   6.092  1.00  0.00     0.049 A 
ATOM     60  H   UNL     1       0.791  14.044   5.139  1.00  0.00     0.167 HD
ATOM     61  C   UNL     1       1.636  16.304   3.673  1.00  0.00     0.074 A 
ATOM     62  C   UNL     1       1.930  17.178   2.557  1.00  0.00     0.031 C 
ATOM     63  C   UNL     1       1.811  16.643   4.974  1.00  0.00     0.037 A 
BRANCH  50  64
ATOM     64  C   UNL     1       0.158  12.192   8.932  1.00  0.00     0.057 A 
ATOM     65  C   UNL     1       0.946  11.172   9.485  1.00  0.00     0.134 A 
ATOM     66  C   UNL     1      -0.799  12.789   9.761  1.00  0.00     0.134 A 
ATOM     67  F   UNL     1       1.866  10.543   8.738  1.00  0.00    -0.206 F 
ATOM     68  C   UNL     1       0.763  10.741  10.800  1.00  0.00     0.040 A 
ATOM     69  C   UNL     1      -0.970  12.388  11.086  1.00  0.00     0.040 A 
ATOM     70  F   UNL     1      -1.586  13.771   9.296  1.00  0.00    -0.206 F 
ATOM     71  C   UNL     1      -0.193  11.354  11.606  1.00  0.00     0.006 A 
ENDBRANCH  50  64
BRANCH  51  72
ATOM     72  C   UNL     1       0.909  14.688  -0.684  1.00  0.00     0.057 A 
ATOM     73  C   UNL     1       2.145  14.922  -1.298  1.00  0.00     0.134 A 
ATOM     74  C   UNL     1      -0.241  14.871  -1.462  1.00  0.00     0.134 A 
ATOM     75  F   UNL     1       3.281  14.793  -0.597  1.00  0.00    -0.206 F 
ATOM     76  C   UNL     1       2.235  15.337  -2.628  1.00  0.00     0.040 A 
ATOM     77  C   UNL     1      -0.165  15.260  -2.801  1.00  0.00     0.040 A 
ATOM     78  F   UNL     1      -1.456  14.669  -0.932  1.00  0.00    -0.206 F 
ATOM     79  C   UNL     1       1.077  15.500  -3.385  1.00  0.00     0.006 A 
ENDBRANCH  51  72
BRANCH  63  80
ATOM     80  C   UNL     1       2.399  17.995   5.271  1.00  0.00     0.057 A 
ATOM     81  C   UNL     1       1.682  19.182   5.072  1.00  0.00     0.134 A 
ATOM     82  C   UNL     1       3.689  18.105   5.808  1.00  0.00     0.134 A 
ATOM     83  F   UNL     1       0.445  19.152   4.554  1.00  0.00    -0.206 F 
ATOM     84  C   UNL     1       2.237  20.429   5.371  1.00  0.00     0.040 A 
ATOM     85  C   UNL     1       4.243  19.342   6.138  1.00  0.00     0.040 A 
ATOM     86  F   UNL     1       4.427  17.008   6.037  1.00  0.00    -0.206 F 
ATOM     87  C   UNL     1       3.519  20.510   5.912  1.00  0.00     0.006 A 
ENDBRANCH  63  80
ENDBRANCH  37  38
ENDBRANCH  30  32
ENDBRANCH  29  30
ENDBRANCH  28  29
ENDBRANCH  27  28
ENDBRANCH  26  27
ENDBRANCH  25  26
ENDBRANCH   1  25
TORSDOF 21
