REMARK SMILES COCC1CCN(C(=O)NC[C@H]2CC[C@H](C(=O)OCCOCCOCCOC(=O)c3ccc(-c4c5nc(c(-c6c(F)cccc6F)c6ccc([nH]6)c(-c6c(F)cccc6F)c6nc(c(-c7c(F)cccc7F)c7ccc4[nH]7)C=C6)C=C5)cc3)O2)CC1
REMARK SMILES IDX 22 1 21 2 20 3 19 4 18 5 16 6 17 7 15 8 12 9 13 10 84 11
REMARK SMILES IDX 14 12 11 13 10 14 4 15 5 16 86 17 6 18 85 19 7 20 8 21 9 22
REMARK SMILES IDX 3 24 2 25 1 26 23 27 24 28 25 29 26 30 27 31 28 32 29 33
REMARK SMILES IDX 30 34 31 35 83 36 32 37 82 38 33 39 34 40 35 41 76 42 36 43
REMARK SMILES IDX 81 44 75 45 77 46 37 47 80 48 74 49 73 50 38 52 64 53 47 54
REMARK SMILES IDX 63 55 48 56 51 57 62 58 78 59 49 60 50 61 61 63 79 64 52 65
REMARK SMILES IDX 39 66 40 67 45 68 41 69 42 70 44 71 46 72 43 73 65 74 66 75
REMARK SMILES IDX 71 76 67 77 68 78 70 79 72 80 69 81 53 82 54 83 59 84 55 85
REMARK SMILES IDX 56 86 58 87 60 88 57 89
REMARK H PARENT 10 23 77 51 51 62
REMARK Flexibility Score: inf
ROOT
ATOM      1  C   UNL     1      -1.151  13.079   1.872  1.00  0.00     0.188 C 
ENDROOT
BRANCH   1   2
ATOM      2  O   UNL     1      -0.605  13.251   3.173  1.00  0.00    -0.376 OA
BRANCH   2   3
ATOM      3  C   UNL     1       0.002  12.124   3.807  1.00  0.00     0.202 C 
BRANCH   3   4
ATOM      4  C   UNL     1      -0.762  10.788   3.812  1.00  0.00     0.261 C 
BRANCH   4   5
ATOM      5  O   UNL     1      -1.066  10.293   2.492  1.00  0.00    -0.461 OA
BRANCH   5   6
ATOM      6  C   UNL     1      -2.360   9.948   2.260  1.00  0.00     0.335 C 
ATOM      7  O   UNL     1      -3.229   9.926   3.124  1.00  0.00    -0.249 OA
BRANCH   6   8
ATOM      8  C   UNL     1      -2.658   9.718   0.768  1.00  0.00     0.228 C 
ATOM      9  C   UNL     1      -3.014   7.496   0.100  1.00  0.00     0.138 C 
ATOM     10  C   UNL     1      -1.544   7.833  -0.124  1.00  0.00     0.037 C 
ATOM     11  O   UNL     1      -3.633   8.675   0.651  1.00  0.00    -0.361 OA
ATOM     12  C   UNL     1      -1.527   9.334  -0.164  1.00  0.00     0.047 C 
BRANCH   9  13
ATOM     13  C   UNL     1      -3.860   7.090  -1.118  1.00  0.00     0.149 C 
BRANCH  13  14
ATOM     14  N   UNL     1      -3.453   7.721  -2.356  1.00  0.00    -0.335 N 
ATOM     15  C   UNL     1      -2.328   3.368  -4.172  1.00  0.00     0.018 C 
ATOM     16  C   UNL     1      -2.357   4.508  -5.215  1.00  0.00     0.027 C 
ATOM     17  C   UNL     1      -2.684   3.915  -2.774  1.00  0.00     0.027 C 
ATOM     18  C   UNL     1      -1.541   5.722  -4.772  1.00  0.00     0.121 C 
ATOM     19  C   UNL     1      -1.841   5.146  -2.438  1.00  0.00     0.121 C 
ATOM     20  N   UNL     1      -2.034   6.162  -3.465  1.00  0.00    -0.325 N 
ATOM     21  C   UNL     1      -2.713   7.348  -3.415  1.00  0.00     0.317 C 
ATOM     22  O   UNL     1      -2.708   8.150  -4.354  1.00  0.00    -0.249 OA
ATOM     23  H   UNL     1      -3.798   8.638  -2.443  1.00  0.00     0.165 HD
BRANCH  15  24
ATOM     24  C   UNL     1      -0.989   2.604  -4.112  1.00  0.00     0.163 C 
BRANCH  24  25
ATOM     25  O   UNL     1      -0.366   2.452  -5.382  1.00  0.00    -0.384 OA
ATOM     26  C   UNL     1      -0.972   1.460  -6.195  1.00  0.00     0.194 C 
ENDBRANCH  24  25
ENDBRANCH  15  24
ENDBRANCH  13  14
ENDBRANCH   9  13
ENDBRANCH   6   8
ENDBRANCH   5   6
ENDBRANCH   4   5
ENDBRANCH   3   4
ENDBRANCH   2   3
ENDBRANCH   1   2
BRANCH   1  27
ATOM     27  C   UNL     1      -0.256  12.473   0.784  1.00  0.00     0.188 C 
BRANCH  27  28
ATOM     28  O   UNL     1       0.894  11.819   1.271  1.00  0.00    -0.376 OA
BRANCH  28  29
ATOM     29  C   UNL     1       2.160  12.138   0.708  1.00  0.00     0.202 C 
BRANCH  29  30
ATOM     30  C   UNL     1       2.617  13.613   0.693  1.00  0.00     0.261 C 
BRANCH  30  31
ATOM     31  O   UNL     1       1.714  14.571   0.106  1.00  0.00    -0.460 OA
BRANCH  31  32
ATOM     32  C   UNL     1       1.450  14.453  -1.219  1.00  0.00     0.338 C 
ATOM     33  O   UNL     1       1.987  13.686  -2.002  1.00  0.00    -0.246 OA
BRANCH  32  34
ATOM     34  C   UNL     1       0.188  15.193  -1.490  1.00  0.00     0.060 A 
ATOM     35  C   UNL     1      -0.892  14.496  -2.058  1.00  0.00     0.016 A 
ATOM     36  C   UNL     1       0.031  16.526  -1.107  1.00  0.00     0.016 A 
ATOM     37  C   UNL     1      -2.121  15.135  -2.258  1.00  0.00     0.010 A 
ATOM     38  C   UNL     1      -1.191  17.172  -1.334  1.00  0.00     0.010 A 
ATOM     39  C   UNL     1      -2.268  16.488  -1.930  1.00  0.00    -0.014 A 
BRANCH  39  40
ATOM     40  C   UNL     1      -3.471  17.244  -2.369  1.00  0.00     0.031 A 
ATOM     41  C   UNL     1      -3.376  18.068  -3.625  1.00  0.00     0.074 A 
ATOM     42  C   UNL     1      -4.625  17.214  -1.677  1.00  0.00     0.049 A 
ATOM     43  N   UNL     1      -4.248  18.887  -4.153  1.00  0.00    -0.248 NA
ATOM     44  C   UNL     1      -2.120  17.952  -4.385  1.00  0.00     0.031 C 
ATOM     45  C   UNL     1      -4.874  16.426  -0.473  1.00  0.00     0.029 A 
ATOM     46  N   UNL     1      -5.806  17.888  -1.888  1.00  0.00    -0.354 N 
ATOM     47  C   UNL     1      -3.644  19.393  -5.297  1.00  0.00     0.074 A 
ATOM     48  C   UNL     1      -2.323  18.808  -5.374  1.00  0.00     0.031 C 
ATOM     49  C   UNL     1      -6.123  16.678  -0.038  1.00  0.00     0.029 A 
ATOM     50  C   UNL     1      -6.747  17.673  -0.909  1.00  0.00     0.049 A 
ATOM     51  H   UNL     1      -5.962  18.470  -2.667  1.00  0.00     0.167 HD
ATOM     52  C   UNL     1      -4.144  20.264  -6.205  1.00  0.00     0.037 A 
ATOM     53  C   UNL     1      -7.956  18.240  -0.721  1.00  0.00     0.037 A 
ATOM     54  C   UNL     1      -5.458  20.847  -6.134  1.00  0.00     0.049 A 
ATOM     55  C   UNL     1      -8.458  19.273  -1.701  1.00  0.00     0.074 A 
ATOM     56  C   UNL     1      -6.059  21.722  -7.022  1.00  0.00     0.029 A 
ATOM     57  N   UNL     1      -6.367  20.625  -5.113  1.00  0.00    -0.354 N 
ATOM     58  N   UNL     1      -7.891  19.725  -2.793  1.00  0.00    -0.248 NA
ATOM     59  C   UNL     1      -9.770  19.876  -1.419  1.00  0.00     0.031 C 
ATOM     60  C   UNL     1      -7.309  22.077  -6.507  1.00  0.00     0.029 A 
ATOM     61  C   UNL     1      -7.513  21.373  -5.332  1.00  0.00     0.049 A 
ATOM     62  H   UNL     1      -6.222  20.026  -4.346  1.00  0.00     0.167 HD
ATOM     63  C   UNL     1      -8.787  20.636  -3.342  1.00  0.00     0.074 A 
ATOM     64  C   UNL     1      -9.943  20.662  -2.472  1.00  0.00     0.031 C 
ATOM     65  C   UNL     1      -8.664  21.385  -4.465  1.00  0.00     0.037 A 
BRANCH  52  66
ATOM     66  C   UNL     1      -3.255  20.667  -7.345  1.00  0.00     0.057 A 
ATOM     67  C   UNL     1      -2.937  19.786  -8.387  1.00  0.00     0.134 A 
ATOM     68  C   UNL     1      -2.753  21.972  -7.426  1.00  0.00     0.134 A 
ATOM     69  F   UNL     1      -3.374  18.517  -8.362  1.00  0.00    -0.206 F 
ATOM     70  C   UNL     1      -2.138  20.184  -9.460  1.00  0.00     0.040 A 
ATOM     71  C   UNL     1      -1.977  22.390  -8.508  1.00  0.00     0.040 A 
ATOM     72  F   UNL     1      -3.023  22.867  -6.464  1.00  0.00    -0.206 F 
ATOM     73  C   UNL     1      -1.664  21.493  -9.527  1.00  0.00     0.006 A 
ENDBRANCH  52  66
BRANCH  53  74
ATOM     74  C   UNL     1      -8.779  17.881   0.466  1.00  0.00     0.057 A 
ATOM     75  C   UNL     1     -10.008  17.223   0.330  1.00  0.00     0.134 A 
ATOM     76  C   UNL     1      -8.384  18.240   1.761  1.00  0.00     0.134 A 
ATOM     77  F   UNL     1     -10.459  16.881  -0.886  1.00  0.00    -0.206 F 
ATOM     78  C   UNL     1     -10.824  16.957   1.432  1.00  0.00     0.040 A 
ATOM     79  C   UNL     1      -9.175  17.953   2.875  1.00  0.00     0.040 A 
ATOM     80  F   UNL     1      -7.223  18.880   1.963  1.00  0.00    -0.206 F 
ATOM     81  C   UNL     1     -10.405  17.319   2.711  1.00  0.00     0.006 A 
ENDBRANCH  53  74
BRANCH  65  82
ATOM     82  C   UNL     1      -9.821  22.266  -4.847  1.00  0.00     0.057 A 
ATOM     83  C   UNL     1     -10.151  23.418  -4.121  1.00  0.00     0.134 A 
ATOM     84  C   UNL     1     -10.587  21.982  -5.986  1.00  0.00     0.134 A 
ATOM     85  F   UNL     1      -9.465  23.744  -3.015  1.00  0.00    -0.206 F 
ATOM     86  C   UNL     1     -11.215  24.240  -4.498  1.00  0.00     0.040 A 
ATOM     87  C   UNL     1     -11.634  22.812  -6.390  1.00  0.00     0.040 A 
ATOM     88  F   UNL     1     -10.320  20.902  -6.736  1.00  0.00    -0.206 F 
ATOM     89  C   UNL     1     -11.955  23.941  -5.641  1.00  0.00     0.006 A 
ENDBRANCH  65  82
ENDBRANCH  39  40
ENDBRANCH  32  34
ENDBRANCH  31  32
ENDBRANCH  30  31
ENDBRANCH  29  30
ENDBRANCH  28  29
ENDBRANCH  27  28
ENDBRANCH   1  27
TORSDOF 21
