REMARK SMILES O=C(C[C@H]1CN(C(=O)C[C@H]2CCS(=O)(=O)C2)CCO1)OCCOCCOCCOC(=O)c1ccc(-c2c3nc(c(-c4c(F)cccc4F)c4ccc([nH]4)c(-c4c(F)cccc4F)c4nc(c(-c5c(F)cccc5F)c5ccc2[nH]5)C=C4)C=C3)cc1
REMARK SMILES IDX 24 1 23 2 22 3 21 4 20 5 2 6 1 7 3 8 4 9 5 10 19 11 6 12
REMARK SMILES IDX 18 13 17 14 7 15 8 16 9 17 10 18 11 19 16 20 12 21 13 22
REMARK SMILES IDX 14 23 15 24 25 25 26 26 27 27 28 28 29 29 30 30 31 31 32 32
REMARK SMILES IDX 33 33 85 34 34 35 84 36 35 37 36 38 37 39 78 40 38 41 83 42
REMARK SMILES IDX 77 43 79 44 39 45 82 46 76 47 75 48 40 50 66 51 49 52 65 53
REMARK SMILES IDX 50 54 53 55 64 56 80 57 51 58 52 59 63 61 81 62 54 63 41 64
REMARK SMILES IDX 42 65 47 66 43 67 44 68 46 69 48 70 45 71 67 72 68 73 73 74
REMARK SMILES IDX 69 75 70 76 72 77 74 78 71 79 55 80 56 81 61 82 57 83 58 84
REMARK SMILES IDX 60 85 62 86 59 87
REMARK H PARENT 79 49 53 60
REMARK Flexibility Score: inf
ROOT
ATOM      1  C   UNL     1       9.339  -1.794   6.174  1.00  0.00     0.188 C 
ENDROOT
BRANCH   1   2
ATOM      2  O   UNL     1       8.380  -1.111   5.363  1.00  0.00    -0.376 OA
BRANCH   2   3
ATOM      3  C   UNL     1       8.819  -0.037   4.544  1.00  0.00     0.202 C 
BRANCH   3   4
ATOM      4  C   UNL     1       9.110   1.282   5.252  1.00  0.00     0.261 C 
BRANCH   4   5
ATOM      5  O   UNL     1       9.893   1.158   6.441  1.00  0.00    -0.463 OA
BRANCH   5   6
ATOM      6  C   UNL     1       9.399   1.168   7.699  1.00  0.00     0.308 C 
ATOM      7  O   UNL     1      10.153   1.453   8.628  1.00  0.00    -0.252 OA
BRANCH   6   8
ATOM      8  C   UNL     1       8.004   0.647   7.985  1.00  0.00     0.156 C 
BRANCH   8   9
ATOM      9  C   UNL     1       6.843   1.582   7.674  1.00  0.00     0.148 C 
ATOM     10  C   UNL     1       5.898   1.066   6.548  1.00  0.00     0.152 C 
ATOM     11  O   UNL     1       6.088   1.850   8.875  1.00  0.00    -0.374 OA
ATOM     12  N   UNL     1       4.962   0.022   6.974  1.00  0.00    -0.338 N 
ATOM     13  C   UNL     1       5.335   0.709   9.316  1.00  0.00     0.182 C 
ATOM     14  C   UNL     1       4.317   0.294   8.261  1.00  0.00     0.148 C 
BRANCH  12  15
ATOM     15  C   UNL     1       4.488  -1.044   6.230  1.00  0.00     0.223 C 
ATOM     16  O   UNL     1       3.670  -1.839   6.705  1.00  0.00    -0.275 OA
BRANCH  15  17
ATOM     17  C   UNL     1       4.962  -1.298   4.805  1.00  0.00     0.105 C 
BRANCH  17  18
ATOM     18  C   UNL     1       4.678  -0.242   3.733  1.00  0.00     0.014 C 
ATOM     19  C   UNL     1       4.258  -0.875   2.385  1.00  0.00     0.021 C 
ATOM     20  C   UNL     1       3.551   0.748   4.025  1.00  0.00     0.141 C 
ATOM     21  C   UNL     1       3.880   0.265   1.436  1.00  0.00     0.137 C 
ATOM     22  S   UNL     1       3.344   1.613   2.478  1.00  0.00     0.150 S 
ATOM     23  O   UNL     1       4.346   2.658   2.419  1.00  0.00    -0.229 OA
ATOM     24  O   UNL     1       1.936   1.872   2.264  1.00  0.00    -0.229 OA
ENDBRANCH  17  18
ENDBRANCH  15  17
ENDBRANCH  12  15
ENDBRANCH   8   9
ENDBRANCH   6   8
ENDBRANCH   5   6
ENDBRANCH   4   5
ENDBRANCH   3   4
ENDBRANCH   2   3
ENDBRANCH   1   2
BRANCH   1  25
ATOM     25  C   UNL     1      10.546  -2.462   5.517  1.00  0.00     0.188 C 
BRANCH  25  26
ATOM     26  O   UNL     1      10.613  -2.209   4.131  1.00  0.00    -0.376 OA
BRANCH  26  27
ATOM     27  C   UNL     1      10.239  -3.283   3.287  1.00  0.00     0.202 C 
BRANCH  27  28
ATOM     28  C   UNL     1       8.816  -3.865   3.392  1.00  0.00     0.261 C 
BRANCH  28  29
ATOM     29  O   UNL     1       8.258  -4.082   4.702  1.00  0.00    -0.460 OA
BRANCH  29  30
ATOM     30  C   UNL     1       8.591  -5.209   5.366  1.00  0.00     0.338 C 
ATOM     31  O   UNL     1       9.436  -6.029   5.036  1.00  0.00    -0.246 OA
BRANCH  30  32
ATOM     32  C   UNL     1       7.790  -5.284   6.611  1.00  0.00     0.060 A 
ATOM     33  C   UNL     1       8.360  -4.939   7.844  1.00  0.00     0.016 A 
ATOM     34  C   UNL     1       6.468  -5.729   6.559  1.00  0.00     0.016 A 
ATOM     35  C   UNL     1       7.602  -5.025   9.023  1.00  0.00     0.010 A 
ATOM     36  C   UNL     1       5.719  -5.834   7.741  1.00  0.00     0.010 A 
ATOM     37  C   UNL     1       6.279  -5.492   8.985  1.00  0.00    -0.014 A 
BRANCH  37  38
ATOM     38  C   UNL     1       5.493  -5.699  10.235  1.00  0.00     0.031 A 
ATOM     39  C   UNL     1       5.347  -7.088  10.801  1.00  0.00     0.074 A 
ATOM     40  C   UNL     1       4.869  -4.672  10.844  1.00  0.00     0.049 A 
ATOM     41  N   UNL     1       4.600  -7.508  11.791  1.00  0.00    -0.248 NA
ATOM     42  C   UNL     1       6.151  -8.143  10.165  1.00  0.00     0.031 C 
ATOM     43  C   UNL     1       4.943  -3.273  10.427  1.00  0.00     0.029 A 
ATOM     44  N   UNL     1       4.024  -4.653  11.930  1.00  0.00    -0.354 N 
ATOM     45  C   UNL     1       4.826  -8.876  11.886  1.00  0.00     0.074 A 
ATOM     46  C   UNL     1       5.777  -9.217  10.848  1.00  0.00     0.031 C 
ATOM     47  C   UNL     1       4.154  -2.538  11.229  1.00  0.00     0.029 A 
ATOM     48  C   UNL     1       3.478  -3.416  12.182  1.00  0.00     0.049 A 
ATOM     49  H   UNL     1       3.829  -5.450  12.475  1.00  0.00     0.167 HD
ATOM     50  C   UNL     1       4.288  -9.765  12.755  1.00  0.00     0.037 A 
ATOM     51  C   UNL     1       2.510  -3.039  13.043  1.00  0.00     0.037 A 
ATOM     52  C   UNL     1       3.348  -9.430  13.794  1.00  0.00     0.049 A 
ATOM     53  C   UNL     1       1.866  -4.067  13.941  1.00  0.00     0.074 A 
ATOM     54  C   UNL     1       2.795 -10.262  14.753  1.00  0.00     0.029 A 
ATOM     55  N   UNL     1       2.809  -8.171  14.000  1.00  0.00    -0.354 N 
ATOM     56  N   UNL     1       2.130  -5.346  14.059  1.00  0.00    -0.248 NA
ATOM     57  C   UNL     1       0.783  -3.601  14.822  1.00  0.00     0.031 C 
ATOM     58  C   UNL     1       1.869  -9.524  15.494  1.00  0.00     0.029 A 
ATOM     59  C   UNL     1       1.893  -8.216  15.040  1.00  0.00     0.049 A 
ATOM     60  H   UNL     1       3.041  -7.365  13.485  1.00  0.00     0.167 HD
ATOM     61  C   UNL     1       1.265  -5.826  15.037  1.00  0.00     0.074 A 
ATOM     62  C   UNL     1       0.486  -4.700  15.500  1.00  0.00     0.031 C 
ATOM     63  C   UNL     1       1.125  -7.091  15.504  1.00  0.00     0.037 A 
BRANCH  50  64
ATOM     64  C   UNL     1       4.670 -11.210  12.616  1.00  0.00     0.057 A 
ATOM     65  C   UNL     1       5.926 -11.687  13.009  1.00  0.00     0.134 A 
ATOM     66  C   UNL     1       3.728 -12.152  12.179  1.00  0.00     0.134 A 
ATOM     67  F   UNL     1       6.875 -10.838  13.432  1.00  0.00    -0.206 F 
ATOM     68  C   UNL     1       6.233 -13.049  12.968  1.00  0.00     0.040 A 
ATOM     69  C   UNL     1       4.014 -13.517  12.157  1.00  0.00     0.040 A 
ATOM     70  F   UNL     1       2.502 -11.761  11.797  1.00  0.00    -0.206 F 
ATOM     71  C   UNL     1       5.271 -13.969  12.552  1.00  0.00     0.006 A 
ENDBRANCH  50  64
BRANCH  51  72
ATOM     72  C   UNL     1       2.026  -1.631  13.069  1.00  0.00     0.057 A 
ATOM     73  C   UNL     1       2.181  -0.826  14.204  1.00  0.00     0.134 A 
ATOM     74  C   UNL     1       1.327  -1.081  11.985  1.00  0.00     0.134 A 
ATOM     75  F   UNL     1       2.813  -1.301  15.287  1.00  0.00    -0.206 F 
ATOM     76  C   UNL     1       1.633   0.458  14.274  1.00  0.00     0.040 A 
ATOM     77  C   UNL     1       0.803   0.212  12.029  1.00  0.00     0.040 A 
ATOM     78  F   UNL     1       1.139  -1.796  10.867  1.00  0.00    -0.206 F 
ATOM     79  C   UNL     1       0.944   0.980  13.182  1.00  0.00     0.006 A 
ENDBRANCH  51  72
BRANCH  63  80
ATOM     80  C   UNL     1       0.113  -7.327  16.590  1.00  0.00     0.057 A 
ATOM     81  C   UNL     1      -1.265  -7.278  16.340  1.00  0.00     0.134 A 
ATOM     82  C   UNL     1       0.520  -7.659  17.889  1.00  0.00     0.134 A 
ATOM     83  F   UNL     1      -1.723  -6.954  15.121  1.00  0.00    -0.206 F 
ATOM     84  C   UNL     1      -2.199  -7.532  17.346  1.00  0.00     0.040 A 
ATOM     85  C   UNL     1      -0.405  -7.944  18.895  1.00  0.00     0.040 A 
ATOM     86  F   UNL     1       1.824  -7.734  18.197  1.00  0.00    -0.206 F 
ATOM     87  C   UNL     1      -1.769  -7.875  18.626  1.00  0.00     0.006 A 
ENDBRANCH  63  80
ENDBRANCH  37  38
ENDBRANCH  30  32
ENDBRANCH  29  30
ENDBRANCH  28  29
ENDBRANCH  27  28
ENDBRANCH  26  27
ENDBRANCH  25  26
ENDBRANCH   1  25
TORSDOF 21
