REMARK SMILES O=C(OCCOCCOCCOC(=O)c1ccc(-c2c3nc(c(-c4c(F)cccc4F)c4ccc([nH]4)c(-c4c(F)cccc4F)c4nc(c(-c5c(F)cccc5F)c5ccc2[nH]5)C=C4)C=C3)cc1)C1=Cc2cc(Cl)cc(-c3ccc(Cl)cc3)c2O[C@@H]1C(F)(F)F
REMARK SMILES IDX 8 1 7 2 6 3 5 4 4 5 3 6 2 7 1 8 69 9 70 10 86 11 71 12 85 13
REMARK SMILES IDX 72 14 84 15 73 16 76 17 74 18 75 19 87 20 88 21 89 22 90 23
REMARK SMILES IDX 77 24 78 25 83 26 79 27 82 28 80 29 81 30 9 31 10 32 11 33
REMARK SMILES IDX 12 34 13 35 14 36 15 37 16 38 68 39 17 40 67 41 18 42 19 43
REMARK SMILES IDX 20 44 61 45 21 46 66 47 60 48 62 49 22 50 65 51 59 52 58 53
REMARK SMILES IDX 23 55 49 56 32 57 48 58 33 59 36 60 47 61 63 62 34 63 35 64
REMARK SMILES IDX 46 66 64 67 37 68 24 69 25 70 30 71 26 72 27 73 29 74 31 75
REMARK SMILES IDX 28 76 50 77 51 78 56 79 52 80 53 81 55 82 57 83 54 84 38 85
REMARK SMILES IDX 39 86 44 87 40 88 41 89 43 90 45 91 42 92
REMARK H PARENT 62 54 36 65
REMARK Flexibility Score: inf
ROOT
ATOM      1  C   UNL     1       1.690  -3.398   0.943  1.00  0.00     0.188 C 
ENDROOT
BRANCH   1   2
ATOM      2  C   UNL     1       2.232  -2.272   0.048  1.00  0.00     0.188 C 
BRANCH   2   3
ATOM      3  O   UNL     1       3.696  -2.142  -0.353  1.00  0.00    -0.376 OA
BRANCH   3   4
ATOM      4  C   UNL     1       4.592  -0.632  -0.628  1.00  0.00     0.202 C 
BRANCH   4   5
ATOM      5  C   UNL     1       3.981   1.244   0.295  1.00  0.00     0.261 C 
BRANCH   5   6
ATOM      6  O   UNL     1       3.040   2.289  -0.330  1.00  0.00    -0.460 OA
BRANCH   6   7
ATOM      7  C   UNL     1       3.187   2.381  -1.660  1.00  0.00     0.338 C 
ATOM      8  O   UNL     1       2.500   2.963  -2.461  1.00  0.00    -0.246 OA
BRANCH   7   9
ATOM      9  C   UNL     1       4.030   1.210  -1.795  1.00  0.00     0.087 C 
ATOM     10  C   UNL     1       5.423   1.390  -1.460  1.00  0.00     0.027 C 
ATOM     11  C   UNL     1       2.812   0.051  -0.880  1.00  0.00     0.316 C 
ATOM     12  C   UNL     1       6.163   0.797   0.049  1.00  0.00     0.019 A 
ATOM     13  O   UNL     1       3.553  -0.478   0.870  1.00  0.00    -0.475 OA
ATOM     14  C   UNL     1       7.439   1.230   0.307  1.00  0.00     0.032 A 
ATOM     15  C   UNL     1       5.294  -0.073   1.267  1.00  0.00     0.135 A 
ATOM     16  C   UNL     1       7.955   0.863   1.549  1.00  0.00     0.042 A 
ATOM     17  C   UNL     1       5.918  -0.450   2.448  1.00  0.00     0.026 A 
ATOM     18  Cl  UNL     1       9.551   1.407   1.943  1.00  0.00    -0.084 Cl
ATOM     19  C   UNL     1       7.255   0.069   2.527  1.00  0.00     0.033 A 
BRANCH  11  20
ATOM     20  C   UNL     1       2.522  -0.827  -2.341  1.00  0.00     0.430 C 
ATOM     21  F   UNL     1       2.743  -2.148  -2.424  1.00  0.00    -0.167 F 
ATOM     22  F   UNL     1       1.240  -0.612  -2.735  1.00  0.00    -0.167 F 
ATOM     23  F   UNL     1       3.285  -0.339  -3.372  1.00  0.00    -0.167 F 
ENDBRANCH  11  20
BRANCH  17  24
ATOM     24  C   UNL     1       5.545  -1.327   3.556  1.00  0.00    -0.015 A 
ATOM     25  C   UNL     1       4.980  -0.825   4.734  1.00  0.00     0.010 A 
ATOM     26  C   UNL     1       6.041  -2.649   3.587  1.00  0.00     0.010 A 
ATOM     27  C   UNL     1       4.822  -1.642   5.864  1.00  0.00     0.021 A 
ATOM     28  C   UNL     1       5.856  -3.479   4.700  1.00  0.00     0.021 A 
ATOM     29  C   UNL     1       5.226  -2.975   5.830  1.00  0.00     0.041 A 
ATOM     30  Cl  UNL     1       4.959  -3.996   7.187  1.00  0.00    -0.084 Cl
ENDBRANCH  17  24
ENDBRANCH   7   9
ENDBRANCH   6   7
ENDBRANCH   5   6
ENDBRANCH   4   5
ENDBRANCH   3   4
ENDBRANCH   2   3
ENDBRANCH   1   2
BRANCH   1  31
ATOM     31  O   UNL     1       2.344  -3.676   2.149  1.00  0.00    -0.376 OA
BRANCH  31  32
ATOM     32  C   UNL     1       3.729  -3.909   2.021  1.00  0.00     0.202 C 
BRANCH  32  33
ATOM     33  C   UNL     1       4.228  -5.082   1.171  1.00  0.00     0.261 C 
BRANCH  33  34
ATOM     34  O   UNL     1       3.885  -4.994  -0.220  1.00  0.00    -0.460 OA
BRANCH  34  35
ATOM     35  C   UNL     1       2.917  -5.837  -0.648  1.00  0.00     0.338 C 
ATOM     36  O   UNL     1       2.326  -6.687  -0.007  1.00  0.00    -0.246 OA
BRANCH  35  37
ATOM     37  C   UNL     1       2.534  -5.442  -2.014  1.00  0.00     0.060 A 
ATOM     38  C   UNL     1       1.262  -4.899  -2.252  1.00  0.00     0.016 A 
ATOM     39  C   UNL     1       3.423  -5.671  -3.061  1.00  0.00     0.016 A 
ATOM     40  C   UNL     1       0.875  -4.574  -3.547  1.00  0.00     0.010 A 
ATOM     41  C   UNL     1       3.017  -5.393  -4.364  1.00  0.00     0.010 A 
ATOM     42  C   UNL     1       1.734  -4.871  -4.610  1.00  0.00    -0.014 A 
BRANCH  42  43
ATOM     43  C   UNL     1       1.195  -4.903  -5.983  1.00  0.00     0.031 A 
ATOM     44  C   UNL     1       0.637  -6.207  -6.475  1.00  0.00     0.074 A 
ATOM     45  C   UNL     1       1.214  -3.815  -6.769  1.00  0.00     0.049 A 
ATOM     46  N   UNL     1       0.185  -6.525  -7.658  1.00  0.00    -0.248 NA
ATOM     47  C   UNL     1       0.594  -7.306  -5.495  1.00  0.00     0.031 C 
ATOM     48  C   UNL     1       1.693  -2.493  -6.372  1.00  0.00     0.029 A 
ATOM     49  N   UNL     1       0.834  -3.663  -8.077  1.00  0.00    -0.354 N 
ATOM     50  C   UNL     1      -0.185  -7.860  -7.567  1.00  0.00     0.074 A 
ATOM     51  C   UNL     1       0.121  -8.301  -6.225  1.00  0.00     0.031 C 
ATOM     52  C   UNL     1       1.601  -1.666  -7.429  1.00  0.00     0.029 A 
ATOM     53  C   UNL     1       1.092  -2.412  -8.579  1.00  0.00     0.049 A 
ATOM     54  H   UNL     1       0.416  -4.382  -8.604  1.00  0.00     0.167 HD
ATOM     55  C   UNL     1      -0.733  -8.647  -8.521  1.00  0.00     0.037 A 
ATOM     56  C   UNL     1       0.960  -1.944  -9.835  1.00  0.00     0.037 A 
ATOM     57  C   UNL     1      -1.004  -8.200  -9.860  1.00  0.00     0.049 A 
ATOM     58  C   UNL     1       0.426  -2.864 -10.906  1.00  0.00     0.074 A 
ATOM     59  C   UNL     1      -1.566  -8.907 -10.906  1.00  0.00     0.029 A 
ATOM     60  N   UNL     1      -0.709  -6.933 -10.342  1.00  0.00    -0.354 N 
ATOM     61  N   UNL     1       0.043  -4.116 -10.809  1.00  0.00    -0.248 NA
ATOM     62  C   UNL     1       0.304  -2.306 -12.260  1.00  0.00     0.031 C 
ATOM     63  C   UNL     1      -1.542  -8.092 -12.041  1.00  0.00     0.029 A 
ATOM     64  C   UNL     1      -1.043  -6.849 -11.682  1.00  0.00     0.049 A 
ATOM     65  H   UNL     1      -0.320  -6.202  -9.809  1.00  0.00     0.167 HD
ATOM     66  C   UNL     1      -0.396  -4.483 -12.076  1.00  0.00     0.074 A 
ATOM     67  C   UNL     1      -0.241  -3.317 -12.922  1.00  0.00     0.031 C 
ATOM     68  C   UNL     1      -0.886  -5.674 -12.504  1.00  0.00     0.037 A 
BRANCH  55  69
ATOM     69  C   UNL     1      -1.016 -10.075  -8.157  1.00  0.00     0.057 A 
ATOM     70  C   UNL     1      -2.005 -10.428  -7.228  1.00  0.00     0.134 A 
ATOM     71  C   UNL     1      -0.287 -11.116  -8.747  1.00  0.00     0.134 A 
ATOM     72  F   UNL     1      -2.728  -9.481  -6.610  1.00  0.00    -0.206 F 
ATOM     73  C   UNL     1      -2.233 -11.759  -6.874  1.00  0.00     0.040 A 
ATOM     74  C   UNL     1      -0.530 -12.452  -8.427  1.00  0.00     0.040 A 
ATOM     75  F   UNL     1       0.675 -10.851  -9.644  1.00  0.00    -0.206 F 
ATOM     76  C   UNL     1      -1.499 -12.776  -7.480  1.00  0.00     0.006 A 
ENDBRANCH  55  69
BRANCH  56  77
ATOM     77  C   UNL     1       1.359  -0.549 -10.158  1.00  0.00     0.057 A 
ATOM     78  C   UNL     1       0.415   0.406 -10.552  1.00  0.00     0.134 A 
ATOM     79  C   UNL     1       2.698  -0.142 -10.102  1.00  0.00     0.134 A 
ATOM     80  F   UNL     1      -0.881   0.075 -10.650  1.00  0.00    -0.206 F 
ATOM     81  C   UNL     1       0.789   1.706 -10.900  1.00  0.00     0.040 A 
ATOM     82  C   UNL     1       3.082   1.162 -10.416  1.00  0.00     0.040 A 
ATOM     83  F   UNL     1       3.655  -1.007  -9.732  1.00  0.00    -0.206 F 
ATOM     84  C   UNL     1       2.126   2.089 -10.825  1.00  0.00     0.006 A 
ENDBRANCH  56  77
BRANCH  68  85
ATOM     85  C   UNL     1      -1.337  -5.767 -13.934  1.00  0.00     0.057 A 
ATOM     86  C   UNL     1      -0.435  -5.749 -15.005  1.00  0.00     0.134 A 
ATOM     87  C   UNL     1      -2.695  -5.940 -14.238  1.00  0.00     0.134 A 
ATOM     88  F   UNL     1       0.878  -5.580 -14.787  1.00  0.00    -0.206 F 
ATOM     89  C   UNL     1      -0.869  -5.874 -16.327  1.00  0.00     0.040 A 
ATOM     90  C   UNL     1      -3.136  -6.102 -15.551  1.00  0.00     0.040 A 
ATOM     91  F   UNL     1      -3.612  -5.981 -13.260  1.00  0.00    -0.206 F 
ATOM     92  C   UNL     1      -2.223  -6.061 -16.601  1.00  0.00     0.006 A 
ENDBRANCH  68  85
ENDBRANCH  42  43
ENDBRANCH  35  37
ENDBRANCH  34  35
ENDBRANCH  33  34
ENDBRANCH  32  33
ENDBRANCH  31  32
ENDBRANCH   1  31
TORSDOF 19
