REMARK SMILES O=C(OCCOCCOCCOC(=O)c1ccc2c(c1)[C@@H](C1CCOCC1)C(=O)N2)c1ccc(-c2c3nc(c(-c4c(F)cccc4F)c4ccc([nH]4)c(-c4c(F)cccc4F)c4nc(c(-c5c(F)cccc5F)c5ccc2[nH]5)C=C4)C=C3)cc1
REMARK SMILES IDX 7 1 6 2 5 3 4 4 3 5 2 6 1 7 31 8 32 9 84 10 33 11 83 12
REMARK SMILES IDX 34 13 35 14 36 15 77 16 37 17 82 18 76 19 78 20 38 21 81 22
REMARK SMILES IDX 75 23 74 24 39 26 65 27 48 28 64 29 49 30 52 31 63 32 79 33
REMARK SMILES IDX 50 34 51 35 62 37 80 38 53 39 40 40 41 41 46 42 42 43 43 44
REMARK SMILES IDX 45 45 47 46 44 47 66 48 67 49 72 50 68 51 69 52 71 53 73 54
REMARK SMILES IDX 70 55 54 56 55 57 60 58 56 59 57 60 59 61 61 62 58 63 8 64
REMARK SMILES IDX 9 65 10 66 11 67 12 68 13 69 14 70 15 71 16 72 20 73 17 74
REMARK SMILES IDX 19 75 18 76 21 77 30 78 28 79 29 81 22 82 23 83 27 84 24 85
REMARK SMILES IDX 26 86 25 87
REMARK H PARENT 78 25 52 36 30 80
REMARK Flexibility Score: inf
ROOT
ATOM      1  C   UNL     1       2.545   1.903   0.080  1.00  0.00     0.188 C 
ENDROOT
BRANCH   1   2
ATOM      2  O   UNL     1       3.900   1.611   0.414  1.00  0.00    -0.376 OA
BRANCH   2   3
ATOM      3  C   UNL     1       4.736   1.256  -0.696  1.00  0.00     0.202 C 
BRANCH   3   4
ATOM      4  C   UNL     1       4.375  -0.037  -1.461  1.00  0.00     0.261 C 
BRANCH   4   5
ATOM      5  O   UNL     1       2.991  -0.427  -1.363  1.00  0.00    -0.460 OA
BRANCH   5   6
ATOM      6  C   UNL     1       2.430  -1.305  -0.492  1.00  0.00     0.338 C 
ATOM      7  O   UNL     1       1.245  -1.608  -0.611  1.00  0.00    -0.246 OA
BRANCH   6   8
ATOM      8  C   UNL     1       3.198  -1.915   0.625  1.00  0.00     0.060 A 
ATOM      9  C   UNL     1       4.256  -1.282   1.264  1.00  0.00     0.016 A 
ATOM     10  C   UNL     1       2.797  -3.166   1.107  1.00  0.00     0.016 A 
ATOM     11  C   UNL     1       5.005  -1.905   2.238  1.00  0.00     0.010 A 
ATOM     12  C   UNL     1       3.490  -3.767   2.163  1.00  0.00     0.010 A 
ATOM     13  C   UNL     1       4.614  -3.144   2.718  1.00  0.00    -0.014 A 
BRANCH  13  14
ATOM     14  C   UNL     1       5.498  -3.788   3.706  1.00  0.00     0.031 A 
ATOM     15  C   UNL     1       6.223  -5.031   3.296  1.00  0.00     0.074 A 
ATOM     16  C   UNL     1       5.772  -3.151   4.863  1.00  0.00     0.049 A 
ATOM     17  N   UNL     1       7.069  -5.754   3.976  1.00  0.00    -0.248 NA
ATOM     18  C   UNL     1       5.968  -5.528   1.932  1.00  0.00     0.031 C 
ATOM     19  C   UNL     1       5.183  -1.874   5.287  1.00  0.00     0.029 A 
ATOM     20  N   UNL     1       6.655  -3.449   5.865  1.00  0.00    -0.354 N 
ATOM     21  C   UNL     1       7.424  -6.797   3.132  1.00  0.00     0.074 A 
ATOM     22  C   UNL     1       6.672  -6.646   1.911  1.00  0.00     0.031 C 
ATOM     23  C   UNL     1       5.767  -1.474   6.426  1.00  0.00     0.029 A 
ATOM     24  C   UNL     1       6.693  -2.506   6.864  1.00  0.00     0.049 A 
ATOM     25  H   UNL     1       7.211  -4.261   5.869  1.00  0.00     0.167 HD
ATOM     26  C   UNL     1       8.319  -7.784   3.357  1.00  0.00     0.037 A 
ATOM     27  C   UNL     1       7.379  -2.498   8.022  1.00  0.00     0.037 A 
ATOM     28  C   UNL     1       9.061  -7.901   4.580  1.00  0.00     0.049 A 
ATOM     29  C   UNL     1       8.290  -3.664   8.288  1.00  0.00     0.074 A 
ATOM     30  C   UNL     1       9.937  -8.893   4.971  1.00  0.00     0.029 A 
ATOM     31  N   UNL     1       9.008  -6.974   5.615  1.00  0.00    -0.354 N 
ATOM     32  N   UNL     1       8.571  -4.685   7.511  1.00  0.00    -0.248 NA
ATOM     33  C   UNL     1       8.973  -3.687   9.585  1.00  0.00     0.031 C 
ATOM     34  C   UNL     1      10.383  -8.587   6.261  1.00  0.00     0.029 A 
ATOM     35  C   UNL     1       9.829  -7.375   6.651  1.00  0.00     0.049 A 
ATOM     36  H   UNL     1       8.465  -6.152   5.610  1.00  0.00     0.167 HD
ATOM     37  C   UNL     1       9.474  -5.465   8.217  1.00  0.00     0.074 A 
ATOM     38  C   UNL     1       9.720  -4.776   9.470  1.00  0.00     0.031 C 
ATOM     39  C   UNL     1      10.044  -6.647   7.877  1.00  0.00     0.037 A 
BRANCH  26  40
ATOM     40  C   UNL     1       8.481  -8.809   2.277  1.00  0.00     0.057 A 
ATOM     41  C   UNL     1       9.092  -8.510   1.050  1.00  0.00     0.134 A 
ATOM     42  C   UNL     1       7.966 -10.100   2.443  1.00  0.00     0.134 A 
ATOM     43  F   UNL     1       9.569  -7.279   0.811  1.00  0.00    -0.206 F 
ATOM     44  C   UNL     1       9.159  -9.450   0.020  1.00  0.00     0.040 A 
ATOM     45  C   UNL     1       8.052 -11.056   1.430  1.00  0.00     0.040 A 
ATOM     46  F   UNL     1       7.355 -10.447   3.585  1.00  0.00    -0.206 F 
ATOM     47  C   UNL     1       8.642 -10.729   0.211  1.00  0.00     0.006 A 
ENDBRANCH  26  40
BRANCH  27  48
ATOM     48  C   UNL     1       7.186  -1.413   9.024  1.00  0.00     0.057 A 
ATOM     49  C   UNL     1       8.239  -0.584   9.428  1.00  0.00     0.134 A 
ATOM     50  C   UNL     1       5.944  -1.208   9.643  1.00  0.00     0.134 A 
ATOM     51  F   UNL     1       9.457  -0.727   8.885  1.00  0.00    -0.206 F 
ATOM     52  C   UNL     1       8.077   0.375  10.432  1.00  0.00     0.040 A 
ATOM     53  C   UNL     1       5.759  -0.233  10.626  1.00  0.00     0.040 A 
ATOM     54  F   UNL     1       4.880  -1.949   9.298  1.00  0.00    -0.206 F 
ATOM     55  C   UNL     1       6.833   0.552  11.034  1.00  0.00     0.006 A 
ENDBRANCH  27  48
BRANCH  39  56
ATOM     56  C   UNL     1      11.006  -7.234   8.864  1.00  0.00     0.057 A 
ATOM     57  C   UNL     1      10.578  -7.771  10.084  1.00  0.00     0.134 A 
ATOM     58  C   UNL     1      12.375  -7.283   8.573  1.00  0.00     0.134 A 
ATOM     59  F   UNL     1       9.280  -7.739  10.424  1.00  0.00    -0.206 F 
ATOM     60  C   UNL     1      11.484  -8.308  10.997  1.00  0.00     0.040 A 
ATOM     61  C   UNL     1      13.286  -7.850   9.462  1.00  0.00     0.040 A 
ATOM     62  F   UNL     1      12.845  -6.794   7.415  1.00  0.00    -0.206 F 
ATOM     63  C   UNL     1      12.841  -8.355  10.682  1.00  0.00     0.006 A 
ENDBRANCH  39  56
ENDBRANCH  13  14
ENDBRANCH   6   8
ENDBRANCH   5   6
ENDBRANCH   4   5
ENDBRANCH   3   4
ENDBRANCH   2   3
ENDBRANCH   1   2
BRANCH   1  64
ATOM     64  C   UNL     1       1.934   3.030   0.911  1.00  0.00     0.188 C 
BRANCH  64  65
ATOM     65  O   UNL     1       2.581   4.293   0.860  1.00  0.00    -0.376 OA
BRANCH  65  66
ATOM     66  C   UNL     1       3.967   4.327   1.177  1.00  0.00     0.202 C 
BRANCH  66  67
ATOM     67  C   UNL     1       4.406   3.971   2.608  1.00  0.00     0.261 C 
BRANCH  67  68
ATOM     68  O   UNL     1       3.901   2.742   3.172  1.00  0.00    -0.460 OA
BRANCH  68  69
ATOM     69  C   UNL     1       2.915   2.916   4.087  1.00  0.00     0.338 C 
ATOM     70  O   UNL     1       2.346   3.959   4.367  1.00  0.00    -0.246 OA
BRANCH  69  71
ATOM     71  C   UNL     1       2.638   1.680   4.847  1.00  0.00     0.060 A 
ATOM     72  C   UNL     1       3.311   1.566   6.082  1.00  0.00     0.018 A 
ATOM     73  C   UNL     1       1.538   0.852   4.529  1.00  0.00     0.022 A 
ATOM     74  C   UNL     1       2.856   0.675   7.050  1.00  0.00     0.027 A 
ATOM     75  C   UNL     1       1.099  -0.043   5.501  1.00  0.00    -0.011 A 
ATOM     76  C   UNL     1       1.736  -0.069   6.747  1.00  0.00     0.045 A 
ATOM     77  C   UNL     1      -0.139  -0.929   5.569  1.00  0.00     0.114 C 
ATOM     78  N   UNL     1       0.994  -0.806   7.649  1.00  0.00    -0.325 N 
ATOM     79  C   UNL     1      -0.194  -1.249   7.089  1.00  0.00     0.232 C 
ATOM     80  H   UNL     1       1.273  -0.993   8.575  1.00  0.00     0.169 HD
ATOM     81  O   UNL     1      -1.097  -1.775   7.706  1.00  0.00    -0.274 OA
BRANCH  77  82
ATOM     82  C   UNL     1      -0.107  -2.233   4.723  1.00  0.00     0.010 C 
ATOM     83  C   UNL     1      -1.407  -3.057   4.893  1.00  0.00     0.033 C 
ATOM     84  C   UNL     1       1.109  -3.132   5.018  1.00  0.00     0.033 C 
ATOM     85  C   UNL     1      -1.345  -4.411   4.196  1.00  0.00     0.160 C 
ATOM     86  C   UNL     1       1.001  -4.472   4.301  1.00  0.00     0.160 C 
ATOM     87  O   UNL     1      -0.205  -5.143   4.640  1.00  0.00    -0.381 OA
ENDBRANCH  77  82
ENDBRANCH  69  71
ENDBRANCH  68  69
ENDBRANCH  67  68
ENDBRANCH  66  67
ENDBRANCH  65  66
ENDBRANCH  64  65
ENDBRANCH   1  64
TORSDOF 18
