REMARK SMILES C[N@H+]1CCO[C@](C)(C(=O)OCCOCCOCCOC(=O)c2ccc(-c3c4nc(c(-c5c(F)cccc5F)c5ccc([nH]5)c(-c5c(F)cccc5F)c5nc(c(-c6c(F)cccc6F)c6ccc3[nH]6)C=C5)C=C4)cc2)C1
REMARK SMILES IDX 15 1 14 2 13 3 12 4 11 5 10 6 8 7 9 8 6 9 1 10 2 11 3 12
REMARK SMILES IDX 76 13 4 15 5 16 7 17 16 18 17 19 18 20 19 21 20 22 21 23
REMARK SMILES IDX 22 24 23 25 75 26 24 27 74 28 25 29 26 30 27 31 68 32 28 33
REMARK SMILES IDX 73 34 67 35 69 36 29 37 72 38 66 39 65 40 30 42 56 43 39 44
REMARK SMILES IDX 55 45 40 46 43 47 54 48 70 49 41 50 42 51 53 53 71 54 44 55
REMARK SMILES IDX 31 56 32 57 37 58 33 59 34 60 36 61 38 62 35 63 57 64 58 65
REMARK SMILES IDX 63 66 59 67 60 68 62 69 64 70 61 71 45 72 46 73 51 74 47 75
REMARK SMILES IDX 48 76 50 77 52 78 49 79
REMARK H PARENT 2 14 69 41 43 52
REMARK Flexibility Score: inf
ROOT
ATOM      1  C   UNL     1       2.440   4.123  -3.600  1.00  0.00     0.188 C 
ENDROOT
BRANCH   1   2
ATOM      2  C   UNL     1       2.901   5.361  -2.824  1.00  0.00     0.188 C 
BRANCH   2   3
ATOM      3  O   UNL     1       4.195   5.882  -3.083  1.00  0.00    -0.376 OA
BRANCH   3   4
ATOM      4  C   UNL     1       5.295   4.979  -3.116  1.00  0.00     0.202 C 
BRANCH   4   5
ATOM      5  C   UNL     1       5.502   3.982  -1.958  1.00  0.00     0.261 C 
BRANCH   5   6
ATOM      6  O   UNL     1       4.391   3.111  -1.627  1.00  0.00    -0.461 OA
BRANCH   6   7
ATOM      7  C   UNL     1       3.812   3.344  -0.417  1.00  0.00     0.344 C 
ATOM      8  O   UNL     1       4.181   4.247   0.335  1.00  0.00    -0.249 OA
BRANCH   7   9
ATOM      9  C   UNL     1       2.633   2.406  -0.044  1.00  0.00     0.211 C 
ATOM     10  C   UNL     1       0.913  -0.431   0.064  1.00  0.00     0.332 C 
ATOM     11  N   UNL     1       0.923   0.661  -0.901  1.00  0.00    -0.333 N 
ATOM     12  C   UNL     1      -0.117   1.665  -0.609  1.00  0.00     0.290 C 
ATOM     13  C   UNL     1       2.247   1.314  -1.078  1.00  0.00     0.310 C 
ATOM     14  H   UNL     1       0.709   0.215  -1.793  1.00  0.00     0.348 HD
ATOM     15  C   UNL     1       0.286   2.692   0.457  1.00  0.00     0.223 C 
ATOM     16  O   UNL     1       1.526   3.326   0.146  1.00  0.00    -0.353 OA
ATOM     17  C   UNL     1       3.063   1.766   1.286  1.00  0.00     0.061 C 
ENDBRANCH   7   9
ENDBRANCH   6   7
ENDBRANCH   5   6
ENDBRANCH   4   5
ENDBRANCH   3   4
ENDBRANCH   2   3
ENDBRANCH   1   2
BRANCH   1  18
ATOM     18  O   UNL     1       3.455   3.459  -4.318  1.00  0.00    -0.376 OA
BRANCH  18  19
ATOM     19  C   UNL     1       3.241   3.135  -5.685  1.00  0.00     0.202 C 
BRANCH  19  20
ATOM     20  C   UNL     1       2.838   4.254  -6.672  1.00  0.00     0.261 C 
BRANCH  20  21
ATOM     21  O   UNL     1       1.713   5.078  -6.308  1.00  0.00    -0.460 OA
BRANCH  21  22
ATOM     22  C   UNL     1       0.500   4.478  -6.233  1.00  0.00     0.338 C 
ATOM     23  O   UNL     1       0.232   3.334  -6.564  1.00  0.00    -0.246 OA
BRANCH  22  24
ATOM     24  C   UNL     1      -0.381   5.341  -5.398  1.00  0.00     0.060 A 
ATOM     25  C   UNL     1      -0.964   4.786  -4.247  1.00  0.00     0.016 A 
ATOM     26  C   UNL     1      -0.566   6.694  -5.687  1.00  0.00     0.016 A 
ATOM     27  C   UNL     1      -1.756   5.572  -3.404  1.00  0.00     0.010 A 
ATOM     28  C   UNL     1      -1.383   7.474  -4.856  1.00  0.00     0.010 A 
ATOM     29  C   UNL     1      -2.007   6.912  -3.727  1.00  0.00    -0.014 A 
BRANCH  29  30
ATOM     30  C   UNL     1      -3.070   7.664  -3.007  1.00  0.00     0.031 A 
ATOM     31  C   UNL     1      -4.428   7.772  -3.651  1.00  0.00     0.074 A 
ATOM     32  C   UNL     1      -2.861   8.228  -1.802  1.00  0.00     0.049 A 
ATOM     33  N   UNL     1      -5.493   8.419  -3.252  1.00  0.00    -0.248 NA
ATOM     34  C   UNL     1      -4.604   7.049  -4.921  1.00  0.00     0.031 C 
ATOM     35  C   UNL     1      -1.617   8.168  -1.039  1.00  0.00     0.029 A 
ATOM     36  N   UNL     1      -3.703   8.978  -1.014  1.00  0.00    -0.354 N 
ATOM     37  C   UNL     1      -6.459   8.191  -4.225  1.00  0.00     0.074 A 
ATOM     38  C   UNL     1      -5.846   7.370  -5.246  1.00  0.00     0.031 C 
ATOM     39  C   UNL     1      -1.771   8.867   0.100  1.00  0.00     0.029 A 
ATOM     40  C   UNL     1      -3.111   9.452   0.132  1.00  0.00     0.049 A 
ATOM     41  H   UNL     1      -4.642   9.159  -1.250  1.00  0.00     0.167 HD
ATOM     42  C   UNL     1      -7.744   8.617  -4.263  1.00  0.00     0.037 A 
ATOM     43  C   UNL     1      -3.588  10.283   1.082  1.00  0.00     0.037 A 
ATOM     44  C   UNL     1      -8.361   9.434  -3.252  1.00  0.00     0.049 A 
ATOM     45  C   UNL     1      -4.997  10.813   0.975  1.00  0.00     0.074 A 
ATOM     46  C   UNL     1      -9.664   9.897  -3.197  1.00  0.00     0.029 A 
ATOM     47  N   UNL     1      -7.717   9.920  -2.125  1.00  0.00    -0.354 N 
ATOM     48  N   UNL     1      -5.911  10.567   0.068  1.00  0.00    -0.248 NA
ATOM     49  C   UNL     1      -5.441  11.736   2.032  1.00  0.00     0.031 C 
ATOM     50  C   UNL     1      -9.793  10.713  -2.068  1.00  0.00     0.029 A 
ATOM     51  C   UNL     1      -8.588  10.704  -1.385  1.00  0.00     0.049 A 
ATOM     52  H   UNL     1      -6.780   9.736  -1.886  1.00  0.00     0.167 HD
ATOM     53  C   UNL     1      -7.042  11.277   0.460  1.00  0.00     0.074 A 
ATOM     54  C   UNL     1      -6.706  11.948   1.697  1.00  0.00     0.031 C 
ATOM     55  C   UNL     1      -8.250  11.364  -0.150  1.00  0.00     0.037 A 
BRANCH  42  56
ATOM     56  C   UNL     1      -8.566   8.232  -5.458  1.00  0.00     0.057 A 
ATOM     57  C   UNL     1      -9.001   6.917  -5.669  1.00  0.00     0.134 A 
ATOM     58  C   UNL     1      -8.966   9.200  -6.389  1.00  0.00     0.134 A 
ATOM     59  F   UNL     1      -8.642   5.938  -4.824  1.00  0.00    -0.206 F 
ATOM     60  C   UNL     1      -9.786   6.575  -6.771  1.00  0.00     0.040 A 
ATOM     61  C   UNL     1      -9.774   8.877  -7.479  1.00  0.00     0.040 A 
ATOM     62  F   UNL     1      -8.588  10.479  -6.245  1.00  0.00    -0.206 F 
ATOM     63  C   UNL     1     -10.183   7.559  -7.675  1.00  0.00     0.006 A 
ENDBRANCH  42  56
BRANCH  43  64
ATOM     64  C   UNL     1      -2.722  10.700   2.218  1.00  0.00     0.057 A 
ATOM     65  C   UNL     1      -3.013  10.322   3.535  1.00  0.00     0.134 A 
ATOM     66  C   UNL     1      -1.614  11.534   2.021  1.00  0.00     0.134 A 
ATOM     67  F   UNL     1      -4.080   9.552   3.795  1.00  0.00    -0.206 F 
ATOM     68  C   UNL     1      -2.251  10.775   4.614  1.00  0.00     0.040 A 
ATOM     69  C   UNL     1      -0.825  11.970   3.087  1.00  0.00     0.040 A 
ATOM     70  F   UNL     1      -1.285  11.941   0.786  1.00  0.00    -0.206 F 
ATOM     71  C   UNL     1      -1.149  11.598   4.390  1.00  0.00     0.006 A 
ENDBRANCH  43  64
BRANCH  55  72
ATOM     72  C   UNL     1      -9.316  12.179   0.530  1.00  0.00     0.057 A 
ATOM     73  C   UNL     1      -9.245  13.576   0.616  1.00  0.00     0.134 A 
ATOM     74  C   UNL     1     -10.446  11.558   1.080  1.00  0.00     0.134 A 
ATOM     75  F   UNL     1      -8.188  14.235   0.119  1.00  0.00    -0.206 F 
ATOM     76  C   UNL     1     -10.242  14.321   1.250  1.00  0.00     0.040 A 
ATOM     77  C   UNL     1     -11.464  12.295   1.688  1.00  0.00     0.040 A 
ATOM     78  F   UNL     1     -10.587  10.225   1.022  1.00  0.00    -0.206 F 
ATOM     79  C   UNL     1     -11.359  13.680   1.783  1.00  0.00     0.006 A 
ENDBRANCH  55  72
ENDBRANCH  29  30
ENDBRANCH  22  24
ENDBRANCH  21  22
ENDBRANCH  20  21
ENDBRANCH  19  20
ENDBRANCH  18  19
ENDBRANCH   1  18
TORSDOF 17
