REMARK SMILES O=C(Nc1ccccc1C(=O)OCCOCCOCCOC(=O)c1ccc(-c2c3nc(c(-c4c(F)cccc4F)c4ccc([nH]4)c(-c4c(F)cccc4F)c4nc(c(-c5c(F)cccc5F)c5ccc2[nH]5)C=C4)C=C3)cc1)c1ccc(N2C(=O)[C@H]3CC=CC[C@H]3C2=O)cc1
REMARK SMILES IDX 16 1 15 2 14 3 13 4 12 5 10 6 11 7 9 8 4 9 5 10 6 11 8 12
REMARK SMILES IDX 7 13 3 14 1 15 2 16 78 18 79 19 94 20 80 21 93 22 81 23
REMARK SMILES IDX 82 24 83 25 91 26 84 27 85 28 90 29 92 30 86 31 89 32 87 33
REMARK SMILES IDX 88 34 17 35 18 36 19 37 20 38 21 39 22 40 23 41 24 42 25 43
REMARK SMILES IDX 77 44 26 45 76 46 27 47 28 48 29 49 70 50 30 51 75 52 69 53
REMARK SMILES IDX 71 54 31 55 74 56 68 57 67 58 32 60 58 61 41 62 57 63 42 64
REMARK SMILES IDX 45 65 56 66 72 67 43 68 44 69 55 71 73 72 46 73 33 74 34 75
REMARK SMILES IDX 39 76 35 77 36 78 38 79 40 80 37 81 59 82 60 83 65 84 61 85
REMARK SMILES IDX 62 86 64 87 66 88 63 89 47 90 48 91 53 92 49 93 50 94 52 95
REMARK SMILES IDX 54 96 51 97
REMARK H PARENT 3 17 71 59 45 70
REMARK Flexibility Score: inf
ROOT
ATOM      1  C   UNL     1       4.648   3.686   1.972  1.00  0.00     0.188 C 
ENDROOT
BRANCH   1   2
ATOM      2  O   UNL     1       3.915   4.760   1.402  1.00  0.00    -0.376 OA
BRANCH   2   3
ATOM      3  C   UNL     1       2.813   4.433   0.565  1.00  0.00     0.202 C 
BRANCH   3   4
ATOM      4  C   UNL     1       3.043   3.400  -0.536  1.00  0.00     0.261 C 
BRANCH   4   5
ATOM      5  O   UNL     1       3.447   2.084  -0.091  1.00  0.00    -0.460 OA
BRANCH   5   6
ATOM      6  C   UNL     1       4.632   1.633  -0.584  1.00  0.00     0.340 C 
ATOM      7  O   UNL     1       5.390   2.248  -1.322  1.00  0.00    -0.246 OA
BRANCH   6   8
ATOM      8  C   UNL     1       5.061   0.356   0.043  1.00  0.00     0.083 A 
ATOM      9  C   UNL     1       4.270  -0.765   0.353  1.00  0.00     0.056 A 
ATOM     10  C   UNL     1       4.856  -1.788   1.131  1.00  0.00     0.027 A 
ATOM     11  C   UNL     1       6.199  -1.754   1.514  1.00  0.00     0.002 A 
ATOM     12  C   UNL     1       6.423   0.371   0.433  1.00  0.00     0.018 A 
ATOM     13  C   UNL     1       6.991  -0.678   1.151  1.00  0.00     0.001 A 
BRANCH   9  14
ATOM     14  N   UNL     1       2.937  -1.046  -0.018  1.00  0.00    -0.321 N 
ATOM     15  O   UNL     1       0.940  -0.962  -1.051  1.00  0.00    -0.269 OA
ATOM     16  C   UNL     1       2.138  -0.683  -1.074  1.00  0.00     0.255 C 
ATOM     17  H   UNL     1       2.477  -1.634   0.624  1.00  0.00     0.170 HD
BRANCH  16  18
ATOM     18  C   UNL     1       2.682  -0.007  -2.263  1.00  0.00     0.040 A 
ATOM     19  C   UNL     1       3.866  -0.411  -2.888  1.00  0.00     0.016 A 
ATOM     20  C   UNL     1       2.013   1.137  -2.691  1.00  0.00     0.016 A 
ATOM     21  C   UNL     1       4.473   0.434  -3.825  1.00  0.00     0.027 A 
ATOM     22  C   UNL     1       2.649   2.002  -3.573  1.00  0.00     0.027 A 
ATOM     23  C   UNL     1       3.913   1.689  -4.094  1.00  0.00     0.052 A 
BRANCH  23  24
ATOM     24  N   UNL     1       4.608   2.675  -4.821  1.00  0.00    -0.250 N 
ATOM     25  C   UNL     1       5.313   2.448  -5.971  1.00  0.00     0.238 C 
ATOM     26  C   UNL     1       4.643   3.996  -4.443  1.00  0.00     0.238 C 
ATOM     27  O   UNL     1       5.613   1.379  -6.485  1.00  0.00    -0.274 OA
ATOM     28  C   UNL     1       5.569   3.786  -6.628  1.00  0.00     0.096 C 
ATOM     29  C   UNL     1       5.402   4.785  -5.480  1.00  0.00     0.096 C 
ATOM     30  O   UNL     1       4.182   4.514  -3.434  1.00  0.00    -0.274 OA
ATOM     31  C   UNL     1       4.575   3.966  -7.790  1.00  0.00     0.041 C 
ATOM     32  C   UNL     1       4.585   6.036  -5.805  1.00  0.00     0.041 C 
ATOM     33  C   UNL     1       3.303   4.673  -7.408  1.00  0.00    -0.030 C 
ATOM     34  C   UNL     1       3.310   5.660  -6.503  1.00  0.00    -0.030 C 
ENDBRANCH  23  24
ENDBRANCH  16  18
ENDBRANCH   9  14
ENDBRANCH   6   8
ENDBRANCH   5   6
ENDBRANCH   4   5
ENDBRANCH   3   4
ENDBRANCH   2   3
ENDBRANCH   1   2
BRANCH   1  35
ATOM     35  C   UNL     1       3.877   2.590   2.741  1.00  0.00     0.188 C 
BRANCH  35  36
ATOM     36  O   UNL     1       2.472   2.780   2.774  1.00  0.00    -0.376 OA
BRANCH  36  37
ATOM     37  C   UNL     1       1.921   3.146   4.031  1.00  0.00     0.202 C 
BRANCH  37  38
ATOM     38  C   UNL     1       2.310   4.530   4.578  1.00  0.00     0.261 C 
BRANCH  38  39
ATOM     39  O   UNL     1       3.718   4.812   4.635  1.00  0.00    -0.460 OA
BRANCH  39  40
ATOM     40  C   UNL     1       4.470   4.134   5.529  1.00  0.00     0.338 C 
ATOM     41  O   UNL     1       4.082   3.315   6.343  1.00  0.00    -0.246 OA
BRANCH  40  42
ATOM     42  C   UNL     1       5.893   4.383   5.189  1.00  0.00     0.060 A 
ATOM     43  C   UNL     1       6.738   3.284   4.970  1.00  0.00     0.016 A 
ATOM     44  C   UNL     1       6.372   5.683   4.998  1.00  0.00     0.016 A 
ATOM     45  C   UNL     1       8.066   3.486   4.584  1.00  0.00     0.010 A 
ATOM     46  C   UNL     1       7.708   5.885   4.638  1.00  0.00     0.010 A 
ATOM     47  C   UNL     1       8.570   4.788   4.459  1.00  0.00    -0.014 A 
BRANCH  47  48
ATOM     48  C   UNL     1      10.036   5.010   4.398  1.00  0.00     0.031 A 
ATOM     49  C   UNL     1      10.765   5.195   5.703  1.00  0.00     0.074 A 
ATOM     50  C   UNL     1      10.716   5.050   3.239  1.00  0.00     0.049 A 
ATOM     51  N   UNL     1      12.029   5.443   5.926  1.00  0.00    -0.248 NA
ATOM     52  C   UNL     1       9.947   5.083   6.923  1.00  0.00     0.031 C 
ATOM     53  C   UNL     1      10.144   4.858   1.909  1.00  0.00     0.029 A 
ATOM     54  N   UNL     1      12.051   5.280   3.002  1.00  0.00    -0.354 N 
ATOM     55  C   UNL     1      12.157   5.517   7.307  1.00  0.00     0.074 A 
ATOM     56  C   UNL     1      10.841   5.316   7.870  1.00  0.00     0.031 C 
ATOM     57  C   UNL     1      11.121   4.993   0.992  1.00  0.00     0.029 A 
ATOM     58  C   UNL     1      12.380   5.307   1.669  1.00  0.00     0.049 A 
ATOM     59  H   UNL     1      12.709   5.414   3.722  1.00  0.00     0.167 HD
ATOM     60  C   UNL     1      13.271   5.726   8.046  1.00  0.00     0.037 A 
ATOM     61  C   UNL     1      13.557   5.576   1.069  1.00  0.00     0.037 A 
ATOM     62  C   UNL     1      14.579   5.947   7.495  1.00  0.00     0.049 A 
ATOM     63  C   UNL     1      14.770   5.890   1.910  1.00  0.00     0.074 A 
ATOM     64  C   UNL     1      15.771   6.162   8.163  1.00  0.00     0.029 A 
ATOM     65  N   UNL     1      14.863   5.996   6.139  1.00  0.00    -0.354 N 
ATOM     66  N   UNL     1      14.889   5.921   3.216  1.00  0.00    -0.248 NA
ATOM     67  C   UNL     1      16.015   6.206   1.191  1.00  0.00     0.031 C 
ATOM     68  C   UNL     1      16.770   6.385   7.210  1.00  0.00     0.029 A 
ATOM     69  C   UNL     1      16.209   6.261   5.950  1.00  0.00     0.049 A 
ATOM     70  H   UNL     1      14.206   5.862   5.418  1.00  0.00     0.167 HD
ATOM     71  C   UNL     1      16.221   6.229   3.472  1.00  0.00     0.074 A 
ATOM     72  C   UNL     1      16.874   6.367   2.188  1.00  0.00     0.031 C 
ATOM     73  C   UNL     1      16.848   6.383   4.665  1.00  0.00     0.037 A 
BRANCH  60  74
ATOM     74  C   UNL     1      13.106   5.754   9.535  1.00  0.00     0.057 A 
ATOM     75  C   UNL     1      12.857   4.588  10.271  1.00  0.00     0.134 A 
ATOM     76  C   UNL     1      13.204   6.958  10.241  1.00  0.00     0.134 A 
ATOM     77  F   UNL     1      12.730   3.405   9.649  1.00  0.00    -0.206 F 
ATOM     78  C   UNL     1      12.689   4.623  11.655  1.00  0.00     0.040 A 
ATOM     79  C   UNL     1      13.062   7.003  11.628  1.00  0.00     0.040 A 
ATOM     80  F   UNL     1      13.438   8.110   9.595  1.00  0.00    -0.206 F 
ATOM     81  C   UNL     1      12.797   5.833  12.339  1.00  0.00     0.006 A 
ENDBRANCH  60  74
BRANCH  61  82
ATOM     82  C   UNL     1      13.660   5.581  -0.414  1.00  0.00     0.057 A 
ATOM     83  C   UNL     1      14.396   4.604  -1.094  1.00  0.00     0.134 A 
ATOM     84  C   UNL     1      13.066   6.590  -1.181  1.00  0.00     0.134 A 
ATOM     85  F   UNL     1      15.015   3.629  -0.412  1.00  0.00    -0.206 F 
ATOM     86  C   UNL     1      14.551   4.638  -2.482  1.00  0.00     0.040 A 
ATOM     87  C   UNL     1      13.193   6.623  -2.571  1.00  0.00     0.040 A 
ATOM     88  F   UNL     1      12.355   7.561  -0.590  1.00  0.00    -0.206 F 
ATOM     89  C   UNL     1      13.944   5.648  -3.225  1.00  0.00     0.006 A 
ENDBRANCH  61  82
BRANCH  73  90
ATOM     90  C   UNL     1      18.320   6.674   4.645  1.00  0.00     0.057 A 
ATOM     91  C   UNL     1      18.823   7.927   4.273  1.00  0.00     0.134 A 
ATOM     92  C   UNL     1      19.242   5.704   5.058  1.00  0.00     0.134 A 
ATOM     93  F   UNL     1      17.994   8.896   3.858  1.00  0.00    -0.206 F 
ATOM     94  C   UNL     1      20.192   8.198   4.295  1.00  0.00     0.040 A 
ATOM     95  C   UNL     1      20.611   5.971   5.109  1.00  0.00     0.040 A 
ATOM     96  F   UNL     1      18.826   4.486   5.438  1.00  0.00    -0.206 F 
ATOM     97  C   UNL     1      21.090   7.221   4.722  1.00  0.00     0.006 A 
ENDBRANCH  73  90
ENDBRANCH  47  48
ENDBRANCH  40  42
ENDBRANCH  39  40
ENDBRANCH  38  39
ENDBRANCH  37  38
ENDBRANCH  36  37
ENDBRANCH  35  36
ENDBRANCH   1  35
TORSDOF 20
