REMARK SMILES O=C(N/N=C/c1ccccc1O)C(=O)Nc1cccc(C(=O)OCCOCCOCCOC(=O)c2ccc(-c3c4nc(c(-c5c(F)cccc5F)c5ccc([nH]5)c(-c5c(F)cccc5F)c5nc(c(-c6c(F)cccc6F)c6ccc3[nH]6)C=C5)C=C4)cc2)c1
REMARK SMILES IDX 26 1 25 2 24 3 23 4 21 5 22 6 20 7 16 8 17 9 89 10 18 11
REMARK SMILES IDX 19 12 15 13 13 14 14 15 2 17 1 18 3 19 4 21 5 22 6 23 7 24
REMARK SMILES IDX 11 25 8 26 10 27 9 28 12 29 27 31 28 32 29 33 30 34 31 35
REMARK SMILES IDX 32 36 33 37 34 38 35 39 36 40 88 41 37 42 87 43 38 44 39 45
REMARK SMILES IDX 40 46 81 47 41 48 86 49 80 50 82 51 42 52 85 53 79 54 78 55
REMARK SMILES IDX 43 57 69 58 52 59 68 60 53 61 56 62 67 63 83 64 54 65 55 66
REMARK SMILES IDX 66 68 84 69 57 70 44 71 45 72 50 73 46 74 47 75 49 76 51 77
REMARK SMILES IDX 48 78 70 79 71 80 76 81 72 82 73 83 75 84 77 85 74 86 58 87
REMARK SMILES IDX 59 88 64 89 60 90 61 91 63 92 65 93 62 94
REMARK H PARENT 15 16 3 20 12 30 82 56 56 67
REMARK Flexibility Score: inf
ROOT
ATOM      1  O   UNL     1       5.766  -0.520  -6.468  1.00  0.00    -0.376 OA
ENDROOT
BRANCH   1   2
ATOM      2  C   UNL     1       4.379  -0.281  -6.308  1.00  0.00     0.202 C 
BRANCH   2   3
ATOM      3  C   UNL     1       3.660  -0.855  -5.087  1.00  0.00     0.261 C 
BRANCH   3   4
ATOM      4  O   UNL     1       4.230  -0.474  -3.824  1.00  0.00    -0.460 OA
BRANCH   4   5
ATOM      5  C   UNL     1       4.896  -1.464  -3.185  1.00  0.00     0.338 C 
ATOM      6  O   UNL     1       5.104  -2.594  -3.603  1.00  0.00    -0.246 OA
BRANCH   5   7
ATOM      7  C   UNL     1       5.361  -1.055  -1.838  1.00  0.00     0.062 A 
ATOM      8  C   UNL     1       4.743   0.529   0.803  1.00  0.00     0.042 A 
ATOM      9  C   UNL     1       5.399  -0.864   1.815  1.00  0.00     0.026 A 
ATOM     10  C   UNL     1       4.824   0.487  -1.016  1.00  0.00     0.041 A 
ATOM     11  C   UNL     1       6.099  -2.322   0.974  1.00  0.00     0.003 A 
ATOM     12  C   UNL     1       6.007  -2.446  -0.829  1.00  0.00     0.016 A 
BRANCH   8  13
ATOM     13  N   UNL     1       3.734   1.253   1.427  1.00  0.00    -0.318 N 
ATOM     14  C   UNL     1       2.375   1.009   1.294  1.00  0.00     0.315 C 
ATOM     15  O   UNL     1       1.624   1.532   2.122  1.00  0.00    -0.263 OA
ATOM     16  H   UNL     1       4.006   1.998   2.011  1.00  0.00     0.170 HD
BRANCH  14  17
ATOM     17  C   UNL     1       1.731   0.084   0.232  1.00  0.00     0.329 C 
ATOM     18  O   UNL     1       0.659   0.424  -0.269  1.00  0.00    -0.262 OA
ATOM     19  N   UNL     1       2.252  -1.192  -0.027  1.00  0.00    -0.239 N 
ATOM     20  H   UNL     1       1.801  -2.012   0.279  1.00  0.00     0.194 HD
BRANCH  19  21
ATOM     21  N   UNL     1       3.429  -1.230  -0.733  1.00  0.00    -0.180 NA
ATOM     22  C   UNL     1       4.573  -1.300   0.023  1.00  0.00     0.145 C 
BRANCH  22  23
ATOM     23  C   UNL     1       6.540  -0.446  -0.059  1.00  0.00     0.036 A 
ATOM     24  C   UNL     1       7.241   0.380   1.048  1.00  0.00     0.013 A 
ATOM     25  C   UNL     1       7.669  -0.459  -1.077  1.00  0.00     0.124 A 
ATOM     26  C   UNL     1       8.571   0.873   1.190  1.00  0.00     0.001 A 
ATOM     27  C   UNL     1       9.000   0.084  -0.943  1.00  0.00     0.047 A 
ATOM     28  C   UNL     1       9.467   0.708   0.184  1.00  0.00     0.004 A 
BRANCH  25  29
ATOM     29  O   UNL     1       7.640  -1.012  -2.358  1.00  0.00    -0.507 OA
ATOM     30  H   UNL     1       6.861  -1.429  -2.671  1.00  0.00     0.293 HD
ENDBRANCH  25  29
ENDBRANCH  22  23
ENDBRANCH  19  21
ENDBRANCH  14  17
ENDBRANCH   8  13
ENDBRANCH   5   7
ENDBRANCH   4   5
ENDBRANCH   3   4
ENDBRANCH   2   3
ENDBRANCH   1   2
BRANCH   1  31
ATOM     31  C   UNL     1       6.669  -0.111  -5.456  1.00  0.00     0.188 C 
BRANCH  31  32
ATOM     32  C   UNL     1       6.515   1.250  -4.739  1.00  0.00     0.188 C 
BRANCH  32  33
ATOM     33  O   UNL     1       5.811   2.310  -5.362  1.00  0.00    -0.376 OA
BRANCH  33  34
ATOM     34  C   UNL     1       6.159   2.670  -6.691  1.00  0.00     0.202 C 
BRANCH  34  35
ATOM     35  C   UNL     1       7.626   2.993  -6.990  1.00  0.00     0.261 C 
BRANCH  35  36
ATOM     36  O   UNL     1       8.510   1.873  -6.782  1.00  0.00    -0.460 OA
BRANCH  36  37
ATOM     37  C   UNL     1       9.605   2.127  -6.029  1.00  0.00     0.338 C 
ATOM     38  O   UNL     1       9.945   3.197  -5.552  1.00  0.00    -0.246 OA
BRANCH  37  39
ATOM     39  C   UNL     1      10.335   0.880  -5.726  1.00  0.00     0.060 A 
ATOM     40  C   UNL     1      10.117   0.265  -4.492  1.00  0.00     0.016 A 
ATOM     41  C   UNL     1      11.351   0.422  -6.561  1.00  0.00     0.016 A 
ATOM     42  C   UNL     1      10.934  -0.787  -4.072  1.00  0.00     0.010 A 
ATOM     43  C   UNL     1      12.175  -0.632  -6.133  1.00  0.00     0.010 A 
ATOM     44  C   UNL     1      11.995  -1.221  -4.869  1.00  0.00    -0.014 A 
BRANCH  44  45
ATOM     45  C   UNL     1      12.994  -2.171  -4.307  1.00  0.00     0.031 A 
ATOM     46  C   UNL     1      14.361  -1.660  -3.936  1.00  0.00     0.074 A 
ATOM     47  C   UNL     1      12.684  -3.458  -4.060  1.00  0.00     0.049 A 
ATOM     48  N   UNL     1      15.432  -2.324  -3.584  1.00  0.00    -0.248 NA
ATOM     49  C   UNL     1      14.537  -0.199  -3.954  1.00  0.00     0.031 C 
ATOM     50  C   UNL     1      11.368  -4.066  -4.248  1.00  0.00     0.029 A 
ATOM     51  N   UNL     1      13.468  -4.490  -3.601  1.00  0.00    -0.354 N 
ATOM     52  C   UNL     1      16.421  -1.369  -3.383  1.00  0.00     0.074 A 
ATOM     53  C   UNL     1      15.821  -0.078  -3.647  1.00  0.00     0.031 C 
ATOM     54  C   UNL     1      11.439  -5.369  -3.925  1.00  0.00     0.029 A 
ATOM     55  C   UNL     1      12.818  -5.701  -3.574  1.00  0.00     0.049 A 
ATOM     56  H   UNL     1      14.404  -4.373  -3.320  1.00  0.00     0.167 HD
ATOM     57  C   UNL     1      17.713  -1.551  -3.019  1.00  0.00     0.037 A 
ATOM     58  C   UNL     1      13.292  -6.943  -3.347  1.00  0.00     0.037 A 
ATOM     59  C   UNL     1      18.305  -2.834  -2.739  1.00  0.00     0.049 A 
ATOM     60  C   UNL     1      14.759  -7.136  -3.059  1.00  0.00     0.074 A 
ATOM     61  C   UNL     1      19.611  -3.123  -2.381  1.00  0.00     0.029 A 
ATOM     62  N   UNL     1      17.628  -4.043  -2.786  1.00  0.00    -0.354 N 
ATOM     63  N   UNL     1      15.704  -6.237  -2.928  1.00  0.00    -0.248 NA
ATOM     64  C   UNL     1      15.227  -8.522  -2.900  1.00  0.00     0.031 C 
ATOM     65  C   UNL     1      19.736  -4.511  -2.262  1.00  0.00     0.029 A 
ATOM     66  C   UNL     1      18.494  -5.082  -2.486  1.00  0.00     0.049 A 
ATOM     67  H   UNL     1      16.673  -4.148  -2.999  1.00  0.00     0.167 HD
ATOM     68  C   UNL     1      16.869  -6.944  -2.647  1.00  0.00     0.074 A 
ATOM     69  C   UNL     1      16.509  -8.345  -2.610  1.00  0.00     0.031 C 
ATOM     70  C   UNL     1      18.124  -6.474  -2.440  1.00  0.00     0.037 A 
BRANCH  57  71
ATOM     71  C   UNL     1      18.593  -0.335  -2.960  1.00  0.00     0.057 A 
ATOM     72  C   UNL     1      18.472   0.630  -1.952  1.00  0.00     0.134 A 
ATOM     73  C   UNL     1      19.593  -0.141  -3.922  1.00  0.00     0.134 A 
ATOM     74  F   UNL     1      17.524   0.513  -1.009  1.00  0.00    -0.206 F 
ATOM     75  C   UNL     1      19.296   1.757  -1.919  1.00  0.00     0.040 A 
ATOM     76  C   UNL     1      20.442   0.966  -3.883  1.00  0.00     0.040 A 
ATOM     77  F   UNL     1      19.768  -1.030  -4.912  1.00  0.00    -0.206 F 
ATOM     78  C   UNL     1      20.289   1.923  -2.883  1.00  0.00     0.006 A 
ENDBRANCH  57  71
BRANCH  58  79
ATOM     79  C   UNL     1      12.388  -8.119  -3.444  1.00  0.00     0.057 A 
ATOM     80  C   UNL     1      12.092  -8.904  -2.323  1.00  0.00     0.134 A 
ATOM     81  C   UNL     1      11.831  -8.512  -4.668  1.00  0.00     0.134 A 
ATOM     82  F   UNL     1      12.619  -8.600  -1.128  1.00  0.00    -0.206 F 
ATOM     83  C   UNL     1      11.290 -10.043  -2.418  1.00  0.00     0.040 A 
ATOM     84  C   UNL     1      11.002  -9.630  -4.772  1.00  0.00     0.040 A 
ATOM     85  F   UNL     1      12.080  -7.808  -5.782  1.00  0.00    -0.206 F 
ATOM     86  C   UNL     1      10.737 -10.405  -3.645  1.00  0.00     0.006 A 
ENDBRANCH  58  79
BRANCH  70  87
ATOM     87  C   UNL     1      19.193  -7.476  -2.106  1.00  0.00     0.057 A 
ATOM     88  C   UNL     1      19.702  -8.367  -3.059  1.00  0.00     0.134 A 
ATOM     89  C   UNL     1      19.747  -7.522  -0.820  1.00  0.00     0.134 A 
ATOM     90  F   UNL     1      19.207  -8.384  -4.306  1.00  0.00    -0.206 F 
ATOM     91  C   UNL     1      20.706  -9.284  -2.739  1.00  0.00     0.040 A 
ATOM     92  C   UNL     1      20.771  -8.414  -0.496  1.00  0.00     0.040 A 
ATOM     93  F   UNL     1      19.314  -6.691   0.140  1.00  0.00    -0.206 F 
ATOM     94  C   UNL     1      21.248  -9.303  -1.456  1.00  0.00     0.006 A 
ENDBRANCH  70  87
ENDBRANCH  44  45
ENDBRANCH  37  39
ENDBRANCH  36  37
ENDBRANCH  35  36
ENDBRANCH  34  35
ENDBRANCH  33  34
ENDBRANCH  32  33
ENDBRANCH  31  32
ENDBRANCH   1  31
TORSDOF 22
