REMARK SMILES Cc1ccc(CNC(=O)c2csc(/C=C/C(=O)OCCOCCOCCOC(=O)c3ccc(-c4c5nc(c(-c6c(F)cccc6F)c6ccc([nH]6)c(-c6c(F)cccc6F)c6nc(c(-c7c(F)cccc7F)c7ccc4[nH]7)C=C6)C=C5)cc3)c2)s1
REMARK SMILES IDX 22 1 21 2 20 3 19 4 18 5 16 6 17 7 15 8 14 9 13 10 10 11
REMARK SMILES IDX 11 12 84 13 12 14 8 15 7 16 9 18 6 19 5 20 1 21 2 22 3 23
REMARK SMILES IDX 85 24 4 25 23 26 24 27 25 28 26 29 27 30 28 31 29 32 30 33
REMARK SMILES IDX 31 34 83 35 32 36 82 37 33 38 34 39 35 40 76 41 36 42 81 43
REMARK SMILES IDX 75 44 77 45 37 46 80 47 74 48 73 49 38 51 64 52 47 53 63 54
REMARK SMILES IDX 48 55 51 56 62 57 78 58 49 59 50 60 61 62 79 63 52 64 39 65
REMARK SMILES IDX 40 66 45 67 41 68 42 69 44 70 46 71 43 72 65 73 66 74 71 75
REMARK SMILES IDX 67 76 68 77 70 78 72 79 69 80 53 81 54 82 59 83 55 84 56 85
REMARK SMILES IDX 58 86 60 87 57 88
REMARK H PARENT 7 17 77 50 51 61
REMARK Flexibility Score: inf
ROOT
ATOM      1  C   UNL     1      -7.135   5.360  -6.711  1.00  0.00     0.188 C 
ENDROOT
BRANCH   1   2
ATOM      2  O   UNL     1      -7.407   4.855  -8.016  1.00  0.00    -0.376 OA
BRANCH   2   3
ATOM      3  C   UNL     1      -7.449   3.449  -8.234  1.00  0.00     0.202 C 
BRANCH   3   4
ATOM      4  C   UNL     1      -6.233   2.601  -7.840  1.00  0.00     0.261 C 
BRANCH   4   5
ATOM      5  O   UNL     1      -5.776   2.810  -6.493  1.00  0.00    -0.460 OA
BRANCH   5   6
ATOM      6  C   UNL     1      -4.505   3.262  -6.374  1.00  0.00     0.330 C 
ATOM      7  O   UNL     1      -3.708   3.439  -7.284  1.00  0.00    -0.247 OA
BRANCH   6   8
ATOM      8  C   UNL     1      -4.172   3.655  -4.990  1.00  0.00     0.095 C 
ATOM      9  C   UNL     1      -4.832   3.272  -3.886  1.00  0.00     0.026 C 
BRANCH   9  10
ATOM     10  C   UNL     1      -4.424   3.681  -2.580  1.00  0.00     0.028 A 
ATOM     11  C   UNL     1      -3.812   3.533  -0.306  1.00  0.00     0.051 A 
ATOM     12  C   UNL     1      -3.387   4.807  -0.629  1.00  0.00     0.079 A 
ATOM     13  C   UNL     1      -4.556   2.970  -1.399  1.00  0.00     0.033 A 
ATOM     14  S   UNL     1      -3.708   5.214  -2.254  1.00  0.00    -0.144 S 
BRANCH  11  15
ATOM     15  C   UNL     1      -3.526   2.934   0.994  1.00  0.00     0.252 C 
ATOM     16  N   UNL     1      -3.163   1.611   1.052  1.00  0.00    -0.347 N 
ATOM     17  H   UNL     1      -3.070   1.238   1.958  1.00  0.00     0.164 HD
ATOM     18  O   UNL     1      -3.554   3.591   2.032  1.00  0.00    -0.269 OA
BRANCH  16  19
ATOM     19  C   UNL     1      -2.899   0.689  -0.031  1.00  0.00     0.163 C 
BRANCH  19  20
ATOM     20  C   UNL     1      -1.553   0.058   0.116  1.00  0.00     0.024 A 
ATOM     21  C   UNL     1       2.361  -0.184   0.063  1.00  0.00     0.056 C 
ATOM     22  C   UNL     1       0.882  -0.355   0.114  1.00  0.00     0.002 A 
ATOM     23  C   UNL     1       0.154  -1.524   0.190  1.00  0.00     0.015 A 
ATOM     24  S   UNL     1      -0.134   1.018   0.061  1.00  0.00    -0.144 S 
ATOM     25  C   UNL     1      -1.250  -1.286   0.198  1.00  0.00     0.017 A 
ENDBRANCH  19  20
ENDBRANCH  16  19
ENDBRANCH  11  15
ENDBRANCH   9  10
ENDBRANCH   6   8
ENDBRANCH   5   6
ENDBRANCH   4   5
ENDBRANCH   3   4
ENDBRANCH   2   3
ENDBRANCH   1   2
BRANCH   1  26
ATOM     26  C   UNL     1      -7.845   4.747  -5.486  1.00  0.00     0.188 C 
BRANCH  26  27
ATOM     27  O   UNL     1      -8.715   3.683  -5.806  1.00  0.00    -0.376 OA
BRANCH  27  28
ATOM     28  C   UNL     1     -10.110   3.902  -5.679  1.00  0.00     0.202 C 
BRANCH  28  29
ATOM     29  C   UNL     1     -10.777   5.115  -6.354  1.00  0.00     0.261 C 
BRANCH  29  30
ATOM     30  O   UNL     1     -10.033   6.340  -6.383  1.00  0.00    -0.460 OA
BRANCH  30  31
ATOM     31  C   UNL     1     -10.126   7.146  -5.301  1.00  0.00     0.338 C 
ATOM     32  O   UNL     1     -10.727   6.928  -4.268  1.00  0.00    -0.246 OA
BRANCH  31  33
ATOM     33  C   UNL     1      -9.225   8.298  -5.522  1.00  0.00     0.060 A 
ATOM     34  C   UNL     1      -8.115   8.464  -4.684  1.00  0.00     0.016 A 
ATOM     35  C   UNL     1      -9.481   9.212  -6.547  1.00  0.00     0.016 A 
ATOM     36  C   UNL     1      -7.269   9.562  -4.857  1.00  0.00     0.010 A 
ATOM     37  C   UNL     1      -8.644  10.320  -6.707  1.00  0.00     0.010 A 
ATOM     38  C   UNL     1      -7.549  10.515  -5.847  1.00  0.00    -0.014 A 
BRANCH  38  39
ATOM     39  C   UNL     1      -6.799  11.794  -5.880  1.00  0.00     0.031 A 
ATOM     40  C   UNL     1      -7.396  12.997  -5.203  1.00  0.00     0.074 A 
ATOM     41  C   UNL     1      -5.607  11.890  -6.493  1.00  0.00     0.049 A 
ATOM     42  N   UNL     1      -6.949  14.225  -5.141  1.00  0.00    -0.248 NA
ATOM     43  C   UNL     1      -8.672  12.783  -4.502  1.00  0.00     0.031 C 
ATOM     44  C   UNL     1      -4.903  10.793  -7.153  1.00  0.00     0.029 A 
ATOM     45  N   UNL     1      -4.781  12.974  -6.665  1.00  0.00    -0.354 N 
ATOM     46  C   UNL     1      -7.886  14.929  -4.396  1.00  0.00     0.074 A 
ATOM     47  C   UNL     1      -8.942  14.000  -4.056  1.00  0.00     0.031 C 
ATOM     48  C   UNL     1      -3.753  11.262  -7.668  1.00  0.00     0.029 A 
ATOM     49  C   UNL     1      -3.655  12.697  -7.401  1.00  0.00     0.049 A 
ATOM     50  H   UNL     1      -4.978  13.865  -6.296  1.00  0.00     0.167 HD
ATOM     51  C   UNL     1      -7.866  16.230  -4.019  1.00  0.00     0.037 A 
ATOM     52  C   UNL     1      -2.671  13.513  -7.825  1.00  0.00     0.037 A 
ATOM     53  C   UNL     1      -6.824  17.158  -4.367  1.00  0.00     0.049 A 
ATOM     54  C   UNL     1      -2.715  14.977  -7.470  1.00  0.00     0.074 A 
ATOM     55  C   UNL     1      -6.708  18.494  -4.025  1.00  0.00     0.029 A 
ATOM     56  N   UNL     1      -5.721  16.849  -5.148  1.00  0.00    -0.354 N 
ATOM     57  N   UNL     1      -3.592  15.628  -6.745  1.00  0.00    -0.248 NA
ATOM     58  C   UNL     1      -1.630  15.819  -7.996  1.00  0.00     0.031 C 
ATOM     59  C   UNL     1      -5.560  19.005  -4.639  1.00  0.00     0.029 A 
ATOM     60  C   UNL     1      -4.933  17.975  -5.322  1.00  0.00     0.049 A 
ATOM     61  H   UNL     1      -5.526  15.960  -5.524  1.00  0.00     0.167 HD
ATOM     62  C   UNL     1      -3.150  16.946  -6.703  1.00  0.00     0.074 A 
ATOM     63  C   UNL     1      -1.923  17.000  -7.468  1.00  0.00     0.031 C 
ATOM     64  C   UNL     1      -3.710  18.014  -6.083  1.00  0.00     0.037 A 
BRANCH  51  65
ATOM     65  C   UNL     1      -9.028  16.726  -3.210  1.00  0.00     0.057 A 
ATOM     66  C   UNL     1      -9.214  16.345  -1.874  1.00  0.00     0.134 A 
ATOM     67  C   UNL     1      -9.966  17.602  -3.770  1.00  0.00     0.134 A 
ATOM     68  F   UNL     1      -8.360  15.495  -1.284  1.00  0.00    -0.206 F 
ATOM     69  C   UNL     1     -10.307  16.797  -1.133  1.00  0.00     0.040 A 
ATOM     70  C   UNL     1     -11.049  18.080  -3.031  1.00  0.00     0.040 A 
ATOM     71  F   UNL     1      -9.845  18.007  -5.043  1.00  0.00    -0.206 F 
ATOM     72  C   UNL     1     -11.226  17.672  -1.710  1.00  0.00     0.006 A 
ENDBRANCH  51  65
BRANCH  52  73
ATOM     73  C   UNL     1      -1.557  12.973  -8.645  1.00  0.00     0.057 A 
ATOM     74  C   UNL     1      -0.258  12.887  -8.133  1.00  0.00     0.134 A 
ATOM     75  C   UNL     1      -1.760  12.554  -9.965  1.00  0.00     0.134 A 
ATOM     76  F   UNL     1       0.005  13.300  -6.885  1.00  0.00    -0.206 F 
ATOM     77  C   UNL     1       0.804  12.416  -8.909  1.00  0.00     0.040 A 
ATOM     78  C   UNL     1      -0.713  12.059 -10.744  1.00  0.00     0.040 A 
ATOM     79  F   UNL     1      -2.982  12.616 -10.516  1.00  0.00    -0.206 F 
ATOM     80  C   UNL     1       0.575  11.995 -10.217  1.00  0.00     0.006 A 
ENDBRANCH  52  73
BRANCH  64  81
ATOM     81  C   UNL     1      -2.984  19.325  -6.175  1.00  0.00     0.057 A 
ATOM     82  C   UNL     1      -2.950  20.072  -7.359  1.00  0.00     0.134 A 
ATOM     83  C   UNL     1      -2.348  19.867  -5.051  1.00  0.00     0.134 A 
ATOM     84  F   UNL     1      -3.530  19.604  -8.475  1.00  0.00    -0.206 F 
ATOM     85  C   UNL     1      -2.291  21.301  -7.428  1.00  0.00     0.040 A 
ATOM     86  C   UNL     1      -1.708  21.107  -5.100  1.00  0.00     0.040 A 
ATOM     87  F   UNL     1      -2.351  19.209  -3.882  1.00  0.00    -0.206 F 
ATOM     88  C   UNL     1      -1.674  21.825  -6.293  1.00  0.00     0.006 A 
ENDBRANCH  64  81
ENDBRANCH  38  39
ENDBRANCH  31  33
ENDBRANCH  30  31
ENDBRANCH  29  30
ENDBRANCH  28  29
ENDBRANCH  27  28
ENDBRANCH  26  27
ENDBRANCH   1  26
TORSDOF 21
