REMARK SMILES C[C@@H](C(=O)OCCOCCOCCOC(=O)c1ccc(-c2c3nc(c(-c4c(F)cccc4F)c4ccc([nH]4)c(-c4c(F)cccc4F)c4nc(c(-c5c(F)cccc5F)c5ccc2[nH]5)C=C4)C=C3)cc1)c1ccc2c3cc(Cl)ccc3n(C(=O)c3cocn3)c2c1
REMARK SMILES IDX 9 1 8 2 7 3 6 4 5 5 3 6 4 7 2 8 1 9 71 10 72 11 91 12 73 13
REMARK SMILES IDX 90 14 74 15 82 16 75 17 81 18 76 19 80 20 77 21 79 22 78 23
REMARK SMILES IDX 83 24 84 25 85 26 86 27 89 28 87 29 88 30 10 31 11 32 12 33
REMARK SMILES IDX 13 34 14 35 15 36 16 37 17 38 18 39 70 40 19 41 69 42 20 43
REMARK SMILES IDX 21 44 22 45 63 46 23 47 68 48 62 49 64 50 24 51 67 52 61 53
REMARK SMILES IDX 60 54 25 56 51 57 34 58 50 59 35 60 38 61 49 62 65 63 36 64
REMARK SMILES IDX 37 65 48 67 66 68 39 69 26 70 27 71 32 72 28 73 29 74 31 75
REMARK SMILES IDX 33 76 30 77 52 78 53 79 58 80 54 81 55 82 57 83 59 84 56 85
REMARK SMILES IDX 40 86 41 87 46 88 42 89 43 90 45 91 47 92 44 93
REMARK H PARENT 64 55 38 66
REMARK Flexibility Score: inf
ROOT
ATOM      1  C   UNL     1       0.338   1.123  -3.753  1.00  0.00     0.188 C 
ENDROOT
BRANCH   1   2
ATOM      2  O   UNL     1       1.051   1.982  -4.639  1.00  0.00    -0.376 OA
BRANCH   2   3
ATOM      3  C   UNL     1       2.315   2.492  -4.219  1.00  0.00     0.202 C 
BRANCH   3   4
ATOM      4  C   UNL     1       2.343   3.240  -2.884  1.00  0.00     0.261 C 
BRANCH   4   5
ATOM      5  O   UNL     1       1.964   2.395  -1.782  1.00  0.00    -0.463 OA
BRANCH   5   6
ATOM      6  C   UNL     1       1.560   3.055  -0.666  1.00  0.00     0.313 C 
ATOM      7  O   UNL     1       1.654   4.270  -0.520  1.00  0.00    -0.252 OA
BRANCH   6   8
ATOM      8  C   UNL     1       0.867   2.143   0.354  1.00  0.00     0.126 C 
ATOM      9  C   UNL     1       1.695   0.894   0.672  1.00  0.00     0.025 C 
BRANCH   8  10
ATOM     10  C   UNL     1      -0.630   1.938   0.071  1.00  0.00    -0.032 A 
ATOM     11  C   UNL     1      -1.394   3.057  -0.281  1.00  0.00     0.005 A 
ATOM     12  C   UNL     1      -1.298   0.709   0.276  1.00  0.00     0.032 A 
ATOM     13  C   UNL     1      -2.783   2.987  -0.402  1.00  0.00     0.011 A 
ATOM     14  C   UNL     1      -2.718   0.642   0.194  1.00  0.00     0.058 A 
ATOM     15  C   UNL     1      -3.454   1.781  -0.127  1.00  0.00     0.008 A 
ATOM     16  N   UNL     1      -3.637  -0.419   0.390  1.00  0.00    -0.274 N 
ATOM     17  C   UNL     1      -4.830   1.468   0.008  1.00  0.00     0.009 A 
ATOM     18  C   UNL     1      -4.935   0.127   0.390  1.00  0.00     0.057 A 
ATOM     19  C   UNL     1      -5.986   2.277  -0.058  1.00  0.00     0.031 A 
ATOM     20  C   UNL     1      -6.193  -0.403   0.750  1.00  0.00     0.029 A 
ATOM     21  C   UNL     1      -7.215   1.745   0.316  1.00  0.00     0.041 A 
ATOM     22  C   UNL     1      -7.326   0.417   0.692  1.00  0.00     0.023 A 
ATOM     23  Cl  UNL     1      -8.576   2.782   0.446  1.00  0.00    -0.084 Cl
BRANCH  16  24
ATOM     24  C   UNL     1      -3.272  -1.785   0.599  1.00  0.00     0.284 C 
ATOM     25  O   UNL     1      -2.095  -1.986   0.893  1.00  0.00    -0.266 OA
BRANCH  24  26
ATOM     26  C   UNL     1      -4.158  -2.943   0.434  1.00  0.00     0.167 A 
ATOM     27  C   UNL     1      -5.207  -3.133  -0.443  1.00  0.00     0.231 A 
ATOM     28  N   UNL     1      -3.945  -4.137   1.113  1.00  0.00    -0.211 NA
ATOM     29  O   UNL     1      -5.664  -4.410  -0.309  1.00  0.00    -0.451 OA
ATOM     30  C   UNL     1      -4.856  -4.952   0.638  1.00  0.00     0.308 A 
ENDBRANCH  24  26
ENDBRANCH  16  24
ENDBRANCH   8  10
ENDBRANCH   6   8
ENDBRANCH   5   6
ENDBRANCH   4   5
ENDBRANCH   3   4
ENDBRANCH   2   3
ENDBRANCH   1   2
BRANCH   1  31
ATOM     31  C   UNL     1       1.091  -0.030  -3.069  1.00  0.00     0.188 C 
BRANCH  31  32
ATOM     32  O   UNL     1       2.386  -0.278  -3.591  1.00  0.00    -0.376 OA
BRANCH  32  33
ATOM     33  C   UNL     1       2.630  -1.615  -4.006  1.00  0.00     0.202 C 
BRANCH  33  34
ATOM     34  C   UNL     1       2.023  -1.904  -5.383  1.00  0.00     0.261 C 
BRANCH  34  35
ATOM     35  O   UNL     1       0.586  -1.836  -5.411  1.00  0.00    -0.460 OA
BRANCH  35  36
ATOM     36  C   UNL     1      -0.068  -2.773  -4.688  1.00  0.00     0.338 C 
ATOM     37  O   UNL     1       0.413  -3.700  -4.065  1.00  0.00    -0.246 OA
BRANCH  36  38
ATOM     38  C   UNL     1      -1.481  -2.361  -4.608  1.00  0.00     0.060 A 
ATOM     39  C   UNL     1      -2.029  -2.078  -3.353  1.00  0.00     0.016 A 
ATOM     40  C   UNL     1      -2.256  -2.251  -5.765  1.00  0.00     0.016 A 
ATOM     41  C   UNL     1      -3.364  -1.694  -3.257  1.00  0.00     0.010 A 
ATOM     42  C   UNL     1      -3.606  -1.908  -5.657  1.00  0.00     0.010 A 
ATOM     43  C   UNL     1      -4.174  -1.658  -4.398  1.00  0.00    -0.014 A 
BRANCH  43  44
ATOM     44  C   UNL     1      -5.646  -1.558  -4.244  1.00  0.00     0.031 A 
ATOM     45  C   UNL     1      -6.446  -2.832  -4.229  1.00  0.00     0.074 A 
ATOM     46  C   UNL     1      -6.260  -0.374  -4.074  1.00  0.00     0.049 A 
ATOM     47  N   UNL     1      -7.739  -2.999  -4.137  1.00  0.00    -0.248 NA
ATOM     48  C   UNL     1      -5.680  -4.088  -4.304  1.00  0.00     0.031 C 
ATOM     49  C   UNL     1      -5.587   0.919  -3.986  1.00  0.00     0.029 A 
ATOM     50  N   UNL     1      -7.594  -0.069  -3.953  1.00  0.00    -0.354 N 
ATOM     51  C   UNL     1      -7.944  -4.372  -4.170  1.00  0.00     0.074 A 
ATOM     52  C   UNL     1      -6.644  -4.995  -4.283  1.00  0.00     0.031 C 
ATOM     53  C   UNL     1      -6.514   1.882  -3.840  1.00  0.00     0.029 A 
ATOM     54  C   UNL     1      -7.848   1.280  -3.868  1.00  0.00     0.049 A 
ATOM     55  H   UNL     1      -8.302  -0.753  -3.929  1.00  0.00     0.167 HD
ATOM     56  C   UNL     1      -9.112  -5.054  -4.121  1.00  0.00     0.037 A 
ATOM     57  C   UNL     1      -9.022   1.947  -3.844  1.00  0.00     0.037 A 
ATOM     58  C   UNL     1     -10.407  -4.440  -4.016  1.00  0.00     0.049 A 
ATOM     59  C   UNL     1     -10.310   1.157  -3.878  1.00  0.00     0.074 A 
ATOM     60  C   UNL     1     -11.649  -5.047  -3.966  1.00  0.00     0.029 A 
ATOM     61  N   UNL     1     -10.625  -3.072  -3.958  1.00  0.00    -0.354 N 
ATOM     62  N   UNL     1     -10.488  -0.143  -3.855  1.00  0.00    -0.248 NA
ATOM     63  C   UNL     1     -11.562   1.927  -3.932  1.00  0.00     0.031 C 
ATOM     64  C   UNL     1     -12.623  -4.044  -3.917  1.00  0.00     0.029 A 
ATOM     65  C   UNL     1     -11.984  -2.815  -3.899  1.00  0.00     0.049 A 
ATOM     66  H   UNL     1      -9.919  -2.386  -3.959  1.00  0.00     0.167 HD
ATOM     67  C   UNL     1     -11.865  -0.340  -3.846  1.00  0.00     0.074 A 
ATOM     68  C   UNL     1     -12.475   0.972  -3.843  1.00  0.00     0.031 C 
ATOM     69  C   UNL     1     -12.567  -1.500  -3.851  1.00  0.00     0.037 A 
BRANCH  56  70
ATOM     70  C   UNL     1      -9.038  -6.546  -4.231  1.00  0.00     0.057 A 
ATOM     71  C   UNL     1      -8.610  -7.348  -3.166  1.00  0.00     0.134 A 
ATOM     72  C   UNL     1      -9.413  -7.188  -5.418  1.00  0.00     0.134 A 
ATOM     73  F   UNL     1      -8.217  -6.791  -2.010  1.00  0.00    -0.206 F 
ATOM     74  C   UNL     1      -8.543  -8.738  -3.283  1.00  0.00     0.040 A 
ATOM     75  C   UNL     1      -9.370  -8.577  -5.540  1.00  0.00     0.040 A 
ATOM     76  F   UNL     1      -9.829  -6.474  -6.475  1.00  0.00    -0.206 F 
ATOM     77  C   UNL     1      -8.929  -9.355  -4.472  1.00  0.00     0.006 A 
ENDBRANCH  56  70
BRANCH  57  78
ATOM     78  C   UNL     1      -9.049   3.437  -3.781  1.00  0.00     0.057 A 
ATOM     79  C   UNL     1      -9.659   4.109  -2.714  1.00  0.00     0.134 A 
ATOM     80  C   UNL     1      -8.498   4.234  -4.792  1.00  0.00     0.134 A 
ATOM     81  F   UNL     1     -10.309   3.418  -1.768  1.00  0.00    -0.206 F 
ATOM     82  C   UNL     1      -9.686   5.502  -2.629  1.00  0.00     0.040 A 
ATOM     83  C   UNL     1      -8.506   5.630  -4.718  1.00  0.00     0.040 A 
ATOM     84  F   UNL     1      -7.937   3.669  -5.871  1.00  0.00    -0.206 F 
ATOM     85  C   UNL     1      -9.097   6.268  -3.630  1.00  0.00     0.006 A 
ENDBRANCH  57  78
BRANCH  69  86
ATOM     86  C   UNL     1     -14.064  -1.401  -3.800  1.00  0.00     0.057 A 
ATOM     87  C   UNL     1     -14.814  -0.976  -4.904  1.00  0.00     0.134 A 
ATOM     88  C   UNL     1     -14.765  -1.774  -2.646  1.00  0.00     0.134 A 
ATOM     89  F   UNL     1     -14.201  -0.595  -6.035  1.00  0.00    -0.206 F 
ATOM     90  C   UNL     1     -16.207  -0.900  -4.853  1.00  0.00     0.040 A 
ATOM     91  C   UNL     1     -16.159  -1.728  -2.592  1.00  0.00     0.040 A 
ATOM     92  F   UNL     1     -14.108  -2.204  -1.558  1.00  0.00    -0.206 F 
ATOM     93  C   UNL     1     -16.883  -1.283  -3.697  1.00  0.00     0.006 A 
ENDBRANCH  69  86
ENDBRANCH  43  44
ENDBRANCH  36  38
ENDBRANCH  35  36
ENDBRANCH  34  35
ENDBRANCH  33  34
ENDBRANCH  32  33
ENDBRANCH  31  32
ENDBRANCH   1  31
TORSDOF 20
