REMARK SMILES C[C@H](C(=O)OCCOCCOCCOC(=O)c1ccc(-c2c3nc(c(-c4c(F)cccc4F)c4ccc([nH]4)c(-c4c(F)cccc4F)c4nc(c(-c5c(F)cccc5F)c5ccc2[nH]5)C=C4)C=C3)cc1)[C@H](C)[NH+]1CCN(c2ccccc2Cl)CC1
REMARK SMILES IDX 9 1 8 2 7 3 6 4 5 5 3 6 4 7 2 8 1 9 71 10 72 11 73 12 74 13
REMARK SMILES IDX 85 14 75 16 84 17 76 18 77 19 78 20 82 21 79 22 81 23 83 24
REMARK SMILES IDX 80 25 10 26 11 27 12 28 13 29 14 30 15 31 16 32 17 33 18 34
REMARK SMILES IDX 70 35 19 36 69 37 20 38 21 39 22 40 63 41 23 42 68 43 62 44
REMARK SMILES IDX 64 45 24 46 67 47 61 48 60 49 25 51 51 52 34 53 50 54 35 55
REMARK SMILES IDX 38 56 49 57 65 58 36 59 37 60 48 62 66 63 39 64 26 65 27 66
REMARK SMILES IDX 32 67 28 68 29 69 31 70 33 71 30 72 52 73 53 74 58 75 54 76
REMARK SMILES IDX 55 77 57 78 59 79 56 80 40 81 41 82 46 83 42 84 43 85 45 86
REMARK SMILES IDX 47 87 44 88
REMARK H PARENT 73 15 64 50 38 61
REMARK Flexibility Score: inf
ROOT
ATOM      1  C   UNL     1       1.596  -2.626  -0.086  1.00  0.00     0.188 C 
ENDROOT
BRANCH   1   2
ATOM      2  O   UNL     1       1.585  -3.037  -1.454  1.00  0.00    -0.376 OA
BRANCH   2   3
ATOM      3  C   UNL     1       1.432  -1.985  -2.407  1.00  0.00     0.202 C 
BRANCH   3   4
ATOM      4  C   UNL     1      -0.020  -1.539  -2.604  1.00  0.00     0.261 C 
BRANCH   4   5
ATOM      5  O   UNL     1      -0.615  -1.175  -1.346  1.00  0.00    -0.463 OA
BRANCH   5   6
ATOM      6  C   UNL     1      -1.937  -1.413  -1.183  1.00  0.00     0.314 C 
ATOM      7  O   UNL     1      -2.666  -1.826  -2.079  1.00  0.00    -0.252 OA
BRANCH   6   8
ATOM      8  C   UNL     1      -2.403  -1.323   0.282  1.00  0.00     0.154 C 
ATOM      9  C   UNL     1      -2.288  -2.750   0.828  1.00  0.00     0.026 C 
BRANCH   8  10
ATOM     10  C   UNL     1      -1.912  -0.102   1.180  1.00  0.00     0.195 C 
ATOM     11  C   UNL     1      -0.503   0.432   0.874  1.00  0.00     0.076 C 
BRANCH  10  12
ATOM     12  N   UNL     1      -2.285  -0.041   2.630  1.00  0.00    -0.329 N 
ATOM     13  C   UNL     1      -2.197  -1.221   3.507  1.00  0.00     0.284 C 
ATOM     14  C   UNL     1      -1.716   1.106   3.405  1.00  0.00     0.284 C 
ATOM     15  H   UNL     1      -3.277   0.068   2.420  1.00  0.00     0.348 HD
ATOM     16  C   UNL     1      -0.792  -1.547   4.046  1.00  0.00     0.178 C 
ATOM     17  C   UNL     1      -0.310   0.891   4.070  1.00  0.00     0.178 C 
ATOM     18  N   UNL     1      -0.276  -0.388   4.779  1.00  0.00    -0.359 N 
BRANCH  18  19
ATOM     19  C   UNL     1       0.429  -0.578   5.955  1.00  0.00     0.056 A 
ATOM     20  C   UNL     1       1.802  -0.299   6.019  1.00  0.00     0.027 A 
ATOM     21  C   UNL     1      -0.168  -1.105   7.122  1.00  0.00     0.064 A 
ATOM     22  C   UNL     1       2.570  -0.642   7.139  1.00  0.00     0.002 A 
ATOM     23  C   UNL     1       0.590  -1.415   8.257  1.00  0.00     0.023 A 
ATOM     24  Cl  UNL     1      -1.884  -1.329   7.239  1.00  0.00    -0.082 Cl
ATOM     25  C   UNL     1       1.965  -1.208   8.255  1.00  0.00     0.002 A 
ENDBRANCH  18  19
ENDBRANCH  10  12
ENDBRANCH   8  10
ENDBRANCH   6   8
ENDBRANCH   5   6
ENDBRANCH   4   5
ENDBRANCH   3   4
ENDBRANCH   2   3
ENDBRANCH   1   2
BRANCH   1  26
ATOM     26  C   UNL     1       2.796  -1.765   0.294  1.00  0.00     0.188 C 
BRANCH  26  27
ATOM     27  O   UNL     1       2.663  -0.381  -0.051  1.00  0.00    -0.376 OA
BRANCH  27  28
ATOM     28  C   UNL     1       3.934   0.269  -0.214  1.00  0.00     0.202 C 
BRANCH  28  29
ATOM     29  C   UNL     1       4.750   0.442   1.078  1.00  0.00     0.261 C 
BRANCH  29  30
ATOM     30  O   UNL     1       4.953  -0.822   1.742  1.00  0.00    -0.460 OA
BRANCH  30  31
ATOM     31  C   UNL     1       4.796  -0.777   3.087  1.00  0.00     0.338 C 
ATOM     32  O   UNL     1       4.770   0.216   3.793  1.00  0.00    -0.246 OA
BRANCH  31  33
ATOM     33  C   UNL     1       4.435  -2.111   3.606  1.00  0.00     0.060 A 
ATOM     34  C   UNL     1       3.084  -2.350   3.871  1.00  0.00     0.016 A 
ATOM     35  C   UNL     1       5.401  -3.032   4.007  1.00  0.00     0.016 A 
ATOM     36  C   UNL     1       2.696  -3.451   4.629  1.00  0.00     0.010 A 
ATOM     37  C   UNL     1       5.006  -4.158   4.748  1.00  0.00     0.010 A 
ATOM     38  C   UNL     1       3.659  -4.340   5.118  1.00  0.00    -0.014 A 
BRANCH  38  39
ATOM     39  C   UNL     1       3.253  -5.338   6.144  1.00  0.00     0.031 A 
ATOM     40  C   UNL     1       3.619  -5.111   7.589  1.00  0.00     0.074 A 
ATOM     41  C   UNL     1       2.435  -6.362   5.835  1.00  0.00     0.049 A 
ATOM     42  N   UNL     1       3.298  -5.817   8.645  1.00  0.00    -0.248 NA
ATOM     43  C   UNL     1       4.414  -3.910   7.893  1.00  0.00     0.031 C 
ATOM     44  C   UNL     1       1.887  -6.640   4.509  1.00  0.00     0.029 A 
ATOM     45  N   UNL     1       1.919  -7.359   6.628  1.00  0.00    -0.354 N 
ATOM     46  C   UNL     1       3.772  -5.102   9.736  1.00  0.00     0.074 A 
ATOM     47  C   UNL     1       4.480  -3.954   9.216  1.00  0.00     0.031 C 
ATOM     48  C   UNL     1       1.126  -7.746   4.576  1.00  0.00     0.029 A 
ATOM     49  C   UNL     1       1.184  -8.287   5.933  1.00  0.00     0.049 A 
ATOM     50  H   UNL     1       2.063  -7.404   7.601  1.00  0.00     0.167 HD
ATOM     51  C   UNL     1       3.609  -5.357  11.055  1.00  0.00     0.037 A 
ATOM     52  C   UNL     1       0.667  -9.467   6.328  1.00  0.00     0.037 A 
ATOM     53  C   UNL     1       3.008  -6.546  11.592  1.00  0.00     0.049 A 
ATOM     54  C   UNL     1       0.827  -9.910   7.757  1.00  0.00     0.074 A 
ATOM     55  C   UNL     1       2.881  -6.929  12.916  1.00  0.00     0.029 A 
ATOM     56  N   UNL     1       2.473  -7.567  10.827  1.00  0.00    -0.354 N 
ATOM     57  N   UNL     1       1.278  -9.233   8.784  1.00  0.00    -0.248 NA
ATOM     58  C   UNL     1       0.435 -11.291   8.076  1.00  0.00     0.031 C 
ATOM     59  C   UNL     1       2.337  -8.219  12.946  1.00  0.00     0.029 A 
ATOM     60  C   UNL     1       2.086  -8.616  11.643  1.00  0.00     0.049 A 
ATOM     61  H   UNL     1       2.381  -7.550   9.847  1.00  0.00     0.167 HD
ATOM     62  C   UNL     1       1.209 -10.097   9.871  1.00  0.00     0.074 A 
ATOM     63  C   UNL     1       0.666 -11.346   9.381  1.00  0.00     0.031 C 
ATOM     64  C   UNL     1       1.565  -9.867  11.159  1.00  0.00     0.037 A 
BRANCH  51  65
ATOM     65  C   UNL     1       4.111  -4.323  12.011  1.00  0.00     0.057 A 
ATOM     66  C   UNL     1       3.358  -3.176  12.294  1.00  0.00     0.134 A 
ATOM     67  C   UNL     1       5.333  -4.483  12.673  1.00  0.00     0.134 A 
ATOM     68  F   UNL     1       2.189  -2.959  11.672  1.00  0.00    -0.206 F 
ATOM     69  C   UNL     1       3.806  -2.221  13.207  1.00  0.00     0.040 A 
ATOM     70  C   UNL     1       5.787  -3.538  13.593  1.00  0.00     0.040 A 
ATOM     71  F   UNL     1       6.100  -5.557  12.434  1.00  0.00    -0.206 F 
ATOM     72  C   UNL     1       5.022  -2.404  13.863  1.00  0.00     0.006 A 
ENDBRANCH  51  65
BRANCH  52  73
ATOM     73  C   UNL     1       0.048 -10.372   5.326  1.00  0.00     0.057 A 
ATOM     74  C   UNL     1      -1.307 -10.712   5.373  1.00  0.00     0.134 A 
ATOM     75  C   UNL     1       0.824 -10.949   4.310  1.00  0.00     0.134 A 
ATOM     76  F   UNL     1      -2.093 -10.223   6.343  1.00  0.00    -0.206 F 
ATOM     77  C   UNL     1      -1.870 -11.591   4.446  1.00  0.00     0.040 A 
ATOM     78  C   UNL     1       0.270 -11.807   3.362  1.00  0.00     0.040 A 
ATOM     79  F   UNL     1       2.135 -10.679   4.223  1.00  0.00    -0.206 F 
ATOM     80  C   UNL     1      -1.082 -12.135   3.432  1.00  0.00     0.006 A 
ENDBRANCH  52  73
BRANCH  64  81
ATOM     81  C   UNL     1       1.387 -10.989  12.137  1.00  0.00     0.057 A 
ATOM     82  C   UNL     1       2.251 -12.091  12.149  1.00  0.00     0.134 A 
ATOM     83  C   UNL     1       0.374 -10.950  13.104  1.00  0.00     0.134 A 
ATOM     84  F   UNL     1       3.234 -12.194  11.242  1.00  0.00    -0.206 F 
ATOM     85  C   UNL     1       2.105 -13.122  13.079  1.00  0.00     0.040 A 
ATOM     86  C   UNL     1       0.231 -11.964  14.052  1.00  0.00     0.040 A 
ATOM     87  F   UNL     1      -0.482  -9.919  13.152  1.00  0.00    -0.206 F 
ATOM     88  C   UNL     1       1.096 -13.057  14.038  1.00  0.00     0.006 A 
ENDBRANCH  64  81
ENDBRANCH  38  39
ENDBRANCH  31  33
ENDBRANCH  30  31
ENDBRANCH  29  30
ENDBRANCH  28  29
ENDBRANCH  27  28
ENDBRANCH  26  27
ENDBRANCH   1  26
TORSDOF 20
