REMARK SMILES Cc1nc(NC(=O)[C@@H]2CCC[C@@H](C(=O)OCCOCCOCCOC(=O)c3ccc(-c4c5nc(c(-c6c(F)cccc6F)c6ccc([nH]6)c(-c6c(F)cccc6F)c6nc(c(-c7c(F)cccc7F)c7ccc4[nH]7)C=C6)C=C5)cc3)C2)ccc1Br
REMARK SMILES IDX 19 1 18 2 17 3 16 4 15 5 13 6 14 7 12 8 8 9 9 10 81 11 10 12
REMARK SMILES IDX 11 13 6 14 5 15 7 17 4 18 1 19 2 20 3 21 84 22 83 23 85 24
REMARK SMILES IDX 82 25 20 26 21 27 22 28 23 29 24 30 25 31 26 32 27 33 28 34
REMARK SMILES IDX 80 35 29 36 79 37 30 38 31 39 32 40 73 41 33 42 78 43 72 44
REMARK SMILES IDX 74 45 34 46 77 47 71 48 70 49 35 51 61 52 44 53 60 54 45 55
REMARK SMILES IDX 48 56 59 57 75 58 46 59 47 60 58 62 76 63 49 64 36 65 37 66
REMARK SMILES IDX 42 67 38 68 39 69 41 70 43 71 40 72 62 73 63 74 68 75 64 76
REMARK SMILES IDX 65 77 67 78 69 79 66 80 50 81 51 82 56 83 52 84 53 85 55 86
REMARK SMILES IDX 57 87 54 88
REMARK H PARENT 5 16 74 50 48 61
REMARK Flexibility Score: inf
ROOT
ATOM      1  C   UNL     1      -0.672  -5.520  -8.417  1.00  0.00     0.188 C 
ENDROOT
BRANCH   1   2
ATOM      2  O   UNL     1      -1.492  -6.535  -8.966  1.00  0.00    -0.376 OA
BRANCH   2   3
ATOM      3  C   UNL     1      -1.901  -7.548  -8.057  1.00  0.00     0.202 C 
BRANCH   3   4
ATOM      4  C   UNL     1      -2.888  -7.083  -6.981  1.00  0.00     0.261 C 
BRANCH   4   5
ATOM      5  O   UNL     1      -2.419  -6.004  -6.153  1.00  0.00    -0.463 OA
BRANCH   5   6
ATOM      6  C   UNL     1      -1.386  -6.244  -5.306  1.00  0.00     0.309 C 
ATOM      7  O   UNL     1      -0.848  -7.328  -5.145  1.00  0.00    -0.252 OA
BRANCH   6   8
ATOM      8  C   UNL     1      -0.951  -4.938  -4.646  1.00  0.00     0.100 C 
ATOM      9  C   UNL     1       0.333  -5.713  -2.547  1.00  0.00     0.080 C 
ATOM     10  C   UNL     1       1.665  -5.522  -3.288  1.00  0.00     0.013 C 
ATOM     11  C   UNL     1      -0.946  -5.094  -3.130  1.00  0.00     0.028 C 
ATOM     12  C   UNL     1       1.577  -5.239  -4.782  1.00  0.00     0.002 C 
ATOM     13  C   UNL     1       0.375  -4.410  -5.201  1.00  0.00     0.015 C 
BRANCH   9  14
ATOM     14  C   UNL     1       0.489  -5.406  -1.053  1.00  0.00     0.228 C 
ATOM     15  N   UNL     1       0.615  -4.166  -0.506  1.00  0.00    -0.310 N 
ATOM     16  H   UNL     1       0.699  -4.214   0.474  1.00  0.00     0.171 HD
ATOM     17  O   UNL     1       0.496  -6.360  -0.262  1.00  0.00    -0.274 OA
BRANCH  15  18
ATOM     18  C   UNL     1       0.658  -2.845  -0.953  1.00  0.00     0.132 A 
ATOM     19  C   UNL     1       0.720   0.376   0.807  1.00  0.00     0.068 C 
ATOM     20  C   UNL     1       0.571  -0.594  -0.326  1.00  0.00     0.054 A 
ATOM     21  N   UNL     1       0.621  -1.917   0.022  1.00  0.00    -0.235 NA
ATOM     22  C   UNL     1       0.509  -0.166  -1.650  1.00  0.00     0.039 A 
ATOM     23  C   UNL     1       0.601  -1.125  -2.640  1.00  0.00     0.021 A 
ATOM     24  Br  UNL     1       0.343   1.641  -2.178  1.00  0.00    -0.049 Br
ATOM     25  C   UNL     1       0.726  -2.460  -2.271  1.00  0.00     0.048 A 
ENDBRANCH  15  18
ENDBRANCH   9  14
ENDBRANCH   6   8
ENDBRANCH   5   6
ENDBRANCH   4   5
ENDBRANCH   3   4
ENDBRANCH   2   3
ENDBRANCH   1   2
BRANCH   1  26
ATOM     26  C   UNL     1      -1.379  -4.152  -8.248  1.00  0.00     0.188 C 
BRANCH  26  27
ATOM     27  O   UNL     1      -2.538  -3.832  -9.001  1.00  0.00    -0.376 OA
BRANCH  27  28
ATOM     28  C   UNL     1      -2.663  -4.351 -10.312  1.00  0.00     0.202 C 
BRANCH  28  29
ATOM     29  C   UNL     1      -1.589  -3.982 -11.348  1.00  0.00     0.261 C 
BRANCH  29  30
ATOM     30  O   UNL     1      -0.219  -4.129 -10.922  1.00  0.00    -0.460 OA
BRANCH  30  31
ATOM     31  C   UNL     1       0.460  -2.981 -10.668  1.00  0.00     0.338 C 
ATOM     32  O   UNL     1       0.052  -1.841 -10.797  1.00  0.00    -0.246 OA
BRANCH  31  33
ATOM     33  C   UNL     1       1.768  -3.284 -10.035  1.00  0.00     0.060 A 
ATOM     34  C   UNL     1       2.013  -2.813  -8.735  1.00  0.00     0.016 A 
ATOM     35  C   UNL     1       2.786  -3.921 -10.746  1.00  0.00     0.016 A 
ATOM     36  C   UNL     1       3.276  -2.951  -8.153  1.00  0.00     0.010 A 
ATOM     37  C   UNL     1       4.067  -4.017 -10.180  1.00  0.00     0.010 A 
ATOM     38  C   UNL     1       4.328  -3.498  -8.898  1.00  0.00    -0.014 A 
BRANCH  38  39
ATOM     39  C   UNL     1       5.733  -3.264  -8.467  1.00  0.00     0.031 A 
ATOM     40  C   UNL     1       6.394  -1.979  -8.899  1.00  0.00     0.074 A 
ATOM     41  C   UNL     1       6.419  -4.143  -7.716  1.00  0.00     0.049 A 
ATOM     42  N   UNL     1       7.630  -1.581  -8.742  1.00  0.00    -0.248 NA
ATOM     43  C   UNL     1       5.534  -1.010  -9.599  1.00  0.00     0.031 C 
ATOM     44  C   UNL     1       5.887  -5.381  -7.155  1.00  0.00     0.029 A 
ATOM     45  N   UNL     1       7.733  -4.125  -7.310  1.00  0.00    -0.354 N 
ATOM     46  C   UNL     1       7.695  -0.318  -9.319  1.00  0.00     0.074 A 
ATOM     47  C   UNL     1       6.380  -0.024  -9.847  1.00  0.00     0.031 C 
ATOM     48  C   UNL     1       6.874  -6.020  -6.498  1.00  0.00     0.029 A 
ATOM     49  C   UNL     1       8.116  -5.256  -6.630  1.00  0.00     0.049 A 
ATOM     50  H   UNL     1       8.342  -3.373  -7.490  1.00  0.00     0.167 HD
ATOM     51  C   UNL     1       8.751   0.524  -9.411  1.00  0.00     0.037 A 
ATOM     52  C   UNL     1       9.335  -5.643  -6.200  1.00  0.00     0.037 A 
ATOM     53  C   UNL     1      10.073   0.220  -8.936  1.00  0.00     0.049 A 
ATOM     54  C   UNL     1      10.533  -4.755  -6.449  1.00  0.00     0.074 A 
ATOM     55  C   UNL     1      11.218   0.993  -9.015  1.00  0.00     0.029 A 
ATOM     56  N   UNL     1      10.431  -0.964  -8.311  1.00  0.00    -0.354 N 
ATOM     57  N   UNL     1      10.586  -3.565  -6.997  1.00  0.00    -0.248 NA
ATOM     58  C   UNL     1      11.845  -5.273  -6.026  1.00  0.00     0.031 C 
ATOM     59  C   UNL     1      12.281   0.252  -8.491  1.00  0.00     0.029 A 
ATOM     60  C   UNL     1      11.785  -0.954  -8.023  1.00  0.00     0.049 A 
ATOM     61  H   UNL     1       9.814  -1.703  -8.102  1.00  0.00     0.167 HD
ATOM     62  C   UNL     1      11.921  -3.176  -6.941  1.00  0.00     0.074 A 
ATOM     63  C   UNL     1      12.646  -4.256  -6.308  1.00  0.00     0.031 C 
ATOM     64  C   UNL     1      12.493  -2.023  -7.368  1.00  0.00     0.037 A 
BRANCH  51  65
ATOM     65  C   UNL     1       8.521   1.835 -10.104  1.00  0.00     0.057 A 
ATOM     66  C   UNL     1       9.077   2.081 -11.366  1.00  0.00     0.134 A 
ATOM     67  C   UNL     1       7.747   2.851  -9.528  1.00  0.00     0.134 A 
ATOM     68  F   UNL     1       9.829   1.151 -11.973  1.00  0.00    -0.206 F 
ATOM     69  C   UNL     1       8.870   3.290 -12.031  1.00  0.00     0.040 A 
ATOM     70  C   UNL     1       7.510   4.054 -10.197  1.00  0.00     0.040 A 
ATOM     71  F   UNL     1       7.171   2.671  -8.330  1.00  0.00    -0.206 F 
ATOM     72  C   UNL     1       8.076   4.277 -11.450  1.00  0.00     0.006 A 
ENDBRANCH  51  65
BRANCH  52  73
ATOM     73  C   UNL     1       9.519  -6.954  -5.520  1.00  0.00     0.057 A 
ATOM     74  C   UNL     1       9.368  -8.162  -6.211  1.00  0.00     0.134 A 
ATOM     75  C   UNL     1       9.927  -7.026  -4.182  1.00  0.00     0.134 A 
ATOM     76  F   UNL     1       8.988  -8.165  -7.497  1.00  0.00    -0.206 F 
ATOM     77  C   UNL     1       9.614  -9.393  -5.598  1.00  0.00     0.040 A 
ATOM     78  C   UNL     1      10.205  -8.248  -3.565  1.00  0.00     0.040 A 
ATOM     79  F   UNL     1      10.122  -5.904  -3.475  1.00  0.00    -0.206 F 
ATOM     80  C   UNL     1      10.046  -9.437  -4.274  1.00  0.00     0.006 A 
ENDBRANCH  52  73
BRANCH  64  81
ATOM     81  C   UNL     1      13.960  -1.825  -7.105  1.00  0.00     0.057 A 
ATOM     82  C   UNL     1      14.385  -0.863  -6.178  1.00  0.00     0.134 A 
ATOM     83  C   UNL     1      14.949  -2.524  -7.807  1.00  0.00     0.134 A 
ATOM     84  F   UNL     1      13.490  -0.149  -5.478  1.00  0.00    -0.206 F 
ATOM     85  C   UNL     1      15.738  -0.594  -5.968  1.00  0.00     0.040 A 
ATOM     86  C   UNL     1      16.307  -2.284  -7.585  1.00  0.00     0.040 A 
ATOM     87  F   UNL     1      14.612  -3.466  -8.701  1.00  0.00    -0.206 F 
ATOM     88  C   UNL     1      16.704  -1.310  -6.671  1.00  0.00     0.006 A 
ENDBRANCH  64  81
ENDBRANCH  38  39
ENDBRANCH  31  33
ENDBRANCH  30  31
ENDBRANCH  29  30
ENDBRANCH  28  29
ENDBRANCH  27  28
ENDBRANCH  26  27
ENDBRANCH   1  26
TORSDOF 19
