REMARK SMILES CCOC(=O)C1=NN(c2cc(F)cc(F)c2)[C@@H](C(=O)OCCOCCOCCOC(=O)c2ccc(-c3c4nc(c(-c5c(F)cccc5F)c5ccc([nH]5)c(-c5c(F)cccc5F)c5nc(c(-c6c(F)cccc6F)c6ccc3[nH]6)C=C5)C=C4)cc2)C1
REMARK SMILES IDX 24 1 23 2 22 3 21 4 20 5 18 6 19 7 17 8 6 9 7 10 86 11 8 12
REMARK SMILES IDX 4 13 5 14 3 15 2 16 1 17 9 18 10 19 16 20 11 21 14 22 12 23
REMARK SMILES IDX 13 24 15 25 25 26 26 27 27 28 28 29 29 30 30 31 31 32 32 33
REMARK SMILES IDX 33 34 85 35 34 36 84 37 35 38 36 39 37 40 78 41 38 42 83 43
REMARK SMILES IDX 77 44 79 45 39 46 82 47 76 48 75 49 40 51 66 52 49 53 65 54
REMARK SMILES IDX 50 55 53 56 64 57 80 58 51 59 52 60 63 62 81 63 54 64 41 65
REMARK SMILES IDX 42 66 47 67 43 68 44 69 46 70 48 71 45 72 67 73 68 74 73 75
REMARK SMILES IDX 69 76 70 77 72 78 74 79 71 80 55 81 56 82 61 83 57 84 58 85
REMARK SMILES IDX 60 86 62 87 59 88
REMARK H PARENT 79 50 53 61
REMARK Flexibility Score: inf
ROOT
ATOM      1  C   UNL     1       2.747  -5.766   7.086  1.00  0.00     0.188 C 
ENDROOT
BRANCH   1   2
ATOM      2  O   UNL     1       1.682  -6.206   7.901  1.00  0.00    -0.376 OA
BRANCH   2   3
ATOM      3  C   UNL     1       0.351  -6.261   7.400  1.00  0.00     0.202 C 
BRANCH   3   4
ATOM      4  C   UNL     1      -0.099  -5.687   6.047  1.00  0.00     0.261 C 
BRANCH   4   5
ATOM      5  O   UNL     1       0.882  -5.699   5.006  1.00  0.00    -0.462 OA
BRANCH   5   6
ATOM      6  C   UNL     1       1.004  -4.524   4.314  1.00  0.00     0.331 C 
ATOM      7  O   UNL     1       0.279  -3.549   4.468  1.00  0.00    -0.250 OA
BRANCH   6   8
ATOM      8  C   UNL     1       2.147  -4.598   3.310  1.00  0.00     0.224 C 
ATOM      9  C   UNL     1       2.196  -3.133   1.534  1.00  0.00     0.148 C 
ATOM     10  N   UNL     1       3.026  -2.609   2.376  1.00  0.00    -0.169 NA
ATOM     11  C   UNL     1       1.588  -4.446   1.896  1.00  0.00     0.105 C 
ATOM     12  N   UNL     1       3.041  -3.446   3.438  1.00  0.00    -0.250 N 
BRANCH   9  13
ATOM     13  C   UNL     1       1.842  -2.460   0.246  1.00  0.00     0.354 C 
ATOM     14  O   UNL     1       2.593  -2.421  -0.709  1.00  0.00    -0.245 OA
BRANCH  13  15
ATOM     15  O   UNL     1       0.628  -1.898   0.402  1.00  0.00    -0.461 OA
BRANCH  15  16
ATOM     16  C   UNL     1       0.246  -0.978  -0.625  1.00  0.00     0.230 C 
ATOM     17  C   UNL     1       0.751   0.407  -0.263  1.00  0.00     0.049 C 
ENDBRANCH  15  16
ENDBRANCH  13  15
ENDBRANCH   9  13
BRANCH  12  18
ATOM     18  C   UNL     1       3.951  -3.201   4.443  1.00  0.00     0.066 A 
ATOM     19  C   UNL     1       5.265  -3.667   4.343  1.00  0.00     0.067 A 
ATOM     20  C   UNL     1       3.615  -2.363   5.511  1.00  0.00     0.067 A 
ATOM     21  C   UNL     1       6.222  -3.266   5.268  1.00  0.00     0.128 A 
ATOM     22  C   UNL     1       4.585  -1.976   6.429  1.00  0.00     0.128 A 
ATOM     23  F   UNL     1       7.482  -3.702   5.142  1.00  0.00    -0.207 F 
ATOM     24  C   UNL     1       5.896  -2.409   6.307  1.00  0.00     0.078 A 
ATOM     25  F   UNL     1       4.243  -1.155   7.429  1.00  0.00    -0.207 F 
ENDBRANCH  12  18
ENDBRANCH   6   8
ENDBRANCH   5   6
ENDBRANCH   4   5
ENDBRANCH   3   4
ENDBRANCH   2   3
ENDBRANCH   1   2
BRANCH   1  26
ATOM     26  C   UNL     1       3.458  -6.808   6.196  1.00  0.00     0.188 C 
BRANCH  26  27
ATOM     27  O   UNL     1       2.835  -8.049   5.906  1.00  0.00    -0.376 OA
BRANCH  27  28
ATOM     28  C   UNL     1       2.490  -8.908   6.988  1.00  0.00     0.202 C 
BRANCH  28  29
ATOM     29  C   UNL     1       3.521  -9.255   8.070  1.00  0.00     0.261 C 
BRANCH  29  30
ATOM     30  O   UNL     1       4.161  -8.112   8.660  1.00  0.00    -0.460 OA
BRANCH  30  31
ATOM     31  C   UNL     1       5.516  -8.147   8.626  1.00  0.00     0.338 C 
ATOM     32  O   UNL     1       6.224  -9.059   8.231  1.00  0.00    -0.246 OA
BRANCH  31  33
ATOM     33  C   UNL     1       6.067  -6.824   8.964  1.00  0.00     0.060 A 
ATOM     34  C   UNL     1       6.820  -6.173   7.982  1.00  0.00     0.016 A 
ATOM     35  C   UNL     1       5.940  -6.275  10.242  1.00  0.00     0.016 A 
ATOM     36  C   UNL     1       7.469  -4.980   8.284  1.00  0.00     0.010 A 
ATOM     37  C   UNL     1       6.617  -5.087  10.551  1.00  0.00     0.010 A 
ATOM     38  C   UNL     1       7.402  -4.445   9.579  1.00  0.00    -0.014 A 
BRANCH  38  39
ATOM     39  C   UNL     1       8.267  -3.284   9.905  1.00  0.00     0.031 A 
ATOM     40  C   UNL     1       9.742  -3.503  10.086  1.00  0.00     0.074 A 
ATOM     41  C   UNL     1       7.770  -2.035   9.929  1.00  0.00     0.049 A 
ATOM     42  N   UNL     1      10.695  -2.624  10.260  1.00  0.00    -0.248 NA
ATOM     43  C   UNL     1      10.203  -4.900  10.064  1.00  0.00     0.031 C 
ATOM     44  C   UNL     1       6.370  -1.687   9.716  1.00  0.00     0.029 A 
ATOM     45  N   UNL     1       8.400  -0.823  10.076  1.00  0.00    -0.354 N 
ATOM     46  C   UNL     1      11.865  -3.360  10.385  1.00  0.00     0.074 A 
ATOM     47  C   UNL     1      11.508  -4.755  10.239  1.00  0.00     0.031 C 
ATOM     48  C   UNL     1       6.259  -0.350   9.652  1.00  0.00     0.029 A 
ATOM     49  C   UNL     1       7.569   0.255   9.880  1.00  0.00     0.049 A 
ATOM     50  H   UNL     1       9.355  -0.735  10.300  1.00  0.00     0.167 HD
ATOM     51  C   UNL     1      13.118  -2.916  10.637  1.00  0.00     0.037 A 
ATOM     52  C   UNL     1       7.838   1.576   9.874  1.00  0.00     0.037 A 
ATOM     53  C   UNL     1      13.471  -1.536  10.832  1.00  0.00     0.049 A 
ATOM     54  C   UNL     1       9.234   2.045  10.185  1.00  0.00     0.074 A 
ATOM     55  C   UNL     1      14.701  -1.000  11.172  1.00  0.00     0.029 A 
ATOM     56  N   UNL     1      12.588  -0.474  10.717  1.00  0.00    -0.354 N 
ATOM     57  N   UNL     1      10.326   1.339  10.347  1.00  0.00    -0.248 NA
ATOM     58  C   UNL     1       9.425   3.493  10.357  1.00  0.00     0.031 C 
ATOM     59  C   UNL     1      14.550   0.384  11.309  1.00  0.00     0.029 A 
ATOM     60  C   UNL     1      13.238   0.713  11.009  1.00  0.00     0.049 A 
ATOM     61  H   UNL     1      11.639  -0.552  10.466  1.00  0.00     0.167 HD
ATOM     62  C   UNL     1      11.325   2.251  10.666  1.00  0.00     0.074 A 
ATOM     63  C   UNL     1      10.722   3.566  10.626  1.00  0.00     0.031 C 
ATOM     64  C   UNL     1      12.620   2.014  10.989  1.00  0.00     0.037 A 
BRANCH  51  65
ATOM     65  C   UNL     1      14.178  -3.958  10.813  1.00  0.00     0.057 A 
ATOM     66  C   UNL     1      14.626  -4.296  12.096  1.00  0.00     0.134 A 
ATOM     67  C   UNL     1      14.744  -4.636   9.726  1.00  0.00     0.134 A 
ATOM     68  F   UNL     1      14.118  -3.685  13.177  1.00  0.00    -0.206 F 
ATOM     69  C   UNL     1      15.601  -5.273  12.293  1.00  0.00     0.040 A 
ATOM     70  C   UNL     1      15.707  -5.629   9.913  1.00  0.00     0.040 A 
ATOM     71  F   UNL     1      14.338  -4.373   8.475  1.00  0.00    -0.206 F 
ATOM     72  C   UNL     1      16.140  -5.947  11.200  1.00  0.00     0.006 A 
ENDBRANCH  51  65
BRANCH  52  73
ATOM     73  C   UNL     1       6.763   2.558   9.576  1.00  0.00     0.057 A 
ATOM     74  C   UNL     1       5.679   2.751  10.441  1.00  0.00     0.134 A 
ATOM     75  C   UNL     1       6.803   3.337   8.414  1.00  0.00     0.134 A 
ATOM     76  F   UNL     1       5.586   2.045  11.578  1.00  0.00    -0.206 F 
ATOM     77  C   UNL     1       4.662   3.661  10.150  1.00  0.00     0.040 A 
ATOM     78  C   UNL     1       5.806   4.271   8.122  1.00  0.00     0.040 A 
ATOM     79  F   UNL     1       7.832   3.224   7.560  1.00  0.00    -0.206 F 
ATOM     80  C   UNL     1       4.726   4.428   8.989  1.00  0.00     0.006 A 
ENDBRANCH  52  73
BRANCH  64  81
ATOM     81  C   UNL     1      13.467   3.192  11.370  1.00  0.00     0.057 A 
ATOM     82  C   UNL     1      14.486   3.653  10.528  1.00  0.00     0.134 A 
ATOM     83  C   UNL     1      13.324   3.816  12.616  1.00  0.00     0.134 A 
ATOM     84  F   UNL     1      14.682   3.092   9.326  1.00  0.00    -0.206 F 
ATOM     85  C   UNL     1      15.342   4.684  10.918  1.00  0.00     0.040 A 
ATOM     86  C   UNL     1      14.161   4.861  13.009  1.00  0.00     0.040 A 
ATOM     87  F   UNL     1      12.361   3.425  13.466  1.00  0.00    -0.206 F 
ATOM     88  C   UNL     1      15.180   5.292  12.162  1.00  0.00     0.006 A 
ENDBRANCH  64  81
ENDBRANCH  38  39
ENDBRANCH  31  33
ENDBRANCH  30  31
ENDBRANCH  29  30
ENDBRANCH  28  29
ENDBRANCH  27  28
ENDBRANCH  26  27
ENDBRANCH   1  26
TORSDOF 21
