REMARK SMILES O=C(C[C@H]1CN(S(=O)(=O)c2cc(F)cc(F)c2)CCO1)OCCOCCOCCOC(=O)c1ccc(-c2c3nc(c(-c4c(F)cccc4F)c4ccc([nH]4)c(-c4c(F)cccc4F)c4nc(c(-c5c(F)cccc5F)c5ccc2[nH]5)C=C4)C=C3)cc1
REMARK SMILES IDX 25 1 24 2 23 3 22 4 21 5 2 6 1 7 3 8 4 9 5 10 20 11 6 12
REMARK SMILES IDX 19 13 18 14 7 15 8 16 9 17 10 18 11 19 17 20 12 21 15 22
REMARK SMILES IDX 13 23 14 24 16 25 26 26 27 27 28 28 29 29 30 30 31 31 32 32
REMARK SMILES IDX 33 33 34 34 86 35 35 36 85 37 36 38 37 39 38 40 79 41 39 42
REMARK SMILES IDX 84 43 78 44 80 45 40 46 83 47 77 48 76 49 41 51 67 52 50 53
REMARK SMILES IDX 66 54 51 55 54 56 65 57 81 58 52 59 53 60 64 62 82 63 55 64
REMARK SMILES IDX 42 65 43 66 48 67 44 68 45 69 47 70 49 71 46 72 68 73 69 74
REMARK SMILES IDX 74 75 70 76 71 77 73 78 75 79 72 80 56 81 57 82 62 83 58 84
REMARK SMILES IDX 59 85 61 86 63 87 60 88
REMARK H PARENT 80 50 54 61
REMARK Flexibility Score: inf
ROOT
ATOM      1  C   UNL     1       5.151  -0.489  -1.879  1.00  0.00     0.188 C 
ENDROOT
BRANCH   1   2
ATOM      2  O   UNL     1       4.113  -1.000  -1.014  1.00  0.00    -0.376 OA
BRANCH   2   3
ATOM      3  C   UNL     1       2.773  -0.618  -1.343  1.00  0.00     0.202 C 
BRANCH   3   4
ATOM      4  C   UNL     1       2.049   0.146  -0.235  1.00  0.00     0.261 C 
BRANCH   4   5
ATOM      5  O   UNL     1       2.797   1.211   0.345  1.00  0.00    -0.463 OA
BRANCH   5   6
ATOM      6  C   UNL     1       4.005   1.081   0.918  1.00  0.00     0.308 C 
ATOM      7  O   UNL     1       4.791   2.027   0.817  1.00  0.00    -0.252 OA
BRANCH   6   8
ATOM      8  C   UNL     1       4.441  -0.165   1.676  1.00  0.00     0.156 C 
BRANCH   8   9
ATOM      9  C   UNL     1       3.469  -1.072   2.445  1.00  0.00     0.144 C 
ATOM     10  C   UNL     1       2.973  -2.424   1.814  1.00  0.00     0.135 C 
ATOM     11  O   UNL     1       4.039  -1.326   3.752  1.00  0.00    -0.375 OA
ATOM     12  N   UNL     1       3.812  -3.658   1.990  1.00  0.00    -0.193 NA
ATOM     13  C   UNL     1       5.099  -2.286   3.668  1.00  0.00     0.177 C 
ATOM     14  C   UNL     1       4.521  -3.653   3.320  1.00  0.00     0.131 C 
BRANCH  12  15
ATOM     15  S   UNL     1       4.741  -4.331   0.732  1.00  0.00     0.243 S 
ATOM     16  O   UNL     1       5.634  -3.290   0.299  1.00  0.00    -0.207 OA
ATOM     17  O   UNL     1       5.299  -5.571   1.249  1.00  0.00    -0.207 OA
BRANCH  15  18
ATOM     18  C   UNL     1       3.730  -4.845  -0.678  1.00  0.00     0.088 A 
ATOM     19  C   UNL     1       3.342  -3.920  -1.636  1.00  0.00     0.061 A 
ATOM     20  C   UNL     1       3.680  -6.188  -1.062  1.00  0.00     0.061 A 
ATOM     21  C   UNL     1       2.850  -4.276  -2.895  1.00  0.00     0.127 A 
ATOM     22  C   UNL     1       3.242  -6.542  -2.353  1.00  0.00     0.127 A 
ATOM     23  F   UNL     1       2.578  -3.316  -3.791  1.00  0.00    -0.207 F 
ATOM     24  C   UNL     1       2.810  -5.597  -3.275  1.00  0.00     0.078 A 
ATOM     25  F   UNL     1       3.321  -7.820  -2.742  1.00  0.00    -0.207 F 
ENDBRANCH  15  18
ENDBRANCH  12  15
ENDBRANCH   8   9
ENDBRANCH   6   8
ENDBRANCH   5   6
ENDBRANCH   4   5
ENDBRANCH   3   4
ENDBRANCH   2   3
ENDBRANCH   1   2
BRANCH   1  26
ATOM     26  C   UNL     1       6.232  -1.536  -2.273  1.00  0.00     0.188 C 
BRANCH  26  27
ATOM     27  O   UNL     1       5.994  -2.134  -3.557  1.00  0.00    -0.376 OA
BRANCH  27  28
ATOM     28  C   UNL     1       5.992  -3.565  -3.606  1.00  0.00     0.202 C 
BRANCH  28  29
ATOM     29  C   UNL     1       7.319  -4.322  -3.682  1.00  0.00     0.261 C 
BRANCH  29  30
ATOM     30  O   UNL     1       7.955  -4.318  -2.397  1.00  0.00    -0.460 OA
BRANCH  30  31
ATOM     31  C   UNL     1       8.914  -3.381  -2.288  1.00  0.00     0.338 C 
ATOM     32  O   UNL     1       9.363  -2.683  -3.186  1.00  0.00    -0.246 OA
BRANCH  31  33
ATOM     33  C   UNL     1       9.300  -3.188  -0.884  1.00  0.00     0.060 A 
ATOM     34  C   UNL     1       9.620  -1.876  -0.523  1.00  0.00     0.016 A 
ATOM     35  C   UNL     1       9.483  -4.249   0.009  1.00  0.00     0.016 A 
ATOM     36  C   UNL     1      10.261  -1.633   0.677  1.00  0.00     0.010 A 
ATOM     37  C   UNL     1      10.120  -4.002   1.227  1.00  0.00     0.010 A 
ATOM     38  C   UNL     1      10.580  -2.707   1.517  1.00  0.00    -0.014 A 
BRANCH  38  39
ATOM     39  C   UNL     1      11.602  -2.475   2.557  1.00  0.00     0.031 A 
ATOM     40  C   UNL     1      13.020  -2.889   2.268  1.00  0.00     0.074 A 
ATOM     41  C   UNL     1      11.285  -1.782   3.663  1.00  0.00     0.049 A 
ATOM     42  N   UNL     1      14.093  -2.737   2.999  1.00  0.00    -0.248 NA
ATOM     43  C   UNL     1      13.267  -3.556   0.977  1.00  0.00     0.031 C 
ATOM     44  C   UNL     1       9.952  -1.269   3.980  1.00  0.00     0.029 A 
ATOM     45  N   UNL     1      12.066  -1.367   4.706  1.00  0.00    -0.354 N 
ATOM     46  C   UNL     1      15.134  -3.283   2.257  1.00  0.00     0.074 A 
ATOM     47  C   UNL     1      14.565  -3.810   1.039  1.00  0.00     0.031 C 
ATOM     48  C   UNL     1      10.011  -0.594   5.139  1.00  0.00     0.029 A 
ATOM     49  C   UNL     1      11.375  -0.659   5.657  1.00  0.00     0.049 A 
ATOM     50  H   UNL     1      13.030  -1.558   4.769  1.00  0.00     0.167 HD
ATOM     51  C   UNL     1      16.452  -3.319   2.562  1.00  0.00     0.037 A 
ATOM     52  C   UNL     1      11.805  -0.133   6.819  1.00  0.00     0.037 A 
ATOM     53  C   UNL     1      17.000  -2.776   3.775  1.00  0.00     0.049 A 
ATOM     54  C   UNL     1      13.262  -0.269   7.173  1.00  0.00     0.074 A 
ATOM     55  C   UNL     1      18.315  -2.775   4.202  1.00  0.00     0.029 A 
ATOM     56  N   UNL     1      16.257  -2.129   4.752  1.00  0.00    -0.354 N 
ATOM     57  N   UNL     1      14.237  -0.804   6.476  1.00  0.00    -0.248 NA
ATOM     58  C   UNL     1      13.680   0.273   8.472  1.00  0.00     0.031 C 
ATOM     59  C   UNL     1      18.360  -2.169   5.460  1.00  0.00     0.029 A 
ATOM     60  C   UNL     1      17.083  -1.742   5.792  1.00  0.00     0.049 A 
ATOM     61  H   UNL     1      15.286  -1.970   4.712  1.00  0.00     0.167 HD
ATOM     62  C   UNL     1      15.386  -0.639   7.238  1.00  0.00     0.074 A 
ATOM     63  C   UNL     1      14.989   0.064   8.441  1.00  0.00     0.031 C 
ATOM     64  C   UNL     1      16.656  -1.034   6.972  1.00  0.00     0.037 A 
BRANCH  51  65
ATOM     65  C   UNL     1      17.387  -3.966   1.582  1.00  0.00     0.057 A 
ATOM     66  C   UNL     1      18.020  -5.178   1.891  1.00  0.00     0.134 A 
ATOM     67  C   UNL     1      17.719  -3.359   0.364  1.00  0.00     0.134 A 
ATOM     68  F   UNL     1      17.748  -5.814   3.041  1.00  0.00    -0.206 F 
ATOM     69  C   UNL     1      18.963  -5.750   1.036  1.00  0.00     0.040 A 
ATOM     70  C   UNL     1      18.642  -3.934  -0.512  1.00  0.00     0.040 A 
ATOM     71  F   UNL     1      17.137  -2.208  -0.002  1.00  0.00    -0.206 F 
ATOM     72  C   UNL     1      19.277  -5.127  -0.170  1.00  0.00     0.006 A 
ENDBRANCH  51  65
BRANCH  52  73
ATOM     73  C   UNL     1      10.851   0.562   7.719  1.00  0.00     0.057 A 
ATOM     74  C   UNL     1       9.807  -0.129   8.349  1.00  0.00     0.134 A 
ATOM     75  C   UNL     1      10.956   1.935   7.971  1.00  0.00     0.134 A 
ATOM     76  F   UNL     1       9.646  -1.445   8.147  1.00  0.00    -0.206 F 
ATOM     77  C   UNL     1       8.898   0.520   9.185  1.00  0.00     0.040 A 
ATOM     78  C   UNL     1      10.070   2.591   8.827  1.00  0.00     0.040 A 
ATOM     79  F   UNL     1      11.943   2.650   7.411  1.00  0.00    -0.206 F 
ATOM     80  C   UNL     1       9.033   1.884   9.432  1.00  0.00     0.006 A 
ENDBRANCH  52  73
BRANCH  64  81
ATOM     81  C   UNL     1      17.708  -0.691   7.985  1.00  0.00     0.057 A 
ATOM     82  C   UNL     1      18.702   0.251   7.690  1.00  0.00     0.134 A 
ATOM     83  C   UNL     1      17.775  -1.338   9.225  1.00  0.00     0.134 A 
ATOM     84  F   UNL     1      18.704   0.894   6.513  1.00  0.00    -0.206 F 
ATOM     85  C   UNL     1      19.731   0.530   8.589  1.00  0.00     0.040 A 
ATOM     86  C   UNL     1      18.781  -1.044  10.146  1.00  0.00     0.040 A 
ATOM     87  F   UNL     1      16.848  -2.245   9.570  1.00  0.00    -0.206 F 
ATOM     88  C   UNL     1      19.768  -0.113   9.824  1.00  0.00     0.006 A 
ENDBRANCH  64  81
ENDBRANCH  38  39
ENDBRANCH  31  33
ENDBRANCH  30  31
ENDBRANCH  29  30
ENDBRANCH  28  29
ENDBRANCH  27  28
ENDBRANCH  26  27
ENDBRANCH   1  26
TORSDOF 20
