REMARK SMILES CCCc1nc2cc(C(=O)OCCOCCOCCOC(=O)c3ccc(-c4c5nc(c(-c6c(F)cccc6F)c6ccc([nH]6)c(-c6c(F)cccc6F)c6nc(c(-c7c(F)cccc7F)c7ccc4[nH]7)C=C6)C=C5)cc3)ccc2n1[C@H](CO)C(C)C
REMARK SMILES IDX 15 1 14 2 13 3 12 4 11 5 9 6 10 7 8 8 4 9 5 10 80 11 6 12
REMARK SMILES IDX 79 13 7 14 78 15 77 16 3 17 2 18 1 19 81 20 84 21 85 22
REMARK SMILES IDX 86 23 82 24 83 25 16 27 17 28 18 29 19 30 20 31 21 32 22 33
REMARK SMILES IDX 23 34 24 35 76 36 25 37 75 38 26 39 27 40 28 41 69 42 29 43
REMARK SMILES IDX 74 44 68 45 70 46 30 47 73 48 67 49 66 50 31 52 57 53 40 54
REMARK SMILES IDX 56 55 41 56 44 57 55 58 71 59 42 60 43 61 54 63 72 64 45 65
REMARK SMILES IDX 32 66 33 67 38 68 34 69 35 70 37 71 39 72 36 73 58 74 59 75
REMARK SMILES IDX 64 76 60 77 61 78 63 79 65 80 62 81 46 82 47 83 52 84 48 85
REMARK SMILES IDX 49 86 51 87 53 88 50 89
REMARK H PARENT 83 26 70 51 44 62
REMARK Flexibility Score: inf
ROOT
ATOM      1  C   UNL     1       8.160  -2.686   3.784  1.00  0.00     0.188 C 
ENDROOT
BRANCH   1   2
ATOM      2  O   UNL     1       9.322  -2.881   4.551  1.00  0.00    -0.376 OA
BRANCH   2   3
ATOM      3  C   UNL     1       9.381  -2.296   5.835  1.00  0.00     0.202 C 
BRANCH   3   4
ATOM      4  C   UNL     1       8.421  -1.164   6.246  1.00  0.00     0.261 C 
BRANCH   4   5
ATOM      5  O   UNL     1       7.046  -1.325   5.819  1.00  0.00    -0.460 OA
BRANCH   5   6
ATOM      6  C   UNL     1       6.495  -0.235   5.221  1.00  0.00     0.338 C 
ATOM      7  O   UNL     1       7.009   0.874   5.177  1.00  0.00    -0.246 OA
BRANCH   6   8
ATOM      8  C   UNL     1       5.179  -0.495   4.551  1.00  0.00     0.062 A 
ATOM      9  C   UNL     1       2.559  -0.155   0.793  1.00  0.00     0.110 A 
ATOM     10  N   UNL     1       3.707  -0.755   1.073  1.00  0.00    -0.233 NA
ATOM     11  N   UNL     1       1.979   0.249   1.989  1.00  0.00    -0.322 N 
ATOM     12  C   UNL     1       3.954  -0.623   2.422  1.00  0.00     0.090 A 
ATOM     13  C   UNL     1       2.881  -0.018   3.033  1.00  0.00     0.069 A 
ATOM     14  C   UNL     1       5.105  -0.897   3.199  1.00  0.00     0.046 A 
ATOM     15  C   UNL     1       2.865   0.219   4.425  1.00  0.00     0.029 A 
ATOM     16  C   UNL     1       4.039  -0.003   5.165  1.00  0.00     0.018 A 
BRANCH   9  17
ATOM     17  C   UNL     1       2.191   0.224  -0.635  1.00  0.00     0.075 C 
BRANCH  17  18
ATOM     18  C   UNL     1       1.406  -0.754  -1.524  1.00  0.00     0.005 C 
ATOM     19  C   UNL     1      -0.111  -0.781  -1.399  1.00  0.00     0.004 C 
ENDBRANCH  17  18
ENDBRANCH   9  17
BRANCH  11  20
ATOM     20  C   UNL     1       0.628   0.702   2.318  1.00  0.00     0.117 C 
BRANCH  20  21
ATOM     21  C   UNL     1      -0.244   1.383   1.235  1.00  0.00     0.008 C 
ATOM     22  C   UNL     1      -1.669   1.675   1.714  1.00  0.00     0.009 C 
ATOM     23  C   UNL     1       0.317   2.663   0.611  1.00  0.00     0.009 C 
ENDBRANCH  20  21
BRANCH  20  24
ATOM     24  C   UNL     1      -0.086  -0.530   2.937  1.00  0.00     0.181 C 
BRANCH  24  25
ATOM     25  O   UNL     1      -0.835  -0.145   4.087  1.00  0.00    -0.394 OA
ATOM     26  H   UNL     1      -0.238   0.234   4.750  1.00  0.00     0.210 HD
ENDBRANCH  24  25
ENDBRANCH  20  24
ENDBRANCH  11  20
ENDBRANCH   6   8
ENDBRANCH   5   6
ENDBRANCH   4   5
ENDBRANCH   3   4
ENDBRANCH   2   3
ENDBRANCH   1   2
BRANCH   1  27
ATOM     27  C   UNL     1       6.907  -3.550   4.067  1.00  0.00     0.188 C 
BRANCH  27  28
ATOM     28  O   UNL     1       6.954  -4.538   5.075  1.00  0.00    -0.376 OA
BRANCH  28  29
ATOM     29  C   UNL     1       7.982  -5.510   4.970  1.00  0.00     0.202 C 
BRANCH  29  30
ATOM     30  C   UNL     1       8.196  -6.202   3.607  1.00  0.00     0.261 C 
BRANCH  30  31
ATOM     31  O   UNL     1       8.537  -5.285   2.538  1.00  0.00    -0.460 OA
BRANCH  31  32
ATOM     32  C   UNL     1       7.878  -5.438   1.354  1.00  0.00     0.338 C 
ATOM     33  O   UNL     1       7.234  -6.422   1.013  1.00  0.00    -0.246 OA
BRANCH  32  34
ATOM     34  C   UNL     1       7.733  -4.099   0.703  1.00  0.00     0.060 A 
ATOM     35  C   UNL     1       8.783  -3.186   0.520  1.00  0.00     0.016 A 
ATOM     36  C   UNL     1       6.428  -3.659   0.500  1.00  0.00     0.016 A 
ATOM     37  C   UNL     1       8.507  -1.805   0.335  1.00  0.00     0.010 A 
ATOM     38  C   UNL     1       6.178  -2.301   0.283  1.00  0.00     0.010 A 
ATOM     39  C   UNL     1       7.189  -1.324   0.313  1.00  0.00    -0.014 A 
BRANCH  39  40
ATOM     40  C   UNL     1       6.838   0.090  -0.046  1.00  0.00     0.031 A 
ATOM     41  C   UNL     1       6.981   0.265  -1.496  1.00  0.00     0.074 A 
ATOM     42  C   UNL     1       6.413   1.194   0.641  1.00  0.00     0.049 A 
ATOM     43  N   UNL     1       7.976   0.895  -2.022  1.00  0.00    -0.248 NA
ATOM     44  C   UNL     1       6.144  -0.470  -2.444  1.00  0.00     0.031 C 
ATOM     45  C   UNL     1       6.317   1.403   2.072  1.00  0.00     0.029 A 
ATOM     46  N   UNL     1       5.884   2.396   0.184  1.00  0.00    -0.354 N 
ATOM     47  C   UNL     1       7.759   0.842  -3.379  1.00  0.00     0.074 A 
ATOM     48  C   UNL     1       6.772  -0.188  -3.588  1.00  0.00     0.031 C 
ATOM     49  C   UNL     1       5.471   2.418   2.376  1.00  0.00     0.029 A 
ATOM     50  C   UNL     1       5.158   3.129   1.152  1.00  0.00     0.049 A 
ATOM     51  H   UNL     1       6.005   2.712  -0.740  1.00  0.00     0.167 HD
ATOM     52  C   UNL     1       8.196   1.859  -4.161  1.00  0.00     0.037 A 
ATOM     53  C   UNL     1       4.513   4.333   1.058  1.00  0.00     0.037 A 
ATOM     54  C   UNL     1       9.137   2.709  -3.459  1.00  0.00     0.049 A 
ATOM     55  C   UNL     1       5.278   5.081   0.040  1.00  0.00     0.074 A 
ATOM     56  C   UNL     1      10.336   2.507  -2.800  1.00  0.00     0.029 A 
ATOM     57  N   UNL     1       8.697   3.946  -3.057  1.00  0.00    -0.354 N 
ATOM     58  N   UNL     1       6.456   5.587   0.273  1.00  0.00    -0.248 NA
ATOM     59  C   UNL     1       4.923   4.928  -1.359  1.00  0.00     0.031 C 
ATOM     60  C   UNL     1      10.342   3.435  -1.718  1.00  0.00     0.029 A 
ATOM     61  C   UNL     1       9.180   4.199  -1.800  1.00  0.00     0.049 A 
ATOM     62  H   UNL     1       8.127   4.552  -3.584  1.00  0.00     0.167 HD
ATOM     63  C   UNL     1       7.162   5.309  -0.882  1.00  0.00     0.074 A 
ATOM     64  C   UNL     1       6.140   5.044  -1.895  1.00  0.00     0.031 C 
ATOM     65  C   UNL     1       8.493   5.014  -0.824  1.00  0.00     0.037 A 
BRANCH  52  66
ATOM     66  C   UNL     1       7.458   2.317  -5.386  1.00  0.00     0.057 A 
ATOM     67  C   UNL     1       6.078   2.125  -5.606  1.00  0.00     0.134 A 
ATOM     68  C   UNL     1       8.084   3.237  -6.239  1.00  0.00     0.134 A 
ATOM     69  F   UNL     1       5.316   1.359  -4.817  1.00  0.00    -0.206 F 
ATOM     70  C   UNL     1       5.370   2.808  -6.594  1.00  0.00     0.040 A 
ATOM     71  C   UNL     1       7.372   3.971  -7.192  1.00  0.00     0.040 A 
ATOM     72  F   UNL     1       9.390   3.516  -6.109  1.00  0.00    -0.206 F 
ATOM     73  C   UNL     1       6.010   3.760  -7.368  1.00  0.00     0.006 A 
ENDBRANCH  52  66
BRANCH  53  74
ATOM     74  C   UNL     1       3.392   5.000   1.801  1.00  0.00     0.057 A 
ATOM     75  C   UNL     1       2.499   4.296   2.620  1.00  0.00     0.134 A 
ATOM     76  C   UNL     1       2.978   6.312   1.481  1.00  0.00     0.134 A 
ATOM     77  F   UNL     1       2.747   3.030   2.973  1.00  0.00    -0.206 F 
ATOM     78  C   UNL     1       1.250   4.814   3.016  1.00  0.00     0.040 A 
ATOM     79  C   UNL     1       1.731   6.841   1.863  1.00  0.00     0.040 A 
ATOM     80  F   UNL     1       3.737   7.107   0.712  1.00  0.00    -0.206 F 
ATOM     81  C   UNL     1       0.845   6.077   2.606  1.00  0.00     0.006 A 
ENDBRANCH  53  74
BRANCH  65  82
ATOM     82  C   UNL     1       9.234   5.336   0.450  1.00  0.00     0.057 A 
ATOM     83  C   UNL     1      10.344   6.186   0.386  1.00  0.00     0.134 A 
ATOM     84  C   UNL     1       8.975   4.742   1.694  1.00  0.00     0.134 A 
ATOM     85  F   UNL     1      10.687   6.759  -0.778  1.00  0.00    -0.206 F 
ATOM     86  C   UNL     1      11.152   6.435   1.500  1.00  0.00     0.040 A 
ATOM     87  C   UNL     1       9.756   5.004   2.825  1.00  0.00     0.040 A 
ATOM     88  F   UNL     1       7.991   3.850   1.841  1.00  0.00    -0.206 F 
ATOM     89  C   UNL     1      10.855   5.850   2.728  1.00  0.00     0.006 A 
ENDBRANCH  65  82
ENDBRANCH  39  40
ENDBRANCH  32  34
ENDBRANCH  31  32
ENDBRANCH  30  31
ENDBRANCH  29  30
ENDBRANCH  28  29
ENDBRANCH  27  28
ENDBRANCH   1  27
TORSDOF 23
