REMARK SMILES Cc1cc(-c2cc(C(=O)OCCOCCOCCOC(=O)c3ccc(-c4c5nc(c(-c6c(F)cccc6F)c6ccc([nH]6)c(-c6c(F)cccc6F)c6nc(c(-c7c(F)cccc7F)c7ccc4[nH]7)C=C6)C=C5)cc3)c[nH]c2=O)ccc1Cl
REMARK SMILES IDX 15 1 14 2 13 3 12 4 11 5 10 6 8 7 9 8 7 9 5 10 6 11 78 12
REMARK SMILES IDX 77 13 79 14 76 15 4 17 1 18 2 19 3 20 82 21 81 22 83 23
REMARK SMILES IDX 80 24 16 25 17 26 18 27 19 28 20 29 21 30 22 31 23 32 75 33
REMARK SMILES IDX 24 34 74 35 25 36 26 37 27 38 68 39 28 40 73 41 67 42 69 43
REMARK SMILES IDX 29 44 72 45 66 46 65 47 30 49 56 50 39 51 55 52 40 53 43 54
REMARK SMILES IDX 54 55 70 56 41 57 42 58 53 60 71 61 44 62 31 63 32 64 37 65
REMARK SMILES IDX 33 66 34 67 36 68 38 69 35 70 57 71 58 72 63 73 59 74 60 75
REMARK SMILES IDX 62 76 64 77 61 78 45 79 46 80 51 81 47 82 48 83 50 84 52 85
REMARK SMILES IDX 49 86
REMARK H PARENT 77 16 69 48 43 59
REMARK Flexibility Score: inf
ROOT
ATOM      1  C   UNL     1      -6.823   0.732   3.506  1.00  0.00     0.188 C 
ENDROOT
BRANCH   1   2
ATOM      2  C   UNL     1      -8.220   0.177   3.154  1.00  0.00     0.188 C 
BRANCH   2   3
ATOM      3  O   UNL     1      -8.871  -0.744   4.016  1.00  0.00    -0.376 OA
BRANCH   3   4
ATOM      4  C   UNL     1      -8.168  -1.864   4.535  1.00  0.00     0.202 C 
BRANCH   4   5
ATOM      5  C   UNL     1      -7.352  -2.779   3.608  1.00  0.00     0.261 C 
BRANCH   5   6
ATOM      6  O   UNL     1      -6.482  -2.101   2.689  1.00  0.00    -0.460 OA
BRANCH   6   7
ATOM      7  C   UNL     1      -6.818  -2.198   1.376  1.00  0.00     0.339 C 
ATOM      8  O   UNL     1      -7.739  -2.850   0.909  1.00  0.00    -0.246 OA
BRANCH   7   9
ATOM      9  C   UNL     1      -6.008  -1.242   0.577  1.00  0.00     0.077 A 
ATOM     10  C   UNL     1      -3.866  -0.240  -0.053  1.00  0.00     0.048 A 
ATOM     11  C   UNL     1      -4.574  -1.091   0.722  1.00  0.00     0.031 A 
ATOM     12  C   UNL     1      -4.629   0.638  -1.017  1.00  0.00     0.255 A 
ATOM     13  N   UNL     1      -5.992   0.445  -1.064  1.00  0.00    -0.328 N 
ATOM     14  O   UNL     1      -4.093   1.481  -1.728  1.00  0.00    -0.269 OA
ATOM     15  C   UNL     1      -6.667  -0.479  -0.308  1.00  0.00     0.101 A 
ATOM     16  H   UNL     1      -6.516   1.006  -1.680  1.00  0.00     0.169 HD
BRANCH  10  17
ATOM     17  C   UNL     1      -2.387  -0.218   0.014  1.00  0.00    -0.012 A 
ATOM     18  C   UNL     1       0.493   2.294   0.022  1.00  0.00     0.046 C 
ATOM     19  C   UNL     1      -0.249   0.987   0.036  1.00  0.00    -0.032 A 
ATOM     20  C   UNL     1      -1.659   0.982   0.026  1.00  0.00     0.014 A 
ATOM     21  C   UNL     1       0.429  -0.241   0.041  1.00  0.00     0.044 A 
ATOM     22  C   UNL     1      -0.281  -1.440   0.028  1.00  0.00     0.021 A 
ATOM     23  Cl  UNL     1       2.155  -0.327   0.051  1.00  0.00    -0.084 Cl
ATOM     24  C   UNL     1      -1.675  -1.428   0.008  1.00  0.00     0.010 A 
ENDBRANCH  10  17
ENDBRANCH   7   9
ENDBRANCH   6   7
ENDBRANCH   5   6
ENDBRANCH   4   5
ENDBRANCH   3   4
ENDBRANCH   2   3
ENDBRANCH   1   2
BRANCH   1  25
ATOM     25  O   UNL     1      -6.253   0.215   4.682  1.00  0.00    -0.376 OA
BRANCH  25  26
ATOM     26  C   UNL     1      -6.442   0.880   5.918  1.00  0.00     0.202 C 
BRANCH  26  27
ATOM     27  C   UNL     1      -7.540   1.921   6.226  1.00  0.00     0.261 C 
BRANCH  27  28
ATOM     28  O   UNL     1      -8.385   2.366   5.161  1.00  0.00    -0.460 OA
BRANCH  28  29
ATOM     29  C   UNL     1      -8.079   3.558   4.600  1.00  0.00     0.338 C 
ATOM     30  O   UNL     1      -7.123   4.276   4.855  1.00  0.00    -0.246 OA
BRANCH  29  31
ATOM     31  C   UNL     1      -9.011   3.794   3.482  1.00  0.00     0.060 A 
ATOM     32  C   UNL     1      -8.530   3.724   2.167  1.00  0.00     0.016 A 
ATOM     33  C   UNL     1     -10.353   4.081   3.733  1.00  0.00     0.016 A 
ATOM     34  C   UNL     1      -9.397   3.943   1.095  1.00  0.00     0.010 A 
ATOM     35  C   UNL     1     -11.214   4.322   2.658  1.00  0.00     0.010 A 
ATOM     36  C   UNL     1     -10.738   4.269   1.335  1.00  0.00    -0.014 A 
BRANCH  36  37
ATOM     37  C   UNL     1     -11.621   4.686   0.218  1.00  0.00     0.031 A 
ATOM     38  C   UNL     1     -11.857   6.152  -0.010  1.00  0.00     0.074 A 
ATOM     39  C   UNL     1     -12.223   3.776  -0.567  1.00  0.00     0.049 A 
ATOM     40  N   UNL     1     -12.665   6.742  -0.853  1.00  0.00    -0.248 NA
ATOM     41  C   UNL     1     -11.081   7.075   0.832  1.00  0.00     0.031 C 
ATOM     42  C   UNL     1     -12.053   2.329  -0.468  1.00  0.00     0.029 A 
ATOM     43  N   UNL     1     -13.124   3.942  -1.591  1.00  0.00    -0.354 N 
ATOM     44  C   UNL     1     -12.505   8.105  -0.635  1.00  0.00     0.074 A 
ATOM     45  C   UNL     1     -11.542   8.251   0.436  1.00  0.00     0.031 C 
ATOM     46  C   UNL     1     -12.847   1.735  -1.376  1.00  0.00     0.029 A 
ATOM     47  C   UNL     1     -13.608   2.759  -2.091  1.00  0.00     0.049 A 
ATOM     48  H   UNL     1     -13.396   4.824  -1.932  1.00  0.00     0.167 HD
ATOM     49  C   UNL     1     -13.104   9.139  -1.272  1.00  0.00     0.037 A 
ATOM     50  C   UNL     1     -14.582   2.528  -2.994  1.00  0.00     0.037 A 
ATOM     51  C   UNL     1     -14.069   8.990  -2.330  1.00  0.00     0.049 A 
ATOM     52  C   UNL     1     -15.293   3.692  -3.636  1.00  0.00     0.074 A 
ATOM     53  C   UNL     1     -14.708   9.977  -3.058  1.00  0.00     0.029 A 
ATOM     54  N   UNL     1     -14.546   7.775  -2.798  1.00  0.00    -0.354 N 
ATOM     55  N   UNL     1     -15.108   4.978  -3.453  1.00  0.00    -0.248 NA
ATOM     56  C   UNL     1     -16.348   3.373  -4.608  1.00  0.00     0.031 C 
ATOM     57  C   UNL     1     -15.619   9.361  -3.923  1.00  0.00     0.029 A 
ATOM     58  C   UNL     1     -15.501   7.988  -3.779  1.00  0.00     0.049 A 
ATOM     59  H   UNL     1     -14.251   6.891  -2.479  1.00  0.00     0.167 HD
ATOM     60  C   UNL     1     -16.003   5.618  -4.302  1.00  0.00     0.074 A 
ATOM     61  C   UNL     1     -16.721   4.580  -5.011  1.00  0.00     0.031 C 
ATOM     62  C   UNL     1     -16.211   6.947  -4.479  1.00  0.00     0.037 A 
BRANCH  49  63
ATOM     63  C   UNL     1     -12.759  10.525  -0.809  1.00  0.00     0.057 A 
ATOM     64  C   UNL     1     -11.498  11.093  -1.033  1.00  0.00     0.134 A 
ATOM     65  C   UNL     1     -13.710  11.310  -0.145  1.00  0.00     0.134 A 
ATOM     66  F   UNL     1     -10.536  10.391  -1.652  1.00  0.00    -0.206 F 
ATOM     67  C   UNL     1     -11.186  12.379  -0.586  1.00  0.00     0.040 A 
ATOM     68  C   UNL     1     -13.420  12.607   0.280  1.00  0.00     0.040 A 
ATOM     69  F   UNL     1     -14.940  10.831   0.098  1.00  0.00    -0.206 F 
ATOM     70  C   UNL     1     -12.151  13.142   0.068  1.00  0.00     0.006 A 
ENDBRANCH  49  63
BRANCH  50  71
ATOM     71  C   UNL     1     -14.969   1.132  -3.325  1.00  0.00     0.057 A 
ATOM     72  C   UNL     1     -14.714   0.584  -4.587  1.00  0.00     0.134 A 
ATOM     73  C   UNL     1     -15.617   0.317  -2.388  1.00  0.00     0.134 A 
ATOM     74  F   UNL     1     -14.120   1.323  -5.536  1.00  0.00    -0.206 F 
ATOM     75  C   UNL     1     -15.100  -0.718  -4.911  1.00  0.00     0.040 A 
ATOM     76  C   UNL     1     -15.984  -0.996  -2.689  1.00  0.00     0.040 A 
ATOM     77  F   UNL     1     -15.893   0.782  -1.161  1.00  0.00    -0.206 F 
ATOM     78  C   UNL     1     -15.732  -1.514  -3.957  1.00  0.00     0.006 A 
ENDBRANCH  50  71
BRANCH  62  79
ATOM     79  C   UNL     1     -17.234   7.361  -5.499  1.00  0.00     0.057 A 
ATOM     80  C   UNL     1     -18.608   7.191  -5.285  1.00  0.00     0.134 A 
ATOM     81  C   UNL     1     -16.840   7.987  -6.690  1.00  0.00     0.134 A 
ATOM     82  F   UNL     1     -19.053   6.589  -4.172  1.00  0.00    -0.206 F 
ATOM     83  C   UNL     1     -19.551   7.612  -6.225  1.00  0.00     0.040 A 
ATOM     84  C   UNL     1     -17.774   8.438  -7.624  1.00  0.00     0.040 A 
ATOM     85  F   UNL     1     -15.541   8.191  -6.955  1.00  0.00    -0.206 F 
ATOM     86  C   UNL     1     -19.135   8.245  -7.395  1.00  0.00     0.006 A 
ENDBRANCH  62  79
ENDBRANCH  36  37
ENDBRANCH  29  31
ENDBRANCH  28  29
ENDBRANCH  27  28
ENDBRANCH  26  27
ENDBRANCH  25  26
ENDBRANCH   1  25
TORSDOF 18
