REMARK SMILES C[C@H]1c2ccc(O)cc2OC(=O)[C@@H]1CC(=O)N[C@@H](CC1=c2ccccc2=NC1)C(=O)OCCOCCOCCOC(=O)c1ccc(-c2c3nc(c(-c4c(F)cccc4F)c4ccc([nH]4)c(-c4c(F)cccc4F)c4nc(c(-c5c(F)cccc5F)c5ccc2[nH]5)C=C4)C=C3)cc1
REMARK SMILES IDX 35 1 34 2 33 3 32 4 31 5 29 6 30 7 18 8 17 9 15 10 16 11
REMARK SMILES IDX 14 13 13 14 1 15 2 16 3 17 4 18 9 19 11 20 5 21 8 22 10 23
REMARK SMILES IDX 12 24 6 25 7 26 19 28 20 29 21 30 28 31 22 32 26 33 27 34
REMARK SMILES IDX 23 35 25 36 24 37 36 38 37 39 38 40 39 41 40 42 41 43 42 44
REMARK SMILES IDX 43 45 44 46 96 47 45 48 95 49 46 50 47 51 48 52 89 53 49 54
REMARK SMILES IDX 94 55 88 56 90 57 50 58 93 59 87 60 86 61 51 63 77 64 60 65
REMARK SMILES IDX 76 66 61 67 64 68 75 69 91 70 62 71 63 72 74 74 92 75 65 76
REMARK SMILES IDX 52 77 53 78 58 79 54 80 55 81 57 82 59 83 56 84 78 85 79 86
REMARK SMILES IDX 84 87 80 88 81 89 83 90 85 91 82 92 66 93 67 94 72 95 68 96
REMARK SMILES IDX 69 97 71 98 73 99 70 100
REMARK H PARENT 17 12 7 27 90 62 64 73
REMARK Flexibility Score: inf
ROOT
ATOM      1  C   UNL     1      -1.690  -7.009   1.237  1.00  0.00     0.188 C 
ENDROOT
BRANCH   1   2
ATOM      2  O   UNL     1      -1.772  -8.236   1.934  1.00  0.00    -0.376 OA
BRANCH   2   3
ATOM      3  C   UNL     1      -2.219  -8.253   3.285  1.00  0.00     0.202 C 
BRANCH   3   4
ATOM      4  C   UNL     1      -1.800  -7.155   4.274  1.00  0.00     0.261 C 
BRANCH   4   5
ATOM      5  O   UNL     1      -2.127  -5.816   3.855  1.00  0.00    -0.462 OA
BRANCH   5   6
ATOM      6  C   UNL     1      -1.070  -4.984   3.739  1.00  0.00     0.329 C 
ATOM      7  O   UNL     1       0.083  -5.287   4.045  1.00  0.00    -0.250 OA
BRANCH   6   8
ATOM      8  C   UNL     1      -1.387  -3.572   3.227  1.00  0.00     0.196 C 
BRANCH   8   9
ATOM      9  N   UNL     1      -2.545  -3.135   2.423  1.00  0.00    -0.342 N 
ATOM     10  C   UNL     1      -2.594  -2.377   1.279  1.00  0.00     0.221 C 
ATOM     11  O   UNL     1      -3.663  -1.851   0.965  1.00  0.00    -0.275 OA
ATOM     12  H   UNL     1      -3.421  -3.433   2.761  1.00  0.00     0.164 HD
BRANCH  10  13
ATOM     13  C   UNL     1      -1.400  -2.295   0.324  1.00  0.00     0.116 C 
BRANCH  13  14
ATOM     14  C   UNL     1      -0.483  -1.059   0.450  1.00  0.00     0.116 C 
ATOM     15  C   UNL     1       1.399   0.346  -0.578  1.00  0.00     0.014 C 
ATOM     16  C   UNL     1       0.646  -0.994  -0.613  1.00  0.00     0.034 C 
ATOM     17  C   UNL     1       1.620  -2.121  -0.375  1.00  0.00    -0.001 A 
ATOM     18  C   UNL     1       2.449  -2.617  -1.383  1.00  0.00     0.011 A 
ATOM     19  C   UNL     1       1.717  -2.680   0.900  1.00  0.00     0.138 A 
ATOM     20  C   UNL     1       0.206  -1.023   1.784  1.00  0.00     0.315 C 
ATOM     21  C   UNL     1       3.307  -3.685  -1.110  1.00  0.00     0.047 A 
ATOM     22  C   UNL     1       2.482  -3.811   1.159  1.00  0.00     0.093 A 
ATOM     23  O   UNL     1       1.109  -2.054   2.002  1.00  0.00    -0.426 OA
ATOM     24  O   UNL     1      -0.024  -0.176   2.637  1.00  0.00    -0.251 OA
ATOM     25  C   UNL     1       3.281  -4.302   0.140  1.00  0.00     0.119 A 
BRANCH  25  26
ATOM     26  O   UNL     1       4.082  -5.383   0.351  1.00  0.00    -0.508 OA
ATOM     27  H   UNL     1       4.621  -5.710  -0.343  1.00  0.00     0.293 HD
ENDBRANCH  25  26
ENDBRANCH  13  14
ENDBRANCH  10  13
ENDBRANCH   8   9
BRANCH   8  28
ATOM     28  C   UNL     1      -1.196  -2.655   4.451  1.00  0.00     0.070 C 
BRANCH  28  29
ATOM     29  C   UNL     1      -2.297  -2.560   5.526  1.00  0.00    -0.037 C 
ATOM     30  C   UNL     1      -3.583  -2.671   5.175  1.00  0.00     0.001 A 
ATOM     31  C   UNL     1      -2.158  -1.214   6.222  1.00  0.00     0.174 C 
ATOM     32  C   UNL     1      -4.638  -3.574   5.549  1.00  0.00     0.010 A 
ATOM     33  C   UNL     1      -3.977  -1.247   5.063  1.00  0.00     0.065 A 
ATOM     34  N   UNL     1      -3.200  -0.363   5.603  1.00  0.00    -0.280 NA
ATOM     35  C   UNL     1      -5.891  -3.235   5.187  1.00  0.00     0.001 A 
ATOM     36  C   UNL     1      -5.239  -1.033   4.332  1.00  0.00     0.028 A 
ATOM     37  C   UNL     1      -6.136  -2.034   4.394  1.00  0.00     0.002 A 
ENDBRANCH  28  29
ENDBRANCH   8  28
ENDBRANCH   6   8
ENDBRANCH   5   6
ENDBRANCH   4   5
ENDBRANCH   3   4
ENDBRANCH   2   3
ENDBRANCH   1   2
BRANCH   1  38
ATOM     38  C   UNL     1      -2.929  -6.108   1.129  1.00  0.00     0.188 C 
BRANCH  38  39
ATOM     39  O   UNL     1      -4.003  -6.343   1.999  1.00  0.00    -0.376 OA
BRANCH  39  40
ATOM     40  C   UNL     1      -5.048  -7.221   1.619  1.00  0.00     0.202 C 
BRANCH  40  41
ATOM     41  C   UNL     1      -5.113  -8.031   0.304  1.00  0.00     0.261 C 
BRANCH  41  42
ATOM     42  O   UNL     1      -4.016  -7.943  -0.613  1.00  0.00    -0.460 OA
BRANCH  42  43
ATOM     43  C   UNL     1      -4.168  -7.080  -1.651  1.00  0.00     0.338 C 
ATOM     44  O   UNL     1      -5.141  -6.383  -1.894  1.00  0.00    -0.246 OA
BRANCH  43  45
ATOM     45  C   UNL     1      -2.855  -6.930  -2.319  1.00  0.00     0.060 A 
ATOM     46  C   UNL     1      -2.254  -8.022  -2.941  1.00  0.00     0.016 A 
ATOM     47  C   UNL     1      -2.209  -5.682  -2.298  1.00  0.00     0.016 A 
ATOM     48  C   UNL     1      -1.018  -7.856  -3.571  1.00  0.00     0.010 A 
ATOM     49  C   UNL     1      -0.955  -5.527  -2.899  1.00  0.00     0.010 A 
ATOM     50  C   UNL     1      -0.365  -6.609  -3.568  1.00  0.00    -0.014 A 
BRANCH  50  51
ATOM     51  C   UNL     1       0.844  -6.419  -4.409  1.00  0.00     0.031 A 
ATOM     52  C   UNL     1       2.232  -6.543  -3.864  1.00  0.00     0.074 A 
ATOM     53  C   UNL     1       0.670  -6.207  -5.725  1.00  0.00     0.049 A 
ATOM     54  N   UNL     1       3.384  -6.414  -4.479  1.00  0.00    -0.248 NA
ATOM     55  C   UNL     1       2.337  -6.867  -2.440  1.00  0.00     0.031 C 
ATOM     56  C   UNL     1      -0.626  -6.124  -6.396  1.00  0.00     0.029 A 
ATOM     57  N   UNL     1       1.586  -6.080  -6.736  1.00  0.00    -0.354 N 
ATOM     58  C   UNL     1       4.359  -6.570  -3.500  1.00  0.00     0.074 A 
ATOM     59  C   UNL     1       3.652  -6.888  -2.279  1.00  0.00     0.031 C 
ATOM     60  C   UNL     1      -0.423  -6.034  -7.719  1.00  0.00     0.029 A 
ATOM     61  C   UNL     1       1.014  -6.007  -7.981  1.00  0.00     0.049 A 
ATOM     62  H   UNL     1       2.558  -6.045  -6.584  1.00  0.00     0.167 HD
ATOM     63  C   UNL     1       5.705  -6.417  -3.604  1.00  0.00     0.037 A 
ATOM     64  C   UNL     1       1.585  -5.944  -9.197  1.00  0.00     0.037 A 
ATOM     65  C   UNL     1       6.404  -6.238  -4.856  1.00  0.00     0.049 A 
ATOM     66  C   UNL     1       3.083  -5.944  -9.319  1.00  0.00     0.074 A 
ATOM     67  C   UNL     1       7.769  -6.157  -5.083  1.00  0.00     0.029 A 
ATOM     68  N   UNL     1       5.793  -6.158  -6.098  1.00  0.00    -0.354 N 
ATOM     69  N   UNL     1       3.993  -6.007  -8.378  1.00  0.00    -0.248 NA
ATOM     70  C   UNL     1       3.632  -5.870 -10.680  1.00  0.00     0.031 C 
ATOM     71  C   UNL     1       7.982  -6.014  -6.460  1.00  0.00     0.029 A 
ATOM     72  C   UNL     1       6.752  -6.052  -7.094  1.00  0.00     0.049 A 
ATOM     73  H   UNL     1       4.821  -6.175  -6.250  1.00  0.00     0.167 HD
ATOM     74  C   UNL     1       5.218  -6.000  -9.033  1.00  0.00     0.074 A 
ATOM     75  C   UNL     1       4.934  -5.957 -10.452  1.00  0.00     0.031 C 
ATOM     76  C   UNL     1       6.467  -6.018  -8.505  1.00  0.00     0.037 A 
BRANCH  63  77
ATOM     77  C   UNL     1       6.518  -6.371  -2.333  1.00  0.00     0.057 A 
ATOM     78  C   UNL     1       7.196  -5.193  -1.975  1.00  0.00     0.134 A 
ATOM     79  C   UNL     1       6.668  -7.469  -1.477  1.00  0.00     0.134 A 
ATOM     80  F   UNL     1       7.127  -4.102  -2.755  1.00  0.00    -0.206 F 
ATOM     81  C   UNL     1       7.978  -5.110  -0.821  1.00  0.00     0.040 A 
ATOM     82  C   UNL     1       7.409  -7.384  -0.294  1.00  0.00     0.040 A 
ATOM     83  F   UNL     1       6.064  -8.635  -1.754  1.00  0.00    -0.206 F 
ATOM     84  C   UNL     1       8.072  -6.204   0.034  1.00  0.00     0.006 A 
ENDBRANCH  63  77
BRANCH  64  85
ATOM     85  C   UNL     1       0.730  -5.921 -10.408  1.00  0.00     0.057 A 
ATOM     86  C   UNL     1      -0.065  -4.813 -10.720  1.00  0.00     0.134 A 
ATOM     87  C   UNL     1       0.698  -7.011 -11.285  1.00  0.00     0.134 A 
ATOM     88  F   UNL     1      -0.089  -3.745  -9.908  1.00  0.00    -0.206 F 
ATOM     89  C   UNL     1      -0.863  -4.788 -11.863  1.00  0.00     0.040 A 
ATOM     90  C   UNL     1      -0.071  -6.987 -12.448  1.00  0.00     0.040 A 
ATOM     91  F   UNL     1       1.448  -8.096 -11.043  1.00  0.00    -0.206 F 
ATOM     92  C   UNL     1      -0.858  -5.874 -12.737  1.00  0.00     0.006 A 
ENDBRANCH  64  85
BRANCH  76  93
ATOM     93  C   UNL     1       7.623  -6.027  -9.466  1.00  0.00     0.057 A 
ATOM     94  C   UNL     1       8.429  -7.166  -9.599  1.00  0.00     0.134 A 
ATOM     95  C   UNL     1       7.953  -4.910 -10.244  1.00  0.00     0.134 A 
ATOM     96  F   UNL     1       8.176  -8.269  -8.879  1.00  0.00    -0.206 F 
ATOM     97  C   UNL     1       9.518  -7.193 -10.473  1.00  0.00     0.040 A 
ATOM     98  C   UNL     1       9.022  -4.935 -11.142  1.00  0.00     0.040 A 
ATOM     99  F   UNL     1       7.216  -3.791 -10.174  1.00  0.00    -0.206 F 
ATOM    100  C   UNL     1       9.811  -6.077 -11.254  1.00  0.00     0.006 A 
ENDBRANCH  76  93
ENDBRANCH  50  51
ENDBRANCH  43  45
ENDBRANCH  42  43
ENDBRANCH  41  42
ENDBRANCH  40  41
ENDBRANCH  39  40
ENDBRANCH  38  39
ENDBRANCH   1  38
TORSDOF 23
