REMARK SMILES CCOc1ncnc(N[C@@H]2C=C[C@H](C(=O)OCCOCCOCCOC(=O)c3ccc(-c4c5nc(c(-c6c(F)cccc6F)c6ccc([nH]6)c(-c6c(F)cccc6F)c6nc(c(-c7c(F)cccc7F)c7ccc4[nH]7)C=C6)C=C5)cc3)C2)c1C
REMARK SMILES IDX 20 1 19 2 18 3 17 4 16 5 14 6 15 7 13 8 10 9 11 10 82 11
REMARK SMILES IDX 12 12 9 13 8 15 4 16 5 17 83 18 6 19 84 20 7 21 3 22 2 23
REMARK SMILES IDX 1 24 21 25 22 26 23 27 24 28 25 29 26 30 27 31 28 32 29 33
REMARK SMILES IDX 81 34 30 35 80 36 31 37 32 38 33 39 74 40 34 41 79 42 73 43
REMARK SMILES IDX 75 44 35 45 78 46 72 47 71 48 36 50 62 51 45 52 61 53 46 54
REMARK SMILES IDX 49 55 60 56 76 57 47 58 48 59 59 61 77 62 50 63 37 64 38 65
REMARK SMILES IDX 43 66 39 67 40 68 42 69 44 70 41 71 63 72 64 73 69 74 65 75
REMARK SMILES IDX 66 76 68 77 70 78 67 79 51 80 52 81 57 82 53 83 54 84 56 85
REMARK SMILES IDX 58 86 55 87
REMARK H PARENT 9 14 75 49 49 60
REMARK Flexibility Score: inf
ROOT
ATOM      1  C   UNL     1      11.020  -1.694  -0.835  1.00  0.00     0.188 C 
ENDROOT
BRANCH   1   2
ATOM      2  O   UNL     1      12.389  -1.981  -0.595  1.00  0.00    -0.376 OA
BRANCH   2   3
ATOM      3  C   UNL     1      12.794  -1.997   0.766  1.00  0.00     0.202 C 
BRANCH   3   4
ATOM      4  C   UNL     1      12.154  -3.089   1.627  1.00  0.00     0.261 C 
BRANCH   4   5
ATOM      5  O   UNL     1      10.719  -2.971   1.646  1.00  0.00    -0.463 OA
BRANCH   5   6
ATOM      6  C   UNL     1      10.075  -2.821   2.832  1.00  0.00     0.312 C 
ATOM      7  O   UNL     1      10.642  -2.773   3.917  1.00  0.00    -0.252 OA
BRANCH   6   8
ATOM      8  C   UNL     1       8.556  -2.895   2.615  1.00  0.00     0.124 C 
ATOM      9  C   UNL     1       7.143  -0.912   2.227  1.00  0.00     0.104 C 
ATOM     10  C   UNL     1       7.061  -1.376   3.634  1.00  0.00    -0.006 C 
ATOM     11  C   UNL     1       7.977  -1.978   1.520  1.00  0.00     0.048 C 
ATOM     12  C   UNL     1       7.803  -2.469   3.842  1.00  0.00    -0.014 C 
BRANCH   9  13
ATOM     13  N   UNL     1       7.644   0.440   2.149  1.00  0.00    -0.363 N 
ATOM     14  H   UNL     1       6.966   1.141   2.012  1.00  0.00     0.162 HD
BRANCH  13  15
ATOM     15  C   UNL     1       8.952   0.875   2.241  1.00  0.00     0.136 A 
ATOM     16  C   UNL     1      10.613   2.480   1.755  1.00  0.00     0.221 A 
ATOM     17  N   UNL     1      11.592   1.710   2.235  1.00  0.00    -0.201 NA
ATOM     18  C   UNL     1       9.271   2.136   1.768  1.00  0.00     0.054 A 
ATOM     19  C   UNL     1      11.167   0.544   2.727  1.00  0.00     0.228 A 
ATOM     20  C   UNL     1       8.220   3.099   1.353  1.00  0.00     0.054 C 
ATOM     21  N   UNL     1       9.910   0.067   2.700  1.00  0.00    -0.219 NA
BRANCH  16  22
ATOM     22  O   UNL     1      11.002   3.590   1.040  1.00  0.00    -0.478 OA
BRANCH  22  23
ATOM     23  C   UNL     1      11.428   4.660   1.882  1.00  0.00     0.228 C 
ATOM     24  C   UNL     1      10.505   5.847   1.644  1.00  0.00     0.049 C 
ENDBRANCH  22  23
ENDBRANCH  16  22
ENDBRANCH  13  15
ENDBRANCH   9  13
ENDBRANCH   6   8
ENDBRANCH   5   6
ENDBRANCH   4   5
ENDBRANCH   3   4
ENDBRANCH   2   3
ENDBRANCH   1   2
BRANCH   1  25
ATOM     25  C   UNL     1      10.179  -2.930  -1.231  1.00  0.00     0.188 C 
BRANCH  25  26
ATOM     26  O   UNL     1      10.805  -4.090  -1.767  1.00  0.00    -0.376 OA
BRANCH  26  27
ATOM     27  C   UNL     1      11.959  -3.945  -2.578  1.00  0.00     0.202 C 
BRANCH  27  28
ATOM     28  C   UNL     1      11.812  -3.196  -3.909  1.00  0.00     0.261 C 
BRANCH  28  29
ATOM     29  O   UNL     1      11.176  -1.906  -3.830  1.00  0.00    -0.460 OA
BRANCH  29  30
ATOM     30  C   UNL     1       9.910  -1.847  -4.302  1.00  0.00     0.338 C 
ATOM     31  O   UNL     1       9.259  -2.770  -4.787  1.00  0.00    -0.246 OA
BRANCH  30  32
ATOM     32  C   UNL     1       9.309  -0.519  -4.063  1.00  0.00     0.060 A 
ATOM     33  C   UNL     1       8.117  -0.444  -3.329  1.00  0.00     0.016 A 
ATOM     34  C   UNL     1       9.828   0.628  -4.667  1.00  0.00     0.016 A 
ATOM     35  C   UNL     1       7.418   0.763  -3.237  1.00  0.00     0.010 A 
ATOM     36  C   UNL     1       9.114   1.834  -4.592  1.00  0.00     0.010 A 
ATOM     37  C   UNL     1       7.886   1.901  -3.909  1.00  0.00    -0.014 A 
BRANCH  37  38
ATOM     38  C   UNL     1       7.015   3.103  -4.027  1.00  0.00     0.031 A 
ATOM     39  C   UNL     1       6.167   3.285  -5.252  1.00  0.00     0.074 A 
ATOM     40  C   UNL     1       6.955   4.039  -3.064  1.00  0.00     0.049 A 
ATOM     41  N   UNL     1       5.391   4.289  -5.572  1.00  0.00    -0.248 NA
ATOM     42  C   UNL     1       6.215   2.209  -6.252  1.00  0.00     0.031 C 
ATOM     43  C   UNL     1       7.743   4.017  -1.843  1.00  0.00     0.029 A 
ATOM     44  N   UNL     1       6.212   5.194  -2.966  1.00  0.00    -0.354 N 
ATOM     45  C   UNL     1       4.871   3.979  -6.818  1.00  0.00     0.074 A 
ATOM     46  C   UNL     1       5.428   2.697  -7.201  1.00  0.00     0.031 C 
ATOM     47  C   UNL     1       7.434   5.105  -1.117  1.00  0.00     0.029 A 
ATOM     48  C   UNL     1       6.443   5.901  -1.812  1.00  0.00     0.049 A 
ATOM     49  H   UNL     1       5.575   5.485  -3.658  1.00  0.00     0.167 HD
ATOM     50  C   UNL     1       4.013   4.701  -7.577  1.00  0.00     0.037 A 
ATOM     51  C   UNL     1       5.952   7.066  -1.346  1.00  0.00     0.037 A 
ATOM     52  C   UNL     1       3.467   5.984  -7.213  1.00  0.00     0.049 A 
ATOM     53  C   UNL     1       5.009   7.846  -2.204  1.00  0.00     0.074 A 
ATOM     54  C   UNL     1       2.602   6.786  -7.938  1.00  0.00     0.029 A 
ATOM     55  N   UNL     1       3.731   6.655  -6.030  1.00  0.00    -0.354 N 
ATOM     56  N   UNL     1       4.544   7.546  -3.389  1.00  0.00    -0.248 NA
ATOM     57  C   UNL     1       4.549   9.139  -1.679  1.00  0.00     0.031 C 
ATOM     58  C   UNL     1       2.367   7.957  -7.209  1.00  0.00     0.029 A 
ATOM     59  C   UNL     1       3.049   7.864  -6.008  1.00  0.00     0.049 A 
ATOM     60  H   UNL     1       4.316   6.324  -5.310  1.00  0.00     0.167 HD
ATOM     61  C   UNL     1       3.744   8.615  -3.758  1.00  0.00     0.074 A 
ATOM     62  C   UNL     1       3.756   9.554  -2.655  1.00  0.00     0.031 C 
ATOM     63  C   UNL     1       3.075   8.803  -4.918  1.00  0.00     0.037 A 
BRANCH  50  64
ATOM     64  C   UNL     1       3.632   4.122  -8.904  1.00  0.00     0.057 A 
ATOM     65  C   UNL     1       2.754   3.037  -9.008  1.00  0.00     0.134 A 
ATOM     66  C   UNL     1       4.126   4.676 -10.091  1.00  0.00     0.134 A 
ATOM     67  F   UNL     1       2.264   2.450  -7.905  1.00  0.00    -0.206 F 
ATOM     68  C   UNL     1       2.388   2.514 -10.249  1.00  0.00     0.040 A 
ATOM     69  C   UNL     1       3.749   4.178 -11.338  1.00  0.00     0.040 A 
ATOM     70  F   UNL     1       4.973   5.716 -10.057  1.00  0.00    -0.206 F 
ATOM     71  C   UNL     1       2.881   3.091 -11.419  1.00  0.00     0.006 A 
ENDBRANCH  50  64
BRANCH  51  72
ATOM     72  C   UNL     1       6.365   7.599  -0.020  1.00  0.00     0.057 A 
ATOM     73  C   UNL     1       5.466   7.654   1.053  1.00  0.00     0.134 A 
ATOM     74  C   UNL     1       7.652   8.106   0.194  1.00  0.00     0.134 A 
ATOM     75  F   UNL     1       4.210   7.207   0.905  1.00  0.00    -0.206 F 
ATOM     76  C   UNL     1       5.826   8.210   2.282  1.00  0.00     0.040 A 
ATOM     77  C   UNL     1       8.033   8.642   1.425  1.00  0.00     0.040 A 
ATOM     78  F   UNL     1       8.563   8.074  -0.789  1.00  0.00    -0.206 F 
ATOM     79  C   UNL     1       7.116   8.703   2.471  1.00  0.00     0.006 A 
ENDBRANCH  51  72
BRANCH  63  80
ATOM     80  C   UNL     1       2.283  10.069  -5.036  1.00  0.00     0.057 A 
ATOM     81  C   UNL     1       2.903  11.313  -5.206  1.00  0.00     0.134 A 
ATOM     82  C   UNL     1       0.886  10.043  -4.959  1.00  0.00     0.134 A 
ATOM     83  F   UNL     1       4.241  11.406  -5.260  1.00  0.00    -0.206 F 
ATOM     84  C   UNL     1       2.160  12.493  -5.269  1.00  0.00     0.040 A 
ATOM     85  C   UNL     1       0.132  11.212  -5.045  1.00  0.00     0.040 A 
ATOM     86  F   UNL     1       0.235   8.882  -4.793  1.00  0.00    -0.206 F 
ATOM     87  C   UNL     1       0.769  12.443  -5.192  1.00  0.00     0.006 A 
ENDBRANCH  63  80
ENDBRANCH  37  38
ENDBRANCH  30  32
ENDBRANCH  29  30
ENDBRANCH  28  29
ENDBRANCH  27  28
ENDBRANCH  26  27
ENDBRANCH  25  26
ENDBRANCH   1  25
TORSDOF 21
