REMARK SMILES O=C(/C=C\N1[C@@H]2CC[C@H]1C[C@H](O)C2)OCCOCCOCCOC(=O)c1ccc(-c2c3nc(c(-c4c(F)cccc4F)c4ccc([nH]4)c(-c4c(F)cccc4F)c4nc(c(-c5c(F)cccc5F)c5ccc2[nH]5)C=C4)C=C3)cc1
REMARK SMILES IDX 18 1 17 2 16 3 15 4 14 5 2 6 1 7 3 8 4 9 5 10 6 11 9 12 7 13
REMARK SMILES IDX 13 14 8 15 10 16 11 17 12 18 19 20 20 21 21 22 22 23 23 24
REMARK SMILES IDX 24 25 25 26 26 27 27 28 79 29 28 30 78 31 29 32 30 33 31 34
REMARK SMILES IDX 72 35 32 36 77 37 71 38 73 39 33 40 76 41 70 42 69 43 34 45
REMARK SMILES IDX 60 46 43 47 59 48 44 49 47 50 58 51 74 52 45 53 46 54 57 56
REMARK SMILES IDX 75 57 48 58 35 59 36 60 41 61 37 62 38 63 40 64 42 65 39 66
REMARK SMILES IDX 61 67 62 68 67 69 63 70 64 71 66 72 68 73 65 74 49 75 50 76
REMARK SMILES IDX 55 77 51 78 52 79 54 80 56 81 53 82
REMARK H PARENT 12 19 73 44 47 55
REMARK Flexibility Score: inf
ROOT
ATOM      1  C   UNL     1       1.535   1.347   2.012  1.00  0.00     0.188 C 
ENDROOT
BRANCH   1   2
ATOM      2  O   UNL     1       2.840   0.906   2.327  1.00  0.00    -0.376 OA
BRANCH   2   3
ATOM      3  C   UNL     1       3.682   0.579   1.225  1.00  0.00     0.202 C 
BRANCH   3   4
ATOM      4  C   UNL     1       3.007   0.449  -0.157  1.00  0.00     0.261 C 
BRANCH   4   5
ATOM      5  O   UNL     1       2.196  -0.715  -0.248  1.00  0.00    -0.460 OA
BRANCH   5   6
ATOM      6  C   UNL     1       2.752  -1.935  -0.235  1.00  0.00     0.332 C 
ATOM      7  O   UNL     1       2.031  -2.929  -0.174  1.00  0.00    -0.247 OA
BRANCH   6   8
ATOM      8  C   UNL     1       4.221  -2.136  -0.204  1.00  0.00     0.111 C 
ATOM      9  C   UNL     1       5.421  -1.613  -0.505  1.00  0.00     0.089 C 
BRANCH   9  10
ATOM     10  N   UNL     1       6.130  -0.543  -1.039  1.00  0.00    -0.371 N 
ATOM     11  C   UNL     1       7.433  -0.813  -1.681  1.00  0.00     0.084 C 
ATOM     12  C   UNL     1       5.906   0.879  -1.354  1.00  0.00     0.084 C 
ATOM     13  C   UNL     1       8.277   0.412  -1.326  1.00  0.00     0.027 C 
ATOM     14  C   UNL     1       7.155  -0.965  -3.186  1.00  0.00     0.056 C 
ATOM     15  C   UNL     1       7.276   1.523  -1.080  1.00  0.00     0.027 C 
ATOM     16  C   UNL     1       5.537   1.054  -2.836  1.00  0.00     0.056 C 
ATOM     17  C   UNL     1       5.970  -0.127  -3.706  1.00  0.00     0.118 C 
BRANCH  17  18
ATOM     18  O   UNL     1       4.831  -0.983  -3.874  1.00  0.00    -0.393 OA
ATOM     19  H   UNL     1       4.561  -1.334  -3.011  1.00  0.00     0.210 HD
ENDBRANCH  17  18
ENDBRANCH   9  10
ENDBRANCH   6   8
ENDBRANCH   5   6
ENDBRANCH   4   5
ENDBRANCH   3   4
ENDBRANCH   2   3
ENDBRANCH   1   2
BRANCH   1  20
ATOM     20  C   UNL     1       1.390   2.842   1.673  1.00  0.00     0.188 C 
BRANCH  20  21
ATOM     21  O   UNL     1       2.274   3.427   0.731  1.00  0.00    -0.376 OA
BRANCH  21  22
ATOM     22  C   UNL     1       3.582   3.873   1.076  1.00  0.00     0.202 C 
BRANCH  22  23
ATOM     23  C   UNL     1       4.026   4.280   2.490  1.00  0.00     0.261 C 
BRANCH  23  24
ATOM     24  O   UNL     1       3.782   3.297   3.499  1.00  0.00    -0.460 OA
BRANCH  24  25
ATOM     25  C   UNL     1       2.885   3.666   4.441  1.00  0.00     0.338 C 
ATOM     26  O   UNL     1       2.319   4.746   4.545  1.00  0.00    -0.246 OA
BRANCH  25  27
ATOM     27  C   UNL     1       2.482   2.494   5.226  1.00  0.00     0.060 A 
ATOM     28  C   UNL     1       1.129   2.139   5.191  1.00  0.00     0.016 A 
ATOM     29  C   UNL     1       3.389   1.797   6.026  1.00  0.00     0.016 A 
ATOM     30  C   UNL     1       0.672   1.068   5.940  1.00  0.00     0.010 A 
ATOM     31  C   UNL     1       2.915   0.770   6.845  1.00  0.00     0.010 A 
ATOM     32  C   UNL     1       1.549   0.433   6.825  1.00  0.00    -0.014 A 
BRANCH  32  33
ATOM     33  C   UNL     1       0.926  -0.308   7.939  1.00  0.00     0.031 A 
ATOM     34  C   UNL     1       0.488   0.503   9.127  1.00  0.00     0.074 A 
ATOM     35  C   UNL     1       0.638  -1.614   7.841  1.00  0.00     0.049 A 
ATOM     36  N   UNL     1      -0.186   0.138  10.184  1.00  0.00    -0.248 NA
ATOM     37  C   UNL     1       0.843   1.935   9.106  1.00  0.00     0.031 C 
ATOM     38  C   UNL     1       0.948  -2.469   6.697  1.00  0.00     0.029 A 
ATOM     39  N   UNL     1      -0.004  -2.443   8.722  1.00  0.00    -0.354 N 
ATOM     40  C   UNL     1      -0.342   1.291  10.943  1.00  0.00     0.074 A 
ATOM     41  C   UNL     1       0.329   2.362  10.246  1.00  0.00     0.031 C 
ATOM     42  C   UNL     1       0.495  -3.710   6.950  1.00  0.00     0.029 A 
ATOM     43  C   UNL     1      -0.118  -3.736   8.277  1.00  0.00     0.049 A 
ATOM     44  H   UNL     1      -0.352  -2.140   9.592  1.00  0.00     0.167 HD
ATOM     45  C   UNL     1      -0.992   1.442  12.119  1.00  0.00     0.037 A 
ATOM     46  C   UNL     1      -0.654  -4.809   8.887  1.00  0.00     0.037 A 
ATOM     47  C   UNL     1      -1.634   0.363  12.815  1.00  0.00     0.049 A 
ATOM     48  C   UNL     1      -1.286  -4.633  10.245  1.00  0.00     0.074 A 
ATOM     49  C   UNL     1      -2.311   0.394  14.020  1.00  0.00     0.029 A 
ATOM     50  N   UNL     1      -1.660  -0.951  12.370  1.00  0.00    -0.354 N 
ATOM     51  N   UNL     1      -1.445  -3.539  10.953  1.00  0.00    -0.248 NA
ATOM     52  C   UNL     1      -1.822  -5.842  10.884  1.00  0.00     0.031 C 
ATOM     53  C   UNL     1      -2.692  -0.914  14.335  1.00  0.00     0.029 A 
ATOM     54  C   UNL     1      -2.317  -1.747  13.292  1.00  0.00     0.049 A 
ATOM     55  H   UNL     1      -1.270  -1.270  11.524  1.00  0.00     0.167 HD
ATOM     56  C   UNL     1      -2.136  -3.920  12.098  1.00  0.00     0.074 A 
ATOM     57  C   UNL     1      -2.371  -5.345  11.983  1.00  0.00     0.031 C 
ATOM     58  C   UNL     1      -2.545  -3.163  13.147  1.00  0.00     0.037 A 
BRANCH  45  59
ATOM     59  C   UNL     1      -0.977   2.808  12.740  1.00  0.00     0.057 A 
ATOM     60  C   UNL     1      -1.685   3.887  12.193  1.00  0.00     0.134 A 
ATOM     61  C   UNL     1      -0.230   3.048  13.899  1.00  0.00     0.134 A 
ATOM     62  F   UNL     1      -2.398   3.733  11.067  1.00  0.00    -0.206 F 
ATOM     63  C   UNL     1      -1.630   5.160  12.764  1.00  0.00     0.040 A 
ATOM     64  C   UNL     1      -0.191   4.309  14.496  1.00  0.00     0.040 A 
ATOM     65  F   UNL     1       0.478   2.062  14.470  1.00  0.00    -0.206 F 
ATOM     66  C   UNL     1      -0.887   5.372  13.923  1.00  0.00     0.006 A 
ENDBRANCH  45  59
BRANCH  46  67
ATOM     67  C   UNL     1      -0.618  -6.142   8.232  1.00  0.00     0.057 A 
ATOM     68  C   UNL     1      -1.790  -6.787   7.822  1.00  0.00     0.134 A 
ATOM     69  C   UNL     1       0.591  -6.821   8.034  1.00  0.00     0.134 A 
ATOM     70  F   UNL     1      -2.983  -6.201   8.005  1.00  0.00    -0.206 F 
ATOM     71  C   UNL     1      -1.766  -8.067   7.263  1.00  0.00     0.040 A 
ATOM     72  C   UNL     1       0.634  -8.088   7.451  1.00  0.00     0.040 A 
ATOM     73  F   UNL     1       1.752  -6.261   8.406  1.00  0.00    -0.206 F 
ATOM     74  C   UNL     1      -0.549  -8.719   7.072  1.00  0.00     0.006 A 
ENDBRANCH  46  67
BRANCH  58  75
ATOM     75  C   UNL     1      -3.338  -3.851  14.222  1.00  0.00     0.057 A 
ATOM     76  C   UNL     1      -2.762  -4.782  15.096  1.00  0.00     0.134 A 
ATOM     77  C   UNL     1      -4.694  -3.548  14.403  1.00  0.00     0.134 A 
ATOM     78  F   UNL     1      -1.470  -5.122  14.974  1.00  0.00    -0.206 F 
ATOM     79  C   UNL     1      -3.516  -5.415  16.086  1.00  0.00     0.040 A 
ATOM     80  C   UNL     1      -5.449  -4.147  15.411  1.00  0.00     0.040 A 
ATOM     81  F   UNL     1      -5.305  -2.652  13.612  1.00  0.00    -0.206 F 
ATOM     82  C   UNL     1      -4.863  -5.093  16.249  1.00  0.00     0.006 A 
ENDBRANCH  58  75
ENDBRANCH  32  33
ENDBRANCH  25  27
ENDBRANCH  24  25
ENDBRANCH  23  24
ENDBRANCH  22  23
ENDBRANCH  21  22
ENDBRANCH  20  21
ENDBRANCH   1  20
TORSDOF 19
