REMARK SMILES CN1CC(=O)N(CC(=O)N2CCCC[C@H]2C(=O)OCCOCCOCCOC(=O)c2ccc(-c3c4nc(c(-c5c(F)cccc5F)c5ccc([nH]5)c(-c5c(F)cccc5F)c5nc(c(-c6c(F)cccc6F)c6ccc3[nH]6)C=C5)C=C4)cc2)C1=O
REMARK SMILES IDX 22 1 21 2 20 3 19 4 18 5 16 6 17 7 15 8 10 9 11 10 12 11
REMARK SMILES IDX 14 12 13 13 8 14 9 15 7 16 6 17 1 18 2 19 3 20 84 21 4 22
REMARK SMILES IDX 85 23 5 24 23 25 24 26 25 27 26 28 27 29 28 30 29 31 30 32
REMARK SMILES IDX 31 33 83 34 32 35 82 36 33 37 34 38 35 39 76 40 36 41 81 42
REMARK SMILES IDX 75 43 77 44 37 45 80 46 74 47 73 48 38 50 64 51 47 52 63 53
REMARK SMILES IDX 48 54 51 55 62 56 78 57 49 58 50 59 61 61 79 62 52 63 39 64
REMARK SMILES IDX 40 65 45 66 41 67 42 68 44 69 46 70 43 71 65 72 66 73 71 74
REMARK SMILES IDX 67 75 68 76 70 77 72 78 69 79 53 80 54 81 59 82 55 83 56 84
REMARK SMILES IDX 58 85 60 86 57 87
REMARK H PARENT 77 49 51 60
REMARK Flexibility Score: inf
ROOT
ATOM      1  C   UNL     1      -2.877   1.808  -0.857  1.00  0.00     0.188 C 
ENDROOT
BRANCH   1   2
ATOM      2  O   UNL     1      -3.786   2.879  -1.088  1.00  0.00    -0.376 OA
BRANCH   2   3
ATOM      3  C   UNL     1      -4.193   3.709  -0.009  1.00  0.00     0.202 C 
BRANCH   3   4
ATOM      4  C   UNL     1      -4.987   3.037   1.114  1.00  0.00     0.261 C 
BRANCH   4   5
ATOM      5  O   UNL     1      -4.334   1.865   1.633  1.00  0.00    -0.462 OA
BRANCH   5   6
ATOM      6  C   UNL     1      -5.028   0.699   1.537  1.00  0.00     0.328 C 
ATOM      7  O   UNL     1      -6.206   0.627   1.212  1.00  0.00    -0.250 OA
BRANCH   6   8
ATOM      8  C   UNL     1      -4.142  -0.515   1.929  1.00  0.00     0.195 C 
ATOM      9  N   UNL     1      -4.377  -0.989   3.291  1.00  0.00    -0.327 N 
ATOM     10  C   UNL     1      -5.744  -1.449   3.540  1.00  0.00     0.120 C 
ATOM     11  C   UNL     1      -6.135  -2.575   2.583  1.00  0.00     0.022 C 
ATOM     12  C   UNL     1      -4.372  -1.690   0.963  1.00  0.00     0.037 C 
ATOM     13  C   UNL     1      -5.761  -2.317   1.121  1.00  0.00     0.005 C 
BRANCH   9  14
ATOM     14  C   UNL     1      -3.415  -1.120   4.285  1.00  0.00     0.243 C 
ATOM     15  O   UNL     1      -3.703  -1.624   5.377  1.00  0.00    -0.273 OA
BRANCH  14  16
ATOM     16  C   UNL     1      -2.007  -0.510   4.121  1.00  0.00     0.230 C 
BRANCH  16  17
ATOM     17  N   UNL     1      -1.060  -1.048   3.158  1.00  0.00    -0.253 N 
ATOM     18  C   UNL     1       2.009  -0.634   1.253  1.00  0.00     0.149 C 
ATOM     19  N   UNL     1       0.816  -1.083   1.941  1.00  0.00    -0.318 N 
ATOM     20  C   UNL     1       0.538  -2.476   2.175  1.00  0.00     0.221 C 
ATOM     21  C   UNL     1      -0.083  -0.268   2.601  1.00  0.00     0.327 C 
ATOM     22  C   UNL     1      -0.704  -2.362   3.051  1.00  0.00     0.250 C 
ATOM     23  O   UNL     1       0.011   0.943   2.706  1.00  0.00    -0.248 OA
ATOM     24  O   UNL     1      -1.274  -3.314   3.562  1.00  0.00    -0.272 OA
ENDBRANCH  16  17
ENDBRANCH  14  16
ENDBRANCH   9  14
ENDBRANCH   6   8
ENDBRANCH   5   6
ENDBRANCH   4   5
ENDBRANCH   3   4
ENDBRANCH   2   3
ENDBRANCH   1   2
BRANCH   1  25
ATOM     25  C   UNL     1      -1.822   1.882   0.263  1.00  0.00     0.188 C 
BRANCH  25  26
ATOM     26  O   UNL     1      -1.535   3.188   0.719  1.00  0.00    -0.376 OA
BRANCH  26  27
ATOM     27  C   UNL     1      -0.166   3.554   0.642  1.00  0.00     0.202 C 
BRANCH  27  28
ATOM     28  C   UNL     1       0.220   3.933  -0.788  1.00  0.00     0.261 C 
BRANCH  28  29
ATOM     29  O   UNL     1       0.061   2.856  -1.737  1.00  0.00    -0.460 OA
BRANCH  29  30
ATOM     30  C   UNL     1       0.967   1.853  -1.679  1.00  0.00     0.338 C 
ATOM     31  O   UNL     1       1.941   1.776  -0.956  1.00  0.00    -0.246 OA
BRANCH  30  32
ATOM     32  C   UNL     1       0.499   0.758  -2.555  1.00  0.00     0.060 A 
ATOM     33  C   UNL     1      -0.002  -0.423  -1.988  1.00  0.00     0.016 A 
ATOM     34  C   UNL     1       0.582   0.890  -3.939  1.00  0.00     0.016 A 
ATOM     35  C   UNL     1      -0.417  -1.478  -2.805  1.00  0.00     0.010 A 
ATOM     36  C   UNL     1       0.177  -0.171  -4.756  1.00  0.00     0.010 A 
ATOM     37  C   UNL     1      -0.315  -1.365  -4.197  1.00  0.00    -0.014 A 
BRANCH  37  38
ATOM     38  C   UNL     1      -0.645  -2.505  -5.090  1.00  0.00     0.031 A 
ATOM     39  C   UNL     1       0.467  -3.312  -5.698  1.00  0.00     0.074 A 
ATOM     40  C   UNL     1      -1.923  -2.789  -5.400  1.00  0.00     0.049 A 
ATOM     41  N   UNL     1       0.417  -4.209  -6.648  1.00  0.00    -0.248 NA
ATOM     42  C   UNL     1       1.816  -3.072  -5.162  1.00  0.00     0.031 C 
ATOM     43  C   UNL     1      -3.100  -2.126  -4.841  1.00  0.00     0.029 A 
ATOM     44  N   UNL     1      -2.440  -3.695  -6.295  1.00  0.00    -0.354 N 
ATOM     45  C   UNL     1       1.727  -4.627  -6.843  1.00  0.00     0.074 A 
ATOM     46  C   UNL     1       2.550  -3.882  -5.913  1.00  0.00     0.031 C 
ATOM     47  C   UNL     1      -4.201  -2.623  -5.433  1.00  0.00     0.029 A 
ATOM     48  C   UNL     1      -3.803  -3.598  -6.446  1.00  0.00     0.049 A 
ATOM     49  H   UNL     1      -1.888  -4.350  -6.781  1.00  0.00     0.167 HD
ATOM     50  C   UNL     1       2.200  -5.543  -7.721  1.00  0.00     0.037 A 
ATOM     51  C   UNL     1      -4.628  -4.186  -7.335  1.00  0.00     0.037 A 
ATOM     52  C   UNL     1       1.383  -6.287  -8.644  1.00  0.00     0.049 A 
ATOM     53  C   UNL     1      -4.064  -5.127  -8.368  1.00  0.00     0.074 A 
ATOM     54  C   UNL     1       1.774  -7.256  -9.553  1.00  0.00     0.029 A 
ATOM     55  N   UNL     1       0.012  -6.140  -8.783  1.00  0.00    -0.354 N 
ATOM     56  N   UNL     1      -2.826  -5.522  -8.542  1.00  0.00    -0.248 NA
ATOM     57  C   UNL     1      -5.014  -5.696  -9.338  1.00  0.00     0.031 C 
ATOM     58  C   UNL     1       0.648  -7.657 -10.278  1.00  0.00     0.029 A 
ATOM     59  C   UNL     1      -0.453  -6.976  -9.786  1.00  0.00     0.049 A 
ATOM     60  H   UNL     1      -0.548  -5.531  -8.249  1.00  0.00     0.167 HD
ATOM     61  C   UNL     1      -2.853  -6.400  -9.621  1.00  0.00     0.074 A 
ATOM     62  C   UNL     1      -4.232  -6.493 -10.051  1.00  0.00     0.031 C 
ATOM     63  C   UNL     1      -1.828  -7.066 -10.204  1.00  0.00     0.037 A 
BRANCH  50  64
ATOM     64  C   UNL     1       3.681  -5.776  -7.755  1.00  0.00     0.057 A 
ATOM     65  C   UNL     1       4.342  -6.493  -6.751  1.00  0.00     0.134 A 
ATOM     66  C   UNL     1       4.442  -5.334  -8.845  1.00  0.00     0.134 A 
ATOM     67  F   UNL     1       3.671  -6.931  -5.675  1.00  0.00    -0.206 F 
ATOM     68  C   UNL     1       5.711  -6.754  -6.824  1.00  0.00     0.040 A 
ATOM     69  C   UNL     1       5.807  -5.608  -8.941  1.00  0.00     0.040 A 
ATOM     70  F   UNL     1       3.868  -4.646  -9.843  1.00  0.00    -0.206 F 
ATOM     71  C   UNL     1       6.446  -6.319  -7.927  1.00  0.00     0.006 A 
ENDBRANCH  50  64
BRANCH  51  72
ATOM     72  C   UNL     1      -6.078  -3.862  -7.340  1.00  0.00     0.057 A 
ATOM     73  C   UNL     1      -7.036  -4.824  -7.002  1.00  0.00     0.134 A 
ATOM     74  C   UNL     1      -6.541  -2.600  -7.733  1.00  0.00     0.134 A 
ATOM     75  F   UNL     1      -6.655  -6.061  -6.648  1.00  0.00    -0.206 F 
ATOM     76  C   UNL     1      -8.403  -4.551  -7.076  1.00  0.00     0.040 A 
ATOM     77  C   UNL     1      -7.904  -2.305  -7.784  1.00  0.00     0.040 A 
ATOM     78  F   UNL     1      -5.674  -1.636  -8.075  1.00  0.00    -0.206 F 
ATOM     79  C   UNL     1      -8.840  -3.286  -7.464  1.00  0.00     0.006 A 
ENDBRANCH  51  72
BRANCH  63  80
ATOM     80  C   UNL     1      -2.158  -7.981 -11.348  1.00  0.00     0.057 A 
ATOM     81  C   UNL     1      -2.516  -7.489 -12.609  1.00  0.00     0.134 A 
ATOM     82  C   UNL     1      -2.081  -9.372 -11.196  1.00  0.00     0.134 A 
ATOM     83  F   UNL     1      -2.622  -6.168 -12.818  1.00  0.00    -0.206 F 
ATOM     84  C   UNL     1      -2.807  -8.347 -13.672  1.00  0.00     0.040 A 
ATOM     85  C   UNL     1      -2.343 -10.239 -12.258  1.00  0.00     0.040 A 
ATOM     86  F   UNL     1      -1.735  -9.911 -10.017  1.00  0.00    -0.206 F 
ATOM     87  C   UNL     1      -2.714  -9.726 -13.499  1.00  0.00     0.006 A 
ENDBRANCH  63  80
ENDBRANCH  37  38
ENDBRANCH  30  32
ENDBRANCH  29  30
ENDBRANCH  28  29
ENDBRANCH  27  28
ENDBRANCH  26  27
ENDBRANCH  25  26
ENDBRANCH   1  25
TORSDOF 20
