REMARK SMILES Cc1ccc(N2CCC[C@@H](Cn3cc(C(=O)OCCOCCOCCOC(=O)c4ccc(-c5c6nc(c(-c7c(F)cccc7F)c7ccc([nH]7)c(-c7c(F)cccc7F)c7nc(c(-c8c(F)cccc8F)c8ccc5[nH]8)C=C7)C=C6)cc4)nn3)C2)nn1
REMARK SMILES IDX 21 1 20 2 19 3 18 4 17 5 15 6 16 7 14 8 12 9 13 10 84 11
REMARK SMILES IDX 83 12 11 13 10 14 6 15 7 16 85 17 8 18 9 19 5 20 1 21 2 22
REMARK SMILES IDX 3 23 87 24 4 25 86 26 22 27 23 28 24 29 25 30 26 31 27 32
REMARK SMILES IDX 28 33 29 34 30 35 82 36 31 37 81 38 32 39 33 40 34 41 75 42
REMARK SMILES IDX 35 43 80 44 74 45 76 46 36 47 79 48 73 49 72 50 37 52 63 53
REMARK SMILES IDX 46 54 62 55 47 56 50 57 61 58 77 59 48 60 49 61 60 63 78 64
REMARK SMILES IDX 51 65 38 66 39 67 44 68 40 69 41 70 43 71 45 72 42 73 64 74
REMARK SMILES IDX 65 75 70 76 66 77 67 78 69 79 71 80 68 81 52 82 53 83 58 84
REMARK SMILES IDX 54 85 55 86 57 87 59 88 56 89
REMARK H PARENT 76 51 50 62
REMARK Flexibility Score: inf
ROOT
ATOM      1  C   UNL     1      -3.774  -6.002   9.496  1.00  0.00     0.188 C 
ENDROOT
BRANCH   1   2
ATOM      2  O   UNL     1      -3.074  -5.309  10.521  1.00  0.00    -0.376 OA
BRANCH   2   3
ATOM      3  C   UNL     1      -2.142  -4.284  10.192  1.00  0.00     0.202 C 
BRANCH   3   4
ATOM      4  C   UNL     1      -1.076  -4.485   9.096  1.00  0.00     0.261 C 
BRANCH   4   5
ATOM      5  O   UNL     1      -1.586  -4.955   7.842  1.00  0.00    -0.458 OA
BRANCH   5   6
ATOM      6  C   UNL     1      -1.249  -6.225   7.487  1.00  0.00     0.360 C 
ATOM      7  O   UNL     1      -0.383  -6.893   8.046  1.00  0.00    -0.244 OA
BRANCH   6   8
ATOM      8  C   UNL     1      -2.095  -6.749   6.428  1.00  0.00     0.190 A 
ATOM      9  N   UNL     1      -3.260  -7.023   4.636  1.00  0.00    -0.251 N 
ATOM     10  C   UNL     1      -2.874  -6.057   5.518  1.00  0.00     0.146 A 
ATOM     11  N   UNL     1      -3.054  -8.248   5.150  1.00  0.00    -0.067 NA
ATOM     12  N   UNL     1      -2.274  -8.095   6.212  1.00  0.00    -0.123 NA
BRANCH   9  13
ATOM     13  C   UNL     1      -3.385  -6.865   3.200  1.00  0.00     0.151 C 
BRANCH  13  14
ATOM     14  C   UNL     1      -2.025  -6.599   2.514  1.00  0.00     0.030 C 
ATOM     15  N   UNL     1      -0.214  -5.029   2.180  1.00  0.00    -0.355 N 
ATOM     16  C   UNL     1       0.832  -5.903   2.692  1.00  0.00     0.118 C 
ATOM     17  C   UNL     1      -1.516  -5.172   2.800  1.00  0.00     0.123 C 
ATOM     18  C   UNL     1       0.440  -7.331   2.330  1.00  0.00     0.022 C 
ATOM     19  C   UNL     1      -0.956  -7.669   2.857  1.00  0.00     0.009 C 
BRANCH  15  20
ATOM     20  C   UNL     1       0.141  -3.767   1.738  1.00  0.00     0.151 A 
ATOM     21  C   UNL     1       0.855   0.074   0.122  1.00  0.00     0.069 C 
ATOM     22  C   UNL     1       0.642  -1.294   0.682  1.00  0.00     0.060 A 
ATOM     23  C   UNL     1       1.112  -2.410   0.013  1.00  0.00     0.029 A 
ATOM     24  N   UNL     1      -0.040  -1.408   1.840  1.00  0.00    -0.154 NA
ATOM     25  C   UNL     1       0.869  -3.661   0.562  1.00  0.00     0.051 A 
ATOM     26  N   UNL     1      -0.305  -2.653   2.357  1.00  0.00    -0.133 NA
ENDBRANCH  15  20
ENDBRANCH  13  14
ENDBRANCH   9  13
ENDBRANCH   6   8
ENDBRANCH   5   6
ENDBRANCH   4   5
ENDBRANCH   3   4
ENDBRANCH   2   3
ENDBRANCH   1   2
BRANCH   1  27
ATOM     27  C   UNL     1      -4.495  -5.215   8.384  1.00  0.00     0.188 C 
BRANCH  27  28
ATOM     28  O   UNL     1      -4.005  -3.906   8.177  1.00  0.00    -0.376 OA
BRANCH  28  29
ATOM     29  C   UNL     1      -4.779  -2.774   8.552  1.00  0.00     0.202 C 
BRANCH  29  30
ATOM     30  C   UNL     1      -5.500  -2.697   9.903  1.00  0.00     0.261 C 
BRANCH  30  31
ATOM     31  O   UNL     1      -5.943  -3.932  10.432  1.00  0.00    -0.460 OA
BRANCH  31  32
ATOM     32  C   UNL     1      -7.044  -4.421   9.833  1.00  0.00     0.338 C 
ATOM     33  O   UNL     1      -7.607  -3.982   8.844  1.00  0.00    -0.246 OA
BRANCH  32  34
ATOM     34  C   UNL     1      -7.479  -5.605  10.572  1.00  0.00     0.060 A 
ATOM     35  C   UNL     1      -8.345  -6.471   9.904  1.00  0.00     0.016 A 
ATOM     36  C   UNL     1      -7.336  -5.595  11.966  1.00  0.00     0.016 A 
ATOM     37  C   UNL     1      -9.298  -7.110  10.655  1.00  0.00     0.010 A 
ATOM     38  C   UNL     1      -8.305  -6.213  12.713  1.00  0.00     0.010 A 
ATOM     39  C   UNL     1      -9.332  -6.858  12.031  1.00  0.00    -0.014 A 
BRANCH  39  40
ATOM     40  C   UNL     1     -10.538  -7.224  12.727  1.00  0.00     0.031 A 
ATOM     41  C   UNL     1     -10.628  -8.646  13.082  1.00  0.00     0.074 A 
ATOM     42  C   UNL     1     -11.488  -6.322  13.027  1.00  0.00     0.049 A 
ATOM     43  N   UNL     1     -11.421  -9.527  12.577  1.00  0.00    -0.248 NA
ATOM     44  C   UNL     1      -9.628  -9.175  14.015  1.00  0.00     0.031 C 
ATOM     45  C   UNL     1     -11.418  -4.860  12.974  1.00  0.00     0.029 A 
ATOM     46  N   UNL     1     -12.723  -6.559  13.539  1.00  0.00    -0.354 N 
ATOM     47  C   UNL     1     -11.143 -10.704  13.255  1.00  0.00     0.074 A 
ATOM     48  C   UNL     1      -9.940 -10.470  14.014  1.00  0.00     0.031 C 
ATOM     49  C   UNL     1     -12.483  -4.347  13.634  1.00  0.00     0.029 A 
ATOM     50  C   UNL     1     -13.358  -5.436  14.037  1.00  0.00     0.049 A 
ATOM     51  H   UNL     1     -13.132  -7.455  13.554  1.00  0.00     0.167 HD
ATOM     52  C   UNL     1     -12.052 -11.711  13.315  1.00  0.00     0.037 A 
ATOM     53  C   UNL     1     -14.482  -5.435  14.793  1.00  0.00     0.037 A 
ATOM     54  C   UNL     1     -13.071 -11.577  12.307  1.00  0.00     0.049 A 
ATOM     55  C   UNL     1     -15.172  -6.734  14.583  1.00  0.00     0.074 A 
ATOM     56  C   UNL     1     -13.074 -11.544  10.926  1.00  0.00     0.029 A 
ATOM     57  N   UNL     1     -14.300 -11.103  12.694  1.00  0.00    -0.354 N 
ATOM     58  N   UNL     1     -15.777  -7.068  13.477  1.00  0.00    -0.248 NA
ATOM     59  C   UNL     1     -14.824  -7.847  15.457  1.00  0.00     0.031 C 
ATOM     60  C   UNL     1     -14.112 -10.632  10.574  1.00  0.00     0.029 A 
ATOM     61  C   UNL     1     -14.693 -10.180  11.759  1.00  0.00     0.049 A 
ATOM     62  H   UNL     1     -14.806 -11.375  13.494  1.00  0.00     0.167 HD
ATOM     63  C   UNL     1     -15.505  -8.420  13.316  1.00  0.00     0.074 A 
ATOM     64  C   UNL     1     -15.011  -8.866  14.614  1.00  0.00     0.031 C 
ATOM     65  C   UNL     1     -15.436  -8.983  12.073  1.00  0.00     0.037 A 
BRANCH  52  66
ATOM     66  C   UNL     1     -12.213 -12.604  14.511  1.00  0.00     0.057 A 
ATOM     67  C   UNL     1     -11.854 -12.232  15.823  1.00  0.00     0.134 A 
ATOM     68  C   UNL     1     -13.019 -13.749  14.405  1.00  0.00     0.134 A 
ATOM     69  F   UNL     1     -11.171 -11.112  16.090  1.00  0.00    -0.206 F 
ATOM     70  C   UNL     1     -12.275 -12.940  16.949  1.00  0.00     0.040 A 
ATOM     71  C   UNL     1     -13.492 -14.431  15.530  1.00  0.00     0.040 A 
ATOM     72  F   UNL     1     -13.438 -14.186  13.209  1.00  0.00    -0.206 F 
ATOM     73  C   UNL     1     -13.126 -14.024  16.807  1.00  0.00     0.006 A 
ENDBRANCH  52  66
BRANCH  53  74
ATOM     74  C   UNL     1     -14.849  -4.501  15.877  1.00  0.00     0.057 A 
ATOM     75  C   UNL     1     -13.871  -3.847  16.649  1.00  0.00     0.134 A 
ATOM     76  C   UNL     1     -16.163  -4.422  16.354  1.00  0.00     0.134 A 
ATOM     77  F   UNL     1     -12.570  -3.926  16.335  1.00  0.00    -0.206 F 
ATOM     78  C   UNL     1     -14.180  -3.159  17.825  1.00  0.00     0.040 A 
ATOM     79  C   UNL     1     -16.485  -3.745  17.538  1.00  0.00     0.040 A 
ATOM     80  F   UNL     1     -17.160  -5.051  15.714  1.00  0.00    -0.206 F 
ATOM     81  C   UNL     1     -15.490  -3.118  18.282  1.00  0.00     0.006 A 
ENDBRANCH  53  74
BRANCH  65  82
ATOM     82  C   UNL     1     -15.929  -8.163  10.916  1.00  0.00     0.057 A 
ATOM     83  C   UNL     1     -16.958  -8.667  10.114  1.00  0.00     0.134 A 
ATOM     84  C   UNL     1     -15.330  -6.963  10.504  1.00  0.00     0.134 A 
ATOM     85  F   UNL     1     -17.535  -9.842  10.412  1.00  0.00    -0.206 F 
ATOM     86  C   UNL     1     -17.392  -7.998   8.967  1.00  0.00     0.040 A 
ATOM     87  C   UNL     1     -15.776  -6.267   9.377  1.00  0.00     0.040 A 
ATOM     88  F   UNL     1     -14.268  -6.462  11.148  1.00  0.00    -0.206 F 
ATOM     89  C   UNL     1     -16.809  -6.786   8.603  1.00  0.00     0.006 A 
ENDBRANCH  65  82
ENDBRANCH  39  40
ENDBRANCH  32  34
ENDBRANCH  31  32
ENDBRANCH  30  31
ENDBRANCH  29  30
ENDBRANCH  28  29
ENDBRANCH  27  28
ENDBRANCH   1  27
TORSDOF 20
