REMARK SMILES COc1cccc([C@@H]2CN(C(=O)CCSC)C[C@H]2C(=O)OCCOCCOCCOC(=O)c2ccc(-c3c4nc(c(-c5c(F)cccc5F)c5ccc([nH]5)c(-c5c(F)cccc5F)c5nc(c(-c6c(F)cccc6F)c6ccc3[nH]6)C=C5)C=C4)cc2)c1OC
REMARK SMILES IDX 25 1 24 2 23 3 22 4 21 5 19 6 20 7 18 8 8 9 9 10 10 11 17 12
REMARK SMILES IDX 7 13 3 14 4 15 87 16 5 17 6 18 2 19 1 20 88 21 89 22 11 23
REMARK SMILES IDX 12 24 13 25 14 26 15 27 16 28 26 29 27 30 28 31 29 32 30 33
REMARK SMILES IDX 31 34 32 35 33 36 34 37 86 38 35 39 85 40 36 41 37 42 38 43
REMARK SMILES IDX 79 44 39 45 84 46 78 47 80 48 40 49 83 50 77 51 76 52 41 54
REMARK SMILES IDX 67 55 50 56 66 57 51 58 54 59 65 60 81 61 52 62 53 63 64 65
REMARK SMILES IDX 82 66 55 67 42 68 43 69 48 70 44 71 45 72 47 73 49 74 46 75
REMARK SMILES IDX 68 76 69 77 74 78 70 79 71 80 73 81 75 82 72 83 56 84 57 85
REMARK SMILES IDX 62 86 58 87 59 88 61 89 63 90 60 91
REMARK H PARENT 80 53 54 64
REMARK Flexibility Score: inf
ROOT
ATOM      1  C   UNL     1       2.254   5.903   1.012  1.00  0.00     0.188 C 
ENDROOT
BRANCH   1   2
ATOM      2  O   UNL     1       2.969   6.889   1.744  1.00  0.00    -0.376 OA
BRANCH   2   3
ATOM      3  C   UNL     1       4.087   7.535   1.152  1.00  0.00     0.202 C 
BRANCH   3   4
ATOM      4  C   UNL     1       5.322   6.674   0.874  1.00  0.00     0.261 C 
BRANCH   4   5
ATOM      5  O   UNL     1       5.144   5.649  -0.131  1.00  0.00    -0.463 OA
BRANCH   5   6
ATOM      6  C   UNL     1       5.226   4.368   0.312  1.00  0.00     0.311 C 
ATOM      7  O   UNL     1       5.371   4.059   1.492  1.00  0.00    -0.252 OA
BRANCH   6   8
ATOM      8  C   UNL     1       5.241   3.313  -0.774  1.00  0.00     0.128 C 
ATOM      9  C   UNL     1       4.413   3.473  -2.074  1.00  0.00     0.059 C 
ATOM     10  C   UNL     1       5.321   2.936  -3.194  1.00  0.00     0.129 C 
ATOM     11  N   UNL     1       6.627   2.724  -2.612  1.00  0.00    -0.341 N 
ATOM     12  C   UNL     1       6.683   3.160  -1.235  1.00  0.00     0.135 C 
BRANCH   9  13
ATOM     13  C   UNL     1       3.050   2.768  -2.205  1.00  0.00     0.004 A 
ATOM     14  C   UNL     1       1.536   0.847  -2.011  1.00  0.00     0.161 A 
ATOM     15  C   UNL     1       0.583   1.509  -2.790  1.00  0.00     0.050 A 
ATOM     16  C   UNL     1       2.779   1.455  -1.739  1.00  0.00     0.164 A 
ATOM     17  C   UNL     1       0.852   2.781  -3.288  1.00  0.00     0.004 A 
ATOM     18  C   UNL     1       2.067   3.405  -2.994  1.00  0.00     0.008 A 
BRANCH  14  19
ATOM     19  O   UNL     1       1.306  -0.470  -1.701  1.00  0.00    -0.493 OA
ATOM     20  C   UNL     1       0.338  -0.631  -0.663  1.00  0.00     0.278 C 
ENDBRANCH  14  19
BRANCH  16  21
ATOM     21  O   UNL     1       3.837   0.801  -1.168  1.00  0.00    -0.493 OA
ATOM     22  C   UNL     1       3.571  -0.150  -0.146  1.00  0.00     0.278 C 
ENDBRANCH  16  21
ENDBRANCH   9  13
BRANCH  11  23
ATOM     23  C   UNL     1       7.719   2.155  -3.223  1.00  0.00     0.223 C 
ATOM     24  O   UNL     1       8.791   2.017  -2.631  1.00  0.00    -0.275 OA
BRANCH  23  25
ATOM     25  C   UNL     1       7.574   1.679  -4.653  1.00  0.00     0.111 C 
BRANCH  25  26
ATOM     26  C   UNL     1       7.635   0.158  -4.743  1.00  0.00     0.079 C 
BRANCH  26  27
ATOM     27  S   UNL     1       6.004  -0.647  -4.570  1.00  0.00    -0.165 SA
ATOM     28  C   UNL     1       5.975  -0.894  -2.778  1.00  0.00     0.085 C 
ENDBRANCH  26  27
ENDBRANCH  25  26
ENDBRANCH  23  25
ENDBRANCH  11  23
ENDBRANCH   6   8
ENDBRANCH   5   6
ENDBRANCH   4   5
ENDBRANCH   3   4
ENDBRANCH   2   3
ENDBRANCH   1   2
BRANCH   1  29
ATOM     29  C   UNL     1       2.190   5.984  -0.516  1.00  0.00     0.188 C 
BRANCH  29  30
ATOM     30  O   UNL     1       2.282   7.292  -1.051  1.00  0.00    -0.376 OA
BRANCH  30  31
ATOM     31  C   UNL     1       1.254   7.635  -1.970  1.00  0.00     0.202 C 
BRANCH  31  32
ATOM     32  C   UNL     1       0.003   8.102  -1.221  1.00  0.00     0.261 C 
BRANCH  32  33
ATOM     33  O   UNL     1      -0.615   7.062  -0.436  1.00  0.00    -0.460 OA
BRANCH  33  34
ATOM     34  C   UNL     1      -1.206   6.079  -1.142  1.00  0.00     0.338 C 
ATOM     35  O   UNL     1      -1.308   6.001  -2.362  1.00  0.00    -0.246 OA
BRANCH  34  36
ATOM     36  C   UNL     1      -1.551   4.977  -0.232  1.00  0.00     0.060 A 
ATOM     37  C   UNL     1      -0.799   3.805  -0.311  1.00  0.00     0.016 A 
ATOM     38  C   UNL     1      -2.656   5.044   0.613  1.00  0.00     0.016 A 
ATOM     39  C   UNL     1      -1.183   2.673   0.394  1.00  0.00     0.010 A 
ATOM     40  C   UNL     1      -3.047   3.897   1.319  1.00  0.00     0.010 A 
ATOM     41  C   UNL     1      -2.340   2.689   1.173  1.00  0.00    -0.014 A 
BRANCH  41  42
ATOM     42  C   UNL     1      -2.922   1.396   1.615  1.00  0.00     0.031 A 
ATOM     43  C   UNL     1      -4.131   0.874   0.884  1.00  0.00     0.074 A 
ATOM     44  C   UNL     1      -2.345   0.630   2.559  1.00  0.00     0.049 A 
ATOM     45  N   UNL     1      -4.906  -0.139   1.172  1.00  0.00    -0.248 NA
ATOM     46  C   UNL     1      -4.504   1.587  -0.348  1.00  0.00     0.031 C 
ATOM     47  C   UNL     1      -1.092   0.926   3.250  1.00  0.00     0.029 A 
ATOM     48  N   UNL     1      -2.749  -0.570   3.095  1.00  0.00    -0.354 N 
ATOM     49  C   UNL     1      -5.887  -0.152   0.189  1.00  0.00     0.074 A 
ATOM     50  C   UNL     1      -5.604   0.945  -0.710  1.00  0.00     0.031 C 
ATOM     51  C   UNL     1      -0.834  -0.063   4.125  1.00  0.00     0.029 A 
ATOM     52  C   UNL     1      -1.934  -1.026   4.102  1.00  0.00     0.049 A 
ATOM     53  H   UNL     1      -3.548  -1.056   2.786  1.00  0.00     0.167 HD
ATOM     54  C   UNL     1      -6.935  -0.997   0.049  1.00  0.00     0.037 A 
ATOM     55  C   UNL     1      -2.084  -2.071   4.939  1.00  0.00     0.037 A 
ATOM     56  C   UNL     1      -7.202  -2.110   0.919  1.00  0.00     0.049 A 
ATOM     57  C   UNL     1      -3.312  -2.941   4.833  1.00  0.00     0.074 A 
ATOM     58  C   UNL     1      -8.265  -2.995   0.887  1.00  0.00     0.029 A 
ATOM     59  N   UNL     1      -6.386  -2.500   1.968  1.00  0.00    -0.354 N 
ATOM     60  N   UNL     1      -4.293  -2.888   3.965  1.00  0.00    -0.248 NA
ATOM     61  C   UNL     1      -3.461  -4.004   5.838  1.00  0.00     0.031 C 
ATOM     62  C   UNL     1      -8.106  -3.906   1.938  1.00  0.00     0.029 A 
ATOM     63  C   UNL     1      -6.923  -3.610   2.596  1.00  0.00     0.049 A 
ATOM     64  H   UNL     1      -5.548  -2.054   2.228  1.00  0.00     0.167 HD
ATOM     65  C   UNL     1      -5.157  -3.924   4.302  1.00  0.00     0.074 A 
ATOM     66  C   UNL     1      -4.581  -4.595   5.447  1.00  0.00     0.031 C 
ATOM     67  C   UNL     1      -6.326  -4.284   3.718  1.00  0.00     0.037 A 
BRANCH  54  68
ATOM     68  C   UNL     1      -7.903  -0.708  -1.057  1.00  0.00     0.057 A 
ATOM     69  C   UNL     1      -7.605  -0.973  -2.398  1.00  0.00     0.134 A 
ATOM     70  C   UNL     1      -9.159  -0.160  -0.766  1.00  0.00     0.134 A 
ATOM     71  F   UNL     1      -6.409  -1.474  -2.742  1.00  0.00    -0.206 F 
ATOM     72  C   UNL     1      -8.516  -0.685  -3.416  1.00  0.00     0.040 A 
ATOM     73  C   UNL     1     -10.087   0.111  -1.772  1.00  0.00     0.040 A 
ATOM     74  F   UNL     1      -9.504   0.120   0.500  1.00  0.00    -0.206 F 
ATOM     75  C   UNL     1      -9.764  -0.147  -3.102  1.00  0.00     0.006 A 
ENDBRANCH  54  68
BRANCH  55  76
ATOM     76  C   UNL     1      -1.081  -2.332   6.004  1.00  0.00     0.057 A 
ATOM     77  C   UNL     1      -0.286  -3.483   5.987  1.00  0.00     0.134 A 
ATOM     78  C   UNL     1      -0.937  -1.465   7.094  1.00  0.00     0.134 A 
ATOM     79  F   UNL     1      -0.402  -4.369   4.986  1.00  0.00    -0.206 F 
ATOM     80  C   UNL     1       0.604  -3.773   7.024  1.00  0.00     0.040 A 
ATOM     81  C   UNL     1      -0.033  -1.728   8.124  1.00  0.00     0.040 A 
ATOM     82  F   UNL     1      -1.677  -0.349   7.174  1.00  0.00    -0.206 F 
ATOM     83  C   UNL     1       0.735  -2.890   8.095  1.00  0.00     0.006 A 
ENDBRANCH  55  76
BRANCH  67  84
ATOM     84  C   UNL     1      -7.034  -5.488   4.267  1.00  0.00     0.057 A 
ATOM     85  C   UNL     1      -7.726  -5.451   5.483  1.00  0.00     0.134 A 
ATOM     86  C   UNL     1      -7.062  -6.686   3.541  1.00  0.00     0.134 A 
ATOM     87  F   UNL     1      -7.728  -4.338   6.231  1.00  0.00    -0.206 F 
ATOM     88  C   UNL     1      -8.407  -6.570   5.967  1.00  0.00     0.040 A 
ATOM     89  C   UNL     1      -7.758  -7.803   4.003  1.00  0.00     0.040 A 
ATOM     90  F   UNL     1      -6.427  -6.784   2.363  1.00  0.00    -0.206 F 
ATOM     91  C   UNL     1      -8.430  -7.748   5.223  1.00  0.00     0.006 A 
ENDBRANCH  67  84
ENDBRANCH  41  42
ENDBRANCH  34  36
ENDBRANCH  33  34
ENDBRANCH  32  33
ENDBRANCH  31  32
ENDBRANCH  30  31
ENDBRANCH  29  30
ENDBRANCH   1  29
TORSDOF 24
