REMARK SMILES CC1(C)[C@H](O)CC[C@@]2(C)[C@@H]1CC[C@@]1(C)Oc3oc(C(=O)OCCOCCOCCOC(=O)c4ccc(-c5c6nc(c(-c7c(F)cccc7F)c7ccc([nH]7)c(-c7c(F)cccc7F)c7nc(c(-c8c(F)cccc8F)c8ccc5[nH]8)C=C7)C=C6)cc4)cc(=O)c3C[C@@H]21
REMARK SMILES IDX 26 1 25 2 24 3 23 4 22 5 21 6 19 7 20 8 18 9 1 10 2 11 4 12
REMARK SMILES IDX 10 13 3 14 6 15 8 16 11 17 7 18 92 19 9 20 12 21 13 22 91 23
REMARK SMILES IDX 15 24 14 25 90 26 16 27 88 28 17 29 87 30 89 31 5 32 27 34
REMARK SMILES IDX 28 35 29 36 30 37 31 38 32 39 33 40 34 41 86 42 35 43 85 44
REMARK SMILES IDX 36 45 37 46 38 47 79 48 39 49 84 50 78 51 80 52 40 53 83 54
REMARK SMILES IDX 77 55 76 56 41 58 67 59 50 60 66 61 51 62 54 63 65 64 81 65
REMARK SMILES IDX 52 66 53 67 64 69 82 70 55 71 42 72 43 73 48 74 44 75 45 76
REMARK SMILES IDX 47 77 49 78 46 79 68 80 69 81 74 82 70 83 71 84 73 85 75 86
REMARK SMILES IDX 72 87 56 88 57 89 62 90 58 91 59 92 61 93 63 94 60 95
REMARK H PARENT 5 33 80 57 54 68
REMARK Flexibility Score: inf
ROOT
ATOM      1  C   UNL     1      -4.271  -5.455  -4.897  1.00  0.00     0.188 C 
ENDROOT
BRANCH   1   2
ATOM      2  C   UNL     1      -3.693  -4.664  -6.093  1.00  0.00     0.188 C 
BRANCH   2   3
ATOM      3  O   UNL     1      -3.377  -5.301  -7.313  1.00  0.00    -0.376 OA
BRANCH   3   4
ATOM      4  C   UNL     1      -2.471  -6.385  -7.362  1.00  0.00     0.202 C 
BRANCH   4   5
ATOM      5  C   UNL     1      -1.197  -6.422  -6.515  1.00  0.00     0.261 C 
BRANCH   5   6
ATOM      6  O   UNL     1      -1.357  -6.050  -5.143  1.00  0.00    -0.457 OA
BRANCH   6   7
ATOM      7  C   UNL     1      -0.752  -4.889  -4.783  1.00  0.00     0.374 C 
ATOM      8  O   UNL     1      -0.123  -4.134  -5.506  1.00  0.00    -0.242 OA
BRANCH   7   9
ATOM      9  C   UNL     1      -0.989  -4.627  -3.352  1.00  0.00     0.219 A 
ATOM     10  C   UNL     1       0.330   1.554   0.776  1.00  0.00     0.014 C 
ATOM     11  C   UNL     1       0.035   0.308   1.643  1.00  0.00    -0.006 C 
ATOM     12  C   UNL     1       0.407   0.499   3.137  1.00  0.00     0.120 C 
ATOM     13  C   UNL     1      -1.532   0.039   1.747  1.00  0.00     0.004 C 
ATOM     14  C   UNL     1       1.008  -0.746   1.053  1.00  0.00     0.014 C 
ATOM     15  C   UNL     1      -0.012  -0.728   3.995  1.00  0.00     0.033 C 
ATOM     16  C   UNL     1      -1.943  -1.369   2.295  1.00  0.00    -0.022 C 
ATOM     17  C   UNL     1      -2.432   0.564   0.627  1.00  0.00     0.009 C 
ATOM     18  C   UNL     1      -0.820  -1.860   3.284  1.00  0.00     0.010 C 
ATOM     19  C   UNL     1      -2.368  -2.387   1.105  1.00  0.00     0.044 C 
ATOM     20  C   UNL     1      -3.186  -1.223   3.231  1.00  0.00     0.012 C 
ATOM     21  C   UNL     1      -2.525  -0.381  -0.536  1.00  0.00     0.049 C 
ATOM     22  C   UNL     1      -3.111  -1.738  -0.134  1.00  0.00     0.113 C 
ATOM     23  C   UNL     1      -1.223  -3.314   0.675  1.00  0.00     0.055 C 
ATOM     24  O   UNL     1      -3.123  -2.510  -1.358  1.00  0.00    -0.458 OA
ATOM     25  C   UNL     1      -4.626  -1.585   0.150  1.00  0.00     0.057 C 
ATOM     26  C   UNL     1      -1.263  -3.819  -0.717  1.00  0.00     0.081 A 
ATOM     27  C   UNL     1      -2.109  -3.378  -1.651  1.00  0.00     0.292 A 
ATOM     28  C   UNL     1      -0.257  -4.843  -1.086  1.00  0.00     0.192 A 
ATOM     29  O   UNL     1      -1.996  -3.754  -2.985  1.00  0.00    -0.418 OA
ATOM     30  C   UNL     1      -0.150  -5.213  -2.497  1.00  0.00     0.107 A 
ATOM     31  O   UNL     1       0.484  -5.359  -0.258  1.00  0.00    -0.289 OA
BRANCH  12  32
ATOM     32  O   UNL     1       1.788   0.781   3.326  1.00  0.00    -0.393 OA
ATOM     33  H   UNL     1       2.316   0.022   3.032  1.00  0.00     0.210 HD
ENDBRANCH  12  32
ENDBRANCH   7   9
ENDBRANCH   6   7
ENDBRANCH   5   6
ENDBRANCH   4   5
ENDBRANCH   3   4
ENDBRANCH   2   3
ENDBRANCH   1   2
BRANCH   1  34
ATOM     34  O   UNL     1      -4.631  -6.814  -5.031  1.00  0.00    -0.376 OA
BRANCH  34  35
ATOM     35  C   UNL     1      -5.561  -7.191  -6.032  1.00  0.00     0.202 C 
BRANCH  35  36
ATOM     36  C   UNL     1      -6.858  -6.400  -6.239  1.00  0.00     0.261 C 
BRANCH  36  37
ATOM     37  O   UNL     1      -6.671  -4.990  -6.441  1.00  0.00    -0.460 OA
BRANCH  37  38
ATOM     38  C   UNL     1      -7.269  -4.178  -5.536  1.00  0.00     0.338 C 
ATOM     39  O   UNL     1      -7.967  -4.503  -4.588  1.00  0.00    -0.246 OA
BRANCH  38  40
ATOM     40  C   UNL     1      -6.820  -2.793  -5.763  1.00  0.00     0.060 A 
ATOM     41  C   UNL     1      -5.928  -2.209  -4.852  1.00  0.00     0.016 A 
ATOM     42  C   UNL     1      -7.298  -2.067  -6.854  1.00  0.00     0.016 A 
ATOM     43  C   UNL     1      -5.499  -0.896  -5.040  1.00  0.00     0.010 A 
ATOM     44  C   UNL     1      -6.901  -0.737  -7.017  1.00  0.00     0.010 A 
ATOM     45  C   UNL     1      -6.015  -0.141  -6.101  1.00  0.00    -0.014 A 
BRANCH  45  46
ATOM     46  C   UNL     1      -5.798   1.325  -6.113  1.00  0.00     0.031 A 
ATOM     47  C   UNL     1      -6.784   2.189  -5.375  1.00  0.00     0.074 A 
ATOM     48  C   UNL     1      -4.745   1.880  -6.737  1.00  0.00     0.049 A 
ATOM     49  N   UNL     1      -6.801   3.488  -5.219  1.00  0.00    -0.248 NA
ATOM     50  C   UNL     1      -7.902   1.488  -4.721  1.00  0.00     0.031 C 
ATOM     51  C   UNL     1      -3.704   1.154  -7.462  1.00  0.00     0.029 A 
ATOM     52  N   UNL     1      -4.385   3.199  -6.862  1.00  0.00    -0.354 N 
ATOM     53  C   UNL     1      -7.920   3.757  -4.442  1.00  0.00     0.074 A 
ATOM     54  C   UNL     1      -8.575   2.494  -4.185  1.00  0.00     0.031 C 
ATOM     55  C   UNL     1      -2.830   2.041  -7.973  1.00  0.00     0.029 A 
ATOM     56  C   UNL     1      -3.260   3.395  -7.626  1.00  0.00     0.049 A 
ATOM     57  H   UNL     1      -4.886   3.936  -6.444  1.00  0.00     0.167 HD
ATOM     58  C   UNL     1      -8.361   4.950  -3.978  1.00  0.00     0.037 A 
ATOM     59  C   UNL     1      -2.661   4.540  -8.007  1.00  0.00     0.037 A 
ATOM     60  C   UNL     1      -7.732   6.212  -4.259  1.00  0.00     0.049 A 
ATOM     61  C   UNL     1      -3.225   5.861  -7.542  1.00  0.00     0.074 A 
ATOM     62  C   UNL     1      -8.100   7.474  -3.829  1.00  0.00     0.029 A 
ATOM     63  N   UNL     1      -6.613   6.373  -5.061  1.00  0.00    -0.354 N 
ATOM     64  N   UNL     1      -4.249   6.102  -6.758  1.00  0.00    -0.248 NA
ATOM     65  C   UNL     1      -2.535   7.073  -8.009  1.00  0.00     0.031 C 
ATOM     66  C   UNL     1      -7.236   8.406  -4.415  1.00  0.00     0.029 A 
ATOM     67  C   UNL     1      -6.291   7.717  -5.158  1.00  0.00     0.049 A 
ATOM     68  H   UNL     1      -6.120   5.641  -5.497  1.00  0.00     0.167 HD
ATOM     69  C   UNL     1      -4.296   7.484  -6.606  1.00  0.00     0.074 A 
ATOM     70  C   UNL     1      -3.187   8.025  -7.361  1.00  0.00     0.031 C 
ATOM     71  C   UNL     1      -5.176   8.241  -5.903  1.00  0.00     0.037 A 
BRANCH  58  72
ATOM     72  C   UNL     1      -9.606   4.942  -3.142  1.00  0.00     0.057 A 
ATOM     73  C   UNL     1     -10.803   5.469  -3.642  1.00  0.00     0.134 A 
ATOM     74  C   UNL     1      -9.615   4.437  -1.835  1.00  0.00     0.134 A 
ATOM     75  F   UNL     1     -10.861   5.966  -4.886  1.00  0.00    -0.206 F 
ATOM     76  C   UNL     1     -11.964   5.500  -2.869  1.00  0.00     0.040 A 
ATOM     77  C   UNL     1     -10.777   4.439  -1.062  1.00  0.00     0.040 A 
ATOM     78  F   UNL     1      -8.506   3.901  -1.305  1.00  0.00    -0.206 F 
ATOM     79  C   UNL     1     -11.954   4.980  -1.577  1.00  0.00     0.006 A 
ENDBRANCH  58  72
BRANCH  59  80
ATOM     80  C   UNL     1      -1.467   4.522  -8.895  1.00  0.00     0.057 A 
ATOM     81  C   UNL     1      -1.569   4.143 -10.238  1.00  0.00     0.134 A 
ATOM     82  C   UNL     1      -0.222   4.987  -8.450  1.00  0.00     0.134 A 
ATOM     83  F   UNL     1      -2.732   3.691 -10.730  1.00  0.00    -0.206 F 
ATOM     84  C   UNL     1      -0.483   4.244 -11.111  1.00  0.00     0.040 A 
ATOM     85  C   UNL     1       0.862   5.122  -9.319  1.00  0.00     0.040 A 
ATOM     86  F   UNL     1      -0.068   5.393  -7.181  1.00  0.00    -0.206 F 
ATOM     87  C   UNL     1       0.732   4.751 -10.656  1.00  0.00     0.006 A 
ENDBRANCH  59  80
BRANCH  71  88
ATOM     88  C   UNL     1      -4.931   9.724  -5.870  1.00  0.00     0.057 A 
ATOM     89  C   UNL     1      -4.529  10.350  -4.682  1.00  0.00     0.134 A 
ATOM     90  C   UNL     1      -5.080  10.534  -7.004  1.00  0.00     0.134 A 
ATOM     91  F   UNL     1      -4.381   9.640  -3.553  1.00  0.00    -0.206 F 
ATOM     92  C   UNL     1      -4.271  11.720  -4.627  1.00  0.00     0.040 A 
ATOM     93  C   UNL     1      -4.790  11.899  -6.970  1.00  0.00     0.040 A 
ATOM     94  F   UNL     1      -5.452   9.999  -8.177  1.00  0.00    -0.206 F 
ATOM     95  C   UNL     1      -4.387  12.496  -5.777  1.00  0.00     0.006 A 
ENDBRANCH  71  88
ENDBRANCH  45  46
ENDBRANCH  38  40
ENDBRANCH  37  38
ENDBRANCH  36  37
ENDBRANCH  35  36
ENDBRANCH  34  35
ENDBRANCH   1  34
TORSDOF 18
