REMARK SMILES Cn1nnnc1SCC[C@@H]1CCC[C@@]1([NH3+])C(=O)OCCOCCOCCOC(=O)c1ccc(-c2c3nc(c(-c4c(F)cccc4F)c4ccc([nH]4)c(-c4c(F)cccc4F)c4nc(c(-c5c(F)cccc5F)c5ccc2[nH]5)C=C4)C=C3)cc1
REMARK SMILES IDX 22 1 21 2 20 3 19 4 18 5 16 6 17 7 14 8 10 9 11 10 12 11
REMARK SMILES IDX 13 12 9 13 8 14 7 15 6 16 1 17 2 18 3 19 4 20 5 21 15 22
REMARK SMILES IDX 23 26 24 27 25 28 26 29 27 30 28 31 29 32 30 33 31 34 83 35
REMARK SMILES IDX 32 36 82 37 33 38 34 39 35 40 76 41 36 42 81 43 75 44 77 45
REMARK SMILES IDX 37 46 80 47 74 48 73 49 38 51 64 52 47 53 63 54 48 55 51 56
REMARK SMILES IDX 62 57 78 58 49 59 50 60 61 62 79 63 52 64 39 65 40 66 45 67
REMARK SMILES IDX 41 68 42 69 44 70 46 71 43 72 65 73 66 74 71 75 67 76 68 77
REMARK SMILES IDX 70 78 72 79 69 80 53 81 54 82 59 83 55 84 56 85 58 86 60 87
REMARK SMILES IDX 57 88
REMARK H PARENT 15 23 15 24 15 25 77 50 51 61
REMARK Flexibility Score: inf
ROOT
ATOM      1  C   UNL     1      -5.473   0.236  -2.250  1.00  0.00     0.188 C 
ENDROOT
BRANCH   1   2
ATOM      2  O   UNL     1      -4.928   0.341  -3.547  1.00  0.00    -0.376 OA
BRANCH   2   3
ATOM      3  C   UNL     1      -3.566   0.009  -3.726  1.00  0.00     0.202 C 
BRANCH   3   4
ATOM      4  C   UNL     1      -2.534   0.557  -2.739  1.00  0.00     0.261 C 
BRANCH   4   5
ATOM      5  O   UNL     1      -2.711   0.177  -1.347  1.00  0.00    -0.459 OA
BRANCH   5   6
ATOM      6  C   UNL     1      -2.866   1.192  -0.447  1.00  0.00     0.368 C 
ATOM      7  O   UNL     1      -2.962   2.368  -0.784  1.00  0.00    -0.245 OA
BRANCH   6   8
ATOM      8  C   UNL     1      -2.996   0.730   1.042  1.00  0.00     0.195 C 
ATOM      9  C   UNL     1      -2.105  -0.443   1.549  1.00  0.00     0.063 C 
ATOM     10  C   UNL     1      -2.122  -0.232   3.075  1.00  0.00     0.011 C 
ATOM     11  C   UNL     1      -2.057   1.279   3.261  1.00  0.00     0.008 C 
ATOM     12  C   UNL     1      -2.414   1.881   1.904  1.00  0.00     0.081 C 
BRANCH   9  13
ATOM     13  C   UNL     1      -2.470  -1.896   1.213  1.00  0.00     0.022 C 
BRANCH  13  14
ATOM     14  C   UNL     1      -1.631  -2.550   0.106  1.00  0.00     0.079 C 
BRANCH  14  15
ATOM     15  S   UNL     1       0.060  -3.011   0.542  1.00  0.00    -0.085 SA
BRANCH  15  16
ATOM     16  C   UNL     1       1.229  -1.743   0.409  1.00  0.00     0.209 A 
ATOM     17  C   UNL     1       0.259   0.110  -1.066  1.00  0.00     0.179 C 
ATOM     18  N   UNL     1       1.231  -0.558  -0.271  1.00  0.00    -0.224 N 
ATOM     19  N   UNL     1       2.413   0.065  -0.114  1.00  0.00    -0.045 NA
ATOM     20  N   UNL     1       3.140  -0.753   0.624  1.00  0.00    -0.023 NA
ATOM     21  N   UNL     1       2.424  -1.872   0.954  1.00  0.00    -0.102 NA
ENDBRANCH  15  16
ENDBRANCH  14  15
ENDBRANCH  13  14
ENDBRANCH   9  13
BRANCH   8  22
ATOM     22  N   UNL     1      -4.417   0.607   1.444  1.00  0.00    -0.343 N 
ATOM     23  H   UNL     1      -4.470   0.305   2.417  1.00  0.00     0.345 HD
ATOM     24  H   UNL     1      -4.881  -0.080   0.850  1.00  0.00     0.345 HD
ATOM     25  H   UNL     1      -4.878   1.511   1.343  1.00  0.00     0.345 HD
ENDBRANCH   8  22
ENDBRANCH   6   8
ENDBRANCH   5   6
ENDBRANCH   4   5
ENDBRANCH   3   4
ENDBRANCH   2   3
ENDBRANCH   1   2
BRANCH   1  26
ATOM     26  C   UNL     1      -5.301  -1.079  -1.462  1.00  0.00     0.188 C 
BRANCH  26  27
ATOM     27  O   UNL     1      -4.797  -2.244  -2.069  1.00  0.00    -0.376 OA
BRANCH  27  28
ATOM     28  C   UNL     1      -5.499  -2.846  -3.141  1.00  0.00     0.202 C 
BRANCH  28  29
ATOM     29  C   UNL     1      -7.032  -2.810  -3.274  1.00  0.00     0.261 C 
BRANCH  29  30
ATOM     30  O   UNL     1      -7.691  -1.604  -2.861  1.00  0.00    -0.460 OA
BRANCH  30  31
ATOM     31  C   UNL     1      -8.388  -1.680  -1.700  1.00  0.00     0.338 C 
ATOM     32  O   UNL     1      -8.529  -2.668  -0.992  1.00  0.00    -0.246 OA
BRANCH  31  33
ATOM     33  C   UNL     1      -8.761  -0.319  -1.252  1.00  0.00     0.060 A 
ATOM     34  C   UNL     1      -8.326   0.114   0.012  1.00  0.00     0.016 A 
ATOM     35  C   UNL     1      -9.528   0.523  -2.058  1.00  0.00     0.016 A 
ATOM     36  C   UNL     1      -8.706   1.364   0.500  1.00  0.00     0.010 A 
ATOM     37  C   UNL     1      -9.935   1.765  -1.556  1.00  0.00     0.010 A 
ATOM     38  C   UNL     1      -9.570   2.166  -0.255  1.00  0.00    -0.014 A 
BRANCH  38  39
ATOM     39  C   UNL     1     -10.341   3.239   0.425  1.00  0.00     0.031 A 
ATOM     40  C   UNL     1     -11.716   2.889   0.933  1.00  0.00     0.074 A 
ATOM     41  C   UNL     1      -9.848   4.472   0.631  1.00  0.00     0.049 A 
ATOM     42  N   UNL     1     -12.611   3.640   1.522  1.00  0.00    -0.248 NA
ATOM     43  C   UNL     1     -12.139   1.492   0.737  1.00  0.00     0.031 C 
ATOM     44  C   UNL     1      -8.514   4.929   0.257  1.00  0.00     0.029 A 
ATOM     45  N   UNL     1     -10.434   5.570   1.214  1.00  0.00    -0.354 N 
ATOM     46  C   UNL     1     -13.702   2.811   1.754  1.00  0.00     0.074 A 
ATOM     47  C   UNL     1     -13.375   1.515   1.202  1.00  0.00     0.031 C 
ATOM     48  C   UNL     1      -8.380   6.218   0.621  1.00  0.00     0.029 A 
ATOM     49  C   UNL     1      -9.631   6.683   1.222  1.00  0.00     0.049 A 
ATOM     50  H   UNL     1     -11.343   5.559   1.590  1.00  0.00     0.167 HD
ATOM     51  C   UNL     1     -14.871   3.093   2.377  1.00  0.00     0.037 A 
ATOM     52  C   UNL     1      -9.886   7.934   1.656  1.00  0.00     0.037 A 
ATOM     53  C   UNL     1     -15.206   4.385   2.914  1.00  0.00     0.049 A 
ATOM     54  C   UNL     1     -11.232   8.259   2.254  1.00  0.00     0.074 A 
ATOM     55  C   UNL     1     -16.364   4.776   3.563  1.00  0.00     0.029 A 
ATOM     56  N   UNL     1     -14.387   5.502   2.849  1.00  0.00    -0.354 N 
ATOM     57  N   UNL     1     -12.255   7.470   2.478  1.00  0.00    -0.248 NA
ATOM     58  C   UNL     1     -11.453   9.655   2.664  1.00  0.00     0.031 C 
ATOM     59  C   UNL     1     -16.270   6.145   3.835  1.00  0.00     0.029 A 
ATOM     60  C   UNL     1     -15.024   6.590   3.422  1.00  0.00     0.049 A 
ATOM     61  H   UNL     1     -13.485   5.519   2.454  1.00  0.00     0.167 HD
ATOM     62  C   UNL     1     -13.220   8.259   3.097  1.00  0.00     0.074 A 
ATOM     63  C   UNL     1     -12.659   9.590   3.210  1.00  0.00     0.031 C 
ATOM     64  C   UNL     1     -14.454   7.910   3.542  1.00  0.00     0.037 A 
BRANCH  51  65
ATOM     65  C   UNL     1     -15.882   1.984   2.454  1.00  0.00     0.057 A 
ATOM     66  C   UNL     1     -15.670   0.831   3.223  1.00  0.00     0.134 A 
ATOM     67  C   UNL     1     -17.068   2.053   1.712  1.00  0.00     0.134 A 
ATOM     68  F   UNL     1     -14.546   0.690   3.943  1.00  0.00    -0.206 F 
ATOM     69  C   UNL     1     -16.574  -0.234   3.209  1.00  0.00     0.040 A 
ATOM     70  C   UNL     1     -17.997   1.011   1.720  1.00  0.00     0.040 A 
ATOM     71  F   UNL     1     -17.339   3.128   0.957  1.00  0.00    -0.206 F 
ATOM     72  C   UNL     1     -17.743  -0.143   2.457  1.00  0.00     0.006 A 
ENDBRANCH  51  65
BRANCH  52  73
ATOM     73  C   UNL     1      -8.835   8.982   1.562  1.00  0.00     0.057 A 
ATOM     74  C   UNL     1      -8.229   9.498   2.714  1.00  0.00     0.134 A 
ATOM     75  C   UNL     1      -8.425   9.504   0.330  1.00  0.00     0.134 A 
ATOM     76  F   UNL     1      -8.601   9.059   3.926  1.00  0.00    -0.206 F 
ATOM     77  C   UNL     1      -7.261  10.501   2.646  1.00  0.00     0.040 A 
ATOM     78  C   UNL     1      -7.440  10.490   0.245  1.00  0.00     0.040 A 
ATOM     79  F   UNL     1      -8.971   9.058  -0.811  1.00  0.00    -0.206 F 
ATOM     80  C   UNL     1      -6.859  10.995   1.407  1.00  0.00     0.006 A 
ENDBRANCH  52  73
BRANCH  64  81
ATOM     81  C   UNL     1     -15.261   8.960   4.256  1.00  0.00     0.057 A 
ATOM     82  C   UNL     1     -15.810  10.066   3.596  1.00  0.00     0.134 A 
ATOM     83  C   UNL     1     -15.524   8.835   5.628  1.00  0.00     0.134 A 
ATOM     84  F   UNL     1     -15.592  10.253   2.285  1.00  0.00    -0.206 F 
ATOM     85  C   UNL     1     -16.562  11.025   4.278  1.00  0.00     0.040 A 
ATOM     86  C   UNL     1     -16.302   9.769   6.314  1.00  0.00     0.040 A 
ATOM     87  F   UNL     1     -15.042   7.794   6.323  1.00  0.00    -0.206 F 
ATOM     88  C   UNL     1     -16.816  10.874   5.640  1.00  0.00     0.006 A 
ENDBRANCH  64  81
ENDBRANCH  38  39
ENDBRANCH  31  33
ENDBRANCH  30  31
ENDBRANCH  29  30
ENDBRANCH  28  29
ENDBRANCH  27  28
ENDBRANCH  26  27
ENDBRANCH   1  26
TORSDOF 22
