REMARK SMILES Cc1ccc(N2C(=O)N=C(OCCOCCOCCOC(=O)c3ccc(-c4c5nc(c(-c6c(F)cccc6F)c6ccc([nH]6)c(-c6c(F)cccc6F)c6nc(c(-c7c(F)cccc7F)c7ccc4[nH]7)C=C6)C=C5)cc3)/C(=C/c3ccccc3OCc3cccc(C(=O)[O-])c3)C2=O)cc1
REMARK SMILES IDX 15 1 14 2 13 3 12 4 11 5 10 6 6 7 7 8 96 9 8 10 9 11 77 12
REMARK SMILES IDX 97 13 78 14 5 15 1 16 2 17 3 18 99 19 4 20 98 21 79 22 80 23
REMARK SMILES IDX 84 24 81 25 83 26 82 27 85 28 86 29 87 30 88 31 95 32 89 33
REMARK SMILES IDX 91 34 90 35 92 36 93 37 94 38 16 39 17 40 18 41 19 42 20 43
REMARK SMILES IDX 21 44 22 45 23 46 24 47 76 48 25 49 75 50 26 51 27 52 28 53
REMARK SMILES IDX 69 54 29 55 74 56 68 57 70 58 30 59 73 60 67 61 66 62 31 64
REMARK SMILES IDX 57 65 40 66 56 67 41 68 44 69 55 70 71 71 42 72 43 73 54 75
REMARK SMILES IDX 72 76 45 77 32 78 33 79 38 80 34 81 35 82 37 83 39 84 36 85
REMARK SMILES IDX 58 86 59 87 64 88 60 89 61 90 63 91 65 92 62 93 46 94 47 95
REMARK SMILES IDX 52 96 48 97 49 98 51 99 53 100 50 101
REMARK H PARENT 70 63 44 74
REMARK Flexibility Score: inf
ROOT
ATOM      1  C   UNL     1      -6.526   6.256  -0.508  1.00  0.00     0.188 C 
ENDROOT
BRANCH   1   2
ATOM      2  O   UNL     1      -7.947   6.119  -0.619  1.00  0.00    -0.376 OA
BRANCH   2   3
ATOM      3  C   UNL     1      -8.350   4.849  -1.147  1.00  0.00     0.201 C 
BRANCH   3   4
ATOM      4  C   UNL     1      -8.131   3.707  -0.157  1.00  0.00     0.260 C 
BRANCH   4   5
ATOM      5  O   UNL     1      -6.724   3.668   0.250  1.00  0.00    -0.475 OA
BRANCH   5   6
ATOM      6  C   UNL     1      -5.551   3.077  -0.021  1.00  0.00     0.231 C 
ATOM      7  N   UNL     1      -3.055   1.875  -0.018  1.00  0.00    -0.226 N 
ATOM      8  C   UNL     1      -3.401   2.869   0.874  1.00  0.00     0.358 C 
ATOM      9  C   UNL     1      -4.114   1.147  -0.516  1.00  0.00     0.272 C 
ATOM     10  O   UNL     1      -2.709   3.125   1.857  1.00  0.00    -0.245 OA
ATOM     11  N   UNL     1      -4.602   3.494   0.737  1.00  0.00    -0.156 NA
ATOM     12  C   UNL     1      -5.456   1.937  -0.964  1.00  0.00     0.103 C 
ATOM     13  O   UNL     1      -3.980  -0.078  -0.536  1.00  0.00    -0.268 OA
ATOM     14  C   UNL     1      -6.687   1.802  -1.622  1.00  0.00     0.031 C 
BRANCH   7  15
ATOM     15  C   UNL     1      -1.673   1.335   0.025  1.00  0.00     0.054 A 
ATOM     16  C   UNL     1       2.497  -0.036   0.021  1.00  0.00     0.044 C 
ATOM     17  C   UNL     1       1.073   0.441   0.014  1.00  0.00    -0.051 A 
ATOM     18  C   UNL     1       0.028  -0.454  -0.192  1.00  0.00     0.005 A 
ATOM     19  C   UNL     1       0.748   1.777   0.247  1.00  0.00     0.005 A 
ATOM     20  C   UNL     1      -1.312  -0.013  -0.199  1.00  0.00     0.027 A 
ATOM     21  C   UNL     1      -0.594   2.209   0.252  1.00  0.00     0.027 A 
ENDBRANCH   7  15
BRANCH  14  22
ATOM     22  C   UNL     1      -7.990   0.962  -2.327  1.00  0.00     0.018 A 
ATOM     23  C   UNL     1      -8.737   1.880  -3.118  1.00  0.00     0.012 A 
ATOM     24  C   UNL     1      -8.638  -0.444  -2.251  1.00  0.00     0.127 A 
ATOM     25  C   UNL     1     -10.017   1.604  -3.620  1.00  0.00     0.001 A 
ATOM     26  C   UNL     1      -9.961  -0.632  -2.715  1.00  0.00     0.047 A 
ATOM     27  C   UNL     1     -10.644   0.391  -3.364  1.00  0.00     0.004 A 
BRANCH  24  28
ATOM     28  O   UNL     1      -8.017  -1.982  -2.258  1.00  0.00    -0.488 OA
BRANCH  28  29
ATOM     29  C   UNL     1      -6.570  -2.888  -2.052  1.00  0.00     0.265 C 
BRANCH  29  30
ATOM     30  C   UNL     1      -5.800  -3.721  -0.938  1.00  0.00    -0.010 A 
ATOM     31  C   UNL     1      -4.424  -3.503  -0.725  1.00  0.00     0.007 A 
ATOM     32  C   UNL     1      -6.305  -4.904  -0.384  1.00  0.00     0.017 A 
ATOM     33  C   UNL     1      -3.625  -4.428  -0.022  1.00  0.00     0.001 A 
ATOM     34  C   UNL     1      -5.535  -5.826   0.337  1.00  0.00    -0.002 A 
ATOM     35  C   UNL     1      -4.176  -5.600   0.497  1.00  0.00     0.010 A 
BRANCH  34  36
ATOM     36  C   UNL     1      -6.151  -7.085   0.825  1.00  0.00     0.071 C 
ATOM     37  O   UNL     1      -5.577  -8.134   1.031  1.00  0.00    -0.545 OA
ATOM     38  O   UNL     1      -7.476  -6.948   1.025  1.00  0.00    -0.545 OA
ENDBRANCH  34  36
ENDBRANCH  29  30
ENDBRANCH  28  29
ENDBRANCH  24  28
ENDBRANCH  14  22
ENDBRANCH   5   6
ENDBRANCH   4   5
ENDBRANCH   3   4
ENDBRANCH   2   3
ENDBRANCH   1   2
BRANCH   1  39
ATOM     39  C   UNL     1      -6.045   6.458   0.940  1.00  0.00     0.188 C 
BRANCH  39  40
ATOM     40  O   UNL     1      -6.519   5.550   1.926  1.00  0.00    -0.376 OA
BRANCH  40  41
ATOM     41  C   UNL     1      -7.771   5.850   2.531  1.00  0.00     0.202 C 
BRANCH  41  42
ATOM     42  C   UNL     1      -7.807   5.125   3.884  1.00  0.00     0.261 C 
BRANCH  42  43
ATOM     43  O   UNL     1      -7.874   3.699   3.651  1.00  0.00    -0.460 OA
BRANCH  43  44
ATOM     44  C   UNL     1      -6.744   2.965   3.866  1.00  0.00     0.338 C 
ATOM     45  O   UNL     1      -5.806   3.273   4.578  1.00  0.00    -0.246 OA
BRANCH  44  46
ATOM     46  C   UNL     1      -6.769   1.750   2.983  1.00  0.00     0.060 A 
ATOM     47  C   UNL     1      -5.622   0.964   2.788  1.00  0.00     0.016 A 
ATOM     48  C   UNL     1      -7.887   1.466   2.211  1.00  0.00     0.016 A 
ATOM     49  C   UNL     1      -5.545   0.020   1.727  1.00  0.00     0.010 A 
ATOM     50  C   UNL     1      -7.768   0.606   1.115  1.00  0.00     0.010 A 
ATOM     51  C   UNL     1      -6.561  -0.062   0.770  1.00  0.00    -0.014 A 
BRANCH  51  52
ATOM     52  C   UNL     1      -6.654  -0.898  -0.549  1.00  0.00     0.031 A 
ATOM     53  C   UNL     1      -7.948  -1.988   0.019  1.00  0.00     0.074 A 
ATOM     54  C   UNL     1      -6.066  -0.632  -2.002  1.00  0.00     0.049 A 
ATOM     55  N   UNL     1      -9.096  -2.325  -0.525  1.00  0.00    -0.248 NA
ATOM     56  C   UNL     1      -7.790  -2.762   1.259  1.00  0.00     0.031 C 
ATOM     57  C   UNL     1      -6.704  -0.808  -3.572  1.00  0.00     0.029 A 
ATOM     58  N   UNL     1      -4.869  -0.151  -2.591  1.00  0.00    -0.354 N 
ATOM     59  C   UNL     1      -9.387  -3.627  -0.225  1.00  0.00     0.074 A 
ATOM     60  C   UNL     1      -8.717  -3.727   1.088  1.00  0.00     0.031 C 
ATOM     61  C   UNL     1      -6.127  -0.095  -4.514  1.00  0.00     0.029 A 
ATOM     62  C   UNL     1      -4.837   0.045  -3.976  1.00  0.00     0.049 A 
ATOM     63  H   UNL     1      -4.078   0.040  -2.038  1.00  0.00     0.167 HD
ATOM     64  C   UNL     1      -9.557  -4.662  -1.164  1.00  0.00     0.037 A 
ATOM     65  C   UNL     1      -3.898  -0.399  -4.828  1.00  0.00     0.037 A 
ATOM     66  C   UNL     1      -9.014  -4.604  -2.611  1.00  0.00     0.049 A 
ATOM     67  C   UNL     1      -4.126  -1.884  -5.209  1.00  0.00     0.074 A 
ATOM     68  C   UNL     1      -9.405  -3.962  -3.788  1.00  0.00     0.029 A 
ATOM     69  N   UNL     1      -7.887  -5.372  -3.091  1.00  0.00    -0.354 N 
ATOM     70  N   UNL     1      -5.224  -2.591  -4.941  1.00  0.00    -0.248 NA
ATOM     71  C   UNL     1      -3.157  -2.702  -5.917  1.00  0.00     0.031 C 
ATOM     72  C   UNL     1      -8.360  -4.042  -4.785  1.00  0.00     0.029 A 
ATOM     73  C   UNL     1      -7.298  -4.785  -4.290  1.00  0.00     0.049 A 
ATOM     74  H   UNL     1      -7.557  -6.194  -2.660  1.00  0.00     0.167 HD
ATOM     75  C   UNL     1      -5.045  -3.937  -5.192  1.00  0.00     0.074 A 
ATOM     76  C   UNL     1      -3.755  -3.911  -5.901  1.00  0.00     0.031 C 
ATOM     77  C   UNL     1      -5.849  -4.994  -4.740  1.00  0.00     0.037 A 
BRANCH  64  78
ATOM     78  C   UNL     1     -10.764  -5.542  -0.855  1.00  0.00     0.057 A 
ATOM     79  C   UNL     1     -11.646  -5.921  -1.887  1.00  0.00     0.134 A 
ATOM     80  C   UNL     1     -11.167  -5.949   0.430  1.00  0.00     0.134 A 
ATOM     81  F   UNL     1     -11.406  -5.628  -3.171  1.00  0.00    -0.206 F 
ATOM     82  C   UNL     1     -12.847  -6.600  -1.655  1.00  0.00     0.040 A 
ATOM     83  C   UNL     1     -12.379  -6.607   0.679  1.00  0.00     0.040 A 
ATOM     84  F   UNL     1     -10.410  -5.751   1.513  1.00  0.00    -0.206 F 
ATOM     85  C   UNL     1     -13.229  -6.928  -0.365  1.00  0.00     0.006 A 
ENDBRANCH  64  78
BRANCH  65  86
ATOM     86  C   UNL     1      -2.963   0.755  -4.924  1.00  0.00     0.057 A 
ATOM     87  C   UNL     1      -3.539   2.014  -5.301  1.00  0.00     0.134 A 
ATOM     88  C   UNL     1      -1.878   0.834  -4.052  1.00  0.00     0.134 A 
ATOM     89  F   UNL     1      -4.626   2.046  -6.095  1.00  0.00    -0.206 F 
ATOM     90  C   UNL     1      -3.180   3.228  -4.697  1.00  0.00     0.040 A 
ATOM     91  C   UNL     1      -1.471   2.060  -3.490  1.00  0.00     0.040 A 
ATOM     92  F   UNL     1      -1.311  -0.291  -3.595  1.00  0.00    -0.206 F 
ATOM     93  C   UNL     1      -2.155   3.247  -3.765  1.00  0.00     0.006 A 
ENDBRANCH  65  86
BRANCH  77  94
ATOM     94  C   UNL     1      -5.255  -6.399  -4.680  1.00  0.00     0.057 A 
ATOM     95  C   UNL     1      -3.884  -6.684  -4.495  1.00  0.00     0.134 A 
ATOM     96  C   UNL     1      -6.087  -7.533  -4.695  1.00  0.00     0.134 A 
ATOM     97  F   UNL     1      -2.980  -5.715  -4.287  1.00  0.00    -0.206 F 
ATOM     98  C   UNL     1      -3.373  -7.987  -4.467  1.00  0.00     0.040 A 
ATOM     99  C   UNL     1      -5.597  -8.839  -4.578  1.00  0.00     0.040 A 
ATOM    100  F   UNL     1      -7.419  -7.420  -4.795  1.00  0.00    -0.206 F 
ATOM    101  C   UNL     1      -4.233  -9.073  -4.500  1.00  0.00     0.006 A 
ENDBRANCH  77  94
ENDBRANCH  51  52
ENDBRANCH  44  46
ENDBRANCH  43  44
ENDBRANCH  42  43
ENDBRANCH  41  42
ENDBRANCH  40  41
ENDBRANCH  39  40
ENDBRANCH   1  39
TORSDOF 22
