REMARK SMILES O=C(OCCOCCOCCOC(=O)[C@H]1CC2(CC[NH+](C(=O)C3CC3)CC2)CN1C(=O)CCn1cccn1)c1ccc(-c2c3nc(c(-c4c(F)cccc4F)c4ccc([nH]4)c(-c4c(F)cccc4F)c4nc(c(-c5c(F)cccc5F)c5ccc2[nH]5)C=C4)C=C3)cc1
REMARK SMILES IDX 8 1 7 2 6 3 5 4 4 5 3 6 2 7 1 8 39 9 40 10 92 11 41 12 91 13
REMARK SMILES IDX 42 14 43 15 44 16 85 17 45 18 90 19 84 20 86 21 46 22 89 23
REMARK SMILES IDX 83 24 82 25 47 27 73 28 56 29 72 30 57 31 60 32 71 33 87 34
REMARK SMILES IDX 58 35 59 36 70 38 88 39 61 40 48 41 49 42 54 43 50 44 51 45
REMARK SMILES IDX 53 46 55 47 52 48 74 49 75 50 80 51 76 52 77 53 79 54 81 55
REMARK SMILES IDX 78 56 62 57 63 58 68 59 64 60 65 61 67 62 69 63 66 64 9 65
REMARK SMILES IDX 10 66 11 67 12 68 13 69 14 70 15 71 16 72 29 73 17 74 28 75
REMARK SMILES IDX 18 76 27 77 19 78 26 79 20 80 30 82 31 83 32 84 33 85 34 86
REMARK SMILES IDX 35 87 38 88 36 89 37 90 21 91 22 92 23 93 24 94 25 95
REMARK H PARENT 86 26 60 37 20 81
REMARK Flexibility Score: inf
ROOT
ATOM      1  C   UNL     1      -1.356   1.665  -1.979  1.00  0.00     0.188 C 
ENDROOT
BRANCH   1   2
ATOM      2  C   UNL     1      -0.206   1.087  -1.110  1.00  0.00     0.188 C 
BRANCH   2   3
ATOM      3  O   UNL     1      -0.380  -0.126  -0.390  1.00  0.00    -0.376 OA
BRANCH   3   4
ATOM      4  C   UNL     1      -1.670  -0.411   0.118  1.00  0.00     0.202 C 
BRANCH   4   5
ATOM      5  C   UNL     1      -2.099   0.421   1.328  1.00  0.00     0.261 C 
BRANCH   5   6
ATOM      6  O   UNL     1      -2.173   1.831   1.034  1.00  0.00    -0.460 OA
BRANCH   6   7
ATOM      7  C   UNL     1      -1.306   2.850   1.207  1.00  0.00     0.338 C 
ATOM      8  O   UNL     1      -1.567   3.929   0.673  1.00  0.00    -0.246 OA
BRANCH   7   9
ATOM      9  C   UNL     1      -0.044   2.770   1.998  1.00  0.00     0.060 A 
ATOM     10  C   UNL     1       0.571   1.605   2.455  1.00  0.00     0.016 A 
ATOM     11  C   UNL     1       0.573   4.006   2.277  1.00  0.00     0.016 A 
ATOM     12  C   UNL     1       1.598   1.682   3.384  1.00  0.00     0.010 A 
ATOM     13  C   UNL     1       1.646   4.088   3.145  1.00  0.00     0.010 A 
ATOM     14  C   UNL     1       2.078   2.931   3.777  1.00  0.00    -0.014 A 
BRANCH  14  15
ATOM     15  C   UNL     1       3.072   2.979   4.835  1.00  0.00     0.031 A 
ATOM     16  C   UNL     1       4.361   2.322   4.507  1.00  0.00     0.074 A 
ATOM     17  C   UNL     1       2.848   3.633   5.993  1.00  0.00     0.049 A 
ATOM     18  N   UNL     1       4.883   1.282   5.068  1.00  0.00    -0.248 NA
ATOM     19  C   UNL     1       5.095   2.801   3.326  1.00  0.00     0.031 C 
ATOM     20  C   UNL     1       1.725   4.519   6.314  1.00  0.00     0.029 A 
ATOM     21  N   UNL     1       3.631   3.724   7.103  1.00  0.00    -0.354 N 
ATOM     22  C   UNL     1       6.125   1.111   4.461  1.00  0.00     0.074 A 
ATOM     23  C   UNL     1       6.120   1.949   3.291  1.00  0.00     0.031 C 
ATOM     24  C   UNL     1       2.021   5.231   7.423  1.00  0.00     0.029 A 
ATOM     25  C   UNL     1       3.285   4.760   7.962  1.00  0.00     0.049 A 
ATOM     26  H   UNL     1       4.378   3.108   7.282  1.00  0.00     0.167 HD
ATOM     27  C   UNL     1       7.148   0.523   5.140  1.00  0.00     0.037 A 
ATOM     28  C   UNL     1       4.017   5.238   8.999  1.00  0.00     0.037 A 
ATOM     29  C   UNL     1       6.646  -0.308   6.211  1.00  0.00     0.049 A 
ATOM     30  C   UNL     1       5.010   4.199   9.366  1.00  0.00     0.074 A 
ATOM     31  C   UNL     1       5.760  -1.367   6.294  1.00  0.00     0.029 A 
ATOM     32  N   UNL     1       6.800   0.138   7.501  1.00  0.00    -0.354 N 
ATOM     33  N   UNL     1       4.704   3.069   9.937  1.00  0.00    -0.248 NA
ATOM     34  C   UNL     1       6.300   4.228   8.693  1.00  0.00     0.031 C 
ATOM     35  C   UNL     1       5.064  -1.173   7.524  1.00  0.00     0.029 A 
ATOM     36  C   UNL     1       5.609  -0.051   8.148  1.00  0.00     0.049 A 
ATOM     37  H   UNL     1       7.618   0.523   7.889  1.00  0.00     0.167 HD
ATOM     38  C   UNL     1       5.519   2.134   9.317  1.00  0.00     0.074 A 
ATOM     39  C   UNL     1       6.550   2.918   8.639  1.00  0.00     0.031 C 
ATOM     40  C   UNL     1       5.113   0.839   9.168  1.00  0.00     0.037 A 
BRANCH  27  41
ATOM     41  C   UNL     1       8.563   1.074   5.144  1.00  0.00     0.057 A 
ATOM     42  C   UNL     1       9.537   0.418   5.923  1.00  0.00     0.134 A 
ATOM     43  C   UNL     1       8.923   2.372   4.724  1.00  0.00     0.134 A 
ATOM     44  F   UNL     1       9.335  -0.832   6.368  1.00  0.00    -0.206 F 
ATOM     45  C   UNL     1      10.696   1.059   6.376  1.00  0.00     0.040 A 
ATOM     46  C   UNL     1      10.101   3.003   5.131  1.00  0.00     0.040 A 
ATOM     47  F   UNL     1       8.128   3.143   3.976  1.00  0.00    -0.206 F 
ATOM     48  C   UNL     1      10.970   2.366   5.998  1.00  0.00     0.006 A 
ENDBRANCH  27  41
BRANCH  28  49
ATOM     49  C   UNL     1       4.108   6.627   9.508  1.00  0.00     0.057 A 
ATOM     50  C   UNL     1       4.704   6.909  10.747  1.00  0.00     0.134 A 
ATOM     51  C   UNL     1       3.862   7.737   8.680  1.00  0.00     0.134 A 
ATOM     52  F   UNL     1       5.017   5.917  11.594  1.00  0.00    -0.206 F 
ATOM     53  C   UNL     1       5.061   8.210  11.126  1.00  0.00     0.040 A 
ATOM     54  C   UNL     1       4.203   9.042   9.051  1.00  0.00     0.040 A 
ATOM     55  F   UNL     1       3.367   7.587   7.444  1.00  0.00    -0.206 F 
ATOM     56  C   UNL     1       4.819   9.281  10.272  1.00  0.00     0.006 A 
ENDBRANCH  28  49
BRANCH  40  57
ATOM     57  C   UNL     1       3.913   0.383   9.948  1.00  0.00     0.057 A 
ATOM     58  C   UNL     1       2.625   0.923   9.808  1.00  0.00     0.134 A 
ATOM     59  C   UNL     1       4.045  -0.730  10.785  1.00  0.00     0.134 A 
ATOM     60  F   UNL     1       2.378   1.921   8.949  1.00  0.00    -0.206 F 
ATOM     61  C   UNL     1       1.532   0.411  10.515  1.00  0.00     0.040 A 
ATOM     62  C   UNL     1       2.955  -1.274  11.468  1.00  0.00     0.040 A 
ATOM     63  F   UNL     1       5.235  -1.335  10.923  1.00  0.00    -0.206 F 
ATOM     64  C   UNL     1       1.695  -0.693  11.345  1.00  0.00     0.006 A 
ENDBRANCH  40  57
ENDBRANCH  14  15
ENDBRANCH   7   9
ENDBRANCH   6   7
ENDBRANCH   5   6
ENDBRANCH   4   5
ENDBRANCH   3   4
ENDBRANCH   2   3
ENDBRANCH   1   2
BRANCH   1  65
ATOM     65  O   UNL     1      -2.065   0.794  -2.848  1.00  0.00    -0.376 OA
BRANCH  65  66
ATOM     66  C   UNL     1      -1.300  -0.162  -3.558  1.00  0.00     0.202 C 
BRANCH  66  67
ATOM     67  C   UNL     1      -0.169   0.364  -4.446  1.00  0.00     0.261 C 
BRANCH  67  68
ATOM     68  O   UNL     1       0.788   1.188  -3.747  1.00  0.00    -0.462 OA
BRANCH  68  69
ATOM     69  C   UNL     1       1.850   1.536  -4.497  1.00  0.00     0.328 C 
ATOM     70  O   UNL     1       2.019   1.083  -5.632  1.00  0.00    -0.250 OA
BRANCH  69  71
ATOM     71  C   UNL     1       2.943   2.411  -3.805  1.00  0.00     0.195 C 
ATOM     72  C   UNL     1       3.734   3.067  -4.948  1.00  0.00     0.046 C 
ATOM     73  N   UNL     1       3.300   3.290  -2.656  1.00  0.00    -0.328 N 
ATOM     74  C   UNL     1       4.862   3.898  -4.297  1.00  0.00     0.001 C 
ATOM     75  C   UNL     1       4.735   3.556  -2.802  1.00  0.00     0.128 C 
ATOM     76  C   UNL     1       4.653   5.409  -4.531  1.00  0.00     0.071 C 
ATOM     77  C   UNL     1       6.220   3.514  -4.892  1.00  0.00     0.071 C 
ATOM     78  C   UNL     1       4.784   5.806  -6.001  1.00  0.00     0.270 C 
ATOM     79  C   UNL     1       6.287   3.888  -6.376  1.00  0.00     0.270 C 
ATOM     80  N   UNL     1       6.023   5.315  -6.589  1.00  0.00    -0.272 N 
ATOM     81  H   UNL     1       6.792   5.150  -7.181  1.00  0.00     0.356 HD
BRANCH  73  82
ATOM     82  C   UNL     1       2.593   4.304  -2.024  1.00  0.00     0.225 C 
ATOM     83  O   UNL     1       3.153   5.259  -1.474  1.00  0.00    -0.275 OA
BRANCH  82  84
ATOM     84  C   UNL     1       1.107   4.226  -1.927  1.00  0.00     0.124 C 
BRANCH  84  85
ATOM     85  C   UNL     1       0.417   5.292  -2.761  1.00  0.00     0.154 C 
BRANCH  85  86
ATOM     86  N   UNL     1       0.442   5.003  -4.182  1.00  0.00    -0.272 N 
ATOM     87  C   UNL     1       0.999   5.752  -5.176  1.00  0.00     0.108 A 
ATOM     88  N   UNL     1      -0.142   3.883  -4.637  1.00  0.00    -0.182 NA
ATOM     89  C   UNL     1       0.760   5.070  -6.347  1.00  0.00     0.042 A 
ATOM     90  C   UNL     1       0.040   3.931  -5.957  1.00  0.00     0.135 A 
ENDBRANCH  85  86
ENDBRANCH  84  85
ENDBRANCH  82  84
ENDBRANCH  73  82
BRANCH  80  91
ATOM     91  C   UNL     1       6.909   5.995  -7.434  1.00  0.00     0.315 C 
ATOM     92  O   UNL     1       7.915   5.448  -7.850  1.00  0.00    -0.231 OA
BRANCH  91  93
ATOM     93  C   UNL     1       6.726   7.410  -7.885  1.00  0.00     0.119 C 
ATOM     94  C   UNL     1       5.510   8.283  -7.950  1.00  0.00     0.019 C 
ATOM     95  C   UNL     1       6.558   8.534  -6.896  1.00  0.00     0.019 C 
ENDBRANCH  91  93
ENDBRANCH  80  91
ENDBRANCH  69  71
ENDBRANCH  68  69
ENDBRANCH  67  68
ENDBRANCH  66  67
ENDBRANCH  65  66
ENDBRANCH   1  65
TORSDOF 23
