REMARK SMILES O=C(CC1CC[NH+](C[C@H]2Cc3ccccc3O2)CC1)OCCOCCOCCOC(=O)c1ccc(-c2c3nc(c(-c4c(F)cccc4F)c4ccc([nH]4)c(-c4c(F)cccc4F)c4nc(c(-c5c(F)cccc5F)c5ccc2[nH]5)C=C4)C=C3)cc1
REMARK SMILES IDX 24 1 23 2 22 3 21 4 20 5 2 6 1 7 3 8 4 9 5 10 19 11 6 12
REMARK SMILES IDX 18 13 7 14 8 16 9 17 10 18 17 19 11 20 16 21 12 22 15 23
REMARK SMILES IDX 13 24 14 25 25 26 26 27 27 28 28 29 29 30 30 31 31 32 32 33
REMARK SMILES IDX 33 34 85 35 34 36 84 37 35 38 36 39 37 40 78 41 38 42 83 43
REMARK SMILES IDX 77 44 79 45 39 46 82 47 76 48 75 49 40 51 66 52 49 53 65 54
REMARK SMILES IDX 50 55 53 56 64 57 80 58 51 59 52 60 63 62 81 63 54 64 41 65
REMARK SMILES IDX 42 66 47 67 43 68 44 69 46 70 48 71 45 72 67 73 68 74 73 75
REMARK SMILES IDX 69 76 70 77 72 78 74 79 71 80 55 81 56 82 61 83 57 84 58 85
REMARK SMILES IDX 60 86 62 87 59 88
REMARK H PARENT 7 15 79 50 53 61
REMARK Flexibility Score: inf
ROOT
ATOM      1  C   UNL     1       3.140   1.805   0.412  1.00  0.00     0.188 C 
ENDROOT
BRANCH   1   2
ATOM      2  O   UNL     1       4.541   1.981   0.531  1.00  0.00    -0.376 OA
BRANCH   2   3
ATOM      3  C   UNL     1       5.390   0.895   0.195  1.00  0.00     0.202 C 
BRANCH   3   4
ATOM      4  C   UNL     1       5.309   0.395  -1.251  1.00  0.00     0.261 C 
BRANCH   4   5
ATOM      5  O   UNL     1       4.075  -0.192  -1.732  1.00  0.00    -0.463 OA
BRANCH   5   6
ATOM      6  C   UNL     1       3.370  -1.235  -1.255  1.00  0.00     0.306 C 
ATOM      7  O   UNL     1       2.469  -1.727  -1.931  1.00  0.00    -0.252 OA
BRANCH   6   8
ATOM      8  C   UNL     1       3.638  -1.730   0.137  1.00  0.00     0.126 C 
BRANCH   8   9
ATOM      9  C   UNL     1       4.870  -2.636   0.253  1.00  0.00     0.011 C 
ATOM     10  C   UNL     1       4.616  -4.020  -0.356  1.00  0.00     0.066 C 
ATOM     11  C   UNL     1       5.281  -2.839   1.717  1.00  0.00     0.066 C 
ATOM     12  C   UNL     1       3.573  -4.814   0.439  1.00  0.00     0.262 C 
ATOM     13  C   UNL     1       4.216  -3.609   2.497  1.00  0.00     0.262 C 
ATOM     14  N   UNL     1       3.880  -4.883   1.871  1.00  0.00    -0.332 N 
ATOM     15  H   UNL     1       4.761  -5.395   1.915  1.00  0.00     0.348 HD
BRANCH  14  16
ATOM     16  C   UNL     1       2.910  -5.696   2.632  1.00  0.00     0.308 C 
BRANCH  16  17
ATOM     17  C   UNL     1       1.425  -5.283   2.874  1.00  0.00     0.232 C 
ATOM     18  C   UNL     1       1.181  -4.041   3.749  1.00  0.00     0.090 C 
ATOM     19  O   UNL     1       0.693  -5.141   1.629  1.00  0.00    -0.484 OA
ATOM     20  C   UNL     1       0.660  -3.106   2.726  1.00  0.00    -0.002 A 
ATOM     21  C   UNL     1       0.367  -3.811   1.571  1.00  0.00     0.123 A 
ATOM     22  C   UNL     1       0.438  -1.742   2.799  1.00  0.00     0.007 A 
ATOM     23  C   UNL     1      -0.153  -3.193   0.451  1.00  0.00     0.047 A 
ATOM     24  C   UNL     1      -0.069  -1.092   1.670  1.00  0.00     0.001 A 
ATOM     25  C   UNL     1      -0.364  -1.814   0.502  1.00  0.00     0.004 A 
ENDBRANCH  16  17
ENDBRANCH  14  16
ENDBRANCH   8   9
ENDBRANCH   6   8
ENDBRANCH   5   6
ENDBRANCH   4   5
ENDBRANCH   3   4
ENDBRANCH   2   3
ENDBRANCH   1   2
BRANCH   1  26
ATOM     26  C   UNL     1       2.384   3.136   0.280  1.00  0.00     0.188 C 
BRANCH  26  27
ATOM     27  O   UNL     1       2.995   4.165  -0.490  1.00  0.00    -0.376 OA
BRANCH  27  28
ATOM     28  C   UNL     1       4.284   4.626  -0.081  1.00  0.00     0.202 C 
BRANCH  28  29
ATOM     29  C   UNL     1       4.458   5.132   1.364  1.00  0.00     0.261 C 
BRANCH  29  30
ATOM     30  O   UNL     1       4.131   4.179   2.400  1.00  0.00    -0.460 OA
BRANCH  30  31
ATOM     31  C   UNL     1       3.126   4.544   3.222  1.00  0.00     0.338 C 
ATOM     32  O   UNL     1       2.479   5.596   3.183  1.00  0.00    -0.246 OA
BRANCH  31  33
ATOM     33  C   UNL     1       2.756   3.475   4.163  1.00  0.00     0.060 A 
ATOM     34  C   UNL     1       1.469   2.926   4.072  1.00  0.00     0.016 A 
ATOM     35  C   UNL     1       3.564   3.192   5.266  1.00  0.00     0.016 A 
ATOM     36  C   UNL     1       0.958   2.155   5.118  1.00  0.00     0.010 A 
ATOM     37  C   UNL     1       3.047   2.426   6.320  1.00  0.00     0.010 A 
ATOM     38  C   UNL     1       1.722   1.953   6.276  1.00  0.00    -0.014 A 
BRANCH  38  39
ATOM     39  C   UNL     1       1.058   1.451   7.508  1.00  0.00     0.031 A 
ATOM     40  C   UNL     1       0.566   2.448   8.527  1.00  0.00     0.074 A 
ATOM     41  C   UNL     1       0.849   0.139   7.711  1.00  0.00     0.049 A 
ATOM     42  N   UNL     1      -0.040   2.241   9.669  1.00  0.00    -0.248 NA
ATOM     43  C   UNL     1       0.790   3.869   8.214  1.00  0.00     0.031 C 
ATOM     44  C   UNL     1       1.239  -0.930   6.797  1.00  0.00     0.029 A 
ATOM     45  N   UNL     1       0.248  -0.513   8.760  1.00  0.00    -0.354 N 
ATOM     46  C   UNL     1      -0.260   3.500  10.215  1.00  0.00     0.074 A 
ATOM     47  C   UNL     1       0.299   4.464   9.291  1.00  0.00     0.031 C 
ATOM     48  C   UNL     1       0.858  -2.109   7.321  1.00  0.00     0.029 A 
ATOM     49  C   UNL     1       0.228  -1.879   8.620  1.00  0.00     0.049 A 
ATOM     50  H   UNL     1      -0.132  -0.046   9.538  1.00  0.00     0.167 HD
ATOM     51  C   UNL     1      -0.876   3.830  11.375  1.00  0.00     0.037 A 
ATOM     52  C   UNL     1      -0.233  -2.834   9.452  1.00  0.00     0.037 A 
ATOM     53  C   UNL     1      -1.443   2.882  12.298  1.00  0.00     0.049 A 
ATOM     54  C   UNL     1      -0.857  -2.446  10.767  1.00  0.00     0.074 A 
ATOM     55  C   UNL     1      -2.110   3.128  13.486  1.00  0.00     0.029 A 
ATOM     56  N   UNL     1      -1.404   1.507  12.139  1.00  0.00    -0.354 N 
ATOM     57  N   UNL     1      -1.081  -1.252  11.259  1.00  0.00    -0.248 NA
ATOM     58  C   UNL     1      -1.289  -3.545  11.645  1.00  0.00     0.031 C 
ATOM     59  C   UNL     1      -2.437   1.898  14.068  1.00  0.00     0.029 A 
ATOM     60  C   UNL     1      -2.013   0.889  13.219  1.00  0.00     0.049 A 
ATOM     61  H   UNL     1      -1.004   1.038  11.372  1.00  0.00     0.167 HD
ATOM     62  C   UNL     1      -1.709  -1.455  12.483  1.00  0.00     0.074 A 
ATOM     63  C   UNL     1      -1.835  -2.886  12.658  1.00  0.00     0.031 C 
ATOM     64  C   UNL     1      -2.145  -0.536  13.380  1.00  0.00     0.037 A 
BRANCH  51  65
ATOM     65  C   UNL     1      -0.945   5.287  11.725  1.00  0.00     0.057 A 
ATOM     66  C   UNL     1      -1.807   6.168  11.059  1.00  0.00     0.134 A 
ATOM     67  C   UNL     1      -0.153   5.809  12.755  1.00  0.00     0.134 A 
ATOM     68  F   UNL     1      -2.582   5.731  10.054  1.00  0.00    -0.206 F 
ATOM     69  C   UNL     1      -1.860   7.523  11.389  1.00  0.00     0.040 A 
ATOM     70  C   UNL     1      -0.214   7.158  13.109  1.00  0.00     0.040 A 
ATOM     71  F   UNL     1       0.690   5.018  13.434  1.00  0.00    -0.206 F 
ATOM     72  C   UNL     1      -1.065   8.020  12.421  1.00  0.00     0.006 A 
ENDBRANCH  51  65
BRANCH  52  73
ATOM     73  C   UNL     1      -0.123  -4.265   9.075  1.00  0.00     0.057 A 
ATOM     74  C   UNL     1      -1.261  -5.019   8.764  1.00  0.00     0.134 A 
ATOM     75  C   UNL     1       1.113  -4.921   9.053  1.00  0.00     0.134 A 
ATOM     76  F   UNL     1      -2.475  -4.452   8.796  1.00  0.00    -0.206 F 
ATOM     77  C   UNL     1      -1.175  -6.379   8.461  1.00  0.00     0.040 A 
ATOM     78  C   UNL     1       1.216  -6.275   8.729  1.00  0.00     0.040 A 
ATOM     79  F   UNL     1       2.240  -4.254   9.341  1.00  0.00    -0.206 F 
ATOM     80  C   UNL     1       0.067  -7.009   8.439  1.00  0.00     0.006 A 
ENDBRANCH  52  73
BRANCH  64  81
ATOM     81  C   UNL     1      -2.838  -1.046  14.610  1.00  0.00     0.057 A 
ATOM     82  C   UNL     1      -2.138  -1.666  15.652  1.00  0.00     0.134 A 
ATOM     83  C   UNL     1      -4.221  -0.882  14.767  1.00  0.00     0.134 A 
ATOM     84  F   UNL     1      -0.815  -1.865  15.559  1.00  0.00    -0.206 F 
ATOM     85  C   UNL     1      -2.792  -2.126  16.797  1.00  0.00     0.040 A 
ATOM     86  C   UNL     1      -4.882  -1.316  15.917  1.00  0.00     0.040 A 
ATOM     87  F   UNL     1      -4.949  -0.288  13.810  1.00  0.00    -0.206 F 
ATOM     88  C   UNL     1      -4.168  -1.946  16.934  1.00  0.00     0.006 A 
ENDBRANCH  64  81
ENDBRANCH  38  39
ENDBRANCH  31  33
ENDBRANCH  30  31
ENDBRANCH  29  30
ENDBRANCH  28  29
ENDBRANCH  27  28
ENDBRANCH  26  27
ENDBRANCH   1  26
TORSDOF 20
