REMARK SMILES CC[NH2+]C[C@@H](C)C(=O)N1CCO[C@@H](CC(=O)OCCOCCOCCOC(=O)c2ccc(-c3c4nc(c(-c5c(F)cccc5F)c5ccc([nH]5)c(-c5c(F)cccc5F)c5nc(c(-c6c(F)cccc6F)c6ccc3[nH]6)C=C5)C=C4)cc2)C1
REMARK SMILES IDX 19 1 18 2 17 3 15 4 16 5 14 6 13 7 9 8 10 9 83 10 11 11
REMARK SMILES IDX 12 12 7 13 8 14 5 15 6 16 4 17 3 18 2 21 1 22 20 23 21 24
REMARK SMILES IDX 22 25 23 26 24 27 25 28 26 29 27 30 28 31 29 32 30 33 82 34
REMARK SMILES IDX 31 35 81 36 32 37 33 38 34 39 75 40 35 41 80 42 74 43 76 44
REMARK SMILES IDX 36 45 79 46 73 47 72 48 37 50 63 51 46 52 62 53 47 54 50 55
REMARK SMILES IDX 61 56 77 57 48 58 49 59 60 61 78 62 51 63 38 64 39 65 44 66
REMARK SMILES IDX 40 67 41 68 43 69 45 70 42 71 64 72 65 73 70 74 66 75 67 76
REMARK SMILES IDX 69 77 71 78 68 79 52 80 53 81 58 82 54 83 55 84 57 85 59 86
REMARK SMILES IDX 56 87
REMARK H PARENT 3 19 3 20 76 49 50 60
REMARK Flexibility Score: inf
ROOT
ATOM      1  C   UNL     1       3.265   9.536   5.219  1.00  0.00     0.202 C 
ENDROOT
BRANCH   1   2
ATOM      2  C   UNL     1       2.193  10.280   4.413  1.00  0.00     0.261 C 
BRANCH   2   3
ATOM      3  O   UNL     1       2.083   9.820   3.048  1.00  0.00    -0.463 OA
BRANCH   3   4
ATOM      4  C   UNL     1       2.233  10.767   2.092  1.00  0.00     0.308 C 
ATOM      5  O   UNL     1       2.372  11.966   2.318  1.00  0.00    -0.252 OA
BRANCH   4   6
ATOM      6  C   UNL     1       2.319  10.236   0.685  1.00  0.00     0.156 C 
BRANCH   6   7
ATOM      7  C   UNL     1       2.117   8.758   0.363  1.00  0.00     0.148 C 
ATOM      8  N   UNL     1       0.588   6.824   0.226  1.00  0.00    -0.337 N 
ATOM      9  C   UNL     1       0.688   6.852  -1.226  1.00  0.00     0.148 C 
ATOM     10  C   UNL     1       0.762   8.162   0.821  1.00  0.00     0.152 C 
ATOM     11  C   UNL     1       2.048   7.400  -1.636  1.00  0.00     0.182 C 
ATOM     12  O   UNL     1       2.239   8.710  -1.091  1.00  0.00    -0.374 OA
BRANCH   8  13
ATOM     13  C   UNL     1       0.335   5.740   1.042  1.00  0.00     0.231 C 
ATOM     14  O   UNL     1      -0.191   5.912   2.150  1.00  0.00    -0.274 OA
BRANCH  13  15
ATOM     15  C   UNL     1       0.891   4.334   0.724  1.00  0.00     0.130 C 
ATOM     16  C   UNL     1       2.412   4.370   0.834  1.00  0.00     0.024 C 
BRANCH  15  17
ATOM     17  C   UNL     1       0.422   3.613  -0.544  1.00  0.00     0.273 C 
BRANCH  17  18
ATOM     18  N   UNL     1       0.881   2.227  -0.723  1.00  0.00    -0.346 N 
ATOM     19  H   UNL     1       0.555   1.897  -1.632  1.00  0.00     0.346 HD
ATOM     20  H   UNL     1       1.898   2.246  -0.647  1.00  0.00     0.346 HD
BRANCH  18  21
ATOM     21  C   UNL     1       0.407   1.296   0.295  1.00  0.00     0.257 C 
ATOM     22  C   UNL     1       0.923  -0.098  -0.033  1.00  0.00     0.071 C 
ENDBRANCH  18  21
ENDBRANCH  17  18
ENDBRANCH  15  17
ENDBRANCH  13  15
ENDBRANCH   8  13
ENDBRANCH   6   7
ENDBRANCH   4   6
ENDBRANCH   3   4
ENDBRANCH   2   3
ENDBRANCH   1   2
BRANCH   1  23
ATOM     23  O   UNL     1       4.601   9.644   4.730  1.00  0.00    -0.376 OA
BRANCH  23  24
ATOM     24  C   UNL     1       4.845   9.125   3.428  1.00  0.00     0.188 C 
BRANCH  24  25
ATOM     25  C   UNL     1       4.560   7.635   3.256  1.00  0.00     0.188 C 
BRANCH  25  26
ATOM     26  O   UNL     1       3.242   7.187   3.491  1.00  0.00    -0.376 OA
BRANCH  26  27
ATOM     27  C   UNL     1       3.015   6.005   4.264  1.00  0.00     0.202 C 
BRANCH  27  28
ATOM     28  C   UNL     1       4.092   4.966   4.690  1.00  0.00     0.261 C 
BRANCH  28  29
ATOM     29  O   UNL     1       5.438   5.139   4.231  1.00  0.00    -0.460 OA
BRANCH  29  30
ATOM     30  C   UNL     1       5.723   4.712   2.982  1.00  0.00     0.338 C 
ATOM     31  O   UNL     1       5.025   4.010   2.271  1.00  0.00    -0.246 OA
BRANCH  30  32
ATOM     32  C   UNL     1       6.932   5.425   2.501  1.00  0.00     0.060 A 
ATOM     33  C   UNL     1       6.852   6.103   1.276  1.00  0.00     0.016 A 
ATOM     34  C   UNL     1       8.114   5.461   3.244  1.00  0.00     0.016 A 
ATOM     35  C   UNL     1       7.956   6.796   0.775  1.00  0.00     0.010 A 
ATOM     36  C   UNL     1       9.232   6.124   2.723  1.00  0.00     0.010 A 
ATOM     37  C   UNL     1       9.169   6.768   1.472  1.00  0.00    -0.014 A 
BRANCH  37  38
ATOM     38  C   UNL     1      10.420   7.206   0.801  1.00  0.00     0.031 A 
ATOM     39  C   UNL     1      11.289   6.150   0.170  1.00  0.00     0.074 A 
ATOM     40  C   UNL     1      10.783   8.499   0.733  1.00  0.00     0.049 A 
ATOM     41  N   UNL     1      12.474   6.258  -0.373  1.00  0.00    -0.248 NA
ATOM     42  C   UNL     1      10.742   4.783   0.157  1.00  0.00     0.031 C 
ATOM     43  C   UNL     1      10.009   9.627   1.244  1.00  0.00     0.029 A 
ATOM     44  N   UNL     1      11.919   9.076   0.215  1.00  0.00    -0.354 N 
ATOM     45  C   UNL     1      12.817   4.976  -0.784  1.00  0.00     0.074 A 
ATOM     46  C   UNL     1      11.731   4.101  -0.398  1.00  0.00     0.031 C 
ATOM     47  C   UNL     1      10.705  10.761   1.039  1.00  0.00     0.029 A 
ATOM     48  C   UNL     1      11.988  10.433   0.418  1.00  0.00     0.049 A 
ATOM     49  H   UNL     1      12.616   8.565  -0.256  1.00  0.00     0.167 HD
ATOM     50  C   UNL     1      13.933   4.562  -1.431  1.00  0.00     0.037 A 
ATOM     51  C   UNL     1      12.989  11.302   0.165  1.00  0.00     0.037 A 
ATOM     52  C   UNL     1      15.019   5.428  -1.805  1.00  0.00     0.049 A 
ATOM     53  C   UNL     1      14.267  10.802  -0.464  1.00  0.00     0.074 A 
ATOM     54  C   UNL     1      16.196   5.103  -2.455  1.00  0.00     0.029 A 
ATOM     55  N   UNL     1      15.063   6.791  -1.555  1.00  0.00    -0.354 N 
ATOM     56  N   UNL     1      14.583   9.589  -0.852  1.00  0.00    -0.248 NA
ATOM     57  C   UNL     1      15.330  11.794  -0.689  1.00  0.00     0.031 C 
ATOM     58  C   UNL     1      16.976   6.259  -2.551  1.00  0.00     0.029 A 
ATOM     59  C   UNL     1      16.258   7.317  -2.018  1.00  0.00     0.049 A 
ATOM     60  H   UNL     1      14.351   7.309  -1.113  1.00  0.00     0.167 HD
ATOM     61  C   UNL     1      15.859   9.682  -1.398  1.00  0.00     0.074 A 
ATOM     62  C   UNL     1      16.255  11.070  -1.302  1.00  0.00     0.031 C 
ATOM     63  C   UNL     1      16.634   8.705  -1.933  1.00  0.00     0.037 A 
BRANCH  50  64
ATOM     64  C   UNL     1      14.044   3.099  -1.748  1.00  0.00     0.057 A 
ATOM     65  C   UNL     1      13.239   2.488  -2.719  1.00  0.00     0.134 A 
ATOM     66  C   UNL     1      14.987   2.296  -1.094  1.00  0.00     0.134 A 
ATOM     67  F   UNL     1      12.303   3.196  -3.370  1.00  0.00    -0.206 F 
ATOM     68  C   UNL     1      13.351   1.127  -3.009  1.00  0.00     0.040 A 
ATOM     69  C   UNL     1      15.130   0.941  -1.397  1.00  0.00     0.040 A 
ATOM     70  F   UNL     1      15.793   2.817  -0.156  1.00  0.00    -0.206 F 
ATOM     71  C   UNL     1      14.305   0.352  -2.353  1.00  0.00     0.006 A 
ENDBRANCH  50  64
BRANCH  51  72
ATOM     72  C   UNL     1      12.851  12.736   0.534  1.00  0.00     0.057 A 
ATOM     73  C   UNL     1      12.816  13.740  -0.442  1.00  0.00     0.134 A 
ATOM     74  C   UNL     1      12.805  13.143   1.873  1.00  0.00     0.134 A 
ATOM     75  F   UNL     1      12.887  13.420  -1.742  1.00  0.00    -0.206 F 
ATOM     76  C   UNL     1      12.766  15.093  -0.100  1.00  0.00     0.040 A 
ATOM     77  C   UNL     1      12.724  14.490   2.229  1.00  0.00     0.040 A 
ATOM     78  F   UNL     1      12.841  12.233   2.859  1.00  0.00    -0.206 F 
ATOM     79  C   UNL     1      12.715  15.471   1.240  1.00  0.00     0.006 A 
ENDBRANCH  51  72
BRANCH  63  80
ATOM     80  C   UNL     1      17.963   9.107  -2.508  1.00  0.00     0.057 A 
ATOM     81  C   UNL     1      19.037   9.502  -1.701  1.00  0.00     0.134 A 
ATOM     82  C   UNL     1      18.184   9.051  -3.891  1.00  0.00     0.134 A 
ATOM     83  F   UNL     1      18.892   9.587  -0.370  1.00  0.00    -0.206 F 
ATOM     84  C   UNL     1      20.273   9.852  -2.249  1.00  0.00     0.040 A 
ATOM     85  C   UNL     1      19.423   9.368  -4.449  1.00  0.00     0.040 A 
ATOM     86  F   UNL     1      17.203   8.668  -4.723  1.00  0.00    -0.206 F 
ATOM     87  C   UNL     1      20.471   9.778  -3.627  1.00  0.00     0.006 A 
ENDBRANCH  63  80
ENDBRANCH  37  38
ENDBRANCH  30  32
ENDBRANCH  29  30
ENDBRANCH  28  29
ENDBRANCH  27  28
ENDBRANCH  26  27
ENDBRANCH  25  26
ENDBRANCH  24  25
ENDBRANCH  23  24
ENDBRANCH   1  23
TORSDOF 23
