REMARK SMILES CCCC[C@@H](C)[NH2+]Cc1ccc(C(=O)OCCOCCOCCOC(=O)c2ccc(-c3c4nc(c(-c5c(F)cccc5F)c5ccc([nH]5)c(-c5c(F)cccc5F)c5nc(c(-c6c(F)cccc6F)c6ccc3[nH]6)C=C5)C=C4)cc2)cn1
REMARK SMILES IDX 17 1 16 2 15 3 13 4 14 5 12 6 9 7 10 8 82 9 11 10 81 11 8 12
REMARK SMILES IDX 7 13 5 16 6 17 4 18 3 19 2 20 1 21 18 22 19 23 20 24 21 25
REMARK SMILES IDX 22 26 23 27 24 28 25 29 26 30 27 31 28 32 80 33 29 34 79 35
REMARK SMILES IDX 30 36 31 37 32 38 73 39 33 40 78 41 72 42 74 43 34 44 77 45
REMARK SMILES IDX 71 46 70 47 35 49 61 50 44 51 60 52 45 53 48 54 59 55 75 56
REMARK SMILES IDX 46 57 47 58 58 60 76 61 49 62 36 63 37 64 42 65 38 66 39 67
REMARK SMILES IDX 41 68 43 69 40 70 62 71 63 72 68 73 64 74 65 75 67 76 69 77
REMARK SMILES IDX 66 78 50 79 51 80 56 81 52 82 53 83 55 84 57 85 54 86
REMARK H PARENT 7 14 7 15 74 48 48 59
REMARK Flexibility Score: inf
ROOT
ATOM      1  C   UNL     1      -5.585  -9.684   1.950  1.00  0.00     0.202 C 
ENDROOT
BRANCH   1   2
ATOM      2  C   UNL     1      -4.266  -9.130   1.392  1.00  0.00     0.261 C 
BRANCH   2   3
ATOM      3  O   UNL     1      -3.812  -7.934   2.037  1.00  0.00    -0.460 OA
BRANCH   3   4
ATOM      4  C   UNL     1      -3.785  -6.835   1.247  1.00  0.00     0.339 C 
ATOM      5  O   UNL     1      -3.974  -6.785   0.047  1.00  0.00    -0.246 OA
BRANCH   4   6
ATOM      6  C   UNL     1      -3.699  -5.629   2.083  1.00  0.00     0.078 A 
ATOM      7  C   UNL     1      -3.463  -3.198   3.295  1.00  0.00     0.094 A 
ATOM      8  C   UNL     1      -2.831  -4.300   3.881  1.00  0.00     0.031 A 
ATOM      9  N   UNL     1      -4.371  -3.324   2.293  1.00  0.00    -0.254 NA
ATOM     10  C   UNL     1      -2.930  -5.535   3.243  1.00  0.00     0.019 A 
ATOM     11  C   UNL     1      -4.455  -4.532   1.696  1.00  0.00     0.127 A 
BRANCH   7  12
ATOM     12  C   UNL     1      -2.886  -1.805   3.502  1.00  0.00     0.318 C 
BRANCH  12  13
ATOM     13  N   UNL     1      -1.425  -1.723   3.298  1.00  0.00    -0.339 N 
ATOM     14  H   UNL     1      -1.120  -0.810   3.635  1.00  0.00     0.346 HD
ATOM     15  H   UNL     1      -1.047  -2.524   3.804  1.00  0.00     0.346 HD
BRANCH  13  16
ATOM     16  C   UNL     1      -0.915  -1.877   1.917  1.00  0.00     0.179 C 
ATOM     17  C   UNL     1      -1.304  -3.163   1.181  1.00  0.00     0.075 C 
BRANCH  16  18
ATOM     18  C   UNL     1       0.628  -1.792   2.009  1.00  0.00     0.065 C 
BRANCH  18  19
ATOM     19  C   UNL     1       1.396  -2.050   0.701  1.00  0.00     0.006 C 
BRANCH  19  20
ATOM     20  C   UNL     1       0.934  -1.227  -0.503  1.00  0.00    -0.003 C 
ATOM     21  C   UNL     1       1.171   0.260  -0.321  1.00  0.00     0.004 C 
ENDBRANCH  19  20
ENDBRANCH  18  19
ENDBRANCH  16  18
ENDBRANCH  13  16
ENDBRANCH  12  13
ENDBRANCH   7  12
ENDBRANCH   4   6
ENDBRANCH   3   4
ENDBRANCH   2   3
ENDBRANCH   1   2
BRANCH   1  22
ATOM     22  O   UNL     1      -6.733  -8.864   2.125  1.00  0.00    -0.376 OA
BRANCH  22  23
ATOM     23  C   UNL     1      -6.613  -7.555   2.653  1.00  0.00     0.188 C 
BRANCH  23  24
ATOM     24  C   UNL     1      -5.930  -7.324   4.016  1.00  0.00     0.188 C 
BRANCH  24  25
ATOM     25  O   UNL     1      -5.249  -8.412   4.582  1.00  0.00    -0.376 OA
BRANCH  25  26
ATOM     26  C   UNL     1      -5.966  -9.345   5.372  1.00  0.00     0.202 C 
BRANCH  26  27
ATOM     27  C   UNL     1      -7.487  -9.320   5.652  1.00  0.00     0.261 C 
BRANCH  27  28
ATOM     28  O   UNL     1      -8.306  -8.355   4.980  1.00  0.00    -0.460 OA
BRANCH  28  29
ATOM     29  C   UNL     1      -8.676  -7.270   5.711  1.00  0.00     0.338 C 
ATOM     30  O   UNL     1      -8.371  -7.016   6.859  1.00  0.00    -0.246 OA
BRANCH  29  31
ATOM     31  C   UNL     1      -9.366  -6.315   4.816  1.00  0.00     0.060 A 
ATOM     32  C   UNL     1      -8.728  -5.113   4.473  1.00  0.00     0.016 A 
ATOM     33  C   UNL     1     -10.643  -6.598   4.336  1.00  0.00     0.016 A 
ATOM     34  C   UNL     1      -9.369  -4.191   3.643  1.00  0.00     0.010 A 
ATOM     35  C   UNL     1     -11.294  -5.660   3.528  1.00  0.00     0.010 A 
ATOM     36  C   UNL     1     -10.669  -4.446   3.190  1.00  0.00    -0.014 A 
BRANCH  36  37
ATOM     37  C   UNL     1     -11.433  -3.401   2.464  1.00  0.00     0.031 A 
ATOM     38  C   UNL     1     -12.450  -2.587   3.213  1.00  0.00     0.074 A 
ATOM     39  C   UNL     1     -11.241  -3.188   1.150  1.00  0.00     0.049 A 
ATOM     40  N   UNL     1     -13.298  -1.696   2.766  1.00  0.00    -0.248 NA
ATOM     41  C   UNL     1     -12.524  -2.816   4.665  1.00  0.00     0.031 C 
ATOM     42  C   UNL     1     -10.257  -3.877   0.318  1.00  0.00     0.029 A 
ATOM     43  N   UNL     1     -11.884  -2.340   0.283  1.00  0.00    -0.354 N 
ATOM     44  C   UNL     1     -14.012  -1.264   3.876  1.00  0.00     0.074 A 
ATOM     45  C   UNL     1     -13.518  -2.013   5.013  1.00  0.00     0.031 C 
ATOM     46  C   UNL     1     -10.373  -3.435  -0.947  1.00  0.00     0.029 A 
ATOM     47  C   UNL     1     -11.465  -2.465  -1.019  1.00  0.00     0.049 A 
ATOM     48  H   UNL     1     -12.578  -1.702   0.567  1.00  0.00     0.167 HD
ATOM     49  C   UNL     1     -14.986  -0.325   3.943  1.00  0.00     0.037 A 
ATOM     50  C   UNL     1     -11.931  -1.887  -2.144  1.00  0.00     0.037 A 
ATOM     51  C   UNL     1     -15.483   0.410   2.809  1.00  0.00     0.049 A 
ATOM     52  C   UNL     1     -13.082  -0.919  -2.061  1.00  0.00     0.074 A 
ATOM     53  C   UNL     1     -16.450   1.399   2.779  1.00  0.00     0.029 A 
ATOM     54  N   UNL     1     -15.063   0.224   1.500  1.00  0.00    -0.354 N 
ATOM     55  N   UNL     1     -13.732  -0.492  -1.004  1.00  0.00    -0.248 NA
ATOM     56  C   UNL     1     -13.569  -0.356  -3.329  1.00  0.00     0.031 C 
ATOM     57  C   UNL     1     -16.663   1.764   1.446  1.00  0.00     0.029 A 
ATOM     58  C   UNL     1     -15.782   1.050   0.650  1.00  0.00     0.049 A 
ATOM     59  H   UNL     1     -14.358  -0.402   1.216  1.00  0.00     0.167 HD
ATOM     60  C   UNL     1     -14.683   0.405  -1.476  1.00  0.00     0.074 A 
ATOM     61  C   UNL     1     -14.516   0.473  -2.912  1.00  0.00     0.031 C 
ATOM     62  C   UNL     1     -15.612   1.108  -0.781  1.00  0.00     0.037 A 
BRANCH  49  63
ATOM     63  C   UNL     1     -15.606  -0.070   5.287  1.00  0.00     0.057 A 
ATOM     64  C   UNL     1     -14.901   0.551   6.327  1.00  0.00     0.134 A 
ATOM     65  C   UNL     1     -16.936  -0.433   5.539  1.00  0.00     0.134 A 
ATOM     66  F   UNL     1     -13.621   0.914   6.159  1.00  0.00    -0.206 F 
ATOM     67  C   UNL     1     -15.485   0.771   7.577  1.00  0.00     0.040 A 
ATOM     68  C   UNL     1     -17.540  -0.190   6.773  1.00  0.00     0.040 A 
ATOM     69  F   UNL     1     -17.673  -1.025   4.586  1.00  0.00    -0.206 F 
ATOM     70  C   UNL     1     -16.811   0.405   7.800  1.00  0.00     0.006 A 
ENDBRANCH  49  63
BRANCH  50  71
ATOM     71  C   UNL     1     -11.322  -2.223  -3.457  1.00  0.00     0.057 A 
ATOM     72  C   UNL     1     -10.593  -1.273  -4.182  1.00  0.00     0.134 A 
ATOM     73  C   UNL     1     -11.467  -3.494  -4.027  1.00  0.00     0.134 A 
ATOM     74  F   UNL     1     -10.444  -0.029  -3.703  1.00  0.00    -0.206 F 
ATOM     75  C   UNL     1     -10.040  -1.569  -5.429  1.00  0.00     0.040 A 
ATOM     76  C   UNL     1     -10.895  -3.813  -5.260  1.00  0.00     0.040 A 
ATOM     77  F   UNL     1     -12.158  -4.449  -3.387  1.00  0.00    -0.206 F 
ATOM     78  C   UNL     1     -10.184  -2.847  -5.967  1.00  0.00     0.006 A 
ENDBRANCH  50  71
BRANCH  62  79
ATOM     79  C   UNL     1     -16.508   2.031  -1.559  1.00  0.00     0.057 A 
ATOM     80  C   UNL     1     -17.511   1.548  -2.409  1.00  0.00     0.134 A 
ATOM     81  C   UNL     1     -16.396   3.421  -1.421  1.00  0.00     0.134 A 
ATOM     82  F   UNL     1     -17.666   0.229  -2.597  1.00  0.00    -0.206 F 
ATOM     83  C   UNL     1     -18.355   2.413  -3.110  1.00  0.00     0.040 A 
ATOM     84  C   UNL     1     -17.253   4.295  -2.092  1.00  0.00     0.040 A 
ATOM     85  F   UNL     1     -15.464   3.954  -0.616  1.00  0.00    -0.206 F 
ATOM     86  C   UNL     1     -18.232   3.791  -2.945  1.00  0.00     0.006 A 
ENDBRANCH  62  79
ENDBRANCH  36  37
ENDBRANCH  29  31
ENDBRANCH  28  29
ENDBRANCH  27  28
ENDBRANCH  26  27
ENDBRANCH  25  26
ENDBRANCH  24  25
ENDBRANCH  23  24
ENDBRANCH  22  23
ENDBRANCH   1  22
TORSDOF 23
