REMARK SMILES C=Cc1cccc(-c2ccc([C@@H](C)C(=O)OCCOCCOCCOC(=O)c3ccc(-c4c5nc(c(-c6c(F)cccc6F)c6ccc([nH]6)c(-c6c(F)cccc6F)c6nc(c(-c7c(F)cccc7F)c7ccc4[nH]7)C=C6)C=C5)cc3)cc2)c1
REMARK SMILES IDX 20 1 19 2 18 3 17 4 16 5 14 6 15 7 12 8 13 9 11 10 8 11 9 12
REMARK SMILES IDX 83 13 10 14 82 15 7 16 3 17 4 18 84 19 5 20 6 21 2 22 1 23
REMARK SMILES IDX 21 24 22 25 23 26 24 27 25 28 26 29 27 30 28 31 29 32 81 33
REMARK SMILES IDX 30 34 80 35 31 36 32 37 33 38 74 39 34 40 79 41 73 42 75 43
REMARK SMILES IDX 35 44 78 45 72 46 71 47 36 49 62 50 45 51 61 52 46 53 49 54
REMARK SMILES IDX 60 55 76 56 47 57 48 58 59 60 77 61 50 62 37 63 38 64 43 65
REMARK SMILES IDX 39 66 40 67 42 68 44 69 41 70 63 71 64 72 69 73 65 74 66 75
REMARK SMILES IDX 68 76 70 77 67 78 51 79 52 80 57 81 53 82 54 83 56 84 58 85
REMARK SMILES IDX 55 86
REMARK H PARENT 75 48 49 59
REMARK Flexibility Score: inf
ROOT
ATOM      1  C   UNL     1      -3.791   0.180  -7.004  1.00  0.00     0.188 C 
ENDROOT
BRANCH   1   2
ATOM      2  O   UNL     1      -4.290   1.212  -7.849  1.00  0.00    -0.376 OA
BRANCH   2   3
ATOM      3  C   UNL     1      -5.304   2.084  -7.364  1.00  0.00     0.202 C 
BRANCH   3   4
ATOM      4  C   UNL     1      -6.622   1.469  -6.866  1.00  0.00     0.261 C 
BRANCH   4   5
ATOM      5  O   UNL     1      -6.502   0.470  -5.826  1.00  0.00    -0.463 OA
BRANCH   5   6
ATOM      6  C   UNL     1      -6.930  -0.781  -6.132  1.00  0.00     0.313 C 
ATOM      7  O   UNL     1      -7.444  -1.069  -7.212  1.00  0.00    -0.252 OA
BRANCH   6   8
ATOM      8  C   UNL     1      -6.730  -1.858  -5.059  1.00  0.00     0.126 C 
ATOM      9  C   UNL     1      -8.097  -2.406  -4.656  1.00  0.00     0.025 C 
BRANCH   8  10
ATOM     10  C   UNL     1      -5.867  -1.609  -3.821  1.00  0.00    -0.034 A 
ATOM     11  C   UNL     1      -4.178  -1.240  -1.533  1.00  0.00    -0.018 A 
ATOM     12  C   UNL     1      -5.235  -0.359  -1.822  1.00  0.00     0.009 A 
ATOM     13  C   UNL     1      -3.983  -2.316  -2.408  1.00  0.00     0.009 A 
ATOM     14  C   UNL     1      -6.073  -0.542  -2.938  1.00  0.00     0.005 A 
ATOM     15  C   UNL     1      -4.816  -2.502  -3.524  1.00  0.00     0.005 A 
BRANCH  11  16
ATOM     16  C   UNL     1      -3.352  -1.081  -0.317  1.00  0.00    -0.018 A 
ATOM     17  C   UNL     1      -1.181  -0.836   0.809  1.00  0.00    -0.026 A 
ATOM     18  C   UNL     1      -1.830  -0.856   2.050  1.00  0.00     0.008 A 
ATOM     19  C   UNL     1      -1.948  -0.958  -0.366  1.00  0.00     0.016 A 
ATOM     20  C   UNL     1      -3.216  -0.971   2.120  1.00  0.00     0.001 A 
ATOM     21  C   UNL     1      -3.966  -1.082   0.948  1.00  0.00     0.009 A 
BRANCH  17  22
ATOM     22  C   UNL     1       0.286  -0.745   0.808  1.00  0.00     0.000 C 
ATOM     23  C   UNL     1       1.001  -0.013  -0.056  1.00  0.00     0.009 C 
ENDBRANCH  17  22
ENDBRANCH  11  16
ENDBRANCH   8  10
ENDBRANCH   6   8
ENDBRANCH   5   6
ENDBRANCH   4   5
ENDBRANCH   3   4
ENDBRANCH   2   3
ENDBRANCH   1   2
BRANCH   1  24
ATOM     24  C   UNL     1      -3.670   0.434  -5.494  1.00  0.00     0.188 C 
BRANCH  24  25
ATOM     25  O   UNL     1      -3.813   1.786  -5.123  1.00  0.00    -0.376 OA
BRANCH  25  26
ATOM     26  C   UNL     1      -2.739   2.377  -4.423  1.00  0.00     0.202 C 
BRANCH  26  27
ATOM     27  C   UNL     1      -1.409   2.463  -5.184  1.00  0.00     0.261 C 
BRANCH  27  28
ATOM     28  O   UNL     1      -0.974   1.262  -5.852  1.00  0.00    -0.460 OA
BRANCH  28  29
ATOM     29  C   UNL     1      -0.452   0.269  -5.096  1.00  0.00     0.338 C 
ATOM     30  O   UNL     1      -0.289   0.272  -3.886  1.00  0.00    -0.246 OA
BRANCH  29  31
ATOM     31  C   UNL     1      -0.296  -0.919  -5.969  1.00  0.00     0.060 A 
ATOM     32  C   UNL     1      -1.064  -2.068  -5.725  1.00  0.00     0.016 A 
ATOM     33  C   UNL     1       0.582  -0.883  -7.054  1.00  0.00     0.016 A 
ATOM     34  C   UNL     1      -0.961  -3.179  -6.571  1.00  0.00     0.010 A 
ATOM     35  C   UNL     1       0.703  -2.005  -7.881  1.00  0.00     0.010 A 
ATOM     36  C   UNL     1      -0.059  -3.163  -7.643  1.00  0.00    -0.014 A 
BRANCH  36  37
ATOM     37  C   UNL     1       0.186  -4.375  -8.467  1.00  0.00     0.031 A 
ATOM     38  C   UNL     1       1.410  -5.205  -8.197  1.00  0.00     0.074 A 
ATOM     39  C   UNL     1      -0.636  -4.710  -9.479  1.00  0.00     0.049 A 
ATOM     40  N   UNL     1       1.913  -6.197  -8.886  1.00  0.00    -0.248 NA
ATOM     41  C   UNL     1       2.171  -4.862  -6.986  1.00  0.00     0.031 C 
ATOM     42  C   UNL     1      -1.880  -4.025  -9.820  1.00  0.00     0.029 A 
ATOM     43  N   UNL     1      -0.525  -5.701 -10.426  1.00  0.00    -0.354 N 
ATOM     44  C   UNL     1       3.058  -6.588  -8.203  1.00  0.00     0.074 A 
ATOM     45  C   UNL     1       3.185  -5.713  -7.056  1.00  0.00     0.031 C 
ATOM     46  C   UNL     1      -2.404  -4.597 -10.918  1.00  0.00     0.029 A 
ATOM     47  C   UNL     1      -1.509  -5.655 -11.385  1.00  0.00     0.049 A 
ATOM     48  H   UNL     1       0.190  -6.378 -10.418  1.00  0.00     0.167 HD
ATOM     49  C   UNL     1       3.924  -7.585  -8.504  1.00  0.00     0.037 A 
ATOM     50  C   UNL     1      -1.646  -6.354 -12.530  1.00  0.00     0.037 A 
ATOM     51  C   UNL     1       3.801  -8.448  -9.650  1.00  0.00     0.049 A 
ATOM     52  C   UNL     1      -0.609  -7.383 -12.905  1.00  0.00     0.074 A 
ATOM     53  C   UNL     1       4.614  -9.505 -10.024  1.00  0.00     0.029 A 
ATOM     54  N   UNL     1       2.813  -8.344 -10.617  1.00  0.00    -0.354 N 
ATOM     55  N   UNL     1       0.454  -7.768 -12.240  1.00  0.00    -0.248 NA
ATOM     56  C   UNL     1      -0.785  -8.067 -14.196  1.00  0.00     0.031 C 
ATOM     57  C   UNL     1       4.156  -9.997 -11.250  1.00  0.00     0.029 A 
ATOM     58  C   UNL     1       3.022  -9.287 -11.610  1.00  0.00     0.049 A 
ATOM     59  H   UNL     1       2.072  -7.695 -10.600  1.00  0.00     0.167 HD
ATOM     60  C   UNL     1       1.059  -8.748 -13.020  1.00  0.00     0.074 A 
ATOM     61  C   UNL     1       0.235  -8.914 -14.198  1.00  0.00     0.031 C 
ATOM     62  C   UNL     1       2.198  -9.444 -12.782  1.00  0.00     0.037 A 
BRANCH  49  63
ATOM     63  C   UNL     1       5.107  -7.772  -7.599  1.00  0.00     0.057 A 
ATOM     64  C   UNL     1       4.977  -8.274  -6.298  1.00  0.00     0.134 A 
ATOM     65  C   UNL     1       6.402  -7.481  -8.051  1.00  0.00     0.134 A 
ATOM     66  F   UNL     1       3.765  -8.564  -5.799  1.00  0.00    -0.206 F 
ATOM     67  C   UNL     1       6.087  -8.455  -5.471  1.00  0.00     0.040 A 
ATOM     68  C   UNL     1       7.521  -7.685  -7.244  1.00  0.00     0.040 A 
ATOM     69  F   UNL     1       6.600  -7.004  -9.289  1.00  0.00    -0.206 F 
ATOM     70  C   UNL     1       7.364  -8.166  -5.946  1.00  0.00     0.006 A 
ENDBRANCH  49  63
BRANCH  50  71
ATOM     71  C   UNL     1      -2.790  -6.079 -13.439  1.00  0.00     0.057 A 
ATOM     72  C   UNL     1      -3.789  -7.035 -13.657  1.00  0.00     0.134 A 
ATOM     73  C   UNL     1      -2.897  -4.868 -14.135  1.00  0.00     0.134 A 
ATOM     74  F   UNL     1      -3.727  -8.227 -13.045  1.00  0.00    -0.206 F 
ATOM     75  C   UNL     1      -4.845  -6.803 -14.541  1.00  0.00     0.040 A 
ATOM     76  C   UNL     1      -3.963  -4.611 -14.999  1.00  0.00     0.040 A 
ATOM     77  F   UNL     1      -1.969  -3.912 -13.979  1.00  0.00    -0.206 F 
ATOM     78  C   UNL     1      -4.937  -5.583 -15.209  1.00  0.00     0.006 A 
ENDBRANCH  50  71
BRANCH  62  79
ATOM     79  C   UNL     1       2.619 -10.463 -13.803  1.00  0.00     0.057 A 
ATOM     80  C   UNL     1       3.136 -10.088 -15.050  1.00  0.00     0.134 A 
ATOM     81  C   UNL     1       2.568 -11.833 -13.513  1.00  0.00     0.134 A 
ATOM     82  F   UNL     1       3.202  -8.793 -15.397  1.00  0.00    -0.206 F 
ATOM     83  C   UNL     1       3.574 -11.038 -15.975  1.00  0.00     0.040 A 
ATOM     84  C   UNL     1       3.028 -12.791 -14.419  1.00  0.00     0.040 A 
ATOM     85  F   UNL     1       2.093 -12.263 -12.334  1.00  0.00    -0.206 F 
ATOM     86  C   UNL     1       3.530 -12.393 -15.656  1.00  0.00     0.006 A 
ENDBRANCH  62  79
ENDBRANCH  36  37
ENDBRANCH  29  31
ENDBRANCH  28  29
ENDBRANCH  27  28
ENDBRANCH  26  27
ENDBRANCH  25  26
ENDBRANCH  24  25
ENDBRANCH   1  24
TORSDOF 20
