REMARK SMILES COc1cc(Cl)ccc1NC(=O)COc1ccccc1C(=O)OCCOCCOCCOC(=O)c1ccc(-c2c3nc(c(-c4c(F)cccc4F)c4ccc([nH]4)c(-c4c(F)cccc4F)c4nc(c(-c5c(F)cccc5F)c5ccc2[nH]5)C=C4)C=C3)cc1
REMARK SMILES IDX 26 1 25 2 24 3 23 4 21 5 22 6 20 7 15 8 16 9 17 10 19 11
REMARK SMILES IDX 18 12 14 13 13 14 11 15 10 16 12 18 9 19 3 20 4 21 5 22 8 23
REMARK SMILES IDX 6 24 7 25 2 26 1 27 27 28 28 29 29 30 30 31 31 32 32 33
REMARK SMILES IDX 33 34 34 35 35 36 36 37 88 38 37 39 87 40 38 41 39 42 40 43
REMARK SMILES IDX 81 44 41 45 86 46 80 47 82 48 42 49 85 50 79 51 78 52 43 54
REMARK SMILES IDX 69 55 52 56 68 57 53 58 56 59 67 60 83 61 54 62 55 63 66 65
REMARK SMILES IDX 84 66 57 67 44 68 45 69 50 70 46 71 47 72 49 73 51 74 48 75
REMARK SMILES IDX 70 76 71 77 76 78 72 79 73 80 75 81 77 82 74 83 58 84 59 85
REMARK SMILES IDX 64 86 60 87 61 88 63 89 65 90 62 91
REMARK H PARENT 10 17 82 53 56 64
REMARK Flexibility Score: inf
ROOT
ATOM      1  O   UNL     1      -4.017   1.071  -1.204  1.00  0.00    -0.376 OA
ENDROOT
BRANCH   1   2
ATOM      2  C   UNL     1      -4.182   2.419  -1.644  1.00  0.00     0.202 C 
BRANCH   2   3
ATOM      3  C   UNL     1      -4.776   3.403  -0.637  1.00  0.00     0.261 C 
BRANCH   3   4
ATOM      4  O   UNL     1      -4.019   3.437   0.584  1.00  0.00    -0.460 OA
BRANCH   4   5
ATOM      5  C   UNL     1      -4.728   3.725   1.692  1.00  0.00     0.342 C 
ATOM      6  O   UNL     1      -5.909   4.025   1.750  1.00  0.00    -0.246 OA
BRANCH   5   7
ATOM      7  C   UNL     1      -3.927   3.404   2.887  1.00  0.00     0.102 A 
ATOM      8  C   UNL     1      -2.808   4.093   3.369  1.00  0.00     0.134 A 
ATOM      9  C   UNL     1      -2.304   3.707   4.628  1.00  0.00     0.047 A 
ATOM     10  C   UNL     1      -2.857   2.660   5.370  1.00  0.00     0.004 A 
ATOM     11  C   UNL     1      -4.463   2.322   3.625  1.00  0.00     0.019 A 
ATOM     12  C   UNL     1      -3.928   1.947   4.855  1.00  0.00     0.001 A 
BRANCH   8  13
ATOM     13  O   UNL     1      -2.077   5.131   2.876  1.00  0.00    -0.483 OA
BRANCH  13  14
ATOM     14  C   UNL     1      -2.292   5.745   1.627  1.00  0.00     0.329 C 
BRANCH  14  15
ATOM     15  C   UNL     1      -1.593   5.160   0.392  1.00  0.00     0.262 C 
ATOM     16  N   UNL     1      -0.387   4.523   0.459  1.00  0.00    -0.320 N 
ATOM     17  H   UNL     1      -0.275   3.839  -0.240  1.00  0.00     0.170 HD
ATOM     18  O   UNL     1      -2.141   5.259  -0.714  1.00  0.00    -0.271 OA
BRANCH  16  19
ATOM     19  C   UNL     1       0.734   4.630   1.308  1.00  0.00     0.084 A 
ATOM     20  C   UNL     1       1.785   3.691   1.138  1.00  0.00     0.143 A 
ATOM     21  C   UNL     1       2.975   3.822   1.862  1.00  0.00     0.069 A 
ATOM     22  C   UNL     1       3.143   4.900   2.722  1.00  0.00     0.044 A 
ATOM     23  C   UNL     1       0.918   5.691   2.196  1.00  0.00     0.031 A 
ATOM     24  Cl  UNL     1       4.639   5.099   3.549  1.00  0.00    -0.084 Cl
ATOM     25  C   UNL     1       2.123   5.830   2.894  1.00  0.00     0.023 A 
BRANCH  20  26
ATOM     26  O   UNL     1       1.564   2.684   0.230  1.00  0.00    -0.495 OA
ATOM     27  C   UNL     1       2.654   1.804  -0.046  1.00  0.00     0.278 C 
ENDBRANCH  20  26
ENDBRANCH  16  19
ENDBRANCH  14  15
ENDBRANCH  13  14
ENDBRANCH   8  13
ENDBRANCH   5   7
ENDBRANCH   4   5
ENDBRANCH   3   4
ENDBRANCH   2   3
ENDBRANCH   1   2
BRANCH   1  28
ATOM     28  C   UNL     1      -3.163   0.801  -0.093  1.00  0.00     0.188 C 
BRANCH  28  29
ATOM     29  C   UNL     1      -1.814   1.539   0.025  1.00  0.00     0.188 C 
BRANCH  29  30
ATOM     30  O   UNL     1      -1.405   2.181  -1.161  1.00  0.00    -0.376 OA
BRANCH  30  31
ATOM     31  C   UNL     1      -0.464   1.619  -2.045  1.00  0.00     0.202 C 
BRANCH  31  32
ATOM     32  C   UNL     1      -0.322   0.119  -2.313  1.00  0.00     0.261 C 
BRANCH  32  33
ATOM     33  O   UNL     1      -0.846  -0.770  -1.333  1.00  0.00    -0.460 OA
BRANCH  33  34
ATOM     34  C   UNL     1      -0.024  -1.155  -0.342  1.00  0.00     0.338 C 
ATOM     35  O   UNL     1       1.117  -0.779  -0.105  1.00  0.00    -0.246 OA
BRANCH  34  36
ATOM     36  C   UNL     1      -0.769  -2.097   0.489  1.00  0.00     0.060 A 
ATOM     37  C   UNL     1      -1.035  -1.793   1.830  1.00  0.00     0.016 A 
ATOM     38  C   UNL     1      -1.177  -3.304  -0.084  1.00  0.00     0.016 A 
ATOM     39  C   UNL     1      -1.680  -2.736   2.624  1.00  0.00     0.010 A 
ATOM     40  C   UNL     1      -1.811  -4.245   0.711  1.00  0.00     0.010 A 
ATOM     41  C   UNL     1      -2.026  -3.977   2.072  1.00  0.00    -0.014 A 
BRANCH  41  42
ATOM     42  C   UNL     1      -2.455  -5.091   2.935  1.00  0.00     0.031 A 
ATOM     43  C   UNL     1      -1.423  -6.100   3.342  1.00  0.00     0.074 A 
ATOM     44  C   UNL     1      -3.748  -5.221   3.266  1.00  0.00     0.049 A 
ATOM     45  N   UNL     1      -1.574  -7.242   3.956  1.00  0.00    -0.248 NA
ATOM     46  C   UNL     1      -0.028  -5.785   2.987  1.00  0.00     0.031 C 
ATOM     47  C   UNL     1      -4.809  -4.279   2.911  1.00  0.00     0.029 A 
ATOM     48  N   UNL     1      -4.390  -6.216   3.950  1.00  0.00    -0.354 N 
ATOM     49  C   UNL     1      -0.301  -7.789   4.045  1.00  0.00     0.074 A 
ATOM     50  C   UNL     1       0.610  -6.867   3.404  1.00  0.00     0.031 C 
ATOM     51  C   UNL     1      -5.981  -4.755   3.363  1.00  0.00     0.029 A 
ATOM     52  C   UNL     1      -5.750  -6.045   4.006  1.00  0.00     0.049 A 
ATOM     53  H   UNL     1      -3.923  -6.979   4.360  1.00  0.00     0.167 HD
ATOM     54  C   UNL     1       0.068  -8.960   4.614  1.00  0.00     0.037 A 
ATOM     55  C   UNL     1      -6.696  -6.864   4.501  1.00  0.00     0.037 A 
ATOM     56  C   UNL     1      -0.864  -9.865   5.232  1.00  0.00     0.049 A 
ATOM     57  C   UNL     1      -6.263  -8.165   5.119  1.00  0.00     0.074 A 
ATOM     58  C   UNL     1      -0.621 -11.081   5.841  1.00  0.00     0.029 A 
ATOM     59  N   UNL     1      -2.233  -9.641   5.311  1.00  0.00    -0.354 N 
ATOM     60  N   UNL     1      -5.057  -8.674   5.214  1.00  0.00    -0.248 NA
ATOM     61  C   UNL     1      -7.318  -9.000   5.705  1.00  0.00     0.031 C 
ATOM     62  C   UNL     1      -1.848 -11.607   6.264  1.00  0.00     0.029 A 
ATOM     63  C   UNL     1      -2.849 -10.697   5.957  1.00  0.00     0.049 A 
ATOM     64  H   UNL     1      -2.696  -8.847   4.959  1.00  0.00     0.167 HD
ATOM     65  C   UNL     1      -5.201  -9.875   5.895  1.00  0.00     0.074 A 
ATOM     66  C   UNL     1      -6.614 -10.009   6.198  1.00  0.00     0.031 C 
ATOM     67  C   UNL     1      -4.259 -10.787   6.242  1.00  0.00     0.037 A 
BRANCH  54  68
ATOM     68  C   UNL     1       1.523  -9.323   4.561  1.00  0.00     0.057 A 
ATOM     69  C   UNL     1       2.486  -8.638   5.315  1.00  0.00     0.134 A 
ATOM     70  C   UNL     1       1.973 -10.364   3.738  1.00  0.00     0.134 A 
ATOM     71  F   UNL     1       2.127  -7.615   6.106  1.00  0.00    -0.206 F 
ATOM     72  C   UNL     1       3.843  -8.957   5.233  1.00  0.00     0.040 A 
ATOM     73  C   UNL     1       3.324 -10.709   3.667  1.00  0.00     0.040 A 
ATOM     74  F   UNL     1       1.107 -11.060   2.985  1.00  0.00    -0.206 F 
ATOM     75  C   UNL     1       4.265  -9.999   4.411  1.00  0.00     0.006 A 
ENDBRANCH  54  68
BRANCH  55  76
ATOM     76  C   UNL     1      -8.124  -6.467   4.444  1.00  0.00     0.057 A 
ATOM     77  C   UNL     1      -8.817  -6.101   5.603  1.00  0.00     0.134 A 
ATOM     78  C   UNL     1      -8.824  -6.420   3.232  1.00  0.00     0.134 A 
ATOM     79  F   UNL     1      -8.205  -6.139   6.796  1.00  0.00    -0.206 F 
ATOM     80  C   UNL     1     -10.159  -5.716   5.563  1.00  0.00     0.040 A 
ATOM     81  C   UNL     1     -10.158  -6.015   3.174  1.00  0.00     0.040 A 
ATOM     82  F   UNL     1      -8.213  -6.750   2.085  1.00  0.00    -0.206 F 
ATOM     83  C   UNL     1     -10.831  -5.667   4.343  1.00  0.00     0.006 A 
ENDBRANCH  55  76
BRANCH  67  84
ATOM     84  C   UNL     1      -4.733 -11.975   7.022  1.00  0.00     0.057 A 
ATOM     85  C   UNL     1      -5.467 -13.007   6.425  1.00  0.00     0.134 A 
ATOM     86  C   UNL     1      -4.436 -12.091   8.385  1.00  0.00     0.134 A 
ATOM     87  F   UNL     1      -5.793 -12.946   5.125  1.00  0.00    -0.206 F 
ATOM     88  C   UNL     1      -5.918 -14.099   7.167  1.00  0.00     0.040 A 
ATOM     89  C   UNL     1      -4.858 -13.190   9.131  1.00  0.00     0.040 A 
ATOM     90  F   UNL     1      -3.727 -11.139   9.011  1.00  0.00    -0.206 F 
ATOM     91  C   UNL     1      -5.610 -14.194   8.523  1.00  0.00     0.006 A 
ENDBRANCH  67  84
ENDBRANCH  41  42
ENDBRANCH  34  36
ENDBRANCH  33  34
ENDBRANCH  32  33
ENDBRANCH  31  32
ENDBRANCH  30  31
ENDBRANCH  29  30
ENDBRANCH  28  29
ENDBRANCH   1  28
TORSDOF 22
