REMARK SMILES Cc1ccccc1Sc1cncc(C(=O)OCCOCCOCCOC(=O)c2ccc(-c3c4nc(c(-c5c(F)cccc5F)c5ccc([nH]5)c(-c5c(F)cccc5F)c5nc(c(-c6c(F)cccc6F)c6ccc3[nH]6)C=C5)C=C4)cc2)n1
REMARK SMILES IDX 20 1 19 2 18 3 17 4 16 5 14 6 15 7 13 8 9 9 10 10 82 11
REMARK SMILES IDX 11 12 12 13 8 14 7 15 1 16 2 17 3 18 4 19 6 20 5 21 21 22
REMARK SMILES IDX 22 23 23 24 24 25 25 26 26 27 27 28 28 29 29 30 81 31 30 32
REMARK SMILES IDX 80 33 31 34 32 35 33 36 74 37 34 38 79 39 73 40 75 41 35 42
REMARK SMILES IDX 78 43 72 44 71 45 36 47 62 48 45 49 61 50 46 51 49 52 60 53
REMARK SMILES IDX 76 54 47 55 48 56 59 58 77 59 50 60 37 61 38 62 43 63 39 64
REMARK SMILES IDX 40 65 42 66 44 67 41 68 63 69 64 70 69 71 65 72 66 73 68 74
REMARK SMILES IDX 70 75 67 76 51 77 52 78 57 79 53 80 54 81 56 82 58 83 55 84
REMARK H PARENT 75 46 49 57
REMARK Flexibility Score: inf
ROOT
ATOM      1  C   UNL     1       7.946   2.354   5.711  1.00  0.00     0.188 C 
ENDROOT
BRANCH   1   2
ATOM      2  O   UNL     1       7.246   3.431   5.075  1.00  0.00    -0.376 OA
BRANCH   2   3
ATOM      3  C   UNL     1       6.153   3.961   5.828  1.00  0.00     0.202 C 
BRANCH   3   4
ATOM      4  C   UNL     1       4.849   4.356   5.032  1.00  0.00     0.261 C 
BRANCH   4   5
ATOM      5  O   UNL     1       4.326   3.459   3.954  1.00  0.00    -0.458 OA
BRANCH   5   6
ATOM      6  C   UNL     1       2.994   3.301   3.510  1.00  0.00     0.358 C 
ATOM      7  O   UNL     1       2.071   3.440   4.298  1.00  0.00    -0.244 OA
BRANCH   6   8
ATOM      8  C   UNL     1       2.720   3.037   1.799  1.00  0.00     0.167 A 
ATOM      9  C   UNL     1       1.112   2.879   0.158  1.00  0.00     0.120 A 
ATOM     10  C   UNL     1       2.013   2.886  -0.900  1.00  0.00     0.146 A 
ATOM     11  N   UNL     1       1.416   2.964   1.496  1.00  0.00    -0.231 NA
ATOM     12  N   UNL     1       3.306   2.918  -0.666  1.00  0.00    -0.259 NA
ATOM     13  C   UNL     1       3.606   2.997   0.663  1.00  0.00     0.147 A 
BRANCH   9  14
ATOM     14  S   UNL     1      -0.539   2.573  -0.264  1.00  0.00    -0.068 SA
BRANCH  14  15
ATOM     15  C   UNL     1      -0.685   0.802  -0.070  1.00  0.00     0.017 A 
ATOM     16  C   UNL     1       1.764  -0.182  -0.011  1.00  0.00     0.045 C 
ATOM     17  C   UNL     1       0.256  -0.258   0.020  1.00  0.00    -0.037 A 
ATOM     18  C   UNL     1      -0.247  -1.574   0.106  1.00  0.00     0.004 A 
ATOM     19  C   UNL     1      -1.614  -1.839   0.124  1.00  0.00     0.000 A 
ATOM     20  C   UNL     1      -2.058   0.500  -0.044  1.00  0.00     0.016 A 
ATOM     21  C   UNL     1      -2.521  -0.799   0.053  1.00  0.00     0.001 A 
ENDBRANCH  14  15
ENDBRANCH   9  14
ENDBRANCH   6   8
ENDBRANCH   5   6
ENDBRANCH   4   5
ENDBRANCH   3   4
ENDBRANCH   2   3
ENDBRANCH   1   2
BRANCH   1  22
ATOM     22  C   UNL     1       7.180   1.063   5.502  1.00  0.00     0.188 C 
BRANCH  22  23
ATOM     23  O   UNL     1       5.870   1.126   6.043  1.00  0.00    -0.376 OA
BRANCH  23  24
ATOM     24  C   UNL     1       5.529   0.116   6.979  1.00  0.00     0.202 C 
BRANCH  24  25
ATOM     25  C   UNL     1       5.707  -1.327   6.468  1.00  0.00     0.261 C 
BRANCH  25  26
ATOM     26  O   UNL     1       5.229  -1.452   5.112  1.00  0.00    -0.460 OA
BRANCH  26  27
ATOM     27  C   UNL     1       6.133  -1.727   4.126  1.00  0.00     0.338 C 
ATOM     28  O   UNL     1       7.167  -2.388   4.262  1.00  0.00    -0.246 OA
BRANCH  27  29
ATOM     29  C   UNL     1       5.872  -0.816   2.969  1.00  0.00     0.060 A 
ATOM     30  C   UNL     1       6.896  -0.247   2.208  1.00  0.00     0.016 A 
ATOM     31  C   UNL     1       4.694  -0.144   2.974  1.00  0.00     0.016 A 
ATOM     32  C   UNL     1       6.834   1.132   1.784  1.00  0.00     0.010 A 
ATOM     33  C   UNL     1       4.744   1.223   2.674  1.00  0.00     0.010 A 
ATOM     34  C   UNL     1       5.824   2.019   2.187  1.00  0.00    -0.014 A 
BRANCH  34  35
ATOM     35  C   UNL     1       6.037   3.723   2.150  1.00  0.00     0.031 A 
ATOM     36  C   UNL     1       5.061   5.093   1.831  1.00  0.00     0.074 A 
ATOM     37  C   UNL     1       7.292   4.137   2.403  1.00  0.00     0.049 A 
ATOM     38  N   UNL     1       5.353   6.095   1.015  1.00  0.00    -0.248 NA
ATOM     39  C   UNL     1       3.658   5.403   2.274  1.00  0.00     0.031 C 
ATOM     40  C   UNL     1       7.733   5.477   2.762  1.00  0.00     0.029 A 
ATOM     41  N   UNL     1       8.463   3.383   2.401  1.00  0.00    -0.354 N 
ATOM     42  C   UNL     1       4.242   6.977   1.108  1.00  0.00     0.074 A 
ATOM     43  C   UNL     1       3.141   6.123   1.280  1.00  0.00     0.031 C 
ATOM     44  C   UNL     1       9.074   5.514   2.705  1.00  0.00     0.029 A 
ATOM     45  C   UNL     1       9.505   4.265   2.106  1.00  0.00     0.049 A 
ATOM     46  H   UNL     1       8.542   2.417   2.573  1.00  0.00     0.167 HD
ATOM     47  C   UNL     1       4.283   8.254   1.635  1.00  0.00     0.037 A 
ATOM     48  C   UNL     1      10.188   4.135   0.932  1.00  0.00     0.037 A 
ATOM     49  C   UNL     1       5.652   8.683   1.630  1.00  0.00     0.049 A 
ATOM     50  C   UNL     1      10.056   5.378   0.079  1.00  0.00     0.074 A 
ATOM     51  C   UNL     1       6.597   8.966   2.593  1.00  0.00     0.029 A 
ATOM     52  N   UNL     1       6.312   8.564   0.429  1.00  0.00    -0.354 N 
ATOM     53  N   UNL     1       9.106   6.263   0.243  1.00  0.00    -0.248 NA
ATOM     54  C   UNL     1      11.003   5.785  -0.952  1.00  0.00     0.031 C 
ATOM     55  C   UNL     1       7.872   8.869   1.954  1.00  0.00     0.029 A 
ATOM     56  C   UNL     1       7.667   8.593   0.610  1.00  0.00     0.049 A 
ATOM     57  H   UNL     1       5.868   8.471  -0.445  1.00  0.00     0.167 HD
ATOM     58  C   UNL     1       9.314   7.336  -0.577  1.00  0.00     0.074 A 
ATOM     59  C   UNL     1      10.504   6.981  -1.320  1.00  0.00     0.031 C 
ATOM     60  C   UNL     1       8.490   8.424  -0.573  1.00  0.00     0.037 A 
BRANCH  47  61
ATOM     61  C   UNL     1       3.139   9.053   2.355  1.00  0.00     0.057 A 
ATOM     62  C   UNL     1       3.357  10.402   2.718  1.00  0.00     0.134 A 
ATOM     63  C   UNL     1       1.867   8.590   2.795  1.00  0.00     0.134 A 
ATOM     64  F   UNL     1       4.505  11.023   2.412  1.00  0.00    -0.206 F 
ATOM     65  C   UNL     1       2.423  11.193   3.428  1.00  0.00     0.040 A 
ATOM     66  C   UNL     1       0.904   9.385   3.452  1.00  0.00     0.040 A 
ATOM     67  F   UNL     1       1.466   7.320   2.701  1.00  0.00    -0.206 F 
ATOM     68  C   UNL     1       1.182  10.693   3.785  1.00  0.00     0.006 A 
ENDBRANCH  47  61
BRANCH  48  69
ATOM     69  C   UNL     1      10.373   2.705   0.522  1.00  0.00     0.057 A 
ATOM     70  C   UNL     1      10.994   1.844   1.460  1.00  0.00     0.134 A 
ATOM     71  C   UNL     1       9.662   2.078  -0.507  1.00  0.00     0.134 A 
ATOM     72  F   UNL     1      11.693   2.362   2.484  1.00  0.00    -0.206 F 
ATOM     73  C   UNL     1      10.806   0.458   1.459  1.00  0.00     0.040 A 
ATOM     74  C   UNL     1       9.495   0.677  -0.538  1.00  0.00     0.040 A 
ATOM     75  F   UNL     1       9.004   2.801  -1.423  1.00  0.00    -0.206 F 
ATOM     76  C   UNL     1      10.037  -0.130   0.465  1.00  0.00     0.006 A 
ENDBRANCH  48  69
BRANCH  60  77
ATOM     77  C   UNL     1       8.275   9.395  -1.722  1.00  0.00     0.057 A 
ATOM     78  C   UNL     1       8.604   9.111  -3.053  1.00  0.00     0.134 A 
ATOM     79  C   UNL     1       7.479  10.558  -1.544  1.00  0.00     0.134 A 
ATOM     80  F   UNL     1       9.270   8.003  -3.397  1.00  0.00    -0.206 F 
ATOM     81  C   UNL     1       8.195   9.925  -4.118  1.00  0.00     0.040 A 
ATOM     82  C   UNL     1       6.994  11.325  -2.606  1.00  0.00     0.040 A 
ATOM     83  F   UNL     1       7.083  10.972  -0.330  1.00  0.00    -0.206 F 
ATOM     84  C   UNL     1       7.366  11.018  -3.902  1.00  0.00     0.006 A 
ENDBRANCH  60  77
ENDBRANCH  34  35
ENDBRANCH  27  29
ENDBRANCH  26  27
ENDBRANCH  25  26
ENDBRANCH  24  25
ENDBRANCH  23  24
ENDBRANCH  22  23
ENDBRANCH   1  22
TORSDOF 19
