REMARK SMILES Cc1ncccc1NC(=O)Nc1ccc(C(=O)OCCOCCOCCOC(=O)c2ccc(-c3c4nc(c(-c5c(F)cccc5F)c5ccc([nH]5)c(-c5c(F)cccc5F)c5nc(c(-c6c(F)cccc6F)c6ccc3[nH]6)C=C5)C=C4)cc2)c(O)c1
REMARK SMILES IDX 22 1 21 2 20 3 19 4 18 5 16 6 17 7 15 8 12 9 13 10 86 11
REMARK SMILES IDX 14 12 84 13 11 14 8 15 9 16 10 18 7 20 1 21 2 22 3 23 4 24
REMARK SMILES IDX 6 25 5 26 85 27 23 29 24 30 25 31 26 32 27 33 28 34 29 35
REMARK SMILES IDX 30 36 31 37 83 38 32 39 82 40 33 41 34 42 35 43 76 44 36 45
REMARK SMILES IDX 81 46 75 47 77 48 37 49 80 50 74 51 73 52 38 54 64 55 47 56
REMARK SMILES IDX 63 57 48 58 51 59 62 60 78 61 49 62 50 63 61 65 79 66 52 67
REMARK SMILES IDX 39 68 40 69 45 70 41 71 42 72 44 73 46 74 43 75 65 76 66 77
REMARK SMILES IDX 71 78 67 79 68 80 70 81 72 82 69 83 53 84 54 85 59 86 55 87
REMARK SMILES IDX 56 88 58 89 60 90 57 91
REMARK H PARENT 8 17 11 19 85 28 77 53 51 64
REMARK Flexibility Score: inf
ROOT
ATOM      1  C   UNL     1      -3.365   3.268   0.351  1.00  0.00     0.188 C 
ENDROOT
BRANCH   1   2
ATOM      2  O   UNL     1      -4.478   4.057  -0.017  1.00  0.00    -0.376 OA
BRANCH   2   3
ATOM      3  C   UNL     1      -5.772   3.671   0.393  1.00  0.00     0.202 C 
BRANCH   3   4
ATOM      4  C   UNL     1      -6.340   2.345  -0.121  1.00  0.00     0.261 C 
BRANCH   4   5
ATOM      5  O   UNL     1      -5.494   1.193   0.076  1.00  0.00    -0.460 OA
BRANCH   5   6
ATOM      6  C   UNL     1      -4.947   0.671  -1.056  1.00  0.00     0.341 C 
ATOM      7  O   UNL     1      -5.065   1.124  -2.187  1.00  0.00    -0.246 OA
BRANCH   6   8
ATOM      8  C   UNL     1      -4.090  -0.505  -0.752  1.00  0.00     0.101 A 
ATOM      9  C   UNL     1      -2.427  -2.769  -0.373  1.00  0.00     0.046 A 
ATOM     10  C   UNL     1      -2.125  -1.832  -1.363  1.00  0.00     0.027 A 
ATOM     11  C   UNL     1      -3.575  -2.575   0.411  1.00  0.00     0.073 A 
ATOM     12  C   UNL     1      -2.971  -0.727  -1.572  1.00  0.00     0.022 A 
ATOM     13  C   UNL     1      -4.363  -1.423   0.264  1.00  0.00     0.132 A 
BRANCH   9  14
ATOM     14  N   UNL     1      -1.628  -3.909  -0.105  1.00  0.00    -0.308 N 
ATOM     15  N   UNL     1       0.647  -3.179  -0.076  1.00  0.00    -0.306 N 
ATOM     16  C   UNL     1      -0.293  -4.150  -0.280  1.00  0.00     0.323 C 
ATOM     17  H   UNL     1       1.529  -3.340  -0.483  1.00  0.00     0.171 HD
ATOM     18  O   UNL     1       0.082  -5.288  -0.570  1.00  0.00    -0.248 OA
ATOM     19  H   UNL     1      -2.126  -4.667   0.277  1.00  0.00     0.171 HD
BRANCH  15  20
ATOM     20  C   UNL     1       0.510  -1.981   0.644  1.00  0.00     0.064 A 
ATOM     21  C   UNL     1       2.551  -0.799  -0.349  1.00  0.00     0.069 C 
ATOM     22  C   UNL     1       1.180  -0.826   0.249  1.00  0.00     0.061 A 
ATOM     23  N   UNL     1       0.604   0.379   0.428  1.00  0.00    -0.259 NA
ATOM     24  C   UNL     1      -0.534   0.402   1.147  1.00  0.00     0.111 A 
ATOM     25  C   UNL     1      -0.463  -1.868   1.639  1.00  0.00     0.030 A 
ATOM     26  C   UNL     1      -1.033  -0.641   1.879  1.00  0.00     0.022 A 
ENDBRANCH  15  20
ENDBRANCH   9  14
BRANCH  13  27
ATOM     27  O   UNL     1      -5.370  -1.266   1.177  1.00  0.00    -0.507 OA
ATOM     28  H   UNL     1      -5.931  -0.516   1.131  1.00  0.00     0.293 HD
ENDBRANCH  13  27
ENDBRANCH   6   8
ENDBRANCH   5   6
ENDBRANCH   4   5
ENDBRANCH   3   4
ENDBRANCH   2   3
ENDBRANCH   1   2
BRANCH   1  29
ATOM     29  C   UNL     1      -3.265   2.597   1.738  1.00  0.00     0.188 C 
BRANCH  29  30
ATOM     30  O   UNL     1      -4.077   2.999   2.815  1.00  0.00    -0.376 OA
BRANCH  30  31
ATOM     31  C   UNL     1      -3.933   4.305   3.351  1.00  0.00     0.202 C 
BRANCH  31  32
ATOM     32  C   UNL     1      -2.565   5.000   3.445  1.00  0.00     0.261 C 
BRANCH  32  33
ATOM     33  O   UNL     1      -1.761   4.963   2.253  1.00  0.00    -0.460 OA
BRANCH  33  34
ATOM     34  C   UNL     1      -0.423   4.895   2.486  1.00  0.00     0.338 C 
ATOM     35  O   UNL     1       0.125   4.840   3.575  1.00  0.00    -0.246 OA
BRANCH  34  36
ATOM     36  C   UNL     1       0.355   4.852   1.231  1.00  0.00     0.060 A 
ATOM     37  C   UNL     1       0.261   3.736   0.412  1.00  0.00     0.016 A 
ATOM     38  C   UNL     1       1.342   5.797   0.972  1.00  0.00     0.016 A 
ATOM     39  C   UNL     1       1.183   3.494  -0.600  1.00  0.00     0.010 A 
ATOM     40  C   UNL     1       2.225   5.603  -0.103  1.00  0.00     0.010 A 
ATOM     41  C   UNL     1       2.182   4.426  -0.875  1.00  0.00    -0.014 A 
BRANCH  41  42
ATOM     42  C   UNL     1       3.237   4.101  -1.875  1.00  0.00     0.031 A 
ATOM     43  C   UNL     1       4.671   4.006  -1.427  1.00  0.00     0.074 A 
ATOM     44  C   UNL     1       2.930   3.809  -3.155  1.00  0.00     0.049 A 
ATOM     45  N   UNL     1       5.766   3.957  -2.140  1.00  0.00    -0.248 NA
ATOM     46  C   UNL     1       4.899   3.962   0.027  1.00  0.00     0.031 C 
ATOM     47  C   UNL     1       1.577   3.718  -3.707  1.00  0.00     0.029 A 
ATOM     48  N   UNL     1       3.742   3.523  -4.228  1.00  0.00    -0.354 N 
ATOM     49  C   UNL     1       6.812   3.947  -1.226  1.00  0.00     0.074 A 
ATOM     50  C   UNL     1       6.221   3.984   0.094  1.00  0.00     0.031 C 
ATOM     51  C   UNL     1       1.651   3.377  -5.003  1.00  0.00     0.029 A 
ATOM     52  C   UNL     1       3.053   3.333  -5.402  1.00  0.00     0.049 A 
ATOM     53  H   UNL     1       4.722   3.460  -4.161  1.00  0.00     0.167 HD
ATOM     54  C   UNL     1       8.144   3.922  -1.471  1.00  0.00     0.037 A 
ATOM     55  C   UNL     1       3.496   3.204  -6.668  1.00  0.00     0.037 A 
ATOM     56  C   UNL     1       8.716   3.832  -2.790  1.00  0.00     0.049 A 
ATOM     57  C   UNL     1       4.976   3.276  -6.931  1.00  0.00     0.074 A 
ATOM     58  C   UNL     1      10.051   3.827  -3.155  1.00  0.00     0.029 A 
ATOM     59  N   UNL     1       7.981   3.716  -3.961  1.00  0.00    -0.354 N 
ATOM     60  N   UNL     1       5.963   3.382  -6.075  1.00  0.00    -0.248 NA
ATOM     61  C   UNL     1       5.402   3.238  -8.337  1.00  0.00     0.031 C 
ATOM     62  C   UNL     1      10.122   3.757  -4.551  1.00  0.00     0.029 A 
ATOM     63  C   UNL     1       8.834   3.657  -5.052  1.00  0.00     0.049 A 
ATOM     64  H   UNL     1       6.999   3.680  -4.010  1.00  0.00     0.167 HD
ATOM     65  C   UNL     1       7.126   3.404  -6.834  1.00  0.00     0.074 A 
ATOM     66  C   UNL     1       6.721   3.281  -8.220  1.00  0.00     0.031 C 
ATOM     67  C   UNL     1       8.413   3.522  -6.423  1.00  0.00     0.037 A 
BRANCH  54  68
ATOM     68  C   UNL     1       9.068   4.066  -0.296  1.00  0.00     0.057 A 
ATOM     69  C   UNL     1       9.245   3.056   0.657  1.00  0.00     0.134 A 
ATOM     70  C   UNL     1       9.801   5.250  -0.123  1.00  0.00     0.134 A 
ATOM     71  F   UNL     1       8.563   1.905   0.563  1.00  0.00    -0.206 F 
ATOM     72  C   UNL     1      10.093   3.228   1.755  1.00  0.00     0.040 A 
ATOM     73  C   UNL     1      10.673   5.422   0.953  1.00  0.00     0.040 A 
ATOM     74  F   UNL     1       9.684   6.258  -1.000  1.00  0.00    -0.206 F 
ATOM     75  C   UNL     1      10.814   4.412   1.901  1.00  0.00     0.006 A 
ENDBRANCH  54  68
BRANCH  55  76
ATOM     76  C   UNL     1       2.529   3.081  -7.793  1.00  0.00     0.057 A 
ATOM     77  C   UNL     1       2.469   1.926  -8.582  1.00  0.00     0.134 A 
ATOM     78  C   UNL     1       1.656   4.126  -8.123  1.00  0.00     0.134 A 
ATOM     79  F   UNL     1       3.298   0.899  -8.341  1.00  0.00    -0.206 F 
ATOM     80  C   UNL     1       1.587   1.819  -9.660  1.00  0.00     0.040 A 
ATOM     81  C   UNL     1       0.745   4.021  -9.175  1.00  0.00     0.040 A 
ATOM     82  F   UNL     1       1.664   5.266  -7.415  1.00  0.00    -0.206 F 
ATOM     83  C   UNL     1       0.715   2.866  -9.953  1.00  0.00     0.006 A 
ENDBRANCH  55  76
BRANCH  67  84
ATOM     84  C   UNL     1       9.477   3.474  -7.481  1.00  0.00     0.057 A 
ATOM     85  C   UNL     1       9.684   4.530  -8.376  1.00  0.00     0.134 A 
ATOM     86  C   UNL     1      10.330   2.366  -7.577  1.00  0.00     0.134 A 
ATOM     87  F   UNL     1       8.893   5.613  -8.346  1.00  0.00    -0.206 F 
ATOM     88  C   UNL     1      10.687   4.476  -9.347  1.00  0.00     0.040 A 
ATOM     89  C   UNL     1      11.354   2.314  -8.523  1.00  0.00     0.040 A 
ATOM     90  F   UNL     1      10.191   1.324  -6.744  1.00  0.00    -0.206 F 
ATOM     91  C   UNL     1      11.530   3.368  -9.416  1.00  0.00     0.006 A 
ENDBRANCH  67  84
ENDBRANCH  41  42
ENDBRANCH  34  36
ENDBRANCH  33  34
ENDBRANCH  32  33
ENDBRANCH  31  32
ENDBRANCH  30  31
ENDBRANCH  29  30
ENDBRANCH   1  29
TORSDOF 20
