REMARK SMILES COC(CNS(=O)(=O)c1ccc(Cl)c(C(=O)OCCOCCOCCOC(=O)c2ccc(-c3c4nc(c(-c5c(F)cccc5F)c5ccc([nH]5)c(-c5c(F)cccc5F)c5nc(c(-c6c(F)cccc6F)c6ccc3[nH]6)C=C5)C=C4)cc2)c1Cl)OC
REMARK SMILES IDX 20 1 19 2 18 3 17 4 15 5 16 6 14 7 9 8 10 9 83 10 11 11
REMARK SMILES IDX 84 12 12 13 13 14 6 15 7 16 8 17 5 18 4 20 3 21 2 22 1 23
REMARK SMILES IDX 85 24 86 25 21 26 22 27 23 28 24 29 25 30 26 31 27 32 28 33
REMARK SMILES IDX 29 34 30 35 82 36 31 37 81 38 32 39 33 40 34 41 75 42 35 43
REMARK SMILES IDX 80 44 74 45 76 46 36 47 79 48 73 49 72 50 37 52 63 53 46 54
REMARK SMILES IDX 62 55 47 56 50 57 61 58 77 59 48 60 49 61 60 63 78 64 51 65
REMARK SMILES IDX 38 66 39 67 44 68 40 69 41 70 43 71 45 72 42 73 64 74 65 75
REMARK SMILES IDX 70 76 66 77 67 78 69 79 71 80 68 81 52 82 53 83 58 84 54 85
REMARK SMILES IDX 55 86 57 87 59 88 56 89
REMARK H PARENT 5 19 76 51 50 62
REMARK Flexibility Score: inf
ROOT
ATOM      1  O   UNL     1       0.001  -8.297  -2.015  1.00  0.00    -0.376 OA
ENDROOT
BRANCH   1   2
ATOM      2  C   UNL     1      -0.425  -9.082  -3.122  1.00  0.00     0.202 C 
BRANCH   2   3
ATOM      3  C   UNL     1      -0.647  -8.535  -4.545  1.00  0.00     0.261 C 
BRANCH   3   4
ATOM      4  O   UNL     1       0.090  -7.354  -4.870  1.00  0.00    -0.460 OA
BRANCH   4   5
ATOM      5  C   UNL     1      -0.610  -6.347  -5.442  1.00  0.00     0.341 C 
ATOM      6  O   UNL     1      -1.782  -6.355  -5.770  1.00  0.00    -0.246 OA
BRANCH   5   7
ATOM      7  C   UNL     1       0.247  -5.146  -5.515  1.00  0.00     0.098 A 
ATOM      8  C   UNL     1       0.634  -2.808  -4.989  1.00  0.00     0.102 A 
ATOM      9  C   UNL     1       1.810  -2.846  -5.758  1.00  0.00     0.025 A 
ATOM     10  C   UNL     1      -0.136  -3.970  -4.828  1.00  0.00     0.077 A 
ATOM     11  C   UNL     1       2.201  -4.022  -6.395  1.00  0.00     0.023 A 
ATOM     12  Cl  UNL     1      -1.460  -4.041  -3.708  1.00  0.00    -0.082 Cl
ATOM     13  C   UNL     1       1.408  -5.165  -6.301  1.00  0.00     0.057 A 
ATOM     14  Cl  UNL     1       1.910  -6.546  -7.210  1.00  0.00    -0.083 Cl
BRANCH   8  15
ATOM     15  S   UNL     1       0.122  -1.204  -4.412  1.00  0.00     0.242 S 
ATOM     16  O   UNL     1      -1.264  -1.190  -4.045  1.00  0.00    -0.207 OA
ATOM     17  O   UNL     1       0.631  -0.240  -5.375  1.00  0.00    -0.207 OA
BRANCH  15  18
ATOM     18  N   UNL     1       1.052  -0.980  -3.037  1.00  0.00    -0.206 NA
ATOM     19  H   UNL     1       2.009  -1.242  -3.277  1.00  0.00     0.141 HD
BRANCH  18  20
ATOM     20  C   UNL     1       0.693  -1.723  -1.794  1.00  0.00     0.161 C 
BRANCH  20  21
ATOM     21  C   UNL     1       1.088  -0.854  -0.569  1.00  0.00     0.263 C 
BRANCH  21  22
ATOM     22  O   UNL     1       0.651   0.474  -0.858  1.00  0.00    -0.355 OA
ATOM     23  C   UNL     1       1.107   1.470   0.038  1.00  0.00     0.198 C 
ENDBRANCH  21  22
BRANCH  21  24
ATOM     24  O   UNL     1       2.455  -0.983  -0.178  1.00  0.00    -0.355 OA
ATOM     25  C   UNL     1       3.444  -0.652  -1.131  1.00  0.00     0.198 C 
ENDBRANCH  21  24
ENDBRANCH  20  21
ENDBRANCH  18  20
ENDBRANCH  15  18
ENDBRANCH   8  15
ENDBRANCH   5   7
ENDBRANCH   4   5
ENDBRANCH   3   4
ENDBRANCH   2   3
ENDBRANCH   1   2
BRANCH   1  26
ATOM     26  C   UNL     1       0.618  -7.044  -2.219  1.00  0.00     0.188 C 
BRANCH  26  27
ATOM     27  C   UNL     1       2.061  -7.001  -2.761  1.00  0.00     0.188 C 
BRANCH  27  28
ATOM     28  O   UNL     1       2.572  -8.127  -3.437  1.00  0.00    -0.376 OA
BRANCH  28  29
ATOM     29  C   UNL     1       2.910  -9.298  -2.709  1.00  0.00     0.202 C 
BRANCH  29  30
ATOM     30  C   UNL     1       3.158  -9.362  -1.185  1.00  0.00     0.261 C 
BRANCH  30  31
ATOM     31  O   UNL     1       2.521  -8.375  -0.360  1.00  0.00    -0.460 OA
BRANCH  31  32
ATOM     32  C   UNL     1       3.362  -7.560   0.324  1.00  0.00     0.338 C 
ATOM     33  O   UNL     1       4.582  -7.587   0.319  1.00  0.00    -0.246 OA
BRANCH  32  34
ATOM     34  C   UNL     1       2.612  -6.451   0.946  1.00  0.00     0.060 A 
ATOM     35  C   UNL     1       2.726  -5.194   0.352  1.00  0.00     0.016 A 
ATOM     36  C   UNL     1       1.923  -6.589   2.154  1.00  0.00     0.016 A 
ATOM     37  C   UNL     1       2.154  -4.084   0.966  1.00  0.00     0.010 A 
ATOM     38  C   UNL     1       1.360  -5.454   2.776  1.00  0.00     0.010 A 
ATOM     39  C   UNL     1       1.481  -4.184   2.191  1.00  0.00    -0.014 A 
BRANCH  39  40
ATOM     40  C   UNL     1       1.087  -2.917   2.877  1.00  0.00     0.031 A 
ATOM     41  C   UNL     1       2.099  -2.207   3.741  1.00  0.00     0.074 A 
ATOM     42  C   UNL     1      -0.077  -2.293   2.607  1.00  0.00     0.049 A 
ATOM     43  N   UNL     1       2.028  -1.033   4.320  1.00  0.00    -0.248 NA
ATOM     44  C   UNL     1       3.361  -2.922   3.980  1.00  0.00     0.031 C 
ATOM     45  C   UNL     1      -1.112  -2.789   1.704  1.00  0.00     0.029 A 
ATOM     46  N   UNL     1      -0.532  -1.047   2.987  1.00  0.00    -0.354 N 
ATOM     47  C   UNL     1       3.216  -0.885   5.026  1.00  0.00     0.074 A 
ATOM     48  C   UNL     1       3.997  -2.082   4.783  1.00  0.00     0.031 C 
ATOM     49  C   UNL     1      -2.029  -1.820   1.521  1.00  0.00     0.029 A 
ATOM     50  C   UNL     1      -1.684  -0.656   2.342  1.00  0.00     0.049 A 
ATOM     51  H   UNL     1      -0.075  -0.489   3.657  1.00  0.00     0.167 HD
ATOM     52  C   UNL     1       3.616   0.135   5.825  1.00  0.00     0.037 A 
ATOM     53  C   UNL     1      -2.372   0.506   2.391  1.00  0.00     0.037 A 
ATOM     54  C   UNL     1       2.863   1.338   6.075  1.00  0.00     0.049 A 
ATOM     55  C   UNL     1      -1.918   1.620   3.308  1.00  0.00     0.074 A 
ATOM     56  C   UNL     1       3.183   2.395   6.912  1.00  0.00     0.029 A 
ATOM     57  N   UNL     1       1.645   1.649   5.494  1.00  0.00    -0.354 N 
ATOM     58  N   UNL     1      -0.814   1.730   4.005  1.00  0.00    -0.248 NA
ATOM     59  C   UNL     1      -2.830   2.768   3.457  1.00  0.00     0.031 C 
ATOM     60  C   UNL     1       2.133   3.318   6.881  1.00  0.00     0.029 A 
ATOM     61  C   UNL     1       1.192   2.871   5.970  1.00  0.00     0.049 A 
ATOM     62  H   UNL     1       1.171   1.087   4.840  1.00  0.00     0.167 HD
ATOM     63  C   UNL     1      -0.898   2.955   4.665  1.00  0.00     0.074 A 
ATOM     64  C   UNL     1      -2.134   3.575   4.245  1.00  0.00     0.031 C 
ATOM     65  C   UNL     1      -0.034   3.505   5.555  1.00  0.00     0.037 A 
BRANCH  52  66
ATOM     66  C   UNL     1       4.907  -0.047   6.569  1.00  0.00     0.057 A 
ATOM     67  C   UNL     1       6.156   0.015   5.940  1.00  0.00     0.134 A 
ATOM     68  C   UNL     1       4.890  -0.264   7.955  1.00  0.00     0.134 A 
ATOM     69  F   UNL     1       6.241   0.203   4.615  1.00  0.00    -0.206 F 
ATOM     70  C   UNL     1       7.341  -0.159   6.658  1.00  0.00     0.040 A 
ATOM     71  C   UNL     1       6.067  -0.407   8.687  1.00  0.00     0.040 A 
ATOM     72  F   UNL     1       3.726  -0.327   8.619  1.00  0.00    -0.206 F 
ATOM     73  C   UNL     1       7.298  -0.363   8.037  1.00  0.00     0.006 A 
ENDBRANCH  52  66
BRANCH  53  74
ATOM     74  C   UNL     1      -3.594   0.709   1.560  1.00  0.00     0.057 A 
ATOM     75  C   UNL     1      -3.663   1.739   0.610  1.00  0.00     0.134 A 
ATOM     76  C   UNL     1      -4.750  -0.056   1.756  1.00  0.00     0.134 A 
ATOM     77  F   UNL     1      -2.606   2.539   0.404  1.00  0.00    -0.206 F 
ATOM     78  C   UNL     1      -4.839   2.014  -0.091  1.00  0.00     0.040 A 
ATOM     79  C   UNL     1      -5.920   0.184   1.034  1.00  0.00     0.040 A 
ATOM     80  F   UNL     1      -4.763  -1.044   2.662  1.00  0.00    -0.206 F 
ATOM     81  C   UNL     1      -5.971   1.230   0.116  1.00  0.00     0.006 A 
ENDBRANCH  53  74
BRANCH  65  82
ATOM     82  C   UNL     1      -0.372   4.859   6.125  1.00  0.00     0.057 A 
ATOM     83  C   UNL     1      -1.460   5.056   6.988  1.00  0.00     0.134 A 
ATOM     84  C   UNL     1       0.420   5.979   5.834  1.00  0.00     0.134 A 
ATOM     85  F   UNL     1      -2.265   4.033   7.312  1.00  0.00    -0.206 F 
ATOM     86  C   UNL     1      -1.769   6.317   7.505  1.00  0.00     0.040 A 
ATOM     87  C   UNL     1       0.141   7.238   6.371  1.00  0.00     0.040 A 
ATOM     88  F   UNL     1       1.488   5.867   5.029  1.00  0.00    -0.206 F 
ATOM     89  C   UNL     1      -0.964   7.412   7.201  1.00  0.00     0.006 A 
ENDBRANCH  65  82
ENDBRANCH  39  40
ENDBRANCH  32  34
ENDBRANCH  31  32
ENDBRANCH  30  31
ENDBRANCH  29  30
ENDBRANCH  28  29
ENDBRANCH  27  28
ENDBRANCH  26  27
ENDBRANCH   1  26
TORSDOF 23
