REMARK SMILES CC(=O)NS(=O)(=O)c1ccc(-c2ccn(C(F)F)c(=O)c2)cc1C(=O)OCCOCCOCCOC(=O)c1ccc(-c2c3nc(c(-c4c(F)cccc4F)c4ccc([nH]4)c(-c4c(F)cccc4F)c4nc(c(-c5c(F)cccc5F)c5ccc2[nH]5)C=C4)C=C3)cc1
REMARK SMILES IDX 30 1 29 2 28 3 27 4 26 5 24 6 25 7 23 8 8 9 9 10 10 11 22 12
REMARK SMILES IDX 11 13 5 14 6 15 7 16 4 17 1 18 2 19 3 20 12 22 13 23 21 24
REMARK SMILES IDX 14 25 19 26 15 27 20 28 16 29 17 30 18 31 31 32 32 33 33 34
REMARK SMILES IDX 34 35 35 36 36 37 37 38 38 39 39 40 91 41 40 42 90 43 41 44
REMARK SMILES IDX 42 45 43 46 84 47 44 48 89 49 83 50 85 51 45 52 88 53 82 54
REMARK SMILES IDX 81 55 46 57 72 58 55 59 71 60 56 61 59 62 70 63 86 64 57 65
REMARK SMILES IDX 58 66 69 68 87 69 60 70 47 71 48 72 53 73 49 74 50 75 52 76
REMARK SMILES IDX 54 77 51 78 73 79 74 80 79 81 75 82 76 83 78 84 80 85 77 86
REMARK SMILES IDX 61 87 62 88 67 89 63 90 64 91 66 92 68 93 65 94
REMARK H PARENT 4 21 85 56 59 67
REMARK Flexibility Score: inf
ROOT
ATOM      1  C   UNL     1       2.868   2.342   1.506  1.00  0.00     0.188 C 
ENDROOT
BRANCH   1   2
ATOM      2  O   UNL     1       1.929   2.614   2.538  1.00  0.00    -0.376 OA
BRANCH   2   3
ATOM      3  C   UNL     1       0.573   2.335   2.222  1.00  0.00     0.202 C 
BRANCH   3   4
ATOM      4  C   UNL     1       0.245   0.855   2.378  1.00  0.00     0.261 C 
BRANCH   4   5
ATOM      5  O   UNL     1       0.965  -0.001   1.472  1.00  0.00    -0.460 OA
BRANCH   5   6
ATOM      6  C   UNL     1       0.667   0.097   0.164  1.00  0.00     0.339 C 
ATOM      7  O   UNL     1      -0.107   0.881  -0.359  1.00  0.00    -0.246 OA
BRANCH   6   8
ATOM      8  C   UNL     1       1.479  -0.865  -0.605  1.00  0.00     0.081 A 
ATOM      9  C   UNL     1       1.640  -2.210  -0.267  1.00  0.00     0.102 A 
ATOM     10  C   UNL     1       2.447  -3.038  -1.068  1.00  0.00     0.024 A 
ATOM     11  C   UNL     1       3.000  -2.555  -2.254  1.00  0.00     0.010 A 
ATOM     12  C   UNL     1       2.028  -0.388  -1.809  1.00  0.00     0.025 A 
ATOM     13  C   UNL     1       2.745  -1.242  -2.659  1.00  0.00    -0.017 A 
BRANCH   9  14
ATOM     14  S   UNL     1       0.712  -3.031   1.003  1.00  0.00     0.264 S 
ATOM     15  O   UNL     1       1.493  -2.950   2.208  1.00  0.00    -0.201 OA
ATOM     16  O   UNL     1       0.309  -4.315   0.456  1.00  0.00    -0.201 OA
BRANCH  14  17
ATOM     17  N   UNL     1      -0.674  -2.182   1.266  1.00  0.00    -0.249 N 
ATOM     18  C   UNL     1      -1.735  -2.284  -1.001  1.00  0.00     0.115 C 
ATOM     19  C   UNL     1      -1.776  -1.908   0.451  1.00  0.00     0.230 C 
ATOM     20  O   UNL     1      -2.709  -1.283   0.934  1.00  0.00    -0.274 OA
ATOM     21  H   UNL     1      -0.739  -1.793   2.169  1.00  0.00     0.183 HD
ENDBRANCH  14  17
ENDBRANCH   9  14
BRANCH  13  22
ATOM     22  C   UNL     1       3.057  -0.807  -4.031  1.00  0.00    -0.011 A 
ATOM     23  C   UNL     1       4.052   0.185  -4.379  1.00  0.00     0.027 A 
ATOM     24  C   UNL     1       2.273  -1.316  -4.999  1.00  0.00     0.080 A 
ATOM     25  C   UNL     1       4.150   0.629  -5.640  1.00  0.00     0.095 A 
ATOM     26  C   UNL     1       2.387  -0.854  -6.406  1.00  0.00     0.255 A 
ATOM     27  N   UNL     1       3.325   0.137  -6.637  1.00  0.00    -0.258 N 
ATOM     28  O   UNL     1       1.641  -1.353  -7.242  1.00  0.00    -0.269 OA
BRANCH  27  29
ATOM     29  C   UNL     1       3.391   0.660  -7.978  1.00  0.00     0.451 C 
ATOM     30  F   UNL     1       3.685  -0.319  -8.868  1.00  0.00    -0.185 F 
ATOM     31  F   UNL     1       2.203   1.207  -8.336  1.00  0.00    -0.185 F 
ENDBRANCH  27  29
ENDBRANCH  13  22
ENDBRANCH   6   8
ENDBRANCH   5   6
ENDBRANCH   4   5
ENDBRANCH   3   4
ENDBRANCH   2   3
ENDBRANCH   1   2
BRANCH   1  32
ATOM     32  C   UNL     1       3.766   1.116   1.767  1.00  0.00     0.188 C 
BRANCH  32  33
ATOM     33  O   UNL     1       4.039   0.716   3.103  1.00  0.00    -0.376 OA
BRANCH  33  34
ATOM     34  C   UNL     1       4.293   1.712   4.085  1.00  0.00     0.202 C 
BRANCH  34  35
ATOM     35  C   UNL     1       5.573   2.534   3.909  1.00  0.00     0.261 C 
BRANCH  35  36
ATOM     36  O   UNL     1       5.543   3.342   2.719  1.00  0.00    -0.460 OA
BRANCH  36  37
ATOM     37  C   UNL     1       6.460   3.030   1.774  1.00  0.00     0.338 C 
ATOM     38  O   UNL     1       7.365   2.217   1.856  1.00  0.00    -0.246 OA
BRANCH  37  39
ATOM     39  C   UNL     1       6.094   3.681   0.499  1.00  0.00     0.060 A 
ATOM     40  C   UNL     1       6.027   2.878  -0.650  1.00  0.00     0.016 A 
ATOM     41  C   UNL     1       5.857   5.054   0.416  1.00  0.00     0.016 A 
ATOM     42  C   UNL     1       5.773   3.451  -1.894  1.00  0.00     0.010 A 
ATOM     43  C   UNL     1       5.633   5.633  -0.836  1.00  0.00     0.010 A 
ATOM     44  C   UNL     1       5.631   4.840  -1.998  1.00  0.00    -0.014 A 
BRANCH  44  45
ATOM     45  C   UNL     1       5.748   5.496  -3.321  1.00  0.00     0.031 A 
ATOM     46  C   UNL     1       7.122   5.896  -3.783  1.00  0.00     0.074 A 
ATOM     47  C   UNL     1       4.675   5.751  -4.088  1.00  0.00     0.049 A 
ATOM     48  N   UNL     1       7.476   6.617  -4.815  1.00  0.00    -0.248 NA
ATOM     49  C   UNL     1       8.250   5.414  -2.968  1.00  0.00     0.031 C 
ATOM     50  C   UNL     1       3.303   5.351  -3.791  1.00  0.00     0.029 A 
ATOM     51  N   UNL     1       4.580   6.439  -5.273  1.00  0.00    -0.354 N 
ATOM     52  C   UNL     1       8.861   6.691  -4.761  1.00  0.00     0.074 A 
ATOM     53  C   UNL     1       9.287   5.941  -3.600  1.00  0.00     0.031 C 
ATOM     54  C   UNL     1       2.493   5.835  -4.751  1.00  0.00     0.029 A 
ATOM     55  C   UNL     1       3.287   6.614  -5.701  1.00  0.00     0.049 A 
ATOM     56  H   UNL     1       5.363   6.774  -5.767  1.00  0.00     0.167 HD
ATOM     57  C   UNL     1       9.706   7.337  -5.597  1.00  0.00     0.037 A 
ATOM     58  C   UNL     1       2.803   7.358  -6.715  1.00  0.00     0.037 A 
ATOM     59  C   UNL     1       9.286   8.101  -6.737  1.00  0.00     0.049 A 
ATOM     60  C   UNL     1       3.752   8.154  -7.574  1.00  0.00     0.074 A 
ATOM     61  C   UNL     1      10.064   8.803  -7.639  1.00  0.00     0.029 A 
ATOM     62  N   UNL     1       7.966   8.273  -7.121  1.00  0.00    -0.354 N 
ATOM     63  N   UNL     1       5.061   8.224  -7.516  1.00  0.00    -0.248 NA
ATOM     64  C   UNL     1       3.157   8.985  -8.632  1.00  0.00     0.031 C 
ATOM     65  C   UNL     1       9.210   9.431  -8.552  1.00  0.00     0.029 A 
ATOM     66  C   UNL     1       7.905   9.084  -8.240  1.00  0.00     0.049 A 
ATOM     67  H   UNL     1       7.188   7.878  -6.666  1.00  0.00     0.167 HD
ATOM     68  C   UNL     1       5.444   9.078  -8.544  1.00  0.00     0.074 A 
ATOM     69  C   UNL     1       4.232   9.503  -9.211  1.00  0.00     0.031 C 
ATOM     70  C   UNL     1       6.689   9.474  -8.905  1.00  0.00     0.037 A 
BRANCH  57  71
ATOM     71  C   UNL     1      11.167   7.274  -5.274  1.00  0.00     0.057 A 
ATOM     72  C   UNL     1      11.923   6.117  -5.497  1.00  0.00     0.134 A 
ATOM     73  C   UNL     1      11.825   8.388  -4.738  1.00  0.00     0.134 A 
ATOM     74  F   UNL     1      11.343   5.010  -5.986  1.00  0.00    -0.206 F 
ATOM     75  C   UNL     1      13.281   6.064  -5.182  1.00  0.00     0.040 A 
ATOM     76  C   UNL     1      13.186   8.354  -4.439  1.00  0.00     0.040 A 
ATOM     77  F   UNL     1      11.153   9.524  -4.497  1.00  0.00    -0.206 F 
ATOM     78  C   UNL     1      13.918   7.188  -4.656  1.00  0.00     0.006 A 
ENDBRANCH  57  71
BRANCH  58  79
ATOM     79  C   UNL     1       1.340   7.431  -6.955  1.00  0.00     0.057 A 
ATOM     80  C   UNL     1       0.763   6.847  -8.088  1.00  0.00     0.134 A 
ATOM     81  C   UNL     1       0.491   8.117  -6.078  1.00  0.00     0.134 A 
ATOM     82  F   UNL     1       1.531   6.202  -8.978  1.00  0.00    -0.206 F 
ATOM     83  C   UNL     1      -0.605   6.952  -8.348  1.00  0.00     0.040 A 
ATOM     84  C   UNL     1      -0.881   8.212  -6.315  1.00  0.00     0.040 A 
ATOM     85  F   UNL     1       0.985   8.704  -4.978  1.00  0.00    -0.206 F 
ATOM     86  C   UNL     1      -1.431   7.634  -7.457  1.00  0.00     0.006 A 
ENDBRANCH  58  79
BRANCH  70  87
ATOM     87  C   UNL     1       6.818  10.363 -10.104  1.00  0.00     0.057 A 
ATOM     88  C   UNL     1       6.525  11.730 -10.046  1.00  0.00     0.134 A 
ATOM     89  C   UNL     1       7.322   9.856 -11.309  1.00  0.00     0.134 A 
ATOM     90  F   UNL     1       6.031  12.273  -8.924  1.00  0.00    -0.206 F 
ATOM     91  C   UNL     1       6.724  12.563 -11.149  1.00  0.00     0.040 A 
ATOM     92  C   UNL     1       7.544  10.682 -12.411  1.00  0.00     0.040 A 
ATOM     93  F   UNL     1       7.632   8.556 -11.423  1.00  0.00    -0.206 F 
ATOM     94  C   UNL     1       7.244  12.040 -12.333  1.00  0.00     0.006 A 
ENDBRANCH  70  87
ENDBRANCH  44  45
ENDBRANCH  37  39
ENDBRANCH  36  37
ENDBRANCH  35  36
ENDBRANCH  34  35
ENDBRANCH  33  34
ENDBRANCH  32  33
ENDBRANCH   1  32
TORSDOF 21
