REMARK SMILES O=C(N[C@@H](C(=O)OCCOCCOCCOC(=O)c1ccc(-c2c3nc(c(-c4c(F)cccc4F)c4ccc([nH]4)c(-c4c(F)cccc4F)c4nc(c(-c5c(F)cccc5F)c5ccc2[nH]5)C=C4)C=C3)cc1)c1ccccc1)c1ccc(Br)nc1
REMARK SMILES IDX 11 1 10 2 9 3 8 4 7 5 5 6 6 7 4 8 3 9 1 10 2 11 79 13 80 14
REMARK SMILES IDX 85 15 81 16 84 17 82 18 83 19 73 20 74 21 78 22 75 23 77 24
REMARK SMILES IDX 76 25 12 26 13 27 14 28 15 29 16 30 17 31 18 32 19 33 20 34
REMARK SMILES IDX 72 35 21 36 71 37 22 38 23 39 24 40 65 41 25 42 70 43 64 44
REMARK SMILES IDX 66 45 26 46 69 47 63 48 62 49 27 51 53 52 36 53 52 54 37 55
REMARK SMILES IDX 40 56 51 57 67 58 38 59 39 60 50 62 68 63 41 64 28 65 29 66
REMARK SMILES IDX 34 67 30 68 31 69 33 70 35 71 32 72 54 73 55 74 60 75 56 76
REMARK SMILES IDX 57 77 59 78 61 79 58 80 42 81 43 82 48 83 44 84 45 85 47 86
REMARK SMILES IDX 49 87 46 88
REMARK H PARENT 3 12 66 50 40 61
REMARK Flexibility Score: inf
ROOT
ATOM      1  C   UNL     1       4.658  -4.405  -1.415  1.00  0.00     0.188 C 
ENDROOT
BRANCH   1   2
ATOM      2  O   UNL     1       5.341  -5.313  -0.569  1.00  0.00    -0.376 OA
BRANCH   2   3
ATOM      3  C   UNL     1       5.402  -5.051   0.825  1.00  0.00     0.202 C 
BRANCH   3   4
ATOM      4  C   UNL     1       5.753  -3.647   1.354  1.00  0.00     0.261 C 
BRANCH   4   5
ATOM      5  O   UNL     1       5.063  -2.534   0.744  1.00  0.00    -0.461 OA
BRANCH   5   6
ATOM      6  C   UNL     1       5.849  -1.588   0.155  1.00  0.00     0.333 C 
ATOM      7  O   UNL     1       7.077  -1.631   0.168  1.00  0.00    -0.249 OA
BRANCH   6   8
ATOM      8  C   UNL     1       5.066  -0.449  -0.574  1.00  0.00     0.223 C 
BRANCH   8   9
ATOM      9  N   UNL     1       3.592  -0.412  -0.494  1.00  0.00    -0.335 N 
ATOM     10  O   UNL     1       1.527   0.103   0.234  1.00  0.00    -0.269 OA
ATOM     11  C   UNL     1       2.739   0.267   0.331  1.00  0.00     0.253 C 
ATOM     12  H   UNL     1       3.141  -0.981  -1.158  1.00  0.00     0.165 HD
BRANCH  11  13
ATOM     13  C   UNL     1       3.254   1.194   1.343  1.00  0.00     0.058 A 
ATOM     14  C   UNL     1       2.830   1.081   2.664  1.00  0.00     0.018 A 
ATOM     15  C   UNL     1       4.128   2.218   1.018  1.00  0.00     0.126 A 
ATOM     16  C   UNL     1       3.389   1.922   3.624  1.00  0.00     0.037 A 
ATOM     17  N   UNL     1       4.705   3.031   1.929  1.00  0.00    -0.249 NA
ATOM     18  C   UNL     1       4.339   2.852   3.218  1.00  0.00     0.106 A 
ATOM     19  Br  UNL     1       5.207   3.913   4.525  1.00  0.00    -0.029 Br
ENDBRANCH  11  13
ENDBRANCH   8   9
BRANCH   8  20
ATOM     20  C   UNL     1       5.449  -0.264  -2.049  1.00  0.00    -0.014 A 
ATOM     21  C   UNL     1       6.262  -1.157  -2.760  1.00  0.00     0.006 A 
ATOM     22  C   UNL     1       4.973   0.872  -2.735  1.00  0.00     0.006 A 
ATOM     23  C   UNL     1       6.596  -0.916  -4.095  1.00  0.00     0.000 A 
ATOM     24  C   UNL     1       5.308   1.110  -4.069  1.00  0.00     0.000 A 
ATOM     25  C   UNL     1       6.121   0.213  -4.750  1.00  0.00     0.000 A 
ENDBRANCH   8  20
ENDBRANCH   6   8
ENDBRANCH   5   6
ENDBRANCH   4   5
ENDBRANCH   3   4
ENDBRANCH   2   3
ENDBRANCH   1   2
BRANCH   1  26
ATOM     26  C   UNL     1       3.271  -3.882  -1.012  1.00  0.00     0.188 C 
BRANCH  26  27
ATOM     27  O   UNL     1       2.700  -4.404   0.155  1.00  0.00    -0.376 OA
BRANCH  27  28
ATOM     28  C   UNL     1       1.978  -5.617   0.119  1.00  0.00     0.202 C 
BRANCH  28  29
ATOM     29  C   UNL     1       1.807  -6.530  -1.113  1.00  0.00     0.261 C 
BRANCH  29  30
ATOM     30  O   UNL     1       2.431  -6.159  -2.346  1.00  0.00    -0.460 OA
BRANCH  30  31
ATOM     31  C   UNL     1       1.658  -5.503  -3.244  1.00  0.00     0.338 C 
ATOM     32  O   UNL     1       0.495  -5.156  -3.103  1.00  0.00    -0.246 OA
BRANCH  31  33
ATOM     33  C   UNL     1       2.509  -5.090  -4.380  1.00  0.00     0.060 A 
ATOM     34  C   UNL     1       2.740  -3.726  -4.609  1.00  0.00     0.016 A 
ATOM     35  C   UNL     1       3.063  -6.051  -5.225  1.00  0.00     0.016 A 
ATOM     36  C   UNL     1       3.512  -3.319  -5.700  1.00  0.00     0.010 A 
ATOM     37  C   UNL     1       3.812  -5.641  -6.332  1.00  0.00     0.010 A 
ATOM     38  C   UNL     1       4.019  -4.274  -6.592  1.00  0.00    -0.014 A 
BRANCH  38  39
ATOM     39  C   UNL     1       4.621  -3.857  -7.884  1.00  0.00     0.031 A 
ATOM     40  C   UNL     1       3.766  -3.891  -9.120  1.00  0.00     0.074 A 
ATOM     41  C   UNL     1       5.907  -3.477  -7.972  1.00  0.00     0.049 A 
ATOM     42  N   UNL     1       4.102  -3.690 -10.368  1.00  0.00    -0.248 NA
ATOM     43  C   UNL     1       2.345  -4.213  -8.919  1.00  0.00     0.031 C 
ATOM     44  C   UNL     1       6.834  -3.385  -6.849  1.00  0.00     0.029 A 
ATOM     45  N   UNL     1       6.660  -3.111  -9.061  1.00  0.00    -0.354 N 
ATOM     46  C   UNL     1       2.941  -3.887 -11.104  1.00  0.00     0.074 A 
ATOM     47  C   UNL     1       1.897  -4.237 -10.165  1.00  0.00     0.031 C 
ATOM     48  C   UNL     1       8.031  -2.977  -7.303  1.00  0.00     0.029 A 
ATOM     49  C   UNL     1       7.973  -2.839  -8.758  1.00  0.00     0.049 A 
ATOM     50  H   UNL     1       6.294  -3.049  -9.973  1.00  0.00     0.167 HD
ATOM     51  C   UNL     1       2.763  -3.790 -12.443  1.00  0.00     0.037 A 
ATOM     52  C   UNL     1       9.014  -2.551  -9.565  1.00  0.00     0.037 A 
ATOM     53  C   UNL     1       3.804  -3.448 -13.377  1.00  0.00     0.049 A 
ATOM     54  C   UNL     1       8.804  -2.511 -11.059  1.00  0.00     0.074 A 
ATOM     55  C   UNL     1       3.717  -3.313 -14.752  1.00  0.00     0.029 A 
ATOM     56  N   UNL     1       5.124  -3.198 -13.034  1.00  0.00    -0.354 N 
ATOM     57  N   UNL     1       7.701  -2.684 -11.746  1.00  0.00    -0.248 NA
ATOM     58  C   UNL     1       9.989  -2.250 -11.890  1.00  0.00     0.031 C 
ATOM     59  C   UNL     1       4.996  -3.040 -15.246  1.00  0.00     0.029 A 
ATOM     60  C   UNL     1       5.867  -2.936 -14.174  1.00  0.00     0.049 A 
ATOM     61  H   UNL     1       5.481  -3.205 -12.116  1.00  0.00     0.167 HD
ATOM     62  C   UNL     1       8.053  -2.528 -13.083  1.00  0.00     0.074 A 
ATOM     63  C   UNL     1       9.469  -2.229 -13.109  1.00  0.00     0.031 C 
ATOM     64  C   UNL     1       7.274  -2.626 -14.188  1.00  0.00     0.037 A 
BRANCH  51  65
ATOM     65  C   UNL     1       1.397  -4.100 -12.982  1.00  0.00     0.057 A 
ATOM     66  C   UNL     1       0.302  -3.254 -12.766  1.00  0.00     0.134 A 
ATOM     67  C   UNL     1       1.182  -5.250 -13.752  1.00  0.00     0.134 A 
ATOM     68  F   UNL     1       0.436  -2.144 -12.024  1.00  0.00    -0.206 F 
ATOM     69  C   UNL     1      -0.964  -3.554 -13.274  1.00  0.00     0.040 A 
ATOM     70  C   UNL     1      -0.071  -5.545 -14.291  1.00  0.00     0.040 A 
ATOM     71  F   UNL     1       2.188  -6.102 -14.002  1.00  0.00    -0.206 F 
ATOM     72  C   UNL     1      -1.150  -4.699 -14.046  1.00  0.00     0.006 A 
ENDBRANCH  51  65
BRANCH  52  73
ATOM     73  C   UNL     1      10.366  -2.311  -8.994  1.00  0.00     0.057 A 
ATOM     74  C   UNL     1      10.984  -1.059  -9.095  1.00  0.00     0.134 A 
ATOM     75  C   UNL     1      11.091  -3.335  -8.370  1.00  0.00     0.134 A 
ATOM     76  F   UNL     1      10.355  -0.043  -9.706  1.00  0.00    -0.206 F 
ATOM     77  C   UNL     1      12.278  -0.838  -8.617  1.00  0.00     0.040 A 
ATOM     78  C   UNL     1      12.372  -3.120  -7.859  1.00  0.00     0.040 A 
ATOM     79  F   UNL     1      10.561  -4.560  -8.243  1.00  0.00    -0.206 F 
ATOM     80  C   UNL     1      12.973  -1.870  -7.991  1.00  0.00     0.006 A 
ENDBRANCH  52  73
BRANCH  64  81
ATOM     81  C   UNL     1       7.918  -2.360 -15.521  1.00  0.00     0.057 A 
ATOM     82  C   UNL     1       8.828  -3.252 -16.102  1.00  0.00     0.134 A 
ATOM     83  C   UNL     1       7.577  -1.217 -16.257  1.00  0.00     0.134 A 
ATOM     84  F   UNL     1       9.206  -4.361 -15.447  1.00  0.00    -0.206 F 
ATOM     85  C   UNL     1       9.391  -3.007 -17.356  1.00  0.00     0.040 A 
ATOM     86  C   UNL     1       8.111  -0.977 -17.524  1.00  0.00     0.040 A 
ATOM     87  F   UNL     1       6.704  -0.325 -15.766  1.00  0.00    -0.206 F 
ATOM     88  C   UNL     1       9.026  -1.871 -18.075  1.00  0.00     0.006 A 
ENDBRANCH  64  81
ENDBRANCH  38  39
ENDBRANCH  31  33
ENDBRANCH  30  31
ENDBRANCH  29  30
ENDBRANCH  28  29
ENDBRANCH  27  28
ENDBRANCH  26  27
ENDBRANCH   1  26
TORSDOF 20
