REMARK SMILES Cc1cc2c(c(C)c1Cl)C=C(C(=O)OCCOCCOCCOC(=O)c1ccc(-c3c4nc(c(-c5c(F)cccc5F)c5ccc([nH]5)c(-c5c(F)cccc5F)c5nc(c(-c6c(F)cccc6F)c6ccc3[nH]6)C=C5)C=C4)cc1)[C@@H](C(F)(F)F)O2
REMARK SMILES IDX 19 1 18 2 17 3 16 4 15 5 14 6 12 7 13 8 11 9 1 10 2 11 3 12
REMARK SMILES IDX 8 13 4 14 6 15 9 16 5 17 85 18 7 19 10 20 80 21 81 22 82 23
REMARK SMILES IDX 83 24 84 25 20 26 21 27 22 28 23 29 24 30 25 31 26 32 27 33
REMARK SMILES IDX 79 34 28 35 78 36 29 37 30 38 31 39 72 40 32 41 77 42 71 43
REMARK SMILES IDX 73 44 33 45 76 46 70 47 69 48 34 50 60 51 43 52 59 53 44 54
REMARK SMILES IDX 47 55 58 56 74 57 45 58 46 59 57 61 75 62 48 63 35 64 36 65
REMARK SMILES IDX 41 66 37 67 38 68 40 69 42 70 39 71 61 72 62 73 67 74 63 75
REMARK SMILES IDX 64 76 66 77 68 78 65 79 49 80 50 81 55 82 51 83 52 84 54 85
REMARK SMILES IDX 56 86 53 87
REMARK H PARENT 73 49 47 60
REMARK Flexibility Score: inf
ROOT
ATOM      1  C   UNL     1      -3.821  -1.534  -7.012  1.00  0.00     0.188 C 
ENDROOT
BRANCH   1   2
ATOM      2  C   UNL     1      -3.429  -0.469  -8.057  1.00  0.00     0.188 C 
BRANCH   2   3
ATOM      3  O   UNL     1      -3.619  -0.732  -9.428  1.00  0.00    -0.376 OA
BRANCH   3   4
ATOM      4  C   UNL     1      -2.884  -1.745 -10.092  1.00  0.00     0.202 C 
BRANCH   4   5
ATOM      5  C   UNL     1      -1.514  -2.274  -9.633  1.00  0.00     0.261 C 
BRANCH   5   6
ATOM      6  O   UNL     1      -1.269  -2.285  -8.224  1.00  0.00    -0.460 OA
BRANCH   6   7
ATOM      7  C   UNL     1      -0.334  -1.404  -7.793  1.00  0.00     0.338 C 
ATOM      8  O   UNL     1       0.315  -0.633  -8.480  1.00  0.00    -0.246 OA
BRANCH   7   9
ATOM      9  C   UNL     1      -0.315  -1.388  -6.316  1.00  0.00     0.087 C 
ATOM     10  C   UNL     1       0.793  -0.148  -0.075  1.00  0.00     0.046 C 
ATOM     11  C   UNL     1       0.350  -0.087  -1.513  1.00  0.00    -0.028 A 
ATOM     12  C   UNL     1       0.171  -1.292  -2.202  1.00  0.00     0.052 A 
ATOM     13  C   UNL     1       0.193   1.126  -2.212  1.00  0.00     0.047 A 
ATOM     14  C   UNL     1      -0.099  -1.302  -3.569  1.00  0.00     0.128 A 
ATOM     15  C   UNL     1      -0.125   1.137  -3.591  1.00  0.00    -0.021 A 
ATOM     16  Cl  UNL     1       0.442   2.618  -1.355  1.00  0.00    -0.084 Cl
ATOM     17  C   UNL     1      -0.211  -0.102  -4.278  1.00  0.00     0.022 A 
ATOM     18  O   UNL     1      -0.227  -2.545  -4.121  1.00  0.00    -0.475 OA
ATOM     19  C   UNL     1      -0.354   2.429  -4.344  1.00  0.00     0.047 C 
ATOM     20  C   UNL     1      -0.333  -0.182  -5.732  1.00  0.00     0.027 C 
ATOM     21  C   UNL     1      -0.277  -2.685  -5.563  1.00  0.00     0.316 C 
BRANCH  21  22
ATOM     22  C   UNL     1       0.885  -3.584  -6.007  1.00  0.00     0.430 C 
ATOM     23  F   UNL     1       0.937  -4.721  -5.272  1.00  0.00    -0.167 F 
ATOM     24  F   UNL     1       0.759  -3.964  -7.300  1.00  0.00    -0.167 F 
ATOM     25  F   UNL     1       2.080  -2.964  -5.882  1.00  0.00    -0.167 F 
ENDBRANCH  21  22
ENDBRANCH   7   9
ENDBRANCH   6   7
ENDBRANCH   5   6
ENDBRANCH   4   5
ENDBRANCH   3   4
ENDBRANCH   2   3
ENDBRANCH   1   2
BRANCH   1  26
ATOM     26  O   UNL     1      -4.232  -2.814  -7.434  1.00  0.00    -0.376 OA
BRANCH  26  27
ATOM     27  C   UNL     1      -5.441  -2.959  -8.163  1.00  0.00     0.202 C 
BRANCH  27  28
ATOM     28  C   UNL     1      -6.652  -2.012  -8.041  1.00  0.00     0.261 C 
BRANCH  28  29
ATOM     29  O   UNL     1      -6.380  -0.626  -7.800  1.00  0.00    -0.460 OA
BRANCH  29  30
ATOM     30  C   UNL     1      -6.750  -0.162  -6.577  1.00  0.00     0.338 C 
ATOM     31  O   UNL     1      -7.284  -0.782  -5.679  1.00  0.00    -0.246 OA
BRANCH  30  32
ATOM     32  C   UNL     1      -6.207   1.201  -6.403  1.00  0.00     0.060 A 
ATOM     33  C   UNL     1      -5.175   1.397  -5.474  1.00  0.00     0.016 A 
ATOM     34  C   UNL     1      -6.720   2.275  -7.130  1.00  0.00     0.016 A 
ATOM     35  C   UNL     1      -4.648   2.671  -5.273  1.00  0.00     0.010 A 
ATOM     36  C   UNL     1      -6.214   3.559  -6.901  1.00  0.00     0.010 A 
ATOM     37  C   UNL     1      -5.190   3.765  -5.958  1.00  0.00    -0.014 A 
BRANCH  37  38
ATOM     38  C   UNL     1      -4.829   5.135  -5.521  1.00  0.00     0.031 A 
ATOM     39  C   UNL     1      -5.712   5.811  -4.510  1.00  0.00     0.074 A 
ATOM     40  C   UNL     1      -3.711   5.745  -5.956  1.00  0.00     0.049 A 
ATOM     41  N   UNL     1      -5.601   6.998  -3.971  1.00  0.00    -0.248 NA
ATOM     42  C   UNL     1      -6.875   5.041  -4.038  1.00  0.00     0.031 C 
ATOM     43  C   UNL     1      -2.742   5.173  -6.887  1.00  0.00     0.029 A 
ATOM     44  N   UNL     1      -3.204   6.987  -5.660  1.00  0.00    -0.354 N 
ATOM     45  C   UNL     1      -6.670   7.110  -3.092  1.00  0.00     0.074 A 
ATOM     46  C   UNL     1      -7.442   5.893  -3.199  1.00  0.00     0.031 C 
ATOM     47  C   UNL     1      -1.754   6.064  -7.087  1.00  0.00     0.029 A 
ATOM     48  C   UNL     1      -2.037   7.280  -6.323  1.00  0.00     0.049 A 
ATOM     49  H   UNL     1      -3.637   7.609  -5.032  1.00  0.00     0.167 HD
ATOM     50  C   UNL     1      -6.971   8.129  -2.255  1.00  0.00     0.037 A 
ATOM     51  C   UNL     1      -1.294   8.406  -6.323  1.00  0.00     0.037 A 
ATOM     52  C   UNL     1      -6.208   9.342  -2.150  1.00  0.00     0.049 A 
ATOM     53  C   UNL     1      -1.719   9.577  -5.472  1.00  0.00     0.074 A 
ATOM     54  C   UNL     1      -6.436  10.431  -1.328  1.00  0.00     0.029 A 
ATOM     55  N   UNL     1      -5.076   9.631  -2.896  1.00  0.00    -0.354 N 
ATOM     56  N   UNL     1      -2.717   9.667  -4.627  1.00  0.00    -0.248 NA
ATOM     57  C   UNL     1      -0.917  10.807  -5.579  1.00  0.00     0.031 C 
ATOM     58  C   UNL     1      -5.477  11.403  -1.618  1.00  0.00     0.029 A 
ATOM     59  C   UNL     1      -4.617  10.898  -2.580  1.00  0.00     0.049 A 
ATOM     60  H   UNL     1      -4.661   9.025  -3.552  1.00  0.00     0.167 HD
ATOM     61  C   UNL     1      -2.651  10.947  -4.088  1.00  0.00     0.074 A 
ATOM     62  C   UNL     1      -1.505  11.596  -4.688  1.00  0.00     0.031 C 
ATOM     63  C   UNL     1      -3.470  11.532  -3.179  1.00  0.00     0.037 A 
BRANCH  50  64
ATOM     64  C   UNL     1      -8.187   7.981  -1.391  1.00  0.00     0.057 A 
ATOM     65  C   UNL     1      -8.216   7.097  -0.305  1.00  0.00     0.134 A 
ATOM     66  C   UNL     1      -9.322   8.771  -1.615  1.00  0.00     0.134 A 
ATOM     67  F   UNL     1      -7.167   6.302  -0.048  1.00  0.00    -0.206 F 
ATOM     68  C   UNL     1      -9.336   6.993   0.520  1.00  0.00     0.040 A 
ATOM     69  C   UNL     1     -10.438   8.696  -0.780  1.00  0.00     0.040 A 
ATOM     70  F   UNL     1      -9.358   9.639  -2.636  1.00  0.00    -0.206 F 
ATOM     71  C   UNL     1     -10.448   7.802   0.289  1.00  0.00     0.006 A 
ENDBRANCH  50  64
BRANCH  51  72
ATOM     72  C   UNL     1      -0.070   8.490  -7.162  1.00  0.00     0.057 A 
ATOM     73  C   UNL     1       1.201   8.573  -6.583  1.00  0.00     0.134 A 
ATOM     74  C   UNL     1      -0.140   8.507  -8.561  1.00  0.00     0.134 A 
ATOM     75  F   UNL     1       1.335   8.592  -5.249  1.00  0.00    -0.206 F 
ATOM     76  C   UNL     1       2.356   8.675  -7.361  1.00  0.00     0.040 A 
ATOM     77  C   UNL     1       1.008   8.582  -9.352  1.00  0.00     0.040 A 
ATOM     78  F   UNL     1      -1.328   8.439  -9.181  1.00  0.00    -0.206 F 
ATOM     79  C   UNL     1       2.261   8.672  -8.752  1.00  0.00     0.006 A 
ENDBRANCH  51  72
BRANCH  63  80
ATOM     80  C   UNL     1      -3.173  12.944  -2.761  1.00  0.00     0.057 A 
ATOM     81  C   UNL     1      -3.426  14.028  -3.609  1.00  0.00     0.134 A 
ATOM     82  C   UNL     1      -2.747  13.230  -1.456  1.00  0.00     0.134 A 
ATOM     83  F   UNL     1      -3.829  13.823  -4.872  1.00  0.00    -0.206 F 
ATOM     84  C   UNL     1      -3.269  15.346  -3.176  1.00  0.00     0.040 A 
ATOM     85  C   UNL     1      -2.611  14.543  -1.003  1.00  0.00     0.040 A 
ATOM     86  F   UNL     1      -2.499  12.238  -0.587  1.00  0.00    -0.206 F 
ATOM     87  C   UNL     1      -2.874  15.606  -1.865  1.00  0.00     0.006 A 
ENDBRANCH  63  80
ENDBRANCH  37  38
ENDBRANCH  30  32
ENDBRANCH  29  30
ENDBRANCH  28  29
ENDBRANCH  27  28
ENDBRANCH  26  27
ENDBRANCH   1  26
TORSDOF 18
