REMARK SMILES COc1cc(OC)cc(-c2ccc(C(=O)OCCOCCOCCOC(=O)c3ccc(-c4c5nc(c(-c6c(F)cccc6F)c6ccc([nH]6)c(-c6c(F)cccc6F)c6nc(c(-c7c(F)cccc7F)c7ccc4[nH]7)C=C6)C=C5)cc3)o2)c1
REMARK SMILES IDX 20 1 19 2 18 3 17 4 16 5 14 6 15 7 13 8 10 9 11 10 82 11
REMARK SMILES IDX 12 12 9 13 3 14 4 15 83 16 5 17 8 18 2 19 1 20 6 21 7 22
REMARK SMILES IDX 21 23 22 24 23 25 24 26 25 27 26 28 27 29 28 30 29 31 81 32
REMARK SMILES IDX 30 33 80 34 31 35 32 36 33 37 74 38 34 39 79 40 73 41 75 42
REMARK SMILES IDX 35 43 78 44 72 45 71 46 36 48 62 49 45 50 61 51 46 52 49 53
REMARK SMILES IDX 60 54 76 55 47 56 48 57 59 59 77 60 50 61 37 62 38 63 43 64
REMARK SMILES IDX 39 65 40 66 42 67 44 68 41 69 63 70 64 71 69 72 65 73 66 74
REMARK SMILES IDX 68 75 70 76 67 77 51 78 52 79 57 80 53 81 54 82 56 83 58 84
REMARK SMILES IDX 55 85
REMARK H PARENT 75 47 49 58
REMARK Flexibility Score: inf
ROOT
ATOM      1  C   UNL     1       6.570  -3.965   6.857  1.00  0.00     0.188 C 
ENDROOT
BRANCH   1   2
ATOM      2  O   UNL     1       7.467  -5.060   6.707  1.00  0.00    -0.376 OA
BRANCH   2   3
ATOM      3  C   UNL     1       8.665  -4.896   5.958  1.00  0.00     0.202 C 
BRANCH   3   4
ATOM      4  C   UNL     1       8.517  -4.590   4.466  1.00  0.00     0.261 C 
BRANCH   4   5
ATOM      5  O   UNL     1       7.852  -3.340   4.218  1.00  0.00    -0.457 OA
BRANCH   5   6
ATOM      6  C   UNL     1       6.660  -3.419   3.546  1.00  0.00     0.374 C 
ATOM      7  O   UNL     1       6.203  -4.433   3.056  1.00  0.00    -0.242 OA
BRANCH   6   8
ATOM      8  C   UNL     1       5.989  -2.136   3.618  1.00  0.00     0.212 A 
ATOM      9  C   UNL     1       4.207  -0.841   3.717  1.00  0.00     0.135 A 
ATOM     10  C   UNL     1       5.295  -0.013   3.886  1.00  0.00     0.052 A 
ATOM     11  O   UNL     1       4.617  -2.125   3.538  1.00  0.00    -0.449 OA
ATOM     12  C   UNL     1       6.440  -0.843   3.820  1.00  0.00     0.059 A 
BRANCH   9  13
ATOM     13  C   UNL     1       2.779  -0.606   3.634  1.00  0.00     0.025 A 
ATOM     14  C   UNL     1       0.857  -0.042   2.269  1.00  0.00     0.123 A 
ATOM     15  C   UNL     1       0.078   0.018   3.424  1.00  0.00     0.092 A 
ATOM     16  C   UNL     1       2.209  -0.355   2.378  1.00  0.00     0.058 A 
ATOM     17  C   UNL     1       0.627  -0.238   4.684  1.00  0.00     0.123 A 
ATOM     18  C   UNL     1       1.980  -0.563   4.788  1.00  0.00     0.058 A 
BRANCH  14  19
ATOM     19  O   UNL     1       0.195   0.260   1.111  1.00  0.00    -0.497 OA
ATOM     20  C   UNL     1       0.878  -0.016  -0.105  1.00  0.00     0.278 C 
ENDBRANCH  14  19
BRANCH  17  21
ATOM     21  O   UNL     1      -0.267  -0.124   5.712  1.00  0.00    -0.497 OA
ATOM     22  C   UNL     1       0.240  -0.200   7.034  1.00  0.00     0.278 C 
ENDBRANCH  17  21
ENDBRANCH   9  13
ENDBRANCH   6   8
ENDBRANCH   5   6
ENDBRANCH   4   5
ENDBRANCH   3   4
ENDBRANCH   2   3
ENDBRANCH   1   2
BRANCH   1  23
ATOM     23  C   UNL     1       7.124  -2.555   7.136  1.00  0.00     0.188 C 
BRANCH  23  24
ATOM     24  O   UNL     1       8.471  -2.539   7.579  1.00  0.00    -0.376 OA
BRANCH  24  25
ATOM     25  C   UNL     1       8.688  -2.042   8.890  1.00  0.00     0.202 C 
BRANCH  25  26
ATOM     26  C   UNL     1       8.325  -3.041   9.994  1.00  0.00     0.261 C 
BRANCH  26  27
ATOM     27  O   UNL     1       6.958  -3.484   9.985  1.00  0.00    -0.460 OA
BRANCH  27  28
ATOM     28  C   UNL     1       6.016  -2.573  10.312  1.00  0.00     0.338 C 
ATOM     29  O   UNL     1       6.188  -1.403  10.600  1.00  0.00    -0.246 OA
BRANCH  28  30
ATOM     30  C   UNL     1       4.696  -3.198  10.100  1.00  0.00     0.060 A 
ATOM     31  C   UNL     1       3.796  -2.596   9.214  1.00  0.00     0.016 A 
ATOM     32  C   UNL     1       4.352  -4.377  10.769  1.00  0.00     0.016 A 
ATOM     33  C   UNL     1       2.536  -3.166   9.014  1.00  0.00     0.010 A 
ATOM     34  C   UNL     1       3.083  -4.932  10.581  1.00  0.00     0.010 A 
ATOM     35  C   UNL     1       2.158  -4.314   9.724  1.00  0.00    -0.014 A 
BRANCH  35  36
ATOM     36  C   UNL     1       0.748  -4.774   9.696  1.00  0.00     0.031 A 
ATOM     37  C   UNL     1      -0.175  -4.339  10.800  1.00  0.00     0.074 A 
ATOM     38  C   UNL     1       0.287  -5.562   8.709  1.00  0.00     0.049 A 
ATOM     39  N   UNL     1      -1.433  -4.639  11.001  1.00  0.00    -0.248 NA
ATOM     40  C   UNL     1       0.400  -3.441  11.814  1.00  0.00     0.031 C 
ATOM     41  C   UNL     1       1.063  -6.024   7.561  1.00  0.00     0.029 A 
ATOM     42  N   UNL     1      -0.956  -6.116   8.524  1.00  0.00    -0.354 N 
ATOM     43  C   UNL     1      -1.797  -3.975  12.165  1.00  0.00     0.074 A 
ATOM     44  C   UNL     1      -0.622  -3.275  12.639  1.00  0.00     0.031 C 
ATOM     45  C   UNL     1       0.279  -6.799   6.790  1.00  0.00     0.029 A 
ATOM     46  C   UNL     1      -1.043  -6.910   7.407  1.00  0.00     0.049 A 
ATOM     47  H   UNL     1      -1.712  -5.960   9.134  1.00  0.00     0.167 HD
ATOM     48  C   UNL     1      -3.002  -3.945  12.783  1.00  0.00     0.037 A 
ATOM     49  C   UNL     1      -2.068  -7.652   6.945  1.00  0.00     0.037 A 
ATOM     50  C   UNL     1      -4.171  -4.644  12.321  1.00  0.00     0.049 A 
ATOM     51  C   UNL     1      -3.374  -7.672   7.696  1.00  0.00     0.074 A 
ATOM     52  C   UNL     1      -5.444  -4.647  12.863  1.00  0.00     0.029 A 
ATOM     53  N   UNL     1      -4.204  -5.478  11.214  1.00  0.00    -0.354 N 
ATOM     54  N   UNL     1      -3.719  -7.013   8.776  1.00  0.00    -0.248 NA
ATOM     55  C   UNL     1      -4.432  -8.544   7.163  1.00  0.00     0.031 C 
ATOM     56  C   UNL     1      -6.237  -5.522  12.110  1.00  0.00     0.029 A 
ATOM     57  C   UNL     1      -5.468  -6.027  11.074  1.00  0.00     0.049 A 
ATOM     58  H   UNL     1      -3.442  -5.653  10.615  1.00  0.00     0.167 HD
ATOM     59  C   UNL     1      -5.038  -7.366   9.034  1.00  0.00     0.074 A 
ATOM     60  C   UNL     1      -5.433  -8.296   7.996  1.00  0.00     0.031 C 
ATOM     61  C   UNL     1      -5.851  -6.951  10.037  1.00  0.00     0.037 A 
BRANCH  48  62
ATOM     62  C   UNL     1      -3.097  -3.151  14.051  1.00  0.00     0.057 A 
ATOM     63  C   UNL     1      -3.087  -1.750  14.050  1.00  0.00     0.134 A 
ATOM     64  C   UNL     1      -3.199  -3.798  15.289  1.00  0.00     0.134 A 
ATOM     65  F   UNL     1      -2.973  -1.072  12.898  1.00  0.00    -0.206 F 
ATOM     66  C   UNL     1      -3.149  -1.021  15.239  1.00  0.00     0.040 A 
ATOM     67  C   UNL     1      -3.284  -3.079  16.482  1.00  0.00     0.040 A 
ATOM     68  F   UNL     1      -3.214  -5.138  15.359  1.00  0.00    -0.206 F 
ATOM     69  C   UNL     1      -3.252  -1.686  16.459  1.00  0.00     0.006 A 
ENDBRANCH  48  62
BRANCH  49  70
ATOM     70  C   UNL     1      -1.907  -8.448   5.703  1.00  0.00     0.057 A 
ATOM     71  C   UNL     1      -2.564  -8.082   4.523  1.00  0.00     0.134 A 
ATOM     72  C   UNL     1      -1.110  -9.598   5.670  1.00  0.00     0.134 A 
ATOM     73  F   UNL     1      -3.366  -7.008   4.502  1.00  0.00    -0.206 F 
ATOM     74  C   UNL     1      -2.439  -8.835   3.354  1.00  0.00     0.040 A 
ATOM     75  C   UNL     1      -0.960 -10.349   4.503  1.00  0.00     0.040 A 
ATOM     76  F   UNL     1      -0.462 -10.005   6.772  1.00  0.00    -0.206 F 
ATOM     77  C   UNL     1      -1.629  -9.970   3.341  1.00  0.00     0.006 A 
ENDBRANCH  49  70
BRANCH  61  78
ATOM     78  C   UNL     1      -7.258  -7.472  10.046  1.00  0.00     0.057 A 
ATOM     79  C   UNL     1      -7.556  -8.787  10.424  1.00  0.00     0.134 A 
ATOM     80  C   UNL     1      -8.331  -6.634   9.716  1.00  0.00     0.134 A 
ATOM     81  F   UNL     1      -6.573  -9.644  10.741  1.00  0.00    -0.206 F 
ATOM     82  C   UNL     1      -8.871  -9.255  10.457  1.00  0.00     0.040 A 
ATOM     83  C   UNL     1      -9.651  -7.084   9.767  1.00  0.00     0.040 A 
ATOM     84  F   UNL     1      -8.114  -5.361   9.354  1.00  0.00    -0.206 F 
ATOM     85  C   UNL     1      -9.924  -8.400  10.134  1.00  0.00     0.006 A 
ENDBRANCH  61  78
ENDBRANCH  35  36
ENDBRANCH  28  30
ENDBRANCH  27  28
ENDBRANCH  26  27
ENDBRANCH  25  26
ENDBRANCH  24  25
ENDBRANCH  23  24
ENDBRANCH   1  23
TORSDOF 20
