REMARK SMILES CC1(C)C(NC(=O)N2CC[NH+](CC(=O)OCCOCCOCCOC(=O)c3ccc(-c4c5nc(c(-c6c(F)cccc6F)c6ccc([nH]6)c(-c6c(F)cccc6F)c6nc(c(-c7c(F)cccc7F)c7ccc4[nH]7)C=C6)C=C5)cc3)CC2)C1(C)C
REMARK SMILES IDX 19 1 18 2 17 3 16 4 15 5 13 6 14 7 12 8 11 9 5 10 6 11 7 13
REMARK SMILES IDX 8 14 9 15 82 16 10 17 81 18 4 20 1 21 2 22 3 23 83 24 84 25
REMARK SMILES IDX 85 26 20 27 21 28 22 29 23 30 24 31 25 32 26 33 27 34 28 35
REMARK SMILES IDX 80 36 29 37 79 38 30 39 31 40 32 41 73 42 33 43 78 44 72 45
REMARK SMILES IDX 74 46 34 47 77 48 71 49 70 50 35 52 61 53 44 54 60 55 45 56
REMARK SMILES IDX 48 57 59 58 75 59 46 60 47 61 58 63 76 64 49 65 36 66 37 67
REMARK SMILES IDX 42 68 38 69 39 70 41 71 43 72 40 73 62 74 63 75 68 76 64 77
REMARK SMILES IDX 65 78 67 79 69 80 66 81 50 82 51 83 56 84 52 85 53 86 55 87
REMARK SMILES IDX 57 88 54 89
REMARK H PARENT 5 12 11 19 74 51 48 62
REMARK Flexibility Score: inf
ROOT
ATOM      1  C   UNL     1      -5.691  -1.974  -5.018  1.00  0.00     0.188 C 
ENDROOT
BRANCH   1   2
ATOM      2  O   UNL     1      -5.686  -3.376  -5.272  1.00  0.00    -0.376 OA
BRANCH   2   3
ATOM      3  C   UNL     1      -4.592  -4.118  -4.734  1.00  0.00     0.202 C 
BRANCH   3   4
ATOM      4  C   UNL     1      -3.220  -3.803  -5.341  1.00  0.00     0.261 C 
BRANCH   4   5
ATOM      5  O   UNL     1      -2.760  -2.481  -4.995  1.00  0.00    -0.459 OA
BRANCH   5   6
ATOM      6  C   UNL     1      -2.226  -1.730  -5.991  1.00  0.00     0.361 C 
ATOM      7  O   UNL     1      -2.170  -2.088  -7.164  1.00  0.00    -0.245 OA
BRANCH   6   8
ATOM      8  C   UNL     1      -1.788  -0.332  -5.551  1.00  0.00     0.386 C 
BRANCH   8   9
ATOM      9  N   UNL     1      -1.157  -0.159  -4.242  1.00  0.00    -0.323 N 
ATOM     10  N   UNL     1      -1.033  -1.889   0.481  1.00  0.00    -0.334 N 
ATOM     11  C   UNL     1      -1.988  -1.156  -0.164  1.00  0.00     0.318 C 
ATOM     12  H   UNL     1      -1.316  -2.511   1.190  1.00  0.00     0.165 HD
ATOM     13  O   UNL     1      -2.954  -0.773   0.485  1.00  0.00    -0.249 OA
ATOM     14  N   UNL     1      -1.761  -0.854  -1.488  1.00  0.00    -0.314 N 
ATOM     15  C   UNL     1      -2.443   0.283  -2.090  1.00  0.00     0.183 C 
ATOM     16  C   UNL     1      -1.315  -1.875  -2.438  1.00  0.00     0.183 C 
ATOM     17  C   UNL     1      -1.708   0.843  -3.327  1.00  0.00     0.284 C 
ATOM     18  C   UNL     1      -0.485  -1.267  -3.581  1.00  0.00     0.284 C 
ATOM     19  H   UNL     1      -0.352   0.298  -4.670  1.00  0.00     0.348 HD
BRANCH  10  20
ATOM     20  C   UNL     1       0.352  -1.792   0.173  1.00  0.00     0.096 C 
ATOM     21  C   UNL     1       2.183  -0.095   0.501  1.00  0.00     0.014 C 
ATOM     22  C   UNL     1       1.330  -1.177   1.137  1.00  0.00    -0.007 C 
ATOM     23  C   UNL     1       0.868  -0.780   2.522  1.00  0.00     0.014 C 
ATOM     24  C   UNL     1       1.427  -2.677   0.724  1.00  0.00    -0.007 C 
ATOM     25  C   UNL     1       2.441  -3.137  -0.301  1.00  0.00     0.014 C 
ATOM     26  C   UNL     1       1.015  -3.800   1.650  1.00  0.00     0.014 C 
ENDBRANCH  10  20
ENDBRANCH   8   9
ENDBRANCH   6   8
ENDBRANCH   5   6
ENDBRANCH   4   5
ENDBRANCH   3   4
ENDBRANCH   2   3
ENDBRANCH   1   2
BRANCH   1  27
ATOM     27  C   UNL     1      -5.900  -1.575  -3.557  1.00  0.00     0.188 C 
BRANCH  27  28
ATOM     28  O   UNL     1      -4.808  -1.916  -2.703  1.00  0.00    -0.376 OA
BRANCH  28  29
ATOM     29  C   UNL     1      -5.192  -2.541  -1.472  1.00  0.00     0.202 C 
BRANCH  29  30
ATOM     30  C   UNL     1      -5.916  -1.669  -0.430  1.00  0.00     0.261 C 
BRANCH  30  31
ATOM     31  O   UNL     1      -6.613  -0.568  -1.018  1.00  0.00    -0.460 OA
BRANCH  31  32
ATOM     32  C   UNL     1      -6.031   0.646  -0.880  1.00  0.00     0.338 C 
ATOM     33  O   UNL     1      -5.109   0.987  -0.165  1.00  0.00    -0.246 OA
BRANCH  32  34
ATOM     34  C   UNL     1      -6.603   1.524  -1.907  1.00  0.00     0.060 A 
ATOM     35  C   UNL     1      -5.731   2.192  -2.777  1.00  0.00     0.016 A 
ATOM     36  C   UNL     1      -7.986   1.629  -2.048  1.00  0.00     0.016 A 
ATOM     37  C   UNL     1      -6.245   2.962  -3.813  1.00  0.00     0.010 A 
ATOM     38  C   UNL     1      -8.499   2.410  -3.075  1.00  0.00     0.010 A 
ATOM     39  C   UNL     1      -7.632   3.084  -3.953  1.00  0.00    -0.014 A 
BRANCH  39  40
ATOM     40  C   UNL     1      -8.216   4.006  -4.944  1.00  0.00     0.031 A 
ATOM     41  C   UNL     1      -8.723   5.332  -4.467  1.00  0.00     0.074 A 
ATOM     42  C   UNL     1      -8.357   3.628  -6.224  1.00  0.00     0.049 A 
ATOM     43  N   UNL     1      -9.436   6.223  -5.102  1.00  0.00    -0.248 NA
ATOM     44  C   UNL     1      -8.394   5.692  -3.078  1.00  0.00     0.031 C 
ATOM     45  C   UNL     1      -7.860   2.378  -6.798  1.00  0.00     0.029 A 
ATOM     46  N   UNL     1      -8.990   4.253  -7.266  1.00  0.00    -0.354 N 
ATOM     47  C   UNL     1      -9.664   7.238  -4.185  1.00  0.00     0.074 A 
ATOM     48  C   UNL     1      -9.028   6.847  -2.946  1.00  0.00     0.031 C 
ATOM     49  C   UNL     1      -8.225   2.321  -8.091  1.00  0.00     0.029 A 
ATOM     50  C   UNL     1      -9.021   3.502  -8.414  1.00  0.00     0.049 A 
ATOM     51  H   UNL     1      -9.383   5.153  -7.197  1.00  0.00     0.167 HD
ATOM     52  C   UNL     1     -10.348   8.391  -4.366  1.00  0.00     0.037 A 
ATOM     53  C   UNL     1      -9.658   3.732  -9.578  1.00  0.00     0.037 A 
ATOM     54  C   UNL     1     -10.976   8.763  -5.605  1.00  0.00     0.049 A 
ATOM     55  C   UNL     1     -10.490   4.978  -9.723  1.00  0.00     0.074 A 
ATOM     56  C   UNL     1     -11.653   9.929  -5.912  1.00  0.00     0.029 A 
ATOM     57  N   UNL     1     -11.016   7.963  -6.739  1.00  0.00    -0.354 N 
ATOM     58  N   UNL     1     -10.677   5.955  -8.868  1.00  0.00    -0.248 NA
ATOM     59  C   UNL     1     -11.212   5.146 -10.992  1.00  0.00     0.031 C 
ATOM     60  C   UNL     1     -12.159   9.807  -7.211  1.00  0.00     0.029 A 
ATOM     61  C   UNL     1     -11.747   8.591  -7.733  1.00  0.00     0.049 A 
ATOM     62  H   UNL     1     -10.589   7.080  -6.823  1.00  0.00     0.167 HD
ATOM     63  C   UNL     1     -11.515   6.864  -9.502  1.00  0.00     0.074 A 
ATOM     64  C   UNL     1     -11.791   6.326 -10.819  1.00  0.00     0.031 C 
ATOM     65  C   UNL     1     -12.012   8.037  -9.037  1.00  0.00     0.037 A 
BRANCH  52  66
ATOM     66  C   UNL     1     -10.489   9.301  -3.182  1.00  0.00     0.057 A 
ATOM     67  C   UNL     1      -9.405  10.014  -2.654  1.00  0.00     0.134 A 
ATOM     68  C   UNL     1     -11.736   9.473  -2.568  1.00  0.00     0.134 A 
ATOM     69  F   UNL     1      -8.180   9.880  -3.184  1.00  0.00    -0.206 F 
ATOM     70  C   UNL     1      -9.551  10.843  -1.540  1.00  0.00     0.040 A 
ATOM     71  C   UNL     1     -11.900  10.321  -1.472  1.00  0.00     0.040 A 
ATOM     72  F   UNL     1     -12.816   8.820  -3.023  1.00  0.00    -0.206 F 
ATOM     73  C   UNL     1     -10.803  11.003  -0.951  1.00  0.00     0.006 A 
ENDBRANCH  52  66
BRANCH  53  74
ATOM     74  C   UNL     1      -9.550   2.756 -10.690  1.00  0.00     0.057 A 
ATOM     75  C   UNL     1      -8.856   3.079 -11.861  1.00  0.00     0.134 A 
ATOM     76  C   UNL     1     -10.137   1.487 -10.617  1.00  0.00     0.134 A 
ATOM     77  F   UNL     1      -8.293   4.289 -11.999  1.00  0.00    -0.206 F 
ATOM     78  C   UNL     1      -8.759   2.181 -12.925  1.00  0.00     0.040 A 
ATOM     79  C   UNL     1     -10.026   0.569 -11.663  1.00  0.00     0.040 A 
ATOM     80  F   UNL     1     -10.816   1.116  -9.521  1.00  0.00    -0.206 F 
ATOM     81  C   UNL     1      -9.339   0.919 -12.824  1.00  0.00     0.006 A 
ENDBRANCH  53  74
BRANCH  65  82
ATOM     82  C   UNL     1     -12.885   8.831  -9.966  1.00  0.00     0.057 A 
ATOM     83  C   UNL     1     -14.190   8.429 -10.277  1.00  0.00     0.134 A 
ATOM     84  C   UNL     1     -12.432  10.039 -10.513  1.00  0.00     0.134 A 
ATOM     85  F   UNL     1     -14.679   7.276  -9.796  1.00  0.00    -0.206 F 
ATOM     86  C   UNL     1     -15.008   9.192 -11.112  1.00  0.00     0.040 A 
ATOM     87  C   UNL     1     -13.250  10.824 -11.326  1.00  0.00     0.040 A 
ATOM     88  F   UNL     1     -11.195  10.486 -10.248  1.00  0.00    -0.206 F 
ATOM     89  C   UNL     1     -14.541  10.398 -11.631  1.00  0.00     0.006 A 
ENDBRANCH  65  82
ENDBRANCH  39  40
ENDBRANCH  32  34
ENDBRANCH  31  32
ENDBRANCH  30  31
ENDBRANCH  29  30
ENDBRANCH  28  29
ENDBRANCH  27  28
ENDBRANCH   1  27
TORSDOF 19
