REMARK SMILES Cc1nn(C)c(C)c1CCC(=O)Nc1sccc1C(=O)OCCOCCOCCOC(=O)c1ccc(-c2c3nc(c(-c4c(F)cccc4F)c4ccc([nH]4)c(-c4c(F)cccc4F)c4nc(c(-c5c(F)cccc5F)c5ccc2[nH]5)C=C4)C=C3)cc1
REMARK SMILES IDX 25 1 24 2 23 3 22 4 21 5 19 6 20 7 18 8 14 9 15 10 16 11
REMARK SMILES IDX 17 12 13 13 11 14 12 15 10 17 9 18 8 19 1 20 2 21 3 22 4 23
REMARK SMILES IDX 6 24 5 25 7 26 26 27 27 28 28 29 29 30 30 31 31 32 32 33
REMARK SMILES IDX 33 34 34 35 86 36 35 37 85 38 36 39 37 40 38 41 79 42 39 43
REMARK SMILES IDX 84 44 78 45 80 46 40 47 83 48 77 49 76 50 41 52 67 53 50 54
REMARK SMILES IDX 66 55 51 56 54 57 65 58 81 59 52 60 53 61 64 63 82 64 55 65
REMARK SMILES IDX 42 66 43 67 48 68 44 69 45 70 47 71 49 72 46 73 68 74 69 75
REMARK SMILES IDX 74 76 70 77 71 78 73 79 75 80 72 81 56 82 57 83 62 84 58 85
REMARK SMILES IDX 59 86 61 87 63 88 60 89
REMARK H PARENT 13 16 80 51 54 62
REMARK Flexibility Score: inf
ROOT
ATOM      1  C   UNL     1      -0.970   1.213  -3.991  1.00  0.00     0.188 C 
ENDROOT
BRANCH   1   2
ATOM      2  O   UNL     1      -1.827   2.247  -3.514  1.00  0.00    -0.376 OA
BRANCH   2   3
ATOM      3  C   UNL     1      -1.204   3.430  -3.070  1.00  0.00     0.202 C 
BRANCH   3   4
ATOM      4  C   UNL     1      -1.042   3.450  -1.556  1.00  0.00     0.261 C 
BRANCH   4   5
ATOM      5  O   UNL     1      -0.152   2.482  -0.957  1.00  0.00    -0.460 OA
BRANCH   5   6
ATOM      6  C   UNL     1      -0.744   1.136  -0.348  1.00  0.00     0.341 C 
ATOM      7  O   UNL     1      -1.674   0.871  -1.198  1.00  0.00    -0.246 OA
BRANCH   6   8
ATOM      8  C   UNL     1      -0.158   0.241   1.531  1.00  0.00     0.094 A 
ATOM      9  C   UNL     1       0.752   0.644   2.702  1.00  0.00     0.110 A 
ATOM     10  S   UNL     1       1.360  -0.650   3.663  1.00  0.00    -0.126 S 
ATOM     11  C   UNL     1       0.155  -1.718   3.225  1.00  0.00     0.068 A 
ATOM     12  C   UNL     1      -0.623  -1.210   2.225  1.00  0.00     0.029 A 
BRANCH   9  13
ATOM     13  N   UNL     1       1.470   1.760   3.154  1.00  0.00    -0.317 N 
ATOM     14  C   UNL     1       1.266   3.106   3.053  1.00  0.00     0.225 C 
ATOM     15  O   UNL     1       2.239   3.863   3.117  1.00  0.00    -0.275 OA
ATOM     16  H   UNL     1       2.290   1.525   3.646  1.00  0.00     0.170 HD
BRANCH  14  17
ATOM     17  C   UNL     1      -0.135   3.665   3.057  1.00  0.00     0.105 C 
BRANCH  17  18
ATOM     18  C   UNL     1      -0.882   3.455   1.775  1.00  0.00     0.049 C 
BRANCH  18  19
ATOM     19  C   UNL     1      -0.620   2.108   1.242  1.00  0.00    -0.004 A 
ATOM     20  C   UNL     1      -3.450   0.747   1.085  1.00  0.00     0.069 C 
ATOM     21  C   UNL     1      -1.968   0.682   1.006  1.00  0.00     0.063 A 
ATOM     22  N   UNL     1      -1.194  -0.641   0.118  1.00  0.00    -0.178 NA
ATOM     23  N   UNL     1       0.586  -0.201  -0.191  1.00  0.00    -0.272 N 
ATOM     24  C   UNL     1       0.959   1.473   0.490  1.00  0.00     0.038 A 
ATOM     25  C   UNL     1       1.607  -1.214  -0.385  1.00  0.00     0.174 C 
ATOM     26  C   UNL     1       2.307   2.072   0.210  1.00  0.00     0.066 C 
ENDBRANCH  18  19
ENDBRANCH  17  18
ENDBRANCH  14  17
ENDBRANCH   9  13
ENDBRANCH   6   8
ENDBRANCH   5   6
ENDBRANCH   4   5
ENDBRANCH   3   4
ENDBRANCH   2   3
ENDBRANCH   1   2
BRANCH   1  27
ATOM     27  C   UNL     1       0.448   1.044  -3.409  1.00  0.00     0.188 C 
BRANCH  27  28
ATOM     28  O   UNL     1       1.353   2.108  -3.564  1.00  0.00    -0.376 OA
BRANCH  28  29
ATOM     29  C   UNL     1       1.969   2.330  -4.814  1.00  0.00     0.202 C 
BRANCH  29  30
ATOM     30  C   UNL     1       1.768   1.465  -6.086  1.00  0.00     0.261 C 
BRANCH  30  31
ATOM     31  O   UNL     1       0.817   0.384  -6.076  1.00  0.00    -0.460 OA
BRANCH  31  32
ATOM     32  C   UNL     1       1.250  -0.851  -5.712  1.00  0.00     0.338 C 
ATOM     33  O   UNL     1       2.399  -1.162  -5.451  1.00  0.00    -0.246 OA
BRANCH  32  34
ATOM     34  C   UNL     1       0.063  -1.698  -5.379  1.00  0.00     0.060 A 
ATOM     35  C   UNL     1      -0.014  -2.284  -4.102  1.00  0.00     0.016 A 
ATOM     36  C   UNL     1      -0.985  -1.890  -6.278  1.00  0.00     0.016 A 
ATOM     37  C   UNL     1      -1.104  -3.083  -3.732  1.00  0.00     0.010 A 
ATOM     38  C   UNL     1      -2.055  -2.731  -5.926  1.00  0.00     0.010 A 
ATOM     39  C   UNL     1      -2.104  -3.366  -4.667  1.00  0.00    -0.014 A 
BRANCH  39  40
ATOM     40  C   UNL     1      -3.028  -4.519  -4.455  1.00  0.00     0.031 A 
ATOM     41  C   UNL     1      -2.678  -5.821  -5.136  1.00  0.00     0.074 A 
ATOM     42  C   UNL     1      -4.132  -4.459  -3.686  1.00  0.00     0.049 A 
ATOM     43  N   UNL     1      -3.373  -6.925  -5.249  1.00  0.00    -0.248 NA
ATOM     44  C   UNL     1      -1.356  -5.876  -5.782  1.00  0.00     0.031 C 
ATOM     45  C   UNL     1      -4.556  -3.313  -2.887  1.00  0.00     0.029 A 
ATOM     46  N   UNL     1      -5.114  -5.402  -3.469  1.00  0.00    -0.354 N 
ATOM     47  C   UNL     1      -2.581  -7.794  -5.992  1.00  0.00     0.074 A 
ATOM     48  C   UNL     1      -1.369  -7.081  -6.329  1.00  0.00     0.031 C 
ATOM     49  C   UNL     1      -5.727  -3.608  -2.290  1.00  0.00     0.029 A 
ATOM     50  C   UNL     1      -6.157  -4.947  -2.696  1.00  0.00     0.049 A 
ATOM     51  H   UNL     1      -5.072  -6.315  -3.834  1.00  0.00     0.167 HD
ATOM     52  C   UNL     1      -2.832  -9.073  -6.359  1.00  0.00     0.037 A 
ATOM     53  C   UNL     1      -7.333  -5.532  -2.383  1.00  0.00     0.037 A 
ATOM     54  C   UNL     1      -4.034  -9.791  -6.029  1.00  0.00     0.049 A 
ATOM     55  C   UNL     1      -7.647  -6.916  -2.909  1.00  0.00     0.074 A 
ATOM     56  C   UNL     1      -4.384 -11.086  -6.370  1.00  0.00     0.029 A 
ATOM     57  N   UNL     1      -5.083  -9.275  -5.285  1.00  0.00    -0.354 N 
ATOM     58  N   UNL     1      -6.902  -7.726  -3.622  1.00  0.00    -0.248 NA
ATOM     59  C   UNL     1      -8.974  -7.466  -2.585  1.00  0.00     0.031 C 
ATOM     60  C   UNL     1      -5.670 -11.335  -5.881  1.00  0.00     0.029 A 
ATOM     61  C   UNL     1      -6.091 -10.219  -5.177  1.00  0.00     0.049 A 
ATOM     62  H   UNL     1      -5.109  -8.373  -4.892  1.00  0.00     0.167 HD
ATOM     63  C   UNL     1      -7.648  -8.889  -3.791  1.00  0.00     0.074 A 
ATOM     64  C   UNL     1      -8.900  -8.687  -3.096  1.00  0.00     0.031 C 
ATOM     65  C   UNL     1      -7.326 -10.022  -4.461  1.00  0.00     0.037 A 
BRANCH  52  66
ATOM     66  C   UNL     1      -1.794  -9.772  -7.189  1.00  0.00     0.057 A 
ATOM     67  C   UNL     1      -0.556 -10.158  -6.659  1.00  0.00     0.134 A 
ATOM     68  C   UNL     1      -2.052 -10.095  -8.527  1.00  0.00     0.134 A 
ATOM     69  F   UNL     1      -0.238  -9.866  -5.388  1.00  0.00    -0.206 F 
ATOM     70  C   UNL     1       0.396 -10.820  -7.436  1.00  0.00     0.040 A 
ATOM     71  C   UNL     1      -1.120 -10.784  -9.305  1.00  0.00     0.040 A 
ATOM     72  F   UNL     1      -3.219  -9.759  -9.098  1.00  0.00    -0.206 F 
ATOM     73  C   UNL     1       0.111 -11.143  -8.761  1.00  0.00     0.006 A 
ENDBRANCH  52  66
BRANCH  53  74
ATOM     74  C   UNL     1      -8.347  -4.815  -1.558  1.00  0.00     0.057 A 
ATOM     75  C   UNL     1      -8.743  -5.302  -0.305  1.00  0.00     0.134 A 
ATOM     76  C   UNL     1      -9.009  -3.678  -2.038  1.00  0.00     0.134 A 
ATOM     77  F   UNL     1      -8.177  -6.409   0.198  1.00  0.00    -0.206 F 
ATOM     78  C   UNL     1      -9.776  -4.706   0.423  1.00  0.00     0.040 A 
ATOM     79  C   UNL     1     -10.021  -3.052  -1.305  1.00  0.00     0.040 A 
ATOM     80  F   UNL     1      -8.694  -3.164  -3.236  1.00  0.00    -0.206 F 
ATOM     81  C   UNL     1     -10.416  -3.574  -0.075  1.00  0.00     0.006 A 
ENDBRANCH  53  74
BRANCH  65  82
ATOM     82  C   UNL     1      -8.306 -11.163  -4.426  1.00  0.00     0.057 A 
ATOM     83  C   UNL     1      -9.536 -11.116  -5.093  1.00  0.00     0.134 A 
ATOM     84  C   UNL     1      -7.989 -12.350  -3.749  1.00  0.00     0.134 A 
ATOM     85  F   UNL     1      -9.909 -10.009  -5.755  1.00  0.00    -0.206 F 
ATOM     86  C   UNL     1     -10.426 -12.192  -5.065  1.00  0.00     0.040 A 
ATOM     87  C   UNL     1      -8.855 -13.445  -3.742  1.00  0.00     0.040 A 
ATOM     88  F   UNL     1      -6.821 -12.474  -3.099  1.00  0.00    -0.206 F 
ATOM     89  C   UNL     1     -10.082 -13.364  -4.394  1.00  0.00     0.006 A 
ENDBRANCH  65  82
ENDBRANCH  39  40
ENDBRANCH  32  34
ENDBRANCH  31  32
ENDBRANCH  30  31
ENDBRANCH  29  30
ENDBRANCH  28  29
ENDBRANCH  27  28
ENDBRANCH   1  27
TORSDOF 21
