REMARK SMILES Cc1ccccc1/C=C1\SC(=S)N(CCC(=O)N[C@@H](C)C(=O)OCCOCCOCCOC(=O)c2ccc(-c3c4nc(c(-c5c(F)cccc5F)c5ccc([nH]5)c(-c5c(F)cccc5F)c5nc(c(-c6c(F)cccc6F)c6ccc3[nH]6)C=C5)C=C4)cc2)C1=O
REMARK SMILES IDX 26 1 25 2 24 3 23 4 21 5 22 6 19 7 20 8 18 9 16 10 17 11
REMARK SMILES IDX 15 13 14 14 13 15 8 16 9 17 10 18 89 19 11 20 90 21 12 22
REMARK SMILES IDX 7 23 1 24 2 25 3 26 4 27 6 28 5 29 27 30 28 31 29 32 30 33
REMARK SMILES IDX 31 34 32 35 33 36 34 37 35 38 36 39 88 40 37 41 87 42 38 43
REMARK SMILES IDX 39 44 40 45 81 46 41 47 86 48 80 49 82 50 42 51 85 52 79 53
REMARK SMILES IDX 78 54 43 56 69 57 52 58 68 59 53 60 56 61 67 62 83 63 54 64
REMARK SMILES IDX 55 65 66 67 84 68 57 69 44 70 45 71 50 72 46 73 47 74 49 75
REMARK SMILES IDX 51 76 48 77 70 78 71 79 76 80 72 81 73 82 75 83 77 84 74 85
REMARK SMILES IDX 58 86 59 87 64 88 60 89 61 90 63 91 65 92 62 93
REMARK H PARENT 18 12 82 55 56 66
REMARK Flexibility Score: inf
ROOT
ATOM      1  O   UNL     1      -3.704   5.423  -3.213  1.00  0.00    -0.376 OA
ENDROOT
BRANCH   1   2
ATOM      2  C   UNL     1      -3.782   5.272  -1.786  1.00  0.00     0.202 C 
BRANCH   2   3
ATOM      3  C   UNL     1      -2.678   5.109  -0.438  1.00  0.00     0.261 C 
BRANCH   3   4
ATOM      4  O   UNL     1      -0.857   5.103   0.005  1.00  0.00    -0.462 OA
BRANCH   4   5
ATOM      5  C   UNL     1       0.593   4.522  -0.412  1.00  0.00     0.328 C 
ATOM      6  O   UNL     1       0.829   3.669  -1.301  1.00  0.00    -0.250 OA
BRANCH   5   7
ATOM      7  C   UNL     1       1.917   5.059   0.066  1.00  0.00     0.189 C 
ATOM      8  C   UNL     1       2.327   4.257   1.272  1.00  0.00     0.043 C 
BRANCH   7   9
ATOM      9  N   UNL     1       2.511   6.365  -0.027  1.00  0.00    -0.343 N 
ATOM     10  C   UNL     1       3.505   6.815  -0.854  1.00  0.00     0.222 C 
ATOM     11  O   UNL     1       3.981   7.915  -0.537  1.00  0.00    -0.275 OA
ATOM     12  H   UNL     1       2.149   7.036   0.596  1.00  0.00     0.164 HD
BRANCH  10  13
ATOM     13  C   UNL     1       3.982   6.156  -2.183  1.00  0.00     0.122 C 
BRANCH  13  14
ATOM     14  C   UNL     1       4.864   4.885  -2.266  1.00  0.00     0.137 C 
BRANCH  14  15
ATOM     15  N   UNL     1       4.144   3.594  -2.495  1.00  0.00    -0.292 N 
ATOM     16  C   UNL     1       2.072   1.173  -0.843  1.00  0.00     0.029 C 
ATOM     17  C   UNL     1       2.852   1.707  -1.801  1.00  0.00     0.081 C 
ATOM     18  S   UNL     1       2.892   1.524  -3.491  1.00  0.00    -0.054 SA
ATOM     19  C   UNL     1       3.887   2.747  -1.436  1.00  0.00     0.266 C 
ATOM     20  C   UNL     1       3.869   3.006  -3.715  1.00  0.00     0.148 C 
ATOM     21  O   UNL     1       4.471   2.794  -0.359  1.00  0.00    -0.268 OA
ATOM     22  S   UNL     1       4.418   3.507  -5.215  1.00  0.00    -0.052 S 
BRANCH  16  23
ATOM     23  C   UNL     1       0.949   0.207  -0.564  1.00  0.00    -0.021 A 
ATOM     24  C   UNL     1       2.926  -1.072   0.841  1.00  0.00     0.045 C 
ATOM     25  C   UNL     1       1.430  -0.915   0.656  1.00  0.00    -0.044 A 
ATOM     26  C   UNL     1       0.434  -2.157   1.335  1.00  0.00     0.004 A 
ATOM     27  C   UNL     1      -1.173  -2.489   0.914  1.00  0.00     0.000 A 
ATOM     28  C   UNL     1      -0.770   0.089  -1.092  1.00  0.00     0.008 A 
ATOM     29  C   UNL     1      -1.919  -1.481  -0.317  1.00  0.00     0.001 A 
ENDBRANCH  16  23
ENDBRANCH  14  15
ENDBRANCH  13  14
ENDBRANCH  10  13
ENDBRANCH   7   9
ENDBRANCH   5   7
ENDBRANCH   4   5
ENDBRANCH   3   4
ENDBRANCH   2   3
ENDBRANCH   1   2
BRANCH   1  30
ATOM     30  C   UNL     1      -2.830   6.321  -3.857  1.00  0.00     0.188 C 
BRANCH  30  31
ATOM     31  C   UNL     1      -2.633   7.613  -3.206  1.00  0.00     0.188 C 
BRANCH  31  32
ATOM     32  O   UNL     1      -2.770   7.481  -1.815  1.00  0.00    -0.376 OA
BRANCH  32  33
ATOM     33  C   UNL     1      -3.432   8.510  -1.144  1.00  0.00     0.202 C 
BRANCH  33  34
ATOM     34  C   UNL     1      -3.023   9.855  -1.740  1.00  0.00     0.261 C 
BRANCH  34  35
ATOM     35  O   UNL     1      -1.548  10.018  -1.634  1.00  0.00    -0.460 OA
BRANCH  35  36
ATOM     36  C   UNL     1      -0.618   9.755  -2.643  1.00  0.00     0.338 C 
ATOM     37  O   UNL     1      -0.646  10.249  -3.757  1.00  0.00    -0.246 OA
BRANCH  36  38
ATOM     38  C   UNL     1       0.356   8.606  -2.263  1.00  0.00     0.060 A 
ATOM     39  C   UNL     1       0.791   7.573  -3.162  1.00  0.00     0.016 A 
ATOM     40  C   UNL     1       0.085   8.151  -1.036  1.00  0.00     0.016 A 
ATOM     41  C   UNL     1       0.426   6.126  -3.037  1.00  0.00     0.010 A 
ATOM     42  C   UNL     1      -0.471   6.872  -1.065  1.00  0.00     0.010 A 
ATOM     43  C   UNL     1      -0.510   5.704  -2.100  1.00  0.00    -0.014 A 
BRANCH  43  44
ATOM     44  C   UNL     1      -1.276   3.979  -1.873  1.00  0.00     0.031 A 
ATOM     45  C   UNL     1      -1.270   3.066  -0.165  1.00  0.00     0.074 A 
ATOM     46  C   UNL     1      -1.929   3.375  -2.924  1.00  0.00     0.049 A 
ATOM     47  N   UNL     1      -0.410   2.146   0.203  1.00  0.00    -0.248 NA
ATOM     48  C   UNL     1      -1.637   3.642   1.410  1.00  0.00     0.031 C 
ATOM     49  C   UNL     1      -2.962   2.320  -2.968  1.00  0.00     0.029 A 
ATOM     50  N   UNL     1      -1.976   3.766  -4.264  1.00  0.00    -0.354 N 
ATOM     51  C   UNL     1      -0.508   1.774   1.552  1.00  0.00     0.074 A 
ATOM     52  C   UNL     1      -0.894   2.928   2.251  1.00  0.00     0.031 C 
ATOM     53  C   UNL     1      -3.179   1.921  -4.247  1.00  0.00     0.029 A 
ATOM     54  C   UNL     1      -2.283   2.680  -5.076  1.00  0.00     0.049 A 
ATOM     55  H   UNL     1      -1.815   4.682  -4.588  1.00  0.00     0.167 HD
ATOM     56  C   UNL     1      -0.691   0.475   1.942  1.00  0.00     0.037 A 
ATOM     57  C   UNL     1      -1.407   2.314  -6.032  1.00  0.00     0.037 A 
ATOM     58  C   UNL     1      -1.016  -0.264   0.679  1.00  0.00     0.049 A 
ATOM     59  C   UNL     1      -0.881   0.941  -5.633  1.00  0.00     0.074 A 
ATOM     60  C   UNL     1      -2.539   0.369  -0.127  1.00  0.00     0.029 A 
ATOM     61  N   UNL     1      -0.234  -1.512  -0.705  1.00  0.00    -0.354 N 
ATOM     62  N   UNL     1      -1.067   0.348  -4.472  1.00  0.00    -0.248 NA
ATOM     63  C   UNL     1      -0.124   0.115  -6.553  1.00  0.00     0.031 C 
ATOM     64  C   UNL     1      -2.669  -0.387  -1.883  1.00  0.00     0.029 A 
ATOM     65  C   UNL     1      -1.302  -1.413  -2.251  1.00  0.00     0.049 A 
ATOM     66  H   UNL     1       0.566  -2.074  -0.590  1.00  0.00     0.167 HD
ATOM     67  C   UNL     1      -0.535  -0.927  -4.493  1.00  0.00     0.074 A 
ATOM     68  C   UNL     1       0.123  -0.961  -5.790  1.00  0.00     0.031 C 
ATOM     69  C   UNL     1      -0.665  -1.858  -3.479  1.00  0.00     0.037 A 
BRANCH  56  70
ATOM     70  C   UNL     1      -1.337   0.160   3.327  1.00  0.00     0.057 A 
ATOM     71  C   UNL     1      -2.411  -0.750   3.448  1.00  0.00     0.134 A 
ATOM     72  C   UNL     1      -0.962   0.734   4.565  1.00  0.00     0.134 A 
ATOM     73  F   UNL     1      -3.045  -1.233   2.373  1.00  0.00    -0.206 F 
ATOM     74  C   UNL     1      -2.956  -1.170   4.677  1.00  0.00     0.040 A 
ATOM     75  C   UNL     1      -1.558   0.381   5.802  1.00  0.00     0.040 A 
ATOM     76  F   UNL     1      -0.014   1.681   4.636  1.00  0.00    -0.206 F 
ATOM     77  C   UNL     1      -2.526  -0.612   5.866  1.00  0.00     0.006 A 
ENDBRANCH  56  70
BRANCH  57  78
ATOM     78  C   UNL     1      -0.690   3.553  -6.549  1.00  0.00     0.057 A 
ATOM     79  C   UNL     1      -1.459   4.648  -7.039  1.00  0.00     0.134 A 
ATOM     80  C   UNL     1       0.579   3.887  -6.091  1.00  0.00     0.134 A 
ATOM     81  F   UNL     1      -2.716   4.450  -7.470  1.00  0.00    -0.206 F 
ATOM     82  C   UNL     1      -1.052   5.989  -6.901  1.00  0.00     0.040 A 
ATOM     83  C   UNL     1       1.032   5.219  -6.034  1.00  0.00     0.040 A 
ATOM     84  F   UNL     1       1.329   2.947  -5.517  1.00  0.00    -0.206 F 
ATOM     85  C   UNL     1       0.188   6.278  -6.359  1.00  0.00     0.006 A 
ENDBRANCH  57  78
BRANCH  69  86
ATOM     86  C   UNL     1      -0.003  -3.209  -3.371  1.00  0.00     0.057 A 
ATOM     87  C   UNL     1       0.750  -3.822  -4.345  1.00  0.00     0.134 A 
ATOM     88  C   UNL     1      -0.005  -3.916  -2.151  1.00  0.00     0.134 A 
ATOM     89  F   UNL     1       0.493  -3.626  -5.640  1.00  0.00    -0.206 F 
ATOM     90  C   UNL     1       1.707  -4.789  -4.029  1.00  0.00     0.040 A 
ATOM     91  C   UNL     1       1.003  -4.786  -1.762  1.00  0.00     0.040 A 
ATOM     92  F   UNL     1      -1.041  -3.844  -1.308  1.00  0.00    -0.206 F 
ATOM     93  C   UNL     1       1.903  -5.202  -2.716  1.00  0.00     0.006 A 
ENDBRANCH  69  86
ENDBRANCH  43  44
ENDBRANCH  36  38
ENDBRANCH  35  36
ENDBRANCH  34  35
ENDBRANCH  33  34
ENDBRANCH  32  33
ENDBRANCH  31  32
ENDBRANCH  30  31
ENDBRANCH   1  30
TORSDOF 22
