REMARK SMILES COc1ccc(C[N@@H+]2CCO[C@H](Cc3ccc(F)cc3)C2)cc1C(=O)OCCOCCOCCOC(=O)c1ccc(-c2c3nc(c(-c4c(F)cccc4F)c4ccc([nH]4)c(-c4c(F)cccc4F)c4nc(c(-c5c(F)cccc5F)c5ccc2[nH]5)C=C4)C=C3)cc1
REMARK SMILES IDX 30 1 29 2 28 3 27 4 26 5 24 6 25 7 23 8 3 9 4 10 5 11 22 12
REMARK SMILES IDX 6 13 2 14 1 15 7 16 8 17 9 18 21 19 10 21 12 22 11 23 13 24
REMARK SMILES IDX 14 25 15 26 20 27 16 28 19 29 17 30 18 31 31 32 32 33 33 34
REMARK SMILES IDX 34 35 35 36 36 37 37 38 38 39 39 40 91 41 40 42 90 43 41 44
REMARK SMILES IDX 42 45 43 46 84 47 44 48 89 49 83 50 85 51 45 52 88 53 82 54
REMARK SMILES IDX 81 55 46 57 72 58 55 59 71 60 56 61 59 62 70 63 86 64 57 65
REMARK SMILES IDX 58 66 69 68 87 69 60 70 47 71 48 72 53 73 49 74 50 75 52 76
REMARK SMILES IDX 54 77 51 78 73 79 74 80 79 81 75 82 76 83 78 84 80 85 77 86
REMARK SMILES IDX 61 87 62 88 67 89 63 90 64 91 66 92 68 93 65 94
REMARK H PARENT 8 20 85 56 59 67
REMARK Flexibility Score: inf
ROOT
ATOM      1  C   UNL     1       5.256   1.253  -1.063  1.00  0.00     0.188 C 
ENDROOT
BRANCH   1   2
ATOM      2  O   UNL     1       5.904   0.670   0.062  1.00  0.00    -0.376 OA
BRANCH   2   3
ATOM      3  C   UNL     1       5.276  -0.388   0.764  1.00  0.00     0.202 C 
BRANCH   3   4
ATOM      4  C   UNL     1       3.998  -0.050   1.533  1.00  0.00     0.261 C 
BRANCH   4   5
ATOM      5  O   UNL     1       3.082   0.819   0.846  1.00  0.00    -0.460 OA
BRANCH   5   6
ATOM      6  C   UNL     1       2.923   2.057   1.372  1.00  0.00     0.342 C 
ATOM      7  O   UNL     1       3.584   2.559   2.266  1.00  0.00    -0.246 OA
BRANCH   6   8
ATOM      8  C   UNL     1       1.873   2.811   0.653  1.00  0.00     0.102 A 
ATOM      9  C   UNL     1       0.515   2.479   0.718  1.00  0.00     0.133 A 
ATOM     10  C   UNL     1      -0.425   3.400   0.240  1.00  0.00     0.048 A 
ATOM     11  C   UNL     1      -0.028   4.613  -0.338  1.00  0.00     0.013 A 
ATOM     12  C   UNL     1       2.270   4.030   0.049  1.00  0.00     0.029 A 
ATOM     13  C   UNL     1       1.327   4.935  -0.484  1.00  0.00     0.007 A 
BRANCH   9  14
ATOM     14  O   UNL     1      -0.032   1.405   1.365  1.00  0.00    -0.496 OA
ATOM     15  C   UNL     1       0.367   0.122   0.887  1.00  0.00     0.278 C 
ENDBRANCH   9  14
BRANCH  13  16
ATOM     16  C   UNL     1       1.759   6.239  -1.137  1.00  0.00     0.299 C 
BRANCH  16  17
ATOM     17  N   UNL     1       1.526   6.431  -2.567  1.00  0.00    -0.327 N 
ATOM     18  C   UNL     1       0.172   6.591  -3.082  1.00  0.00     0.291 C 
ATOM     19  C   UNL     1       2.432   5.846  -3.554  1.00  0.00     0.295 C 
ATOM     20  H   UNL     1       1.866   7.387  -2.455  1.00  0.00     0.348 HD
ATOM     21  C   UNL     1      -0.356   5.372  -3.861  1.00  0.00     0.222 C 
ATOM     22  C   UNL     1       1.870   4.598  -4.296  1.00  0.00     0.177 C 
ATOM     23  O   UNL     1       0.572   4.890  -4.841  1.00  0.00    -0.366 OA
BRANCH  22  24
ATOM     24  C   UNL     1       1.869   3.401  -3.346  1.00  0.00     0.073 C 
BRANCH  24  25
ATOM     25  C   UNL     1       1.373   2.045  -3.770  1.00  0.00    -0.045 A 
ATOM     26  C   UNL     1       0.357   1.449  -2.998  1.00  0.00     0.007 A 
ATOM     27  C   UNL     1       2.014   1.284  -4.748  1.00  0.00     0.007 A 
ATOM     28  C   UNL     1       0.060   0.098  -3.122  1.00  0.00     0.039 A 
ATOM     29  C   UNL     1       1.705  -0.073  -4.880  1.00  0.00     0.039 A 
ATOM     30  C   UNL     1       0.760  -0.660  -4.044  1.00  0.00     0.123 A 
ATOM     31  F   UNL     1       0.548  -1.980  -4.104  1.00  0.00    -0.207 F 
ENDBRANCH  24  25
ENDBRANCH  22  24
ENDBRANCH  16  17
ENDBRANCH  13  16
ENDBRANCH   6   8
ENDBRANCH   5   6
ENDBRANCH   4   5
ENDBRANCH   3   4
ENDBRANCH   2   3
ENDBRANCH   1   2
BRANCH   1  32
ATOM     32  C   UNL     1       4.200   0.481  -1.880  1.00  0.00     0.188 C 
BRANCH  32  33
ATOM     33  O   UNL     1       4.357  -0.927  -1.826  1.00  0.00    -0.376 OA
BRANCH  33  34
ATOM     34  C   UNL     1       4.545  -1.582  -3.069  1.00  0.00     0.202 C 
BRANCH  34  35
ATOM     35  C   UNL     1       5.975  -1.482  -3.607  1.00  0.00     0.261 C 
BRANCH  35  36
ATOM     36  O   UNL     1       6.482  -0.140  -3.723  1.00  0.00    -0.460 OA
BRANCH  36  37
ATOM     37  C   UNL     1       6.046   0.595  -4.764  1.00  0.00     0.338 C 
ATOM     38  O   UNL     1       5.239   0.258  -5.625  1.00  0.00    -0.246 OA
BRANCH  37  39
ATOM     39  C   UNL     1       6.572   1.964  -4.612  1.00  0.00     0.060 A 
ATOM     40  C   UNL     1       5.670   3.008  -4.381  1.00  0.00     0.016 A 
ATOM     41  C   UNL     1       7.940   2.226  -4.699  1.00  0.00     0.016 A 
ATOM     42  C   UNL     1       6.129   4.318  -4.245  1.00  0.00     0.010 A 
ATOM     43  C   UNL     1       8.398   3.544  -4.576  1.00  0.00     0.010 A 
ATOM     44  C   UNL     1       7.494   4.601  -4.365  1.00  0.00    -0.014 A 
BRANCH  44  45
ATOM     45  C   UNL     1       7.954   6.011  -4.426  1.00  0.00     0.031 A 
ATOM     46  C   UNL     1       8.284   6.604  -5.768  1.00  0.00     0.074 A 
ATOM     47  C   UNL     1       8.049   6.770  -3.319  1.00  0.00     0.049 A 
ATOM     48  N   UNL     1       8.815   7.763  -6.059  1.00  0.00    -0.248 NA
ATOM     49  C   UNL     1       7.968   5.772  -6.940  1.00  0.00     0.031 C 
ATOM     50  C   UNL     1       7.686   6.350  -1.967  1.00  0.00     0.029 A 
ATOM     51  N   UNL     1       8.496   8.060  -3.161  1.00  0.00    -0.354 N 
ATOM     52  C   UNL     1       8.918   7.792  -7.444  1.00  0.00     0.074 A 
ATOM     53  C   UNL     1       8.408   6.530  -7.934  1.00  0.00     0.031 C 
ATOM     54  C   UNL     1       7.944   7.356  -1.113  1.00  0.00     0.029 A 
ATOM     55  C   UNL     1       8.536   8.472  -1.850  1.00  0.00     0.049 A 
ATOM     56  H   UNL     1       8.763   8.634  -3.915  1.00  0.00     0.167 HD
ATOM     57  C   UNL     1       9.393   8.782  -8.236  1.00  0.00     0.037 A 
ATOM     58  C   UNL     1       9.031   9.602  -1.306  1.00  0.00     0.037 A 
ATOM     59  C   UNL     1       9.895  10.040  -7.750  1.00  0.00     0.049 A 
ATOM     60  C   UNL     1       9.646  10.649  -2.201  1.00  0.00     0.074 A 
ATOM     61  C   UNL     1      10.403  11.103  -8.476  1.00  0.00     0.029 A 
ATOM     62  N   UNL     1       9.954  10.403  -6.414  1.00  0.00    -0.354 N 
ATOM     63  N   UNL     1       9.757  10.663  -3.507  1.00  0.00    -0.248 NA
ATOM     64  C   UNL     1      10.212  11.837  -1.542  1.00  0.00     0.031 C 
ATOM     65  C   UNL     1      10.816  12.090  -7.575  1.00  0.00     0.029 A 
ATOM     66  C   UNL     1      10.511  11.665  -6.292  1.00  0.00     0.049 A 
ATOM     67  H   UNL     1       9.646   9.846  -5.663  1.00  0.00     0.167 HD
ATOM     68  C   UNL     1      10.373  11.869  -3.827  1.00  0.00     0.074 A 
ATOM     69  C   UNL     1      10.601  12.565  -2.579  1.00  0.00     0.031 C 
ATOM     70  C   UNL     1      10.718  12.355  -5.044  1.00  0.00     0.037 A 
BRANCH  57  71
ATOM     71  C   UNL     1       9.429   8.525  -9.714  1.00  0.00     0.057 A 
ATOM     72  C   UNL     1       8.264   8.487 -10.491  1.00  0.00     0.134 A 
ATOM     73  C   UNL     1      10.652   8.340 -10.372  1.00  0.00     0.134 A 
ATOM     74  F   UNL     1       7.060   8.639  -9.919  1.00  0.00    -0.206 F 
ATOM     75  C   UNL     1       8.313   8.253 -11.867  1.00  0.00     0.040 A 
ATOM     76  C   UNL     1      10.715   8.133 -11.751  1.00  0.00     0.040 A 
ATOM     77  F   UNL     1      11.805   8.367  -9.687  1.00  0.00    -0.206 F 
ATOM     78  C   UNL     1       9.543   8.083 -12.501  1.00  0.00     0.006 A 
ENDBRANCH  57  71
BRANCH  58  79
ATOM     79  C   UNL     1       9.016   9.796   0.168  1.00  0.00     0.057 A 
ATOM     80  C   UNL     1       8.244  10.800   0.763  1.00  0.00     0.134 A 
ATOM     81  C   UNL     1       9.814   9.014   1.013  1.00  0.00     0.134 A 
ATOM     82  F   UNL     1       7.482  11.604   0.006  1.00  0.00    -0.206 F 
ATOM     83  C   UNL     1       8.281  11.035   2.140  1.00  0.00     0.040 A 
ATOM     84  C   UNL     1       9.839   9.217   2.393  1.00  0.00     0.040 A 
ATOM     85  F   UNL     1      10.584   8.039   0.506  1.00  0.00    -0.206 F 
ATOM     86  C   UNL     1       9.078  10.238   2.959  1.00  0.00     0.006 A 
ENDBRANCH  58  79
BRANCH  70  87
ATOM     87  C   UNL     1      11.332  13.726  -5.096  1.00  0.00     0.057 A 
ATOM     88  C   UNL     1      12.636  13.975  -4.652  1.00  0.00     0.134 A 
ATOM     89  C   UNL     1      10.620  14.802  -5.643  1.00  0.00     0.134 A 
ATOM     90  F   UNL     1      13.369  12.991  -4.108  1.00  0.00    -0.206 F 
ATOM     91  C   UNL     1      13.202  15.249  -4.729  1.00  0.00     0.040 A 
ATOM     92  C   UNL     1      11.185  16.073  -5.751  1.00  0.00     0.040 A 
ATOM     93  F   UNL     1       9.369  14.631  -6.098  1.00  0.00    -0.206 F 
ATOM     94  C   UNL     1      12.478  16.301  -5.287  1.00  0.00     0.006 A 
ENDBRANCH  70  87
ENDBRANCH  44  45
ENDBRANCH  37  39
ENDBRANCH  36  37
ENDBRANCH  35  36
ENDBRANCH  34  35
ENDBRANCH  33  34
ENDBRANCH  32  33
ENDBRANCH   1  32
TORSDOF 22
