REMARK SMILES Cc1cccc(-c2ncc(C[NH+]3CCC4(CC3)NC(=O)C[C@H]4C(=O)OCCOCCOCCOC(=O)c3ccc(-c4c5nc(c(-c6c(F)cccc6F)c6ccc([nH]6)c(-c6c(F)cccc6F)c6nc(c(-c7c(F)cccc7F)c7ccc4[nH]7)C=C6)C=C5)cc3)cn2)c1
REMARK SMILES IDX 29 1 28 2 27 3 26 4 25 5 23 6 24 7 22 8 12 9 13 10 17 11
REMARK SMILES IDX 14 13 16 14 15 15 18 16 19 17 21 19 20 20 11 21 10 22 7 23
REMARK SMILES IDX 8 24 92 25 9 26 91 27 6 28 1 29 2 30 3 31 93 32 4 33 5 34
REMARK SMILES IDX 30 35 31 36 32 37 33 38 34 39 35 40 36 41 37 42 38 43 90 44
REMARK SMILES IDX 39 45 89 46 40 47 41 48 42 49 83 50 43 51 88 52 82 53 84 54
REMARK SMILES IDX 44 55 87 56 81 57 80 58 45 60 71 61 54 62 70 63 55 64 58 65
REMARK SMILES IDX 69 66 85 67 56 68 57 69 68 71 86 72 59 73 46 74 47 75 52 76
REMARK SMILES IDX 48 77 49 78 51 79 53 80 50 81 72 82 73 83 78 84 74 85 75 86
REMARK SMILES IDX 77 87 79 88 76 89 60 90 61 91 66 92 62 93 63 94 65 95 67 96
REMARK SMILES IDX 64 97
REMARK H PARENT 12 12 18 18 84 59 58 70
REMARK Flexibility Score: inf
ROOT
ATOM      1  C   UNL     1      -2.237   7.559  -5.633  1.00  0.00     0.188 C 
ENDROOT
BRANCH   1   2
ATOM      2  O   UNL     1      -1.030   6.860  -6.034  1.00  0.00    -0.376 OA
BRANCH   2   3
ATOM      3  C   UNL     1      -0.509   5.525  -5.742  1.00  0.00     0.202 C 
BRANCH   3   4
ATOM      4  C   UNL     1      -0.006   4.614  -4.275  1.00  0.00     0.261 C 
BRANCH   4   5
ATOM      5  O   UNL     1       0.592   4.856  -2.531  1.00  0.00    -0.463 OA
BRANCH   5   6
ATOM      6  C   UNL     1       1.429   5.643  -1.486  1.00  0.00     0.311 C 
ATOM      7  O   UNL     1       2.145   6.651  -1.642  1.00  0.00    -0.252 OA
BRANCH   6   8
ATOM      8  C   UNL     1       1.230   5.492  -0.045  1.00  0.00     0.134 C 
ATOM      9  N   UNL     1      -3.383   7.432   0.312  1.00  0.00    -0.331 N 
ATOM     10  C   UNL     1      -2.042   7.654   1.334  1.00  0.00     0.264 C 
ATOM     11  C   UNL     1      -2.694   6.864  -1.396  1.00  0.00     0.264 C 
ATOM     12  H   UNL     1      -3.971   8.230   0.071  1.00  0.00     0.348 HD
ATOM     13  C   UNL     1      -0.703   6.455   1.609  1.00  0.00     0.091 C 
ATOM     14  C   UNL     1      -1.303   5.116  -1.310  1.00  0.00     0.091 C 
ATOM     15  C   UNL     1      -0.182   5.184   0.325  1.00  0.00     0.064 C 
ATOM     16  N   UNL     1       0.054   3.967   1.060  1.00  0.00    -0.349 N 
ATOM     17  C   UNL     1       1.384   3.685   1.346  1.00  0.00     0.221 C 
ATOM     18  H   UNL     1      -0.680   3.373   1.341  1.00  0.00     0.164 HD
ATOM     19  C   UNL     1       2.250   4.710   0.724  1.00  0.00     0.117 C 
ATOM     20  O   UNL     1       1.788   2.761   2.030  1.00  0.00    -0.275 OA
BRANCH   9  21
ATOM     21  C   UNL     1      -4.368   6.266   1.267  1.00  0.00     0.302 C 
BRANCH  21  22
ATOM     22  C   UNL     1      -4.157   4.594   1.513  1.00  0.00     0.043 A 
ATOM     23  C   UNL     1      -2.868   2.103   1.043  1.00  0.00     0.159 A 
ATOM     24  N   UNL     1      -2.435   2.906   2.041  1.00  0.00    -0.236 NA
ATOM     25  N   UNL     1      -4.050   2.347   0.451  1.00  0.00    -0.236 NA
ATOM     26  C   UNL     1      -3.150   4.065   2.313  1.00  0.00     0.124 A 
ATOM     27  C   UNL     1      -4.683   3.551   0.747  1.00  0.00     0.124 A 
BRANCH  23  28
ATOM     28  C   UNL     1      -2.013   0.924   0.593  1.00  0.00     0.019 A 
ATOM     29  C   UNL     1       1.744  -0.017   0.132  1.00  0.00     0.044 C 
ATOM     30  C   UNL     1       0.238  -0.139   0.158  1.00  0.00    -0.050 A 
ATOM     31  C   UNL     1      -0.361  -1.375  -0.009  1.00  0.00     0.003 A 
ATOM     32  C   UNL     1      -0.602   0.969   0.427  1.00  0.00     0.015 A 
ATOM     33  C   UNL     1      -1.753  -1.466   0.041  1.00  0.00     0.001 A 
ATOM     34  C   UNL     1      -2.561  -0.338   0.327  1.00  0.00     0.012 A 
ENDBRANCH  23  28
ENDBRANCH  21  22
ENDBRANCH   9  21
ENDBRANCH   6   8
ENDBRANCH   5   6
ENDBRANCH   4   5
ENDBRANCH   3   4
ENDBRANCH   2   3
ENDBRANCH   1   2
BRANCH   1  35
ATOM     35  C   UNL     1      -3.616   6.873  -5.544  1.00  0.00     0.188 C 
BRANCH  35  36
ATOM     36  O   UNL     1      -3.477   5.483  -5.745  1.00  0.00    -0.376 OA
BRANCH  36  37
ATOM     37  C   UNL     1      -4.540   4.609  -5.396  1.00  0.00     0.202 C 
BRANCH  37  38
ATOM     38  C   UNL     1      -5.627   5.027  -4.380  1.00  0.00     0.261 C 
BRANCH  38  39
ATOM     39  O   UNL     1      -5.480   5.169  -2.886  1.00  0.00    -0.460 OA
BRANCH  39  40
ATOM     40  C   UNL     1      -5.004   5.220  -1.612  1.00  0.00     0.338 C 
ATOM     41  O   UNL     1      -5.828   5.584  -0.787  1.00  0.00    -0.246 OA
BRANCH  40  42
ATOM     42  C   UNL     1      -3.440   4.943  -1.255  1.00  0.00     0.060 A 
ATOM     43  C   UNL     1      -2.300   5.769  -0.036  1.00  0.00     0.016 A 
ATOM     44  C   UNL     1      -2.975   5.053  -2.755  1.00  0.00     0.016 A 
ATOM     45  C   UNL     1      -0.880   6.898  -0.815  1.00  0.00     0.010 A 
ATOM     46  C   UNL     1      -1.760   6.042  -3.300  1.00  0.00     0.010 A 
ATOM     47  C   UNL     1      -0.553   6.883  -2.571  1.00  0.00    -0.014 A 
BRANCH  47  48
ATOM     48  C   UNL     1       1.011   6.758  -3.622  1.00  0.00     0.031 A 
ATOM     49  C   UNL     1       2.376   5.415  -3.641  1.00  0.00     0.074 A 
ATOM     50  C   UNL     1       1.185   7.609  -4.644  1.00  0.00     0.049 A 
ATOM     51  N   UNL     1       3.632   5.572  -3.247  1.00  0.00    -0.248 NA
ATOM     52  C   UNL     1       2.223   3.761  -3.486  1.00  0.00     0.031 C 
ATOM     53  C   UNL     1       2.148   7.548  -5.744  1.00  0.00     0.029 A 
ATOM     54  N   UNL     1       0.453   8.753  -4.927  1.00  0.00    -0.354 N 
ATOM     55  C   UNL     1       4.213   4.281  -3.034  1.00  0.00     0.074 A 
ATOM     56  C   UNL     1       3.193   3.401  -2.671  1.00  0.00     0.031 C 
ATOM     57  C   UNL     1       2.199   8.765  -6.324  1.00  0.00     0.029 A 
ATOM     58  C   UNL     1       1.367   9.643  -5.509  1.00  0.00     0.049 A 
ATOM     59  H   UNL     1      -0.504   8.907  -4.755  1.00  0.00     0.167 HD
ATOM     60  C   UNL     1       5.299   3.821  -3.728  1.00  0.00     0.037 A 
ATOM     61  C   UNL     1       1.792  10.667  -4.717  1.00  0.00     0.037 A 
ATOM     62  C   UNL     1       5.673   4.902  -4.597  1.00  0.00     0.049 A 
ATOM     63  C   UNL     1       3.258  10.444  -4.402  1.00  0.00     0.074 A 
ATOM     64  C   UNL     1       5.305   5.225  -5.892  1.00  0.00     0.029 A 
ATOM     65  N   UNL     1       6.000   6.081  -3.965  1.00  0.00    -0.354 N 
ATOM     66  N   UNL     1       3.845   9.277  -4.269  1.00  0.00    -0.248 NA
ATOM     67  C   UNL     1       4.206  11.550  -4.439  1.00  0.00     0.031 C 
ATOM     68  C   UNL     1       5.380   6.648  -6.003  1.00  0.00     0.029 A 
ATOM     69  C   UNL     1       5.787   7.164  -4.782  1.00  0.00     0.049 A 
ATOM     70  H   UNL     1       6.342   6.140  -3.043  1.00  0.00     0.167 HD
ATOM     71  C   UNL     1       5.206   9.457  -4.265  1.00  0.00     0.074 A 
ATOM     72  C   UNL     1       5.373  10.894  -4.366  1.00  0.00     0.031 C 
ATOM     73  C   UNL     1       6.145   8.462  -4.248  1.00  0.00     0.037 A 
BRANCH  60  74
ATOM     74  C   UNL     1       5.698   2.344  -3.903  1.00  0.00     0.057 A 
ATOM     75  C   UNL     1       6.478   1.964  -5.010  1.00  0.00     0.134 A 
ATOM     76  C   UNL     1       5.373   1.255  -3.051  1.00  0.00     0.134 A 
ATOM     77  F   UNL     1       6.945   2.876  -5.872  1.00  0.00    -0.206 F 
ATOM     78  C   UNL     1       6.838   0.632  -5.287  1.00  0.00     0.040 A 
ATOM     79  C   UNL     1       5.670  -0.091  -3.352  1.00  0.00     0.040 A 
ATOM     80  F   UNL     1       4.803   1.430  -1.851  1.00  0.00    -0.206 F 
ATOM     81  C   UNL     1       6.412  -0.407  -4.475  1.00  0.00     0.006 A 
ENDBRANCH  60  74
BRANCH  61  82
ATOM     82  C   UNL     1       0.667  11.126  -3.816  1.00  0.00     0.057 A 
ATOM     83  C   UNL     1      -0.544  11.530  -4.441  1.00  0.00     0.134 A 
ATOM     84  C   UNL     1       0.558  10.743  -2.475  1.00  0.00     0.134 A 
ATOM     85  F   UNL     1      -0.542  11.895  -5.735  1.00  0.00    -0.206 F 
ATOM     86  C   UNL     1      -1.796  11.409  -3.822  1.00  0.00     0.040 A 
ATOM     87  C   UNL     1      -0.694  10.643  -1.837  1.00  0.00     0.040 A 
ATOM     88  F   UNL     1       1.639  10.356  -1.785  1.00  0.00    -0.206 F 
ATOM     89  C   UNL     1      -1.876  10.931  -2.522  1.00  0.00     0.006 A 
ENDBRANCH  61  82
BRANCH  73  90
ATOM     90  C   UNL     1       7.547   8.614  -3.669  1.00  0.00     0.057 A 
ATOM     91  C   UNL     1       7.926   9.666  -2.828  1.00  0.00     0.134 A 
ATOM     92  C   UNL     1       8.512   7.574  -3.773  1.00  0.00     0.134 A 
ATOM     93  F   UNL     1       7.086  10.655  -2.499  1.00  0.00    -0.206 F 
ATOM     94  C   UNL     1       9.185   9.731  -2.224  1.00  0.00     0.040 A 
ATOM     95  C   UNL     1       9.716   7.570  -3.070  1.00  0.00     0.040 A 
ATOM     96  F   UNL     1       8.332   6.486  -4.535  1.00  0.00    -0.206 F 
ATOM     97  C   UNL     1      10.076   8.673  -2.324  1.00  0.00     0.006 A 
ENDBRANCH  73  90
ENDBRANCH  47  48
ENDBRANCH  40  42
ENDBRANCH  39  40
ENDBRANCH  38  39
ENDBRANCH  37  38
ENDBRANCH  36  37
ENDBRANCH  35  36
ENDBRANCH   1  35
TORSDOF 20
