REMARK SMILES CCc1ncc(S(=O)(=O)NCc2ccc(C(=O)OCCOCCOCCOC(=O)c3ccc(-c4c5nc(c(-c6c(F)cccc6F)c6ccc([nH]6)c(-c6c(F)cccc6F)c6nc(c(-c7c(F)cccc7F)c7ccc4[nH]7)C=C6)C=C5)cc3)o2)[nH]1
REMARK SMILES IDX 21 1 20 2 19 3 18 4 16 5 17 6 15 7 12 8 13 9 84 10 14 11
REMARK SMILES IDX 11 12 10 13 7 15 8 16 9 17 6 18 3 19 4 20 85 21 5 22 2 24
REMARK SMILES IDX 1 25 22 26 23 27 24 28 25 29 26 30 27 31 28 32 29 33 30 34
REMARK SMILES IDX 31 35 83 36 32 37 82 38 33 39 34 40 35 41 76 42 36 43 81 44
REMARK SMILES IDX 75 45 77 46 37 47 80 48 74 49 73 50 38 52 64 53 47 54 63 55
REMARK SMILES IDX 48 56 51 57 62 58 78 59 49 60 50 61 61 63 79 64 52 65 39 66
REMARK SMILES IDX 40 67 45 68 41 69 42 70 44 71 46 72 43 73 65 74 66 75 71 76
REMARK SMILES IDX 67 77 68 78 70 79 72 80 69 81 53 82 54 83 59 84 55 85 56 86
REMARK SMILES IDX 58 87 60 88 57 89
REMARK H PARENT 10 14 85 23 77 51 51 62
REMARK Flexibility Score: inf
ROOT
ATOM      1  O   UNL     1       9.934  -9.326   1.514  1.00  0.00    -0.376 OA
ENDROOT
BRANCH   1   2
ATOM      2  C   UNL     1      10.780  -8.450   0.783  1.00  0.00     0.202 C 
BRANCH   2   3
ATOM      3  C   UNL     1      10.201  -7.836  -0.492  1.00  0.00     0.261 C 
BRANCH   3   4
ATOM      4  O   UNL     1       9.099  -6.956  -0.231  1.00  0.00    -0.457 OA
BRANCH   4   5
ATOM      5  C   UNL     1       7.872  -7.414  -0.615  1.00  0.00     0.374 C 
ATOM      6  O   UNL     1       7.671  -8.452  -1.234  1.00  0.00    -0.242 OA
BRANCH   5   7
ATOM      7  C   UNL     1       6.848  -6.553  -0.076  1.00  0.00     0.211 A 
ATOM      8  C   UNL     1       4.838  -6.156   0.764  1.00  0.00     0.119 A 
ATOM      9  C   UNL     1       5.516  -4.955   0.769  1.00  0.00     0.048 A 
ATOM     10  O   UNL     1       5.644  -7.122   0.236  1.00  0.00    -0.453 OA
ATOM     11  C   UNL     1       6.814  -5.215   0.262  1.00  0.00     0.058 A 
BRANCH   8  12
ATOM     12  C   UNL     1       3.462  -6.605   1.092  1.00  0.00     0.174 C 
BRANCH  12  13
ATOM     13  N   UNL     1       3.005  -6.227   2.429  1.00  0.00    -0.202 NA
ATOM     14  H   UNL     1       2.259  -6.879   2.672  1.00  0.00     0.141 HD
BRANCH  13  15
ATOM     15  S   UNL     1       2.421  -4.702   2.755  1.00  0.00     0.258 S 
ATOM     16  O   UNL     1       3.546  -3.804   2.890  1.00  0.00    -0.205 OA
ATOM     17  O   UNL     1       1.446  -4.825   3.812  1.00  0.00    -0.205 OA
BRANCH  15  18
ATOM     18  C   UNL     1       1.538  -4.067   1.391  1.00  0.00     0.167 A 
ATOM     19  C   UNL     1       0.854  -2.521  -0.067  1.00  0.00     0.106 A 
ATOM     20  N   UNL     1       0.270  -3.642  -0.441  1.00  0.00    -0.240 NA
ATOM     21  N   UNL     1       1.638  -2.742   1.037  1.00  0.00    -0.332 N 
ATOM     22  C   UNL     1       0.660  -4.590   0.469  1.00  0.00     0.153 A 
ATOM     23  H   UNL     1       2.183  -2.064   1.499  1.00  0.00     0.169 HD
BRANCH  19  24
ATOM     24  C   UNL     1       0.695  -1.196  -0.740  1.00  0.00     0.072 C 
ATOM     25  C   UNL     1       1.197  -0.009   0.065  1.00  0.00     0.012 C 
ENDBRANCH  19  24
ENDBRANCH  15  18
ENDBRANCH  13  15
ENDBRANCH  12  13
ENDBRANCH   8  12
ENDBRANCH   5   7
ENDBRANCH   4   5
ENDBRANCH   3   4
ENDBRANCH   2   3
ENDBRANCH   1   2
BRANCH   1  26
ATOM     26  C   UNL     1       8.806  -8.819   2.218  1.00  0.00     0.188 C 
BRANCH  26  27
ATOM     27  C   UNL     1       8.866  -7.442   2.907  1.00  0.00     0.188 C 
BRANCH  27  28
ATOM     28  O   UNL     1      10.176  -7.008   3.238  1.00  0.00    -0.376 OA
BRANCH  28  29
ATOM     29  C   UNL     1      10.463  -6.903   4.626  1.00  0.00     0.202 C 
BRANCH  29  30
ATOM     30  C   UNL     1      10.860  -8.247   5.242  1.00  0.00     0.261 C 
BRANCH  30  31
ATOM     31  O   UNL     1       9.815  -9.233   5.232  1.00  0.00    -0.460 OA
BRANCH  31  32
ATOM     32  C   UNL     1       8.723  -8.966   5.980  1.00  0.00     0.338 C 
ATOM     33  O   UNL     1       8.519  -7.982   6.668  1.00  0.00    -0.246 OA
BRANCH  32  34
ATOM     34  C   UNL     1       7.718 -10.010   5.706  1.00  0.00     0.060 A 
ATOM     35  C   UNL     1       6.432  -9.621   5.312  1.00  0.00     0.016 A 
ATOM     36  C   UNL     1       8.043 -11.362   5.842  1.00  0.00     0.016 A 
ATOM     37  C   UNL     1       5.456 -10.592   5.077  1.00  0.00     0.010 A 
ATOM     38  C   UNL     1       7.062 -12.331   5.621  1.00  0.00     0.010 A 
ATOM     39  C   UNL     1       5.759 -11.949   5.261  1.00  0.00    -0.014 A 
BRANCH  39  40
ATOM     40  C   UNL     1       4.679 -12.964   5.233  1.00  0.00     0.031 A 
ATOM     41  C   UNL     1       4.028 -13.362   6.527  1.00  0.00     0.074 A 
ATOM     42  C   UNL     1       4.287 -13.532   4.079  1.00  0.00     0.049 A 
ATOM     43  N   UNL     1       3.090 -14.247   6.748  1.00  0.00    -0.248 NA
ATOM     44  C   UNL     1       4.502 -12.669   7.736  1.00  0.00     0.031 C 
ATOM     45  C   UNL     1       4.825 -13.223   2.756  1.00  0.00     0.029 A 
ATOM     46  N   UNL     1       3.346 -14.503   3.845  1.00  0.00    -0.354 N 
ATOM     47  C   UNL     1       2.858 -14.215   8.116  1.00  0.00     0.074 A 
ATOM     48  C   UNL     1       3.773 -13.245   8.680  1.00  0.00     0.031 C 
ATOM     49  C   UNL     1       4.210 -14.000   1.847  1.00  0.00     0.029 A 
ATOM     50  C   UNL     1       3.256 -14.875   2.527  1.00  0.00     0.049 A 
ATOM     51  H   UNL     1       2.789 -14.896   4.555  1.00  0.00     0.167 HD
ATOM     52  C   UNL     1       1.959 -14.922   8.840  1.00  0.00     0.037 A 
ATOM     53  C   UNL     1       2.500 -15.825   1.942  1.00  0.00     0.037 A 
ATOM     54  C   UNL     1       1.057 -15.897   8.289  1.00  0.00     0.049 A 
ATOM     55  C   UNL     1       1.560 -16.651   2.778  1.00  0.00     0.074 A 
ATOM     56  C   UNL     1       0.094 -16.647   8.941  1.00  0.00     0.029 A 
ATOM     57  N   UNL     1       1.017 -16.266   6.954  1.00  0.00    -0.354 N 
ATOM     58  N   UNL     1       1.318 -16.584   4.065  1.00  0.00    -0.248 NA
ATOM     59  C   UNL     1       0.787 -17.689   2.078  1.00  0.00     0.031 C 
ATOM     60  C   UNL     1      -0.501 -17.501   8.006  1.00  0.00     0.029 A 
ATOM     61  C   UNL     1       0.064 -17.253   6.766  1.00  0.00     0.049 A 
ATOM     62  H   UNL     1       1.582 -15.884   6.244  1.00  0.00     0.167 HD
ATOM     63  C   UNL     1       0.350 -17.547   4.323  1.00  0.00     0.074 A 
ATOM     64  C   UNL     1       0.044 -18.183   3.058  1.00  0.00     0.031 C 
ATOM     65  C   UNL     1      -0.234 -17.874   5.501  1.00  0.00     0.037 A 
BRANCH  52  66
ATOM     66  C   UNL     1       1.929 -14.675  10.317  1.00  0.00     0.057 A 
ATOM     67  C   UNL     1       1.381 -13.503  10.855  1.00  0.00     0.134 A 
ATOM     68  C   UNL     1       2.444 -15.621  11.210  1.00  0.00     0.134 A 
ATOM     69  F   UNL     1       0.888 -12.551  10.049  1.00  0.00    -0.206 F 
ATOM     70  C   UNL     1       1.365 -13.272  12.231  1.00  0.00     0.040 A 
ATOM     71  C   UNL     1       2.415 -15.411  12.589  1.00  0.00     0.040 A 
ATOM     72  F   UNL     1       2.982 -16.763  10.758  1.00  0.00    -0.206 F 
ATOM     73  C   UNL     1       1.880 -14.231  13.103  1.00  0.00     0.006 A 
ENDBRANCH  52  66
BRANCH  53  74
ATOM     74  C   UNL     1       2.602 -16.057   0.480  1.00  0.00     0.057 A 
ATOM     75  C   UNL     1       1.564 -15.691  -0.384  1.00  0.00     0.134 A 
ATOM     76  C   UNL     1       3.726 -16.673  -0.082  1.00  0.00     0.134 A 
ATOM     77  F   UNL     1       0.451 -15.123   0.102  1.00  0.00    -0.206 F 
ATOM     78  C   UNL     1       1.635 -15.940  -1.755  1.00  0.00     0.040 A 
ATOM     79  C   UNL     1       3.819 -16.910  -1.454  1.00  0.00     0.040 A 
ATOM     80  F   UNL     1       4.750 -17.053   0.696  1.00  0.00    -0.206 F 
ATOM     81  C   UNL     1       2.767 -16.548  -2.294  1.00  0.00     0.006 A 
ENDBRANCH  53  74
BRANCH  65  82
ATOM     82  C   UNL     1      -1.284 -18.945   5.478  1.00  0.00     0.057 A 
ATOM     83  C   UNL     1      -0.953 -20.299   5.346  1.00  0.00     0.134 A 
ATOM     84  C   UNL     1      -2.637 -18.621   5.637  1.00  0.00     0.134 A 
ATOM     85  F   UNL     1       0.325 -20.674   5.179  1.00  0.00    -0.206 F 
ATOM     86  C   UNL     1      -1.933 -21.293   5.358  1.00  0.00     0.040 A 
ATOM     87  C   UNL     1      -3.624 -19.607   5.671  1.00  0.00     0.040 A 
ATOM     88  F   UNL     1      -3.019 -17.343   5.776  1.00  0.00    -0.206 F 
ATOM     89  C   UNL     1      -3.273 -20.948   5.527  1.00  0.00     0.006 A 
ENDBRANCH  65  82
ENDBRANCH  39  40
ENDBRANCH  32  34
ENDBRANCH  31  32
ENDBRANCH  30  31
ENDBRANCH  29  30
ENDBRANCH  28  29
ENDBRANCH  27  28
ENDBRANCH  26  27
ENDBRANCH   1  26
TORSDOF 22
