REMARK SMILES CSc1nc(N)cc(Nc2cccc(C(=O)OCCOCCOCCOC(=O)c3ccc(-c4c5nc(c(-c6c(F)cccc6F)c6ccc([nH]6)c(-c6c(F)cccc6F)c6nc(c(-c7c(F)cccc7F)c7ccc4[nH]7)C=C6)C=C5)cc3)c2)n1
REMARK SMILES IDX 21 1 20 2 19 3 18 4 17 5 15 6 16 7 14 8 10 9 11 10 83 11
REMARK SMILES IDX 12 12 13 13 9 14 8 16 3 17 4 18 84 19 5 20 7 21 2 22 1 23
REMARK SMILES IDX 6 24 22 27 23 28 24 29 25 30 26 31 27 32 28 33 29 34 30 35
REMARK SMILES IDX 82 36 31 37 81 38 32 39 33 40 34 41 75 42 35 43 80 44 74 45
REMARK SMILES IDX 76 46 36 47 79 48 73 49 72 50 37 52 63 53 46 54 62 55 47 56
REMARK SMILES IDX 50 57 61 58 77 59 48 60 49 61 60 63 78 64 51 65 38 66 39 67
REMARK SMILES IDX 44 68 40 69 41 70 43 71 45 72 42 73 64 74 65 75 70 76 66 77
REMARK SMILES IDX 67 78 69 79 71 80 68 81 52 82 53 83 58 84 54 85 55 86 57 87
REMARK SMILES IDX 59 88 56 89
REMARK H PARENT 9 15 6 25 6 26 76 51 50 62
REMARK Flexibility Score: inf
ROOT
ATOM      1  C   UNL     1      -4.718   6.432  -3.914  1.00  0.00     0.188 C 
ENDROOT
BRANCH   1   2
ATOM      2  O   UNL     1      -5.816   5.552  -4.012  1.00  0.00    -0.376 OA
BRANCH   2   3
ATOM      3  C   UNL     1      -5.759   4.247  -3.460  1.00  0.00     0.202 C 
BRANCH   3   4
ATOM      4  C   UNL     1      -4.466   3.442  -3.259  1.00  0.00     0.261 C 
BRANCH   4   5
ATOM      5  O   UNL     1      -3.316   4.193  -2.865  1.00  0.00    -0.460 OA
BRANCH   5   6
ATOM      6  C   UNL     1      -2.308   4.241  -3.777  1.00  0.00     0.338 C 
ATOM      7  O   UNL     1      -2.281   3.698  -4.869  1.00  0.00    -0.246 OA
BRANCH   6   8
ATOM      8  C   UNL     1      -1.323   5.259  -3.354  1.00  0.00     0.062 A 
ATOM      9  C   UNL     1       0.053   6.291  -1.633  1.00  0.00     0.040 A 
ATOM     10  C   UNL     1       0.492   7.228  -2.577  1.00  0.00     0.026 A 
ATOM     11  C   UNL     1      -0.904   5.343  -2.027  1.00  0.00     0.041 A 
ATOM     12  C   UNL     1       0.042   7.172  -3.901  1.00  0.00     0.003 A 
ATOM     13  C   UNL     1      -0.843   6.170  -4.298  1.00  0.00     0.016 A 
BRANCH   9  14
ATOM     14  N   UNL     1       0.686   6.202  -0.374  1.00  0.00    -0.340 N 
ATOM     15  H   UNL     1       0.878   7.040   0.104  1.00  0.00     0.168 HD
BRANCH  14  16
ATOM     16  C   UNL     1       1.061   4.992   0.244  1.00  0.00     0.137 A 
ATOM     17  C   UNL     1       1.146   2.694   0.170  1.00  0.00     0.191 A 
ATOM     18  N   UNL     1       1.646   2.586   1.403  1.00  0.00    -0.206 NA
ATOM     19  N   UNL     1       0.878   3.851  -0.431  1.00  0.00    -0.205 NA
ATOM     20  C   UNL     1       1.863   3.736   2.053  1.00  0.00     0.130 A 
ATOM     21  C   UNL     1       1.553   4.975   1.527  1.00  0.00     0.093 A 
BRANCH  17  22
ATOM     22  S   UNL     1       0.716   1.261  -0.787  1.00  0.00    -0.090 SA
ATOM     23  C   UNL     1       1.273  -0.056   0.305  1.00  0.00     0.094 C 
ENDBRANCH  17  22
BRANCH  20  24
ATOM     24  N   UNL     1       2.362   3.627   3.339  1.00  0.00    -0.383 N 
ATOM     25  H   UNL     1       2.581   2.742   3.709  1.00  0.00     0.158 HD
ATOM     26  H   UNL     1       2.497   4.436   3.885  1.00  0.00     0.158 HD
ENDBRANCH  20  24
ENDBRANCH  14  16
ENDBRANCH   9  14
ENDBRANCH   6   8
ENDBRANCH   5   6
ENDBRANCH   4   5
ENDBRANCH   3   4
ENDBRANCH   2   3
ENDBRANCH   1   2
BRANCH   1  27
ATOM     27  C   UNL     1      -4.295   7.001  -2.543  1.00  0.00     0.188 C 
BRANCH  27  28
ATOM     28  O   UNL     1      -4.922   6.578  -1.352  1.00  0.00    -0.376 OA
BRANCH  28  29
ATOM     29  C   UNL     1      -6.316   6.761  -1.184  1.00  0.00     0.202 C 
BRANCH  29  30
ATOM     30  C   UNL     1      -7.052   8.024  -1.655  1.00  0.00     0.261 C 
BRANCH  30  31
ATOM     31  O   UNL     1      -6.688   8.521  -2.948  1.00  0.00    -0.460 OA
BRANCH  31  32
ATOM     32  C   UNL     1      -6.049   9.719  -2.949  1.00  0.00     0.338 C 
ATOM     33  O   UNL     1      -5.745  10.405  -1.992  1.00  0.00    -0.246 OA
BRANCH  32  34
ATOM     34  C   UNL     1      -5.619  10.024  -4.325  1.00  0.00     0.060 A 
ATOM     35  C   UNL     1      -4.249  10.052  -4.625  1.00  0.00     0.016 A 
ATOM     36  C   UNL     1      -6.570  10.320  -5.299  1.00  0.00     0.016 A 
ATOM     37  C   UNL     1      -3.824  10.382  -5.912  1.00  0.00     0.010 A 
ATOM     38  C   UNL     1      -6.142  10.676  -6.577  1.00  0.00     0.010 A 
ATOM     39  C   UNL     1      -4.769  10.728  -6.884  1.00  0.00    -0.014 A 
BRANCH  39  40
ATOM     40  C   UNL     1      -4.353  11.312  -8.179  1.00  0.00     0.031 A 
ATOM     41  C   UNL     1      -4.398  12.805  -8.334  1.00  0.00     0.074 A 
ATOM     42  C   UNL     1      -4.005  10.532  -9.216  1.00  0.00     0.049 A 
ATOM     43  N   UNL     1      -4.260  13.535  -9.409  1.00  0.00    -0.248 NA
ATOM     44  C   UNL     1      -4.647  13.576  -7.105  1.00  0.00     0.031 C 
ATOM     45  C   UNL     1      -3.869   9.078  -9.175  1.00  0.00     0.029 A 
ATOM     46  N   UNL     1      -3.729  10.863 -10.519  1.00  0.00    -0.354 N 
ATOM     47  C   UNL     1      -4.434  14.849  -8.994  1.00  0.00     0.074 A 
ATOM     48  C   UNL     1      -4.700  14.814  -7.572  1.00  0.00     0.031 C 
ATOM     49  C   UNL     1      -3.555   8.637 -10.406  1.00  0.00     0.029 A 
ATOM     50  C   UNL     1      -3.518   9.773 -11.327  1.00  0.00     0.049 A 
ATOM     51  H   UNL     1      -3.687  11.791 -10.843  1.00  0.00     0.167 HD
ATOM     52  C   UNL     1      -4.383  15.981  -9.734  1.00  0.00     0.037 A 
ATOM     53  C   UNL     1      -3.354   9.703 -12.662  1.00  0.00     0.037 A 
ATOM     54  C   UNL     1      -4.124  16.006 -11.149  1.00  0.00     0.049 A 
ATOM     55  C   UNL     1      -3.397  10.967 -13.481  1.00  0.00     0.074 A 
ATOM     56  C   UNL     1      -4.022  17.102 -11.988  1.00  0.00     0.029 A 
ATOM     57  N   UNL     1      -3.942  14.879 -11.938  1.00  0.00    -0.354 N 
ATOM     58  N   UNL     1      -3.539  12.209 -13.084  1.00  0.00    -0.248 NA
ATOM     59  C   UNL     1      -3.265  10.819 -14.939  1.00  0.00     0.031 C 
ATOM     60  C   UNL     1      -3.841  16.636 -13.294  1.00  0.00     0.029 A 
ATOM     61  C   UNL     1      -3.763  15.252 -13.259  1.00  0.00     0.049 A 
ATOM     62  H   UNL     1      -3.941  13.952 -11.607  1.00  0.00     0.167 HD
ATOM     63  C   UNL     1      -3.470  12.990 -14.232  1.00  0.00     0.074 A 
ATOM     64  C   UNL     1      -3.277  12.081 -15.343  1.00  0.00     0.031 C 
ATOM     65  C   UNL     1      -3.550  14.338 -14.354  1.00  0.00     0.037 A 
BRANCH  52  66
ATOM     66  C   UNL     1      -4.665  17.277  -9.032  1.00  0.00     0.057 A 
ATOM     67  C   UNL     1      -3.780  17.827  -8.095  1.00  0.00     0.134 A 
ATOM     68  C   UNL     1      -5.840  17.989  -9.305  1.00  0.00     0.134 A 
ATOM     69  F   UNL     1      -2.644  17.189  -7.775  1.00  0.00    -0.206 F 
ATOM     70  C   UNL     1      -4.070  19.020  -7.431  1.00  0.00     0.040 A 
ATOM     71  C   UNL     1      -6.126  19.198  -8.671  1.00  0.00     0.040 A 
ATOM     72  F   UNL     1      -6.729  17.522 -10.195  1.00  0.00    -0.206 F 
ATOM     73  C   UNL     1      -5.244  19.712  -7.723  1.00  0.00     0.006 A 
ENDBRANCH  52  66
BRANCH  53  74
ATOM     74  C   UNL     1      -3.141   8.388 -13.320  1.00  0.00     0.057 A 
ATOM     75  C   UNL     1      -1.909   8.071 -13.903  1.00  0.00     0.134 A 
ATOM     76  C   UNL     1      -4.158   7.430 -13.400  1.00  0.00     0.134 A 
ATOM     77  F   UNL     1      -0.904   8.959 -13.882  1.00  0.00    -0.206 F 
ATOM     78  C   UNL     1      -1.699   6.855 -14.555  1.00  0.00     0.040 A 
ATOM     79  C   UNL     1      -3.954   6.199 -14.026  1.00  0.00     0.040 A 
ATOM     80  F   UNL     1      -5.363   7.674 -12.866  1.00  0.00    -0.206 F 
ATOM     81  C   UNL     1      -2.723   5.911 -14.612  1.00  0.00     0.006 A 
ENDBRANCH  53  74
BRANCH  65  82
ATOM     82  C   UNL     1      -3.364  14.928 -15.723  1.00  0.00     0.057 A 
ATOM     83  C   UNL     1      -4.341  14.825 -16.720  1.00  0.00     0.134 A 
ATOM     84  C   UNL     1      -2.214  15.672 -16.020  1.00  0.00     0.134 A 
ATOM     85  F   UNL     1      -5.460  14.117 -16.506  1.00  0.00    -0.206 F 
ATOM     86  C   UNL     1      -4.174  15.428 -17.969  1.00  0.00     0.040 A 
ATOM     87  C   UNL     1      -2.049  16.304 -17.253  1.00  0.00     0.040 A 
ATOM     88  F   UNL     1      -1.243  15.820 -15.105  1.00  0.00    -0.206 F 
ATOM     89  C   UNL     1      -3.030  16.179 -18.233  1.00  0.00     0.006 A 
ENDBRANCH  65  82
ENDBRANCH  39  40
ENDBRANCH  32  34
ENDBRANCH  31  32
ENDBRANCH  30  31
ENDBRANCH  29  30
ENDBRANCH  28  29
ENDBRANCH  27  28
ENDBRANCH   1  27
TORSDOF 21
