REMARK SMILES C[NH+]1CCC(C[N@H+](C)[C@H]2CC[C@]([NH3+])(C(=O)OCCOCCOCCOC(=O)c3ccc(-c4c5nc(c(-c6c(F)cccc6F)c6ccc([nH]6)c(-c6c(F)cccc6F)c6nc(c(-c7c(F)cccc7F)c7ccc4[nH]7)C=C6)C=C5)cc3)C2)CC1
REMARK SMILES IDX 20 1 19 2 18 3 17 4 16 5 14 6 15 7 12 8 9 9 10 10 82 11
REMARK SMILES IDX 11 12 7 13 8 14 6 16 5 17 1 18 2 19 3 20 84 21 4 23 83 24
REMARK SMILES IDX 13 25 21 29 22 30 23 31 24 32 25 33 26 34 27 35 28 36 29 37
REMARK SMILES IDX 81 38 30 39 80 40 31 41 32 42 33 43 74 44 34 45 79 46 73 47
REMARK SMILES IDX 75 48 35 49 78 50 72 51 71 52 36 54 62 55 45 56 61 57 46 58
REMARK SMILES IDX 49 59 60 60 76 61 47 62 48 63 59 65 77 66 50 67 37 68 38 69
REMARK SMILES IDX 43 70 39 71 40 72 42 73 44 74 41 75 63 76 64 77 69 78 65 79
REMARK SMILES IDX 66 80 68 81 70 82 67 83 51 84 52 85 57 86 53 87 54 88 56 89
REMARK SMILES IDX 58 90 55 91
REMARK H PARENT 7 15 2 22 13 26 13 27 13 28 75 53 49 64
REMARK Flexibility Score: inf
ROOT
ATOM      1  C   UNL     1       3.916  -8.560   0.501  1.00  0.00     0.188 C 
ENDROOT
BRANCH   1   2
ATOM      2  O   UNL     1       5.169  -9.228   0.447  1.00  0.00    -0.376 OA
BRANCH   2   3
ATOM      3  C   UNL     1       6.291  -8.576   1.036  1.00  0.00     0.202 C 
BRANCH   3   4
ATOM      4  C   UNL     1       6.683  -7.242   0.396  1.00  0.00     0.261 C 
BRANCH   4   5
ATOM      5  O   UNL     1       5.698  -6.246   0.705  1.00  0.00    -0.459 OA
BRANCH   5   6
ATOM      6  C   UNL     1       5.646  -5.163  -0.133  1.00  0.00     0.368 C 
ATOM      7  O   UNL     1       6.499  -4.885  -0.964  1.00  0.00    -0.245 OA
BRANCH   6   8
ATOM      8  C   UNL     1       4.294  -4.418   0.073  1.00  0.00     0.198 C 
ATOM      9  C   UNL     1       3.409  -2.095   0.182  1.00  0.00     0.191 C 
ATOM     10  C   UNL     1       3.625  -2.581   1.617  1.00  0.00     0.072 C 
ATOM     11  C   UNL     1       4.191  -3.091  -0.700  1.00  0.00     0.145 C 
ATOM     12  C   UNL     1       4.179  -3.999   1.555  1.00  0.00     0.087 C 
BRANCH   9  13
ATOM     13  N   UNL     1       2.005  -1.708  -0.103  1.00  0.00    -0.334 N 
ATOM     14  C   UNL     1       1.980  -0.674  -1.152  1.00  0.00     0.332 C 
ATOM     15  H   UNL     1       1.697  -1.391   0.816  1.00  0.00     0.348 HD
BRANCH  13  16
ATOM     16  C   UNL     1       1.009  -2.738  -0.442  1.00  0.00     0.266 C 
BRANCH  16  17
ATOM     17  C   UNL     1       0.634  -3.740   0.658  1.00  0.00     0.055 C 
ATOM     18  C   UNL     1      -0.863  -6.563   3.424  1.00  0.00     0.332 C 
ATOM     19  N   UNL     1      -0.923  -5.468   2.444  1.00  0.00    -0.337 N 
ATOM     20  C   UNL     1      -0.420  -5.954   1.159  1.00  0.00     0.262 C 
ATOM     21  C   UNL     1      -0.193  -4.292   2.942  1.00  0.00     0.262 C 
ATOM     22  H   UNL     1      -1.887  -5.165   2.305  1.00  0.00     0.347 HD
ATOM     23  C   UNL     1      -0.243  -4.868   0.100  1.00  0.00     0.071 C 
ATOM     24  C   UNL     1      -0.082  -3.176   1.887  1.00  0.00     0.071 C 
ENDBRANCH  16  17
ENDBRANCH  13  16
ENDBRANCH   9  13
BRANCH   8  25
ATOM     25  N   UNL     1       3.231  -5.347  -0.373  1.00  0.00    -0.343 N 
ATOM     26  H   UNL     1       2.320  -4.902  -0.258  1.00  0.00     0.345 HD
ATOM     27  H   UNL     1       3.267  -6.199   0.187  1.00  0.00     0.345 HD
ATOM     28  H   UNL     1       3.373  -5.580  -1.356  1.00  0.00     0.345 HD
ENDBRANCH   8  25
ENDBRANCH   6   8
ENDBRANCH   5   6
ENDBRANCH   4   5
ENDBRANCH   3   4
ENDBRANCH   2   3
ENDBRANCH   1   2
BRANCH   1  29
ATOM     29  C   UNL     1       3.416  -8.018   1.858  1.00  0.00     0.188 C 
BRANCH  29  30
ATOM     30  O   UNL     1       3.839  -8.645   3.061  1.00  0.00    -0.376 OA
BRANCH  30  31
ATOM     31  C   UNL     1       3.802 -10.066   3.115  1.00  0.00     0.202 C 
BRANCH  31  32
ATOM     32  C   UNL     1       2.410 -10.681   3.012  1.00  0.00     0.261 C 
BRANCH  32  33
ATOM     33  O   UNL     1       1.825 -10.459   1.716  1.00  0.00    -0.460 OA
BRANCH  33  34
ATOM     34  C   UNL     1       0.484 -10.322   1.730  1.00  0.00     0.338 C 
ATOM     35  O   UNL     1      -0.254 -10.371   2.708  1.00  0.00    -0.246 OA
BRANCH  34  36
ATOM     36  C   UNL     1      -0.049 -10.116   0.375  1.00  0.00     0.060 A 
ATOM     37  C   UNL     1       0.183  -8.925  -0.314  1.00  0.00     0.016 A 
ATOM     38  C   UNL     1      -0.969 -11.040  -0.115  1.00  0.00     0.016 A 
ATOM     39  C   UNL     1      -0.598  -8.603  -1.428  1.00  0.00     0.010 A 
ATOM     40  C   UNL     1      -1.686 -10.752  -1.277  1.00  0.00     0.010 A 
ATOM     41  C   UNL     1      -1.547  -9.509  -1.919  1.00  0.00    -0.014 A 
BRANCH  41  42
ATOM     42  C   UNL     1      -2.446  -9.182  -3.060  1.00  0.00     0.031 A 
ATOM     43  C   UNL     1      -3.937  -9.258  -2.872  1.00  0.00     0.074 A 
ATOM     44  C   UNL     1      -1.950  -8.873  -4.272  1.00  0.00     0.049 A 
ATOM     45  N   UNL     1      -4.883  -9.400  -3.764  1.00  0.00    -0.248 NA
ATOM     46  C   UNL     1      -4.423  -9.173  -1.485  1.00  0.00     0.031 C 
ATOM     47  C   UNL     1      -0.538  -8.660  -4.587  1.00  0.00     0.029 A 
ATOM     48  N   UNL     1      -2.588  -8.720  -5.480  1.00  0.00    -0.354 N 
ATOM     49  C   UNL     1      -6.070  -9.490  -3.045  1.00  0.00     0.074 A 
ATOM     50  C   UNL     1      -5.725  -9.369  -1.644  1.00  0.00     0.031 C 
ATOM     51  C   UNL     1      -0.413  -8.419  -5.900  1.00  0.00     0.029 A 
ATOM     52  C   UNL     1      -1.718  -8.573  -6.533  1.00  0.00     0.049 A 
ATOM     53  H   UNL     1      -3.568  -8.716  -5.580  1.00  0.00     0.167 HD
ATOM     54  C   UNL     1      -7.327  -9.677  -3.518  1.00  0.00     0.037 A 
ATOM     55  C   UNL     1      -1.926  -8.647  -7.861  1.00  0.00     0.037 A 
ATOM     56  C   UNL     1      -7.652  -9.764  -4.920  1.00  0.00     0.049 A 
ATOM     57  C   UNL     1      -3.307  -8.937  -8.373  1.00  0.00     0.074 A 
ATOM     58  C   UNL     1      -8.883  -9.983  -5.514  1.00  0.00     0.029 A 
ATOM     59  N   UNL     1      -6.732  -9.619  -5.949  1.00  0.00    -0.354 N 
ATOM     60  N   UNL     1      -4.412  -9.139  -7.697  1.00  0.00    -0.248 NA
ATOM     61  C   UNL     1      -3.467  -9.034  -9.830  1.00  0.00     0.031 C 
ATOM     62  C   UNL     1      -8.701 -10.005  -6.902  1.00  0.00     0.029 A 
ATOM     63  C   UNL     1      -7.366  -9.751  -7.173  1.00  0.00     0.049 A 
ATOM     64  H   UNL     1      -5.771  -9.448  -5.826  1.00  0.00     0.167 HD
ATOM     65  C   UNL     1      -5.401  -9.370  -8.643  1.00  0.00     0.074 A 
ATOM     66  C   UNL     1      -4.766  -9.273  -9.942  1.00  0.00     0.031 C 
ATOM     67  C   UNL     1      -6.716  -9.639  -8.454  1.00  0.00     0.037 A 
BRANCH  54  68
ATOM     68  C   UNL     1      -8.428  -9.860  -2.513  1.00  0.00     0.057 A 
ATOM     69  C   UNL     1      -8.912  -8.806  -1.728  1.00  0.00     0.134 A 
ATOM     70  C   UNL     1      -9.026 -11.117  -2.340  1.00  0.00     0.134 A 
ATOM     71  F   UNL     1      -8.378  -7.580  -1.833  1.00  0.00    -0.206 F 
ATOM     72  C   UNL     1      -9.927  -9.001  -0.787  1.00  0.00     0.040 A 
ATOM     73  C   UNL     1     -10.059 -11.318  -1.422  1.00  0.00     0.040 A 
ATOM     74  F   UNL     1      -8.618 -12.170  -3.064  1.00  0.00    -0.206 F 
ATOM     75  C   UNL     1     -10.506 -10.260  -0.635  1.00  0.00     0.006 A 
ENDBRANCH  54  68
BRANCH  55  76
ATOM     76  C   UNL     1      -0.770  -8.528  -8.787  1.00  0.00     0.057 A 
ATOM     77  C   UNL     1      -0.614  -7.412  -9.613  1.00  0.00     0.134 A 
ATOM     78  C   UNL     1       0.224  -9.515  -8.838  1.00  0.00     0.134 A 
ATOM     79  F   UNL     1      -1.544  -6.446  -9.627  1.00  0.00    -0.206 F 
ATOM     80  C   UNL     1       0.492  -7.278 -10.456  1.00  0.00     0.040 A 
ATOM     81  C   UNL     1       1.349  -9.380  -9.653  1.00  0.00     0.040 A 
ATOM     82  F   UNL     1       0.134 -10.609  -8.068  1.00  0.00    -0.206 F 
ATOM     83  C   UNL     1       1.483  -8.258 -10.468  1.00  0.00     0.006 A 
ENDBRANCH  55  76
BRANCH  67  84
ATOM     84  C   UNL     1      -7.564  -9.795  -9.681  1.00  0.00     0.057 A 
ATOM     85  C   UNL     1      -7.516 -10.948 -10.474  1.00  0.00     0.134 A 
ATOM     86  C   UNL     1      -8.468  -8.790 -10.049  1.00  0.00     0.134 A 
ATOM     87  F   UNL     1      -6.659 -11.938 -10.182  1.00  0.00    -0.206 F 
ATOM     88  C   UNL     1      -8.328 -11.089 -11.600  1.00  0.00     0.040 A 
ATOM     89  C   UNL     1      -9.300  -8.930 -11.159  1.00  0.00     0.040 A 
ATOM     90  F   UNL     1      -8.565  -7.664  -9.327  1.00  0.00    -0.206 F 
ATOM     91  C   UNL     1      -9.228 -10.081 -11.941  1.00  0.00     0.006 A 
ENDBRANCH  67  84
ENDBRANCH  41  42
ENDBRANCH  34  36
ENDBRANCH  33  34
ENDBRANCH  32  33
ENDBRANCH  31  32
ENDBRANCH  30  31
ENDBRANCH  29  30
ENDBRANCH   1  29
TORSDOF 21
