REMARK SMILES CC1CC[NH+]([C@H](c2ccc(F)cc2)c2ccc([C@@H](C)C(=O)OCCOCCOCCOC(=O)c3ccc(-c4c5nc(c(-c6c(F)cccc6F)c6ccc([nH]6)c(-c6c(F)cccc6F)c6nc(c(-c7c(F)cccc7F)c7ccc4[nH]7)C=C6)C=C5)cc3)cc2-c2ccc(C(F)(F)F)cc2)CC1
REMARK SMILES IDX 26 1 25 2 24 3 23 4 22 5 20 6 21 7 18 8 19 9 17 10 14 11
REMARK SMILES IDX 15 12 89 13 16 14 88 15 6 16 5 17 1 18 2 19 3 20 101 21 4 22
REMARK SMILES IDX 100 23 7 25 8 26 13 27 9 28 12 29 10 30 11 31 90 32 91 33
REMARK SMILES IDX 99 34 92 35 98 36 93 37 94 38 95 39 96 40 97 41 27 42 28 43
REMARK SMILES IDX 29 44 30 45 31 46 32 47 33 48 34 49 35 50 87 51 36 52 86 53
REMARK SMILES IDX 37 54 38 55 39 56 80 57 40 58 85 59 79 60 81 61 41 62 84 63
REMARK SMILES IDX 78 64 77 65 42 67 68 68 51 69 67 70 52 71 55 72 66 73 82 74
REMARK SMILES IDX 53 75 54 76 65 78 83 79 56 80 43 81 44 82 49 83 45 84 46 85
REMARK SMILES IDX 48 86 50 87 47 88 69 89 70 90 75 91 71 92 72 93 74 94 76 95
REMARK SMILES IDX 73 96 57 97 58 98 63 99 59 100 60 101 62 102 64 103 61 104
REMARK H PARENT 5 24 81 66 55 77
REMARK Flexibility Score: inf
ROOT
ATOM      1  C   UNL     1       3.917   6.540  -1.036  1.00  0.00     0.188 C 
ENDROOT
BRANCH   1   2
ATOM      2  O   UNL     1       3.554   7.865  -1.405  1.00  0.00    -0.376 OA
BRANCH   2   3
ATOM      3  C   UNL     1       2.627   8.055  -2.463  1.00  0.00     0.202 C 
BRANCH   3   4
ATOM      4  C   UNL     1       3.063   7.589  -3.856  1.00  0.00     0.261 C 
BRANCH   4   5
ATOM      5  O   UNL     1       3.390   6.184  -3.944  1.00  0.00    -0.463 OA
BRANCH   5   6
ATOM      6  C   UNL     1       4.659   5.877  -4.318  1.00  0.00     0.313 C 
ATOM      7  O   UNL     1       5.507   6.724  -4.592  1.00  0.00    -0.252 OA
BRANCH   6   8
ATOM      8  C   UNL     1       4.981   4.383  -4.437  1.00  0.00     0.126 C 
ATOM      9  C   UNL     1       5.135   4.054  -5.923  1.00  0.00     0.025 C 
BRANCH   8  10
ATOM     10  C   UNL     1       4.109   3.339  -3.740  1.00  0.00    -0.033 A 
ATOM     11  C   UNL     1       2.515   1.320  -2.413  1.00  0.00     0.022 A 
ATOM     12  C   UNL     1       1.965   2.307  -3.264  1.00  0.00     0.011 A 
ATOM     13  C   UNL     1       3.928   1.341  -2.252  1.00  0.00    -0.009 A 
ATOM     14  C   UNL     1       2.736   3.262  -3.942  1.00  0.00     0.005 A 
ATOM     15  C   UNL     1       4.686   2.360  -2.902  1.00  0.00     0.013 A 
BRANCH  11  16
ATOM     16  C   UNL     1       1.625   0.201  -1.780  1.00  0.00     0.247 C 
BRANCH  16  17
ATOM     17  N   UNL     1       0.186   0.120  -2.202  1.00  0.00    -0.325 N 
ATOM     18  C   UNL     1      -3.438   1.363  -4.358  1.00  0.00     0.008 C 
ATOM     19  C   UNL     1      -2.046   1.200  -3.757  1.00  0.00    -0.003 C 
ATOM     20  C   UNL     1      -1.402  -0.122  -4.169  1.00  0.00     0.065 C 
ATOM     21  C   UNL     1      -2.099   1.219  -2.235  1.00  0.00     0.065 C 
ATOM     22  C   UNL     1       0.018  -0.247  -3.611  1.00  0.00     0.263 C 
ATOM     23  C   UNL     1      -0.695   1.144  -1.638  1.00  0.00     0.263 C 
ATOM     24  H   UNL     1      -0.204  -0.693  -1.725  1.00  0.00     0.348 HD
ENDBRANCH  16  17
BRANCH  16  25
ATOM     25  C   UNL     1       1.744   0.034  -0.252  1.00  0.00     0.014 A 
ATOM     26  C   UNL     1       1.510   1.094   0.638  1.00  0.00     0.013 A 
ATOM     27  C   UNL     1       2.030  -1.234   0.297  1.00  0.00     0.013 A 
ATOM     28  C   UNL     1       1.513   0.884   2.020  1.00  0.00     0.040 A 
ATOM     29  C   UNL     1       2.092  -1.427   1.681  1.00  0.00     0.040 A 
ATOM     30  C   UNL     1       1.820  -0.366   2.530  1.00  0.00     0.123 A 
ATOM     31  F   UNL     1       1.844  -0.553   3.857  1.00  0.00    -0.207 F 
ENDBRANCH  16  25
ENDBRANCH  11  16
BRANCH  13  32
ATOM     32  C   UNL     1       4.663   0.359  -1.423  1.00  0.00    -0.018 A 
ATOM     33  C   UNL     1       5.159   0.734  -0.167  1.00  0.00     0.009 A 
ATOM     34  C   UNL     1       4.881  -0.962  -1.836  1.00  0.00     0.009 A 
ATOM     35  C   UNL     1       5.822  -0.168   0.667  1.00  0.00     0.014 A 
ATOM     36  C   UNL     1       5.533  -1.881  -0.998  1.00  0.00     0.014 A 
ATOM     37  C   UNL     1       5.998  -1.496   0.269  1.00  0.00     0.056 A 
BRANCH  37  38
ATOM     38  C   UNL     1       6.683  -2.469   1.198  1.00  0.00     0.416 C 
ATOM     39  F   UNL     1       8.029  -2.282   1.246  1.00  0.00    -0.166 F 
ATOM     40  F   UNL     1       6.243  -2.365   2.484  1.00  0.00    -0.166 F 
ATOM     41  F   UNL     1       6.496  -3.773   0.849  1.00  0.00    -0.166 F 
ENDBRANCH  37  38
ENDBRANCH  13  32
ENDBRANCH   8  10
ENDBRANCH   6   8
ENDBRANCH   5   6
ENDBRANCH   4   5
ENDBRANCH   3   4
ENDBRANCH   2   3
ENDBRANCH   1   2
BRANCH   1  42
ATOM     42  C   UNL     1       2.870   5.417  -1.121  1.00  0.00     0.188 C 
BRANCH  42  43
ATOM     43  O   UNL     1       1.524   5.854  -1.038  1.00  0.00    -0.376 OA
BRANCH  43  44
ATOM     44  C   UNL     1       0.777   5.280   0.021  1.00  0.00     0.202 C 
BRANCH  44  45
ATOM     45  C   UNL     1       1.106   5.928   1.366  1.00  0.00     0.261 C 
BRANCH  45  46
ATOM     46  O   UNL     1       2.512   5.896   1.684  1.00  0.00    -0.460 OA
BRANCH  46  47
ATOM     47  C   UNL     1       2.962   4.757   2.247  1.00  0.00     0.338 C 
ATOM     48  O   UNL     1       2.302   3.787   2.557  1.00  0.00    -0.246 OA
BRANCH  47  49
ATOM     49  C   UNL     1       4.429   4.812   2.367  1.00  0.00     0.060 A 
ATOM     50  C   UNL     1       5.229   4.185   1.406  1.00  0.00     0.016 A 
ATOM     51  C   UNL     1       5.005   5.394   3.491  1.00  0.00     0.016 A 
ATOM     52  C   UNL     1       6.608   4.082   1.591  1.00  0.00     0.010 A 
ATOM     53  C   UNL     1       6.387   5.310   3.669  1.00  0.00     0.010 A 
ATOM     54  C   UNL     1       7.191   4.622   2.741  1.00  0.00    -0.014 A 
BRANCH  54  55
ATOM     55  C   UNL     1       8.619   4.382   3.055  1.00  0.00     0.031 A 
ATOM     56  C   UNL     1       8.972   3.411   4.144  1.00  0.00     0.074 A 
ATOM     57  C   UNL     1       9.588   5.048   2.404  1.00  0.00     0.049 A 
ATOM     58  N   UNL     1      10.127   3.187   4.713  1.00  0.00    -0.248 NA
ATOM     59  C   UNL     1       7.869   2.589   4.667  1.00  0.00     0.031 C 
ATOM     60  C   UNL     1       9.378   5.969   1.290  1.00  0.00     0.029 A 
ATOM     61  N   UNL     1      10.945   5.067   2.610  1.00  0.00    -0.354 N 
ATOM     62  C   UNL     1       9.885   2.225   5.686  1.00  0.00     0.074 A 
ATOM     63  C   UNL     1       8.473   1.914   5.633  1.00  0.00     0.031 C 
ATOM     64  C   UNL     1      10.563   6.483   0.923  1.00  0.00     0.029 A 
ATOM     65  C   UNL     1      11.603   5.968   1.811  1.00  0.00     0.049 A 
ATOM     66  H   UNL     1      11.400   4.491   3.266  1.00  0.00     0.167 HD
ATOM     67  C   UNL     1      10.763   1.661   6.548  1.00  0.00     0.037 A 
ATOM     68  C   UNL     1      12.890   6.367   1.824  1.00  0.00     0.037 A 
ATOM     69  C   UNL     1      12.170   1.964   6.580  1.00  0.00     0.049 A 
ATOM     70  C   UNL     1      13.839   5.778   2.830  1.00  0.00     0.074 A 
ATOM     71  C   UNL     1      13.150   1.417   7.388  1.00  0.00     0.029 A 
ATOM     72  N   UNL     1      12.794   2.902   5.770  1.00  0.00    -0.354 N 
ATOM     73  N   UNL     1      13.605   4.878   3.754  1.00  0.00    -0.248 NA
ATOM     74  C   UNL     1      15.226   6.265   2.803  1.00  0.00     0.031 C 
ATOM     75  C   UNL     1      14.358   2.062   7.105  1.00  0.00     0.029 A 
ATOM     76  C   UNL     1      14.142   2.973   6.082  1.00  0.00     0.049 A 
ATOM     77  H   UNL     1      12.346   3.438   5.077  1.00  0.00     0.167 HD
ATOM     78  C   UNL     1      14.814   4.679   4.409  1.00  0.00     0.074 A 
ATOM     79  C   UNL     1      15.782   5.547   3.771  1.00  0.00     0.031 C 
ATOM     80  C   UNL     1      15.094   3.848   5.444  1.00  0.00     0.037 A 
BRANCH  67  81
ATOM     81  C   UNL     1      10.220   0.690   7.553  1.00  0.00     0.057 A 
ATOM     82  C   UNL     1      10.157   1.036   8.909  1.00  0.00     0.134 A 
ATOM     83  C   UNL     1       9.781  -0.591   7.193  1.00  0.00     0.134 A 
ATOM     84  F   UNL     1      10.564   2.246   9.323  1.00  0.00    -0.206 F 
ATOM     85  C   UNL     1       9.681   0.144   9.871  1.00  0.00     0.040 A 
ATOM     86  C   UNL     1       9.278  -1.483   8.142  1.00  0.00     0.040 A 
ATOM     87  F   UNL     1       9.801  -0.980   5.910  1.00  0.00    -0.206 F 
ATOM     88  C   UNL     1       9.234  -1.118   9.487  1.00  0.00     0.006 A 
ENDBRANCH  67  81
BRANCH  68  89
ATOM     89  C   UNL     1      13.333   7.397   0.854  1.00  0.00     0.057 A 
ATOM     90  C   UNL     1      12.924   8.732   0.971  1.00  0.00     0.134 A 
ATOM     91  C   UNL     1      14.116   7.055  -0.253  1.00  0.00     0.134 A 
ATOM     92  F   UNL     1      12.170   9.120   2.010  1.00  0.00    -0.206 F 
ATOM     93  C   UNL     1      13.250   9.683   0.004  1.00  0.00     0.040 A 
ATOM     94  C   UNL     1      14.467   8.001  -1.218  1.00  0.00     0.040 A 
ATOM     95  F   UNL     1      14.553   5.797  -0.407  1.00  0.00    -0.206 F 
ATOM     96  C   UNL     1      14.022   9.316  -1.097  1.00  0.00     0.006 A 
ENDBRANCH  68  89
BRANCH  80  97
ATOM     97  C   UNL     1      16.505   3.818   5.952  1.00  0.00     0.057 A 
ATOM     98  C   UNL     1      17.321   2.701   5.726  1.00  0.00     0.134 A 
ATOM     99  C   UNL     1      17.026   4.852   6.738  1.00  0.00     0.134 A 
ATOM    100  F   UNL     1      16.877   1.671   4.990  1.00  0.00    -0.206 F 
ATOM    101  C   UNL     1      18.598   2.606   6.281  1.00  0.00     0.040 A 
ATOM    102  C   UNL     1      18.311   4.779   7.279  1.00  0.00     0.040 A 
ATOM    103  F   UNL     1      16.299   5.953   6.983  1.00  0.00    -0.206 F 
ATOM    104  C   UNL     1      19.096   3.649   7.059  1.00  0.00     0.006 A 
ENDBRANCH  80  97
ENDBRANCH  54  55
ENDBRANCH  47  49
ENDBRANCH  46  47
ENDBRANCH  45  46
ENDBRANCH  44  45
ENDBRANCH  43  44
ENDBRANCH  42  43
ENDBRANCH   1  42
TORSDOF 23
