REMARK SMILES Cc1c(Cl)cccc1NC(=O)C[C@](C)(C(=O)OCCOCCOCCOC(=O)c1ccc(-c2c3nc(c(-c4c(F)cccc4F)c4ccc([nH]4)c(-c4c(F)cccc4F)c4nc(c(-c5c(F)cccc5F)c5ccc2[nH]5)C=C4)C=C3)cc1)c1ccccc1
REMARK SMILES IDX 21 1 20 2 19 3 18 4 17 5 15 6 16 7 13 8 14 9 12 10 10 11
REMARK SMILES IDX 9 12 11 14 8 15 1 16 2 17 3 18 4 19 5 20 7 21 6 22 83 23
REMARK SMILES IDX 84 24 88 25 85 26 87 27 86 28 22 29 23 30 24 31 25 32 26 33
REMARK SMILES IDX 27 34 28 35 29 36 30 37 82 38 31 39 81 40 32 41 33 42 34 43
REMARK SMILES IDX 75 44 35 45 80 46 74 47 76 48 36 49 79 50 73 51 72 52 37 54
REMARK SMILES IDX 63 55 46 56 62 57 47 58 50 59 61 60 77 61 48 62 49 63 60 65
REMARK SMILES IDX 78 66 51 67 38 68 39 69 44 70 40 71 41 72 43 73 45 74 42 75
REMARK SMILES IDX 64 76 65 77 70 78 66 79 67 80 69 81 71 82 68 83 52 84 53 85
REMARK SMILES IDX 58 86 54 87 55 88 57 89 59 90 56 91
REMARK H PARENT 9 13 76 53 50 64
REMARK Flexibility Score: inf
ROOT
ATOM      1  C   UNL     1      -7.970  -0.882  -1.767  1.00  0.00     0.188 C 
ENDROOT
BRANCH   1   2
ATOM      2  O   UNL     1      -8.293  -2.267  -1.833  1.00  0.00    -0.376 OA
BRANCH   2   3
ATOM      3  C   UNL     1      -7.433  -3.188  -1.167  1.00  0.00     0.202 C 
BRANCH   3   4
ATOM      4  C   UNL     1      -5.936  -3.097  -1.478  1.00  0.00     0.261 C 
BRANCH   4   5
ATOM      5  O   UNL     1      -5.328  -1.827  -1.151  1.00  0.00    -0.463 OA
BRANCH   5   6
ATOM      6  C   UNL     1      -4.344  -1.415  -1.992  1.00  0.00     0.316 C 
ATOM      7  O   UNL     1      -3.957  -2.097  -2.938  1.00  0.00    -0.251 OA
BRANCH   6   8
ATOM      8  C   UNL     1      -3.737  -0.014  -1.675  1.00  0.00     0.099 C 
ATOM      9  C   UNL     1      -4.300   0.714  -0.423  1.00  0.00     0.029 C 
BRANCH   8  10
ATOM     10  C   UNL     1      -2.204  -0.230  -1.438  1.00  0.00     0.123 C 
BRANCH  10  11
ATOM     11  C   UNL     1      -1.663  -1.654  -1.296  1.00  0.00     0.225 C 
ATOM     12  N   UNL     1      -2.065  -2.561  -0.360  1.00  0.00    -0.326 N 
ATOM     13  H   UNL     1      -1.727  -3.467  -0.545  1.00  0.00     0.169 HD
ATOM     14  O   UNL     1      -0.808  -2.047  -2.101  1.00  0.00    -0.275 OA
BRANCH  12  15
ATOM     15  C   UNL     1      -2.849  -2.507   0.808  1.00  0.00     0.045 A 
ATOM     16  C   UNL     1      -3.396  -5.014   0.586  1.00  0.00     0.048 C 
ATOM     17  C   UNL     1      -3.536  -3.666   1.255  1.00  0.00    -0.009 A 
ATOM     18  C   UNL     1      -4.394  -3.553   2.374  1.00  0.00     0.046 A 
ATOM     19  Cl  UNL     1      -5.324  -4.894   2.958  1.00  0.00    -0.084 Cl
ATOM     20  C   UNL     1      -4.540  -2.346   3.054  1.00  0.00     0.021 A 
ATOM     21  C   UNL     1      -2.938  -1.335   1.563  1.00  0.00     0.026 A 
ATOM     22  C   UNL     1      -3.791  -1.245   2.666  1.00  0.00     0.004 A 
ENDBRANCH  12  15
ENDBRANCH  10  11
ENDBRANCH   8  10
BRANCH   8  23
ATOM     23  C   UNL     1      -4.016   0.989  -2.849  1.00  0.00    -0.030 A 
ATOM     24  C   UNL     1      -3.599   2.335  -2.762  1.00  0.00     0.005 A 
ATOM     25  C   UNL     1      -4.780   0.634  -3.978  1.00  0.00     0.005 A 
ATOM     26  C   UNL     1      -3.962   3.278  -3.732  1.00  0.00     0.000 A 
ATOM     27  C   UNL     1      -5.119   1.573  -4.959  1.00  0.00     0.000 A 
ATOM     28  C   UNL     1      -4.725   2.898  -4.829  1.00  0.00     0.000 A 
ENDBRANCH   8  23
ENDBRANCH   6   8
ENDBRANCH   5   6
ENDBRANCH   4   5
ENDBRANCH   3   4
ENDBRANCH   2   3
ENDBRANCH   1   2
BRANCH   1  29
ATOM     29  C   UNL     1      -7.589  -0.293  -0.400  1.00  0.00     0.188 C 
BRANCH  29  30
ATOM     30  O   UNL     1      -7.715  -1.187   0.682  1.00  0.00    -0.376 OA
BRANCH  30  31
ATOM     31  C   UNL     1      -8.681  -0.895   1.671  1.00  0.00     0.202 C 
BRANCH  31  32
ATOM     32  C   UNL     1     -10.137  -0.655   1.238  1.00  0.00     0.261 C 
BRANCH  32  33
ATOM     33  O   UNL     1     -10.337   0.121   0.046  1.00  0.00    -0.460 OA
BRANCH  33  34
ATOM     34  C   UNL     1     -10.201   1.465   0.121  1.00  0.00     0.338 C 
ATOM     35  O   UNL     1      -9.946   2.124   1.114  1.00  0.00    -0.246 OA
BRANCH  34  36
ATOM     36  C   UNL     1     -10.150   1.965  -1.277  1.00  0.00     0.060 A 
ATOM     37  C   UNL     1      -9.027   2.689  -1.706  1.00  0.00     0.016 A 
ATOM     38  C   UNL     1     -11.151   1.617  -2.188  1.00  0.00     0.016 A 
ATOM     39  C   UNL     1      -8.901   3.061  -3.049  1.00  0.00     0.010 A 
ATOM     40  C   UNL     1     -11.040   2.018  -3.521  1.00  0.00     0.010 A 
ATOM     41  C   UNL     1      -9.925   2.754  -3.955  1.00  0.00    -0.014 A 
BRANCH  41  42
ATOM     42  C   UNL     1      -9.952   3.363  -5.306  1.00  0.00     0.031 A 
ATOM     43  C   UNL     1     -10.682   4.665  -5.472  1.00  0.00     0.074 A 
ATOM     44  C   UNL     1      -9.393   2.762  -6.370  1.00  0.00     0.049 A 
ATOM     45  N   UNL     1     -10.973   5.324  -6.563  1.00  0.00    -0.248 NA
ATOM     46  C   UNL     1     -11.156   5.302  -4.233  1.00  0.00     0.031 C 
ATOM     47  C   UNL     1      -8.624   1.523  -6.336  1.00  0.00     0.029 A 
ATOM     48  N   UNL     1      -9.404   3.117  -7.697  1.00  0.00    -0.354 N 
ATOM     49  C   UNL     1     -11.678   6.445  -6.143  1.00  0.00     0.074 A 
ATOM     50  C   UNL     1     -11.783   6.369  -4.702  1.00  0.00     0.031 C 
ATOM     51  C   UNL     1      -8.233   1.218  -7.587  1.00  0.00     0.029 A 
ATOM     52  C   UNL     1      -8.771   2.213  -8.515  1.00  0.00     0.049 A 
ATOM     53  H   UNL     1      -9.827   3.941  -8.031  1.00  0.00     0.167 HD
ATOM     54  C   UNL     1     -12.196   7.446  -6.891  1.00  0.00     0.037 A 
ATOM     55  C   UNL     1      -8.668   2.180  -9.859  1.00  0.00     0.037 A 
ATOM     56  C   UNL     1     -12.117   7.506  -8.325  1.00  0.00     0.049 A 
ATOM     57  C   UNL     1      -9.350   3.247 -10.679  1.00  0.00     0.074 A 
ATOM     58  C   UNL     1     -12.615   8.475  -9.177  1.00  0.00     0.029 A 
ATOM     59  N   UNL     1     -11.512   6.544  -9.120  1.00  0.00    -0.354 N 
ATOM     60  N   UNL     1     -10.008   4.308 -10.278  1.00  0.00    -0.248 NA
ATOM     61  C   UNL     1      -9.296   3.095 -12.142  1.00  0.00     0.031 C 
ATOM     62  C   UNL     1     -12.356   8.074 -10.492  1.00  0.00     0.029 A 
ATOM     63  C   UNL     1     -11.652   6.880 -10.456  1.00  0.00     0.049 A 
ATOM     64  H   UNL     1     -11.052   5.742  -8.784  1.00  0.00     0.167 HD
ATOM     65  C   UNL     1     -10.428   4.958 -11.434  1.00  0.00     0.074 A 
ATOM     66  C   UNL     1      -9.939   4.180 -12.553  1.00  0.00     0.031 C 
ATOM     67  C   UNL     1     -11.155   6.096 -11.557  1.00  0.00     0.037 A 
BRANCH  54  68
ATOM     68  C   UNL     1     -12.934   8.526  -6.160  1.00  0.00     0.057 A 
ATOM     69  C   UNL     1     -12.271   9.461  -5.354  1.00  0.00     0.134 A 
ATOM     70  C   UNL     1     -14.329   8.622  -6.248  1.00  0.00     0.134 A 
ATOM     71  F   UNL     1     -10.938   9.408  -5.209  1.00  0.00    -0.206 F 
ATOM     72  C   UNL     1     -12.971  10.432  -4.637  1.00  0.00     0.040 A 
ATOM     73  C   UNL     1     -15.037   9.606  -5.558  1.00  0.00     0.040 A 
ATOM     74  F   UNL     1     -15.025   7.757  -7.001  1.00  0.00    -0.206 F 
ATOM     75  C   UNL     1     -14.358  10.509  -4.741  1.00  0.00     0.006 A 
ENDBRANCH  54  68
BRANCH  55  76
ATOM     76  C   UNL     1      -7.914   1.090 -10.530  1.00  0.00     0.057 A 
ATOM     77  C   UNL     1      -6.722   1.357 -11.214  1.00  0.00     0.134 A 
ATOM     78  C   UNL     1      -8.375  -0.232 -10.535  1.00  0.00     0.134 A 
ATOM     79  F   UNL     1      -6.245   2.610 -11.273  1.00  0.00    -0.206 F 
ATOM     80  C   UNL     1      -6.021   0.354 -11.886  1.00  0.00     0.040 A 
ATOM     81  C   UNL     1      -7.671  -1.250 -11.181  1.00  0.00     0.040 A 
ATOM     82  F   UNL     1      -9.515  -0.554  -9.907  1.00  0.00    -0.206 F 
ATOM     83  C   UNL     1      -6.493  -0.957 -11.865  1.00  0.00     0.006 A 
ENDBRANCH  55  76
BRANCH  67  84
ATOM     84  C   UNL     1     -11.448   6.586 -12.946  1.00  0.00     0.057 A 
ATOM     85  C   UNL     1     -12.394   5.959 -13.765  1.00  0.00     0.134 A 
ATOM     86  C   UNL     1     -10.825   7.739 -13.441  1.00  0.00     0.134 A 
ATOM     87  F   UNL     1     -13.017   4.844 -13.355  1.00  0.00    -0.206 F 
ATOM     88  C   UNL     1     -12.704   6.456 -15.033  1.00  0.00     0.040 A 
ATOM     89  C   UNL     1     -11.144   8.260 -14.696  1.00  0.00     0.040 A 
ATOM     90  F   UNL     1      -9.916   8.393 -12.702  1.00  0.00    -0.206 F 
ATOM     91  C   UNL     1     -12.084   7.616 -15.497  1.00  0.00     0.006 A 
ENDBRANCH  67  84
ENDBRANCH  41  42
ENDBRANCH  34  36
ENDBRANCH  33  34
ENDBRANCH  32  33
ENDBRANCH  31  32
ENDBRANCH  30  31
ENDBRANCH  29  30
ENDBRANCH   1  29
TORSDOF 21
