REMARK SMILES O=C(OCCOCCOCCOC(=O)c1cncc(Nc2cccnc2)n1)c1ccc(-c2c3nc(c(-c4c(F)cccc4F)c4ccc([nH]4)c(-c4c(F)cccc4F)c4nc(c(-c5c(F)cccc5F)c5ccc2[nH]5)C=C4)C=C3)cc1
REMARK SMILES IDX 7 1 6 2 5 3 4 4 3 5 2 6 1 7 28 8 29 9 81 10 30 11 80 12
REMARK SMILES IDX 31 13 32 14 33 15 74 16 34 17 79 18 73 19 75 20 35 21 78 22
REMARK SMILES IDX 72 23 71 24 36 26 62 27 45 28 61 29 46 30 49 31 60 32 76 33
REMARK SMILES IDX 47 34 48 35 59 37 77 38 50 39 37 40 38 41 43 42 39 43 40 44
REMARK SMILES IDX 42 45 44 46 41 47 63 48 64 49 69 50 65 51 66 52 68 53 70 54
REMARK SMILES IDX 67 55 51 56 52 57 57 58 53 59 54 60 56 61 58 62 55 63 8 64
REMARK SMILES IDX 9 65 10 66 11 67 12 68 13 69 14 70 15 71 16 72 27 73 17 74
REMARK SMILES IDX 19 75 18 76 20 77 21 79 22 80 26 81 23 82 25 83 24 84
REMARK H PARENT 75 25 49 36 20 78
REMARK Flexibility Score: inf
ROOT
ATOM      1  C   UNL     1       2.430   2.072   0.608  1.00  0.00     0.188 C 
ENDROOT
BRANCH   1   2
ATOM      2  O   UNL     1       3.742   1.497   0.682  1.00  0.00    -0.376 OA
BRANCH   2   3
ATOM      3  C   UNL     1       4.522   1.696  -0.501  1.00  0.00     0.202 C 
BRANCH   3   4
ATOM      4  C   UNL     1       4.313   0.629  -1.586  1.00  0.00     0.261 C 
BRANCH   4   5
ATOM      5  O   UNL     1       2.952   0.169  -1.643  1.00  0.00    -0.460 OA
BRANCH   5   6
ATOM      6  C   UNL     1       2.413  -0.929  -1.054  1.00  0.00     0.338 C 
ATOM      7  O   UNL     1       1.225  -1.180  -1.249  1.00  0.00    -0.246 OA
BRANCH   6   8
ATOM      8  C   UNL     1       3.192  -1.887  -0.210  1.00  0.00     0.060 A 
ATOM      9  C   UNL     1       4.338  -1.563   0.513  1.00  0.00     0.016 A 
ATOM     10  C   UNL     1       2.698  -3.201  -0.101  1.00  0.00     0.016 A 
ATOM     11  C   UNL     1       5.053  -2.531   1.204  1.00  0.00     0.010 A 
ATOM     12  C   UNL     1       3.370  -4.166   0.660  1.00  0.00     0.010 A 
ATOM     13  C   UNL     1       4.578  -3.839   1.284  1.00  0.00    -0.014 A 
BRANCH  13  14
ATOM     14  C   UNL     1       5.426  -4.841   1.964  1.00  0.00     0.031 A 
ATOM     15  C   UNL     1       6.163  -5.853   1.140  1.00  0.00     0.074 A 
ATOM     16  C   UNL     1       5.655  -4.726   3.285  1.00  0.00     0.049 A 
ATOM     17  N   UNL     1       7.005  -6.774   1.526  1.00  0.00    -0.248 NA
ATOM     18  C   UNL     1       5.947  -5.803  -0.315  1.00  0.00     0.031 C 
ATOM     19  C   UNL     1       5.070  -3.701   4.149  1.00  0.00     0.029 A 
ATOM     20  N   UNL     1       6.466  -5.442   4.124  1.00  0.00    -0.354 N 
ATOM     21  C   UNL     1       7.421  -7.410   0.366  1.00  0.00     0.074 A 
ATOM     22  C   UNL     1       6.721  -6.791  -0.738  1.00  0.00     0.031 C 
ATOM     23  C   UNL     1       5.554  -3.841   5.391  1.00  0.00     0.029 A 
ATOM     24  C   UNL     1       6.444  -4.993   5.423  1.00  0.00     0.049 A 
ATOM     25  H   UNL     1       7.013  -6.205   3.826  1.00  0.00     0.167 HD
ATOM     26  C   UNL     1       8.316  -8.416   0.236  1.00  0.00     0.037 A 
ATOM     27  C   UNL     1       7.059  -5.471   6.519  1.00  0.00     0.037 A 
ATOM     28  C   UNL     1       8.992  -9.031   1.345  1.00  0.00     0.049 A 
ATOM     29  C   UNL     1       7.966  -6.657   6.361  1.00  0.00     0.074 A 
ATOM     30  C   UNL     1       9.852 -10.113   1.344  1.00  0.00     0.029 A 
ATOM     31  N   UNL     1       8.879  -8.607   2.663  1.00  0.00    -0.354 N 
ATOM     32  N   UNL     1       8.307  -7.291   5.264  1.00  0.00    -0.248 NA
ATOM     33  C   UNL     1       8.569  -7.199   7.584  1.00  0.00     0.031 C 
ATOM     34  C   UNL     1      10.237 -10.363   2.667  1.00  0.00     0.029 A 
ATOM     35  C   UNL     1       9.646  -9.412   3.486  1.00  0.00     0.049 A 
ATOM     36  H   UNL     1       8.334  -7.845   2.966  1.00  0.00     0.167 HD
ATOM     37  C   UNL     1       9.169  -8.301   5.662  1.00  0.00     0.074 A 
ATOM     38  C   UNL     1       9.322  -8.175   7.098  1.00  0.00     0.031 C 
ATOM     39  C   UNL     1       9.772  -9.256   4.912  1.00  0.00     0.037 A 
BRANCH  26  40
ATOM     40  C   UNL     1       8.563  -8.927  -1.150  1.00  0.00     0.057 A 
ATOM     41  C   UNL     1       9.328  -8.206  -2.077  1.00  0.00     0.134 A 
ATOM     42  C   UNL     1       8.007 -10.140  -1.573  1.00  0.00     0.134 A 
ATOM     43  F   UNL     1       9.863  -7.022  -1.742  1.00  0.00    -0.206 F 
ATOM     44  C   UNL     1       9.514  -8.666  -3.382  1.00  0.00     0.040 A 
ATOM     45  C   UNL     1       8.201 -10.618  -2.869  1.00  0.00     0.040 A 
ATOM     46  F   UNL     1       7.257 -10.872  -0.736  1.00  0.00    -0.206 F 
ATOM     47  C   UNL     1       8.952  -9.878  -3.780  1.00  0.00     0.006 A 
ENDBRANCH  26  40
BRANCH  27  48
ATOM     48  C   UNL     1       6.806  -4.862   7.851  1.00  0.00     0.057 A 
ATOM     49  C   UNL     1       7.816  -4.205   8.563  1.00  0.00     0.134 A 
ATOM     50  C   UNL     1       5.543  -4.941   8.453  1.00  0.00     0.134 A 
ATOM     51  F   UNL     1       9.051  -4.109   8.051  1.00  0.00    -0.206 F 
ATOM     52  C   UNL     1       7.586  -3.671   9.834  1.00  0.00     0.040 A 
ATOM     53  C   UNL     1       5.291  -4.386   9.708  1.00  0.00     0.040 A 
ATOM     54  F   UNL     1       4.531  -5.559   7.825  1.00  0.00    -0.206 F 
ATOM     55  C   UNL     1       6.319  -3.756  10.407  1.00  0.00     0.006 A 
ENDBRANCH  27  48
BRANCH  39  56
ATOM     56  C   UNL     1      10.654 -10.220   5.643  1.00  0.00     0.057 A 
ATOM     57  C   UNL     1      10.120 -11.237   6.444  1.00  0.00     0.134 A 
ATOM     58  C   UNL     1      12.046 -10.141   5.529  1.00  0.00     0.134 A 
ATOM     59  F   UNL     1       8.793 -11.351   6.604  1.00  0.00    -0.206 F 
ATOM     60  C   UNL     1      10.945 -12.130   7.127  1.00  0.00     0.040 A 
ATOM     61  C   UNL     1      12.880 -11.043   6.189  1.00  0.00     0.040 A 
ATOM     62  F   UNL     1      12.616  -9.191   4.772  1.00  0.00    -0.206 F 
ATOM     63  C   UNL     1      12.329 -12.037   6.996  1.00  0.00     0.006 A 
ENDBRANCH  39  56
ENDBRANCH  13  14
ENDBRANCH   6   8
ENDBRANCH   5   6
ENDBRANCH   4   5
ENDBRANCH   3   4
ENDBRANCH   2   3
ENDBRANCH   1   2
BRANCH   1  64
ATOM     64  C   UNL     1       1.944   2.531   1.986  1.00  0.00     0.188 C 
BRANCH  64  65
ATOM     65  O   UNL     1       2.605   3.686   2.510  1.00  0.00    -0.376 OA
BRANCH  65  66
ATOM     66  C   UNL     1       4.005   3.573   2.747  1.00  0.00     0.202 C 
BRANCH  66  67
ATOM     67  C   UNL     1       4.421   2.759   3.975  1.00  0.00     0.261 C 
BRANCH  67  68
ATOM     68  O   UNL     1       3.887   1.424   4.027  1.00  0.00    -0.458 OA
BRANCH  68  69
ATOM     69  C   UNL     1       3.030   1.204   5.059  1.00  0.00     0.358 C 
ATOM     70  O   UNL     1       2.643   2.024   5.878  1.00  0.00    -0.244 OA
BRANCH  69  71
ATOM     71  C   UNL     1       2.755  -0.233   5.234  1.00  0.00     0.169 A 
ATOM     72  C   UNL     1       3.181  -0.780   6.434  1.00  0.00     0.147 A 
ATOM     73  N   UNL     1       1.996  -0.913   4.324  1.00  0.00    -0.220 NA
ATOM     74  N   UNL     1       2.891  -2.047   6.790  1.00  0.00    -0.258 NA
ATOM     75  C   UNL     1       1.645  -2.172   4.690  1.00  0.00     0.149 A 
ATOM     76  C   UNL     1       2.117  -2.716   5.897  1.00  0.00     0.158 A 
BRANCH  75  77
ATOM     77  N   UNL     1       0.825  -2.909   3.825  1.00  0.00    -0.338 N 
ATOM     78  H   UNL     1       0.782  -2.571   2.901  1.00  0.00     0.168 HD
BRANCH  77  79
ATOM     79  C   UNL     1       0.055  -4.055   4.074  1.00  0.00     0.058 A 
ATOM     80  C   UNL     1      -0.622  -4.259   5.282  1.00  0.00     0.029 A 
ATOM     81  C   UNL     1      -0.015  -5.096   3.150  1.00  0.00     0.137 A 
ATOM     82  C   UNL     1      -1.286  -5.460   5.529  1.00  0.00     0.022 A 
ATOM     83  N   UNL     1      -0.653  -6.276   3.356  1.00  0.00    -0.263 NA
ATOM     84  C   UNL     1      -1.264  -6.434   4.548  1.00  0.00     0.111 A 
ENDBRANCH  77  79
ENDBRANCH  75  77
ENDBRANCH  69  71
ENDBRANCH  68  69
ENDBRANCH  67  68
ENDBRANCH  66  67
ENDBRANCH  65  66
ENDBRANCH  64  65
ENDBRANCH   1  64
TORSDOF 19
