REMARK SMILES CC(C)[C@@H](CC(=O)OCCOCCOCCOC(=O)c1ccc(-c2c3nc(c(-c4c(F)cccc4F)c4ccc([nH]4)c(-c4c(F)cccc4F)c4nc(c(-c5c(F)cccc5F)c5ccc2[nH]5)C=C4)C=C3)cc1)NC(=O)OCc1ccccc1
REMARK SMILES IDX 11 1 10 2 9 3 8 4 6 5 7 6 5 7 4 8 2 9 1 10 3 11 74 12 75 13
REMARK SMILES IDX 76 15 77 16 78 17 79 18 80 19 84 20 81 21 83 22 82 23 12 24
REMARK SMILES IDX 13 25 14 26 15 27 16 28 17 29 18 30 19 31 20 32 21 33 73 34
REMARK SMILES IDX 22 35 72 36 23 37 24 38 25 39 66 40 26 41 71 42 65 43 67 44
REMARK SMILES IDX 27 45 70 46 64 47 63 48 28 50 54 51 37 52 53 53 38 54 41 55
REMARK SMILES IDX 52 56 68 57 39 58 40 59 51 61 69 62 42 63 29 64 30 65 35 66
REMARK SMILES IDX 31 67 32 68 34 69 36 70 33 71 55 72 56 73 61 74 57 75 58 76
REMARK SMILES IDX 60 77 62 78 59 79 43 80 44 81 49 82 45 83 46 84 48 85 50 86
REMARK SMILES IDX 47 87
REMARK H PARENT 74 14 67 49 41 60
REMARK Flexibility Score: inf
ROOT
ATOM      1  O   UNL     1      -0.754   5.653  -2.004  1.00  0.00    -0.376 OA
ENDROOT
BRANCH   1   2
ATOM      2  C   UNL     1       0.482   5.258  -1.405  1.00  0.00     0.202 C 
BRANCH   2   3
ATOM      3  C   UNL     1       0.409   4.285  -0.210  1.00  0.00     0.261 C 
BRANCH   3   4
ATOM      4  O   UNL     1      -0.023   2.939  -0.565  1.00  0.00    -0.463 OA
BRANCH   4   5
ATOM      5  C   UNL     1      -0.877   2.331   0.293  1.00  0.00     0.307 C 
ATOM      6  O   UNL     1      -1.245   2.841   1.349  1.00  0.00    -0.252 OA
BRANCH   5   7
ATOM      7  C   UNL     1      -1.486   1.006  -0.175  1.00  0.00     0.148 C 
BRANCH   7   8
ATOM      8  C   UNL     1      -0.811  -0.006  -1.130  1.00  0.00     0.099 C 
BRANCH   8   9
ATOM      9  C   UNL     1       0.740  -0.028  -1.119  1.00  0.00     0.006 C 
ATOM     10  C   UNL     1       1.293  -0.332   0.273  1.00  0.00     0.009 C 
ATOM     11  C   UNL     1       1.296  -1.063  -2.114  1.00  0.00     0.009 C 
ENDBRANCH   8   9
BRANCH   8  12
ATOM     12  N   UNL     1      -1.293   0.097  -2.516  1.00  0.00    -0.318 N 
ATOM     13  C   UNL     1      -2.137  -0.720  -3.217  1.00  0.00     0.407 C 
ATOM     14  H   UNL     1      -0.956   0.874  -3.017  1.00  0.00     0.167 HD
ATOM     15  O   UNL     1      -2.212  -0.605  -4.437  1.00  0.00    -0.225 OA
BRANCH  13  16
ATOM     16  O   UNL     1      -2.859  -1.600  -2.481  1.00  0.00    -0.445 OA
BRANCH  16  17
ATOM     17  C   UNL     1      -3.611  -2.571  -3.254  1.00  0.00     0.270 C 
BRANCH  17  18
ATOM     18  C   UNL     1      -5.069  -2.230  -3.513  1.00  0.00    -0.011 A 
ATOM     19  C   UNL     1      -5.518  -0.911  -3.586  1.00  0.00     0.007 A 
ATOM     20  C   UNL     1      -5.999  -3.250  -3.784  1.00  0.00     0.007 A 
ATOM     21  C   UNL     1      -6.850  -0.614  -3.899  1.00  0.00     0.000 A 
ATOM     22  C   UNL     1      -7.332  -2.952  -4.099  1.00  0.00     0.000 A 
ATOM     23  C   UNL     1      -7.757  -1.631  -4.160  1.00  0.00     0.000 A 
ENDBRANCH  17  18
ENDBRANCH  16  17
ENDBRANCH  13  16
ENDBRANCH   8  12
ENDBRANCH   7   8
ENDBRANCH   5   7
ENDBRANCH   4   5
ENDBRANCH   3   4
ENDBRANCH   2   3
ENDBRANCH   1   2
BRANCH   1  24
ATOM     24  C   UNL     1      -1.713   4.636  -2.235  1.00  0.00     0.188 C 
BRANCH  24  25
ATOM     25  C   UNL     1      -1.257   3.411  -3.030  1.00  0.00     0.188 C 
BRANCH  25  26
ATOM     26  O   UNL     1       0.121   3.367  -3.339  1.00  0.00    -0.376 OA
BRANCH  26  27
ATOM     27  C   UNL     1       0.502   2.998  -4.660  1.00  0.00     0.202 C 
BRANCH  27  28
ATOM     28  C   UNL     1       0.009   3.934  -5.779  1.00  0.00     0.261 C 
BRANCH  28  29
ATOM     29  O   UNL     1      -1.423   3.997  -5.944  1.00  0.00    -0.460 OA
BRANCH  29  30
ATOM     30  C   UNL     1      -2.050   2.846  -6.280  1.00  0.00     0.338 C 
ATOM     31  O   UNL     1      -1.518   1.794  -6.605  1.00  0.00    -0.246 OA
BRANCH  30  32
ATOM     32  C   UNL     1      -3.480   3.005  -5.932  1.00  0.00     0.060 A 
ATOM     33  C   UNL     1      -3.976   2.337  -4.809  1.00  0.00     0.016 A 
ATOM     34  C   UNL     1      -4.315   3.854  -6.655  1.00  0.00     0.016 A 
ATOM     35  C   UNL     1      -5.298   2.511  -4.408  1.00  0.00     0.010 A 
ATOM     36  C   UNL     1      -5.665   3.970  -6.290  1.00  0.00     0.010 A 
ATOM     37  C   UNL     1      -6.180   3.264  -5.186  1.00  0.00    -0.014 A 
BRANCH  37  38
ATOM     38  C   UNL     1      -7.650   3.119  -4.976  1.00  0.00     0.031 A 
ATOM     39  C   UNL     1      -8.452   2.366  -6.011  1.00  0.00     0.074 A 
ATOM     40  C   UNL     1      -8.268   3.519  -3.848  1.00  0.00     0.049 A 
ATOM     41  N   UNL     1      -9.749   2.226  -6.124  1.00  0.00    -0.248 NA
ATOM     42  C   UNL     1      -7.681   1.662  -7.049  1.00  0.00     0.031 C 
ATOM     43  C   UNL     1      -7.617   4.114  -2.684  1.00  0.00     0.029 A 
ATOM     44  N   UNL     1      -9.598   3.470  -3.498  1.00  0.00    -0.354 N 
ATOM     45  C   UNL     1      -9.948   1.470  -7.274  1.00  0.00     0.074 A 
ATOM     46  C   UNL     1      -8.642   1.173  -7.818  1.00  0.00     0.031 C 
ATOM     47  C   UNL     1      -8.547   4.375  -1.748  1.00  0.00     0.029 A 
ATOM     48  C   UNL     1      -9.868   4.039  -2.276  1.00  0.00     0.049 A 
ATOM     49  H   UNL     1     -10.291   3.067  -4.069  1.00  0.00     0.167 HD
ATOM     50  C   UNL     1     -11.114   1.060  -7.829  1.00  0.00     0.037 A 
ATOM     51  C   UNL     1     -11.044   4.306  -1.672  1.00  0.00     0.037 A 
ATOM     52  C   UNL     1     -12.415   1.305  -7.264  1.00  0.00     0.049 A 
ATOM     53  C   UNL     1     -12.336   3.952  -2.365  1.00  0.00     0.074 A 
ATOM     54  C   UNL     1     -13.652   0.931  -7.760  1.00  0.00     0.029 A 
ATOM     55  N   UNL     1     -12.647   1.974  -6.074  1.00  0.00    -0.354 N 
ATOM     56  N   UNL     1     -12.524   3.315  -3.495  1.00  0.00    -0.248 NA
ATOM     57  C   UNL     1     -13.581   4.372  -1.703  1.00  0.00     0.031 C 
ATOM     58  C   UNL     1     -14.636   1.423  -6.897  1.00  0.00     0.029 A 
ATOM     59  C   UNL     1     -14.009   2.049  -5.833  1.00  0.00     0.049 A 
ATOM     60  H   UNL     1     -11.948   2.342  -5.486  1.00  0.00     0.167 HD
ATOM     61  C   UNL     1     -13.902   3.234  -3.664  1.00  0.00     0.074 A 
ATOM     62  C   UNL     1     -14.504   3.875  -2.515  1.00  0.00     0.031 C 
ATOM     63  C   UNL     1     -14.604   2.679  -4.682  1.00  0.00     0.037 A 
BRANCH  50  64
ATOM     64  C   UNL     1     -11.044   0.354  -9.151  1.00  0.00     0.057 A 
ATOM     65  C   UNL     1     -10.585  -0.962  -9.278  1.00  0.00     0.134 A 
ATOM     66  C   UNL     1     -11.491   0.999 -10.312  1.00  0.00     0.134 A 
ATOM     67  F   UNL     1     -10.130  -1.631  -8.208  1.00  0.00    -0.206 F 
ATOM     68  C   UNL     1     -10.556  -1.605 -10.518  1.00  0.00     0.040 A 
ATOM     69  C   UNL     1     -11.494   0.357 -11.551  1.00  0.00     0.040 A 
ATOM     70  F   UNL     1     -11.948   2.260 -10.258  1.00  0.00    -0.206 F 
ATOM     71  C   UNL     1     -11.020  -0.948 -11.657  1.00  0.00     0.006 A 
ENDBRANCH  50  64
BRANCH  51  72
ATOM     72  C   UNL     1     -11.070   5.013  -0.364  1.00  0.00     0.057 A 
ATOM     73  C   UNL     1     -11.564   4.397   0.792  1.00  0.00     0.134 A 
ATOM     74  C   UNL     1     -10.643   6.343  -0.249  1.00  0.00     0.134 A 
ATOM     75  F   UNL     1     -12.024   3.138   0.742  1.00  0.00    -0.206 F 
ATOM     76  C   UNL     1     -11.643   5.079   2.009  1.00  0.00     0.040 A 
ATOM     77  C   UNL     1     -10.687   7.026   0.967  1.00  0.00     0.040 A 
ATOM     78  F   UNL     1     -10.172   6.998  -1.321  1.00  0.00    -0.206 F 
ATOM     79  C   UNL     1     -11.196   6.396   2.099  1.00  0.00     0.006 A 
ENDBRANCH  51  72
BRANCH  63  80
ATOM     80  C   UNL     1     -16.103   2.694  -4.584  1.00  0.00     0.057 A 
ATOM     81  C   UNL     1     -16.846   3.872  -4.735  1.00  0.00     0.134 A 
ATOM     82  C   UNL     1     -16.816   1.506  -4.374  1.00  0.00     0.134 A 
ATOM     83  F   UNL     1     -16.227   5.046  -4.928  1.00  0.00    -0.206 F 
ATOM     84  C   UNL     1     -18.241   3.871  -4.656  1.00  0.00     0.040 A 
ATOM     85  C   UNL     1     -18.210   1.487  -4.322  1.00  0.00     0.040 A 
ATOM     86  F   UNL     1     -16.168   0.339  -4.233  1.00  0.00    -0.206 F 
ATOM     87  C   UNL     1     -18.927   2.674  -4.456  1.00  0.00     0.006 A 
ENDBRANCH  63  80
ENDBRANCH  37  38
ENDBRANCH  30  32
ENDBRANCH  29  30
ENDBRANCH  28  29
ENDBRANCH  27  28
ENDBRANCH  26  27
ENDBRANCH  25  26
ENDBRANCH  24  25
ENDBRANCH   1  24
TORSDOF 23
