REMARK SMILES CCOC(=O)c1c(S(=O)(=O)N2CCC[C@@H](C(=O)OCCOCCOCCOC(=O)c3ccc(-c4c5nc(c(-c6c(F)cccc6F)c6ccc([nH]6)c(-c6c(F)cccc6F)c6nc(c(-c7c(F)cccc7F)c7ccc4[nH]7)C=C6)C=C5)cc3)C2)c(C)n(C)c1C
REMARK SMILES IDX 21 1 20 2 19 3 18 4 16 5 17 6 15 7 11 8 12 9 84 10 13 11
REMARK SMILES IDX 14 12 8 13 9 14 10 15 7 16 6 17 89 18 85 19 87 20 90 21
REMARK SMILES IDX 86 22 88 23 4 24 5 25 3 26 2 27 1 28 22 29 23 30 24 31 25 32
REMARK SMILES IDX 26 33 27 34 28 35 29 36 30 37 31 38 83 39 32 40 82 41 33 42
REMARK SMILES IDX 34 43 35 44 76 45 36 46 81 47 75 48 77 49 37 50 80 51 74 52
REMARK SMILES IDX 73 53 38 55 64 56 47 57 63 58 48 59 51 60 62 61 78 62 49 63
REMARK SMILES IDX 50 64 61 66 79 67 52 68 39 69 40 70 45 71 41 72 42 73 44 74
REMARK SMILES IDX 46 75 43 76 65 77 66 78 71 79 67 80 68 81 70 82 72 83 69 84
REMARK SMILES IDX 53 85 54 86 59 87 55 88 56 89 58 90 60 91 57 92
REMARK H PARENT 77 54 51 65
REMARK Flexibility Score: inf
ROOT
ATOM      1  O   UNL     1       0.729  -3.195   4.166  1.00  0.00    -0.376 OA
ENDROOT
BRANCH   1   2
ATOM      2  C   UNL     1      -0.216  -3.004   3.125  1.00  0.00     0.202 C 
BRANCH   2   3
ATOM      3  C   UNL     1       0.052  -2.157   1.863  1.00  0.00     0.261 C 
BRANCH   3   4
ATOM      4  O   UNL     1       1.385  -2.153   1.327  1.00  0.00    -0.463 OA
BRANCH   4   5
ATOM      5  C   UNL     1       2.150  -1.055   1.563  1.00  0.00     0.310 C 
ATOM      6  O   UNL     1       1.755  -0.074   2.182  1.00  0.00    -0.252 OA
BRANCH   5   7
ATOM      7  C   UNL     1       3.597  -1.230   1.101  1.00  0.00     0.114 C 
ATOM      8  N   UNL     1       4.990  -2.124  -0.824  1.00  0.00    -0.197 NA
ATOM      9  C   UNL     1       5.689  -0.837  -0.966  1.00  0.00     0.102 C 
ATOM     10  C   UNL     1       3.737  -2.227  -0.049  1.00  0.00     0.117 C 
ATOM     11  C   UNL     1       5.615  -0.000   0.296  1.00  0.00     0.018 C 
ATOM     12  C   UNL     1       4.190   0.139   0.787  1.00  0.00     0.018 C 
BRANCH   8  13
ATOM     13  S   UNL     1       5.150  -3.198  -2.120  1.00  0.00     0.245 S 
ATOM     14  O   UNL     1       4.782  -4.514  -1.638  1.00  0.00    -0.207 OA
ATOM     15  O   UNL     1       6.440  -2.969  -2.739  1.00  0.00    -0.207 OA
BRANCH  13  16
ATOM     16  C   UNL     1       4.021  -2.954  -3.432  1.00  0.00     0.118 A 
ATOM     17  C   UNL     1       2.902  -2.065  -3.550  1.00  0.00     0.101 A 
ATOM     18  C   UNL     1       2.274  -2.380  -4.759  1.00  0.00     0.030 A 
ATOM     19  C   UNL     1       4.066  -3.731  -4.591  1.00  0.00     0.035 A 
ATOM     20  N   UNL     1       3.003  -3.367  -5.382  1.00  0.00    -0.350 N 
ATOM     21  C   UNL     1       1.059  -1.776  -5.387  1.00  0.00     0.065 C 
ATOM     22  C   UNL     1       5.056  -4.788  -4.971  1.00  0.00     0.066 C 
ATOM     23  C   UNL     1       2.725  -3.926  -6.691  1.00  0.00     0.149 C 
BRANCH  17  24
ATOM     24  C   UNL     1       2.437  -0.967  -2.711  1.00  0.00     0.341 C 
ATOM     25  O   UNL     1       3.138  -0.019  -2.389  1.00  0.00    -0.246 OA
BRANCH  24  26
ATOM     26  O   UNL     1       1.102  -1.055  -2.424  1.00  0.00    -0.462 OA
BRANCH  26  27
ATOM     27  C   UNL     1       0.438   0.191  -2.155  1.00  0.00     0.230 C 
ATOM     28  C   UNL     1       0.385   0.504  -0.681  1.00  0.00     0.049 C 
ENDBRANCH  26  27
ENDBRANCH  24  26
ENDBRANCH  17  24
ENDBRANCH  13  16
ENDBRANCH   8  13
ENDBRANCH   5   7
ENDBRANCH   4   5
ENDBRANCH   3   4
ENDBRANCH   2   3
ENDBRANCH   1   2
BRANCH   1  29
ATOM     29  C   UNL     1       2.109  -3.156   3.878  1.00  0.00     0.188 C 
BRANCH  29  30
ATOM     30  C   UNL     1       2.712  -4.145   2.855  1.00  0.00     0.188 C 
BRANCH  30  31
ATOM     31  O   UNL     1       1.873  -4.678   1.855  1.00  0.00    -0.376 OA
BRANCH  31  32
ATOM     32  C   UNL     1       1.099  -5.861   1.992  1.00  0.00     0.202 C 
BRANCH  32  33
ATOM     33  C   UNL     1       0.894  -6.666   3.277  1.00  0.00     0.261 C 
BRANCH  33  34
ATOM     34  O   UNL     1       1.471  -6.089   4.420  1.00  0.00    -0.460 OA
BRANCH  34  35
ATOM     35  C   UNL     1       2.748  -6.455   4.617  1.00  0.00     0.338 C 
ATOM     36  O   UNL     1       3.410  -7.255   3.965  1.00  0.00    -0.246 OA
BRANCH  35  37
ATOM     37  C   UNL     1       3.271  -5.664   5.735  1.00  0.00     0.060 A 
ATOM     38  C   UNL     1       4.646  -5.769   5.948  1.00  0.00     0.016 A 
ATOM     39  C   UNL     1       2.358  -5.367   6.746  1.00  0.00     0.016 A 
ATOM     40  C   UNL     1       5.032  -6.107   7.213  1.00  0.00     0.010 A 
ATOM     41  C   UNL     1       2.730  -5.739   7.995  1.00  0.00     0.010 A 
ATOM     42  C   UNL     1       4.017  -6.252   8.157  1.00  0.00    -0.014 A 
BRANCH  42  43
ATOM     43  C   UNL     1       4.273  -7.033   9.337  1.00  0.00     0.031 A 
ATOM     44  C   UNL     1       4.764  -6.187  10.434  1.00  0.00     0.074 A 
ATOM     45  C   UNL     1       3.917  -8.331   9.379  1.00  0.00     0.049 A 
ATOM     46  N   UNL     1       5.970  -6.108  10.889  1.00  0.00    -0.248 NA
ATOM     47  C   UNL     1       3.879  -5.096  10.880  1.00  0.00     0.031 C 
ATOM     48  C   UNL     1       3.189  -9.127   8.380  1.00  0.00     0.029 A 
ATOM     49  N   UNL     1       4.053  -9.199  10.416  1.00  0.00    -0.354 N 
ATOM     50  C   UNL     1       5.904  -5.107  11.848  1.00  0.00     0.074 A 
ATOM     51  C   UNL     1       4.740  -4.330  11.545  1.00  0.00     0.031 C 
ATOM     52  C   UNL     1       2.753 -10.274   8.952  1.00  0.00     0.029 A 
ATOM     53  C   UNL     1       3.267 -10.345  10.306  1.00  0.00     0.049 A 
ATOM     54  H   UNL     1       4.654  -9.033  11.178  1.00  0.00     0.167 HD
ATOM     55  C   UNL     1       6.564  -5.224  13.030  1.00  0.00     0.037 A 
ATOM     56  C   UNL     1       3.008 -11.192  11.335  1.00  0.00     0.037 A 
ATOM     57  C   UNL     1       7.611  -6.211  12.935  1.00  0.00     0.049 A 
ATOM     58  C   UNL     1       4.040 -10.922  12.379  1.00  0.00     0.074 A 
ATOM     59  C   UNL     1       8.749  -6.337  12.164  1.00  0.00     0.029 A 
ATOM     60  N   UNL     1       7.340  -7.468  13.420  1.00  0.00    -0.354 N 
ATOM     61  N   UNL     1       5.311 -11.171  12.211  1.00  0.00    -0.248 NA
ATOM     62  C   UNL     1       3.731  -9.896  13.368  1.00  0.00     0.031 C 
ATOM     63  C   UNL     1       8.838  -7.725  11.854  1.00  0.00     0.029 A 
ATOM     64  C   UNL     1       7.796  -8.386  12.507  1.00  0.00     0.049 A 
ATOM     65  H   UNL     1       6.895  -7.675  14.274  1.00  0.00     0.167 HD
ATOM     66  C   UNL     1       5.967 -10.070  12.750  1.00  0.00     0.074 A 
ATOM     67  C   UNL     1       4.940  -9.339  13.490  1.00  0.00     0.031 C 
ATOM     68  C   UNL     1       7.201  -9.688  12.302  1.00  0.00     0.037 A 
BRANCH  55  69
ATOM     69  C   UNL     1       5.994  -4.749  14.345  1.00  0.00     0.057 A 
ATOM     70  C   UNL     1       6.823  -4.765  15.475  1.00  0.00     0.134 A 
ATOM     71  C   UNL     1       4.624  -4.518  14.616  1.00  0.00     0.134 A 
ATOM     72  F   UNL     1       8.141  -4.983  15.357  1.00  0.00    -0.206 F 
ATOM     73  C   UNL     1       6.320  -4.632  16.775  1.00  0.00     0.040 A 
ATOM     74  C   UNL     1       4.122  -4.326  15.903  1.00  0.00     0.040 A 
ATOM     75  F   UNL     1       3.670  -4.557  13.681  1.00  0.00    -0.206 F 
ATOM     76  C   UNL     1       4.965  -4.418  16.993  1.00  0.00     0.006 A 
ENDBRANCH  55  69
BRANCH  56  77
ATOM     77  C   UNL     1       1.742 -11.906  11.628  1.00  0.00     0.057 A 
ATOM     78  C   UNL     1       1.694 -12.986  12.521  1.00  0.00     0.134 A 
ATOM     79  C   UNL     1       0.498 -11.378  11.237  1.00  0.00     0.134 A 
ATOM     80  F   UNL     1       2.826 -13.525  12.997  1.00  0.00    -0.206 F 
ATOM     81  C   UNL     1       0.481 -13.509  12.997  1.00  0.00     0.040 A 
ATOM     82  C   UNL     1      -0.718 -11.891  11.700  1.00  0.00     0.040 A 
ATOM     83  F   UNL     1       0.423 -10.287  10.461  1.00  0.00    -0.206 F 
ATOM     84  C   UNL     1      -0.731 -12.956  12.591  1.00  0.00     0.006 A 
ENDBRANCH  56  77
BRANCH  68  85
ATOM     85  C   UNL     1       7.905 -10.601  11.330  1.00  0.00     0.057 A 
ATOM     86  C   UNL     1       7.462 -10.836  10.018  1.00  0.00     0.134 A 
ATOM     87  C   UNL     1       9.161 -11.110  11.668  1.00  0.00     0.134 A 
ATOM     88  F   UNL     1       6.317 -10.306   9.572  1.00  0.00    -0.206 F 
ATOM     89  C   UNL     1       8.219 -11.569   9.098  1.00  0.00     0.040 A 
ATOM     90  C   UNL     1       9.943 -11.816  10.750  1.00  0.00     0.040 A 
ATOM     91  F   UNL     1       9.678 -10.874  12.884  1.00  0.00    -0.206 F 
ATOM     92  C   UNL     1       9.470 -12.054   9.462  1.00  0.00     0.006 A 
ENDBRANCH  68  85
ENDBRANCH  42  43
ENDBRANCH  35  37
ENDBRANCH  34  35
ENDBRANCH  33  34
ENDBRANCH  32  33
ENDBRANCH  31  32
ENDBRANCH  30  31
ENDBRANCH  29  30
ENDBRANCH   1  29
TORSDOF 22
