REMARK SMILES Cc1cc2nc(SCC(=O)OCCOCCOCCOC(=O)c3ccc(-c4c5nc(c(-c6c(F)cccc6F)c6ccc([nH]6)c(-c6c(F)cccc6F)c6nc(c(-c7c(F)cccc7F)c7ccc4[nH]7)C=C6)C=C5)cc3)n(CC(C)C)c(=O)c2[nH]1
REMARK SMILES IDX 15 1 14 2 13 3 12 4 11 5 9 6 10 7 8 8 7 9 6 10 1 11 2 12
REMARK SMILES IDX 3 13 85 14 4 15 84 16 5 18 82 19 77 20 83 21 78 22 79 23
REMARK SMILES IDX 80 24 81 25 16 26 17 27 18 28 19 29 20 30 21 31 22 32 23 33
REMARK SMILES IDX 24 34 76 35 25 36 75 37 26 38 27 39 28 40 69 41 29 42 74 43
REMARK SMILES IDX 68 44 70 45 30 46 73 47 67 48 66 49 31 51 57 52 40 53 56 54
REMARK SMILES IDX 41 55 44 56 55 57 71 58 42 59 43 60 54 62 72 63 45 64 32 65
REMARK SMILES IDX 33 66 38 67 34 68 35 69 37 70 39 71 36 72 58 73 59 74 64 75
REMARK SMILES IDX 60 76 61 77 63 78 65 79 62 80 46 81 47 82 52 83 48 84 49 85
REMARK SMILES IDX 51 86 53 87 50 88
REMARK H PARENT 85 17 70 50 44 61
REMARK Flexibility Score: inf
ROOT
ATOM      1  C   UNL     1      -4.909   5.661   2.131  1.00  0.00     0.188 C 
ENDROOT
BRANCH   1   2
ATOM      2  O   UNL     1      -5.860   6.511   1.512  1.00  0.00    -0.376 OA
BRANCH   2   3
ATOM      3  C   UNL     1      -5.404   7.770   1.033  1.00  0.00     0.202 C 
BRANCH   3   4
ATOM      4  C   UNL     1      -4.766   8.709   2.067  1.00  0.00     0.261 C 
BRANCH   4   5
ATOM      5  O   UNL     1      -3.611   8.116   2.696  1.00  0.00    -0.463 OA
BRANCH   5   6
ATOM      6  C   UNL     1      -3.378   8.451   3.990  1.00  0.00     0.316 C 
ATOM      7  O   UNL     1      -3.947   9.381   4.556  1.00  0.00    -0.251 OA
BRANCH   6   8
ATOM      8  C   UNL     1      -2.558   7.423   4.754  1.00  0.00     0.200 C 
BRANCH   8   9
ATOM      9  S   UNL     1      -0.999   6.918   4.103  1.00  0.00    -0.076 SA
BRANCH   9  10
ATOM     10  C   UNL     1      -0.820   5.184   3.784  1.00  0.00     0.172 A 
ATOM     11  C   UNL     1       1.619   0.925   0.466  1.00  0.00     0.064 C 
ATOM     12  C   UNL     1       1.185   1.940   1.465  1.00  0.00     0.014 A 
ATOM     13  C   UNL     1       1.172   3.326   1.388  1.00  0.00     0.052 A 
ATOM     14  N   UNL     1       0.627   1.593   2.684  1.00  0.00    -0.353 N 
ATOM     15  C   UNL     1       0.451   3.775   2.506  1.00  0.00     0.097 A 
ATOM     16  C   UNL     1       0.127   2.723   3.288  1.00  0.00     0.131 A 
ATOM     17  H   UNL     1       0.594   0.683   3.059  1.00  0.00     0.166 HD
ATOM     18  N   UNL     1       0.057   5.062   2.821  1.00  0.00    -0.222 NA
ATOM     19  C   UNL     1      -0.705   2.855   4.446  1.00  0.00     0.278 A 
ATOM     20  N   UNL     1      -1.373   4.110   4.527  1.00  0.00    -0.286 N 
ATOM     21  O   UNL     1      -0.856   1.949   5.241  1.00  0.00    -0.267 OA
BRANCH  20  22
ATOM     22  C   UNL     1      -2.499   4.116   5.521  1.00  0.00     0.131 C 
BRANCH  22  23
ATOM     23  C   UNL     1      -3.947   3.816   4.956  1.00  0.00     0.003 C 
ATOM     24  C   UNL     1      -4.511   2.390   5.161  1.00  0.00     0.009 C 
ATOM     25  C   UNL     1      -5.019   4.722   5.589  1.00  0.00     0.009 C 
ENDBRANCH  22  23
ENDBRANCH  20  22
ENDBRANCH   9  10
ENDBRANCH   8   9
ENDBRANCH   6   8
ENDBRANCH   5   6
ENDBRANCH   4   5
ENDBRANCH   3   4
ENDBRANCH   2   3
ENDBRANCH   1   2
BRANCH   1  26
ATOM     26  C   UNL     1      -3.495   5.513   1.541  1.00  0.00     0.188 C 
BRANCH  26  27
ATOM     27  O   UNL     1      -3.292   5.638   0.149  1.00  0.00    -0.376 OA
BRANCH  27  28
ATOM     28  C   UNL     1      -4.170   4.959  -0.725  1.00  0.00     0.202 C 
BRANCH  28  29
ATOM     29  C   UNL     1      -4.022   3.451  -0.793  1.00  0.00     0.261 C 
BRANCH  29  30
ATOM     30  O   UNL     1      -4.393   2.776   0.408  1.00  0.00    -0.460 OA
BRANCH  30  31
ATOM     31  C   UNL     1      -3.309   2.338   1.069  1.00  0.00     0.338 C 
ATOM     32  O   UNL     1      -2.169   2.771   1.003  1.00  0.00    -0.246 OA
BRANCH  31  33
ATOM     33  C   UNL     1      -3.571   1.079   1.740  1.00  0.00     0.060 A 
ATOM     34  C   UNL     1      -2.787   0.839   2.863  1.00  0.00     0.016 A 
ATOM     35  C   UNL     1      -4.127   0.048   0.994  1.00  0.00     0.016 A 
ATOM     36  C   UNL     1      -2.328  -0.417   3.122  1.00  0.00     0.010 A 
ATOM     37  C   UNL     1      -3.684  -1.228   1.255  1.00  0.00     0.010 A 
ATOM     38  C   UNL     1      -2.691  -1.412   2.227  1.00  0.00    -0.014 A 
BRANCH  38  39
ATOM     39  C   UNL     1      -1.954  -2.654   2.326  1.00  0.00     0.031 A 
ATOM     40  C   UNL     1      -2.133  -3.359   3.619  1.00  0.00     0.074 A 
ATOM     41  C   UNL     1      -1.252  -3.085   1.262  1.00  0.00     0.049 A 
ATOM     42  N   UNL     1      -1.229  -3.836   4.410  1.00  0.00    -0.248 NA
ATOM     43  C   UNL     1      -3.499  -3.389   4.177  1.00  0.00     0.031 C 
ATOM     44  C   UNL     1      -1.184  -2.477  -0.074  1.00  0.00     0.029 A 
ATOM     45  N   UNL     1      -0.586  -4.252   1.091  1.00  0.00    -0.354 N 
ATOM     46  C   UNL     1      -1.931  -4.403   5.469  1.00  0.00     0.074 A 
ATOM     47  C   UNL     1      -3.288  -3.940   5.369  1.00  0.00     0.031 C 
ATOM     48  C   UNL     1      -0.788  -3.413  -0.961  1.00  0.00     0.029 A 
ATOM     49  C   UNL     1      -0.486  -4.634  -0.238  1.00  0.00     0.049 A 
ATOM     50  H   UNL     1      -0.210  -4.776   1.835  1.00  0.00     0.167 HD
ATOM     51  C   UNL     1      -1.419  -5.431   6.194  1.00  0.00     0.037 A 
ATOM     52  C   UNL     1      -0.323  -5.902  -0.687  1.00  0.00     0.037 A 
ATOM     53  C   UNL     1       0.015  -5.476   6.119  1.00  0.00     0.049 A 
ATOM     54  C   UNL     1       0.160  -6.718   0.460  1.00  0.00     0.074 A 
ATOM     55  C   UNL     1       1.029  -4.609   6.476  1.00  0.00     0.029 A 
ATOM     56  N   UNL     1       0.592  -6.411   5.295  1.00  0.00    -0.354 N 
ATOM     57  N   UNL     1       1.346  -6.591   0.988  1.00  0.00    -0.248 NA
ATOM     58  C   UNL     1      -0.838  -7.339   1.324  1.00  0.00     0.031 C 
ATOM     59  C   UNL     1       2.041  -4.791   5.491  1.00  0.00     0.029 A 
ATOM     60  C   UNL     1       1.600  -5.781   4.612  1.00  0.00     0.049 A 
ATOM     61  H   UNL     1       0.331  -7.356   5.211  1.00  0.00     0.167 HD
ATOM     62  C   UNL     1       1.146  -6.721   2.357  1.00  0.00     0.074 A 
ATOM     63  C   UNL     1      -0.201  -7.269   2.497  1.00  0.00     0.031 C 
ATOM     64  C   UNL     1       1.966  -6.098   3.254  1.00  0.00     0.037 A 
BRANCH  51  65
ATOM     65  C   UNL     1      -2.255  -6.605   6.632  1.00  0.00     0.057 A 
ATOM     66  C   UNL     1      -3.457  -6.998   6.000  1.00  0.00     0.134 A 
ATOM     67  C   UNL     1      -1.704  -7.552   7.509  1.00  0.00     0.134 A 
ATOM     68  F   UNL     1      -4.061  -6.252   5.068  1.00  0.00    -0.206 F 
ATOM     69  C   UNL     1      -4.056  -8.239   6.213  1.00  0.00     0.040 A 
ATOM     70  C   UNL     1      -2.268  -8.821   7.687  1.00  0.00     0.040 A 
ATOM     71  F   UNL     1      -0.556  -7.303   8.156  1.00  0.00    -0.206 F 
ATOM     72  C   UNL     1      -3.442  -9.171   7.032  1.00  0.00     0.006 A 
ENDBRANCH  51  65
BRANCH  52  73
ATOM     73  C   UNL     1      -0.857  -6.480  -1.942  1.00  0.00     0.057 A 
ATOM     74  C   UNL     1      -2.008  -5.972  -2.578  1.00  0.00     0.134 A 
ATOM     75  C   UNL     1      -0.363  -7.686  -2.452  1.00  0.00     0.134 A 
ATOM     76  F   UNL     1      -2.642  -4.886  -2.114  1.00  0.00    -0.206 F 
ATOM     77  C   UNL     1      -2.609  -6.603  -3.671  1.00  0.00     0.040 A 
ATOM     78  C   UNL     1      -0.968  -8.341  -3.535  1.00  0.00     0.040 A 
ATOM     79  F   UNL     1       0.692  -8.285  -1.881  1.00  0.00    -0.206 F 
ATOM     80  C   UNL     1      -2.093  -7.798  -4.149  1.00  0.00     0.006 A 
ENDBRANCH  52  73
BRANCH  64  81
ATOM     81  C   UNL     1       3.213  -5.452   2.720  1.00  0.00     0.057 A 
ATOM     82  C   UNL     1       4.456  -5.845   3.224  1.00  0.00     0.134 A 
ATOM     83  C   UNL     1       3.201  -4.359   1.840  1.00  0.00     0.134 A 
ATOM     84  F   UNL     1       4.538  -6.836   4.126  1.00  0.00    -0.206 F 
ATOM     85  C   UNL     1       5.636  -5.197   2.853  1.00  0.00     0.040 A 
ATOM     86  C   UNL     1       4.376  -3.725   1.432  1.00  0.00     0.040 A 
ATOM     87  F   UNL     1       2.048  -3.838   1.402  1.00  0.00    -0.206 F 
ATOM     88  C   UNL     1       5.601  -4.142   1.943  1.00  0.00     0.006 A 
ENDBRANCH  64  81
ENDBRANCH  38  39
ENDBRANCH  31  33
ENDBRANCH  30  31
ENDBRANCH  29  30
ENDBRANCH  28  29
ENDBRANCH  27  28
ENDBRANCH  26  27
ENDBRANCH   1  26
TORSDOF 21
