REMARK SMILES C[C@H]1OCC[C@H]1C(=O)Nc1ccsc1C(=O)OCCOCCOCCOC(=O)c1ccc(-c2c3nc(c(-c4c(F)cccc4F)c4ccc([nH]4)c(-c4c(F)cccc4F)c4nc(c(-c5c(F)cccc5F)c5ccc2[nH]5)C=C4)C=C3)cc1
REMARK SMILES IDX 21 1 20 2 19 3 18 4 17 5 15 6 16 7 14 8 10 9 11 10 12 11
REMARK SMILES IDX 13 12 9 13 7 14 8 15 6 17 1 18 2 19 3 20 4 21 5 22 22 23
REMARK SMILES IDX 23 24 24 25 25 26 26 27 27 28 28 29 29 30 30 31 82 32 31 33
REMARK SMILES IDX 81 34 32 35 33 36 34 37 75 38 35 39 80 40 74 41 76 42 36 43
REMARK SMILES IDX 79 44 73 45 72 46 37 48 63 49 46 50 62 51 47 52 50 53 61 54
REMARK SMILES IDX 77 55 48 56 49 57 60 59 78 60 51 61 38 62 39 63 44 64 40 65
REMARK SMILES IDX 41 66 43 67 45 68 42 69 64 70 65 71 70 72 66 73 67 74 69 75
REMARK SMILES IDX 71 76 68 77 52 78 53 79 58 80 54 81 55 82 57 83 59 84 56 85
REMARK H PARENT 9 16 76 47 50 58
REMARK Flexibility Score: inf
ROOT
ATOM      1  C   UNL     1      -3.471   0.536  -4.860  1.00  0.00     0.188 C 
ENDROOT
BRANCH   1   2
ATOM      2  O   UNL     1      -3.428   0.144  -6.228  1.00  0.00    -0.376 OA
BRANCH   2   3
ATOM      3  C   UNL     1      -2.792  -1.059  -6.620  1.00  0.00     0.202 C 
BRANCH   3   4
ATOM      4  C   UNL     1      -1.260  -1.069  -6.585  1.00  0.00     0.261 C 
BRANCH   4   5
ATOM      5  O   UNL     1      -0.702  -0.522  -5.379  1.00  0.00    -0.459 OA
BRANCH   5   6
ATOM      6  C   UNL     1      -0.143   0.719  -5.506  1.00  0.00     0.350 C 
ATOM      7  O   UNL     1       0.014   1.291  -6.579  1.00  0.00    -0.245 OA
BRANCH   6   8
ATOM      8  C   UNL     1       0.169   1.281  -4.198  1.00  0.00     0.136 A 
ATOM      9  C   UNL     1       0.378   0.702  -2.941  1.00  0.00     0.066 A 
ATOM     10  C   UNL     1       0.694   1.714  -1.992  1.00  0.00     0.039 A 
ATOM     11  C   UNL     1       0.634   2.994  -2.490  1.00  0.00     0.068 A 
ATOM     12  S   UNL     1       0.264   3.003  -4.140  1.00  0.00    -0.135 S 
BRANCH   9  13
ATOM     13  N   UNL     1       0.374  -0.677  -2.759  1.00  0.00    -0.324 N 
ATOM     14  C   UNL     1       0.382  -1.556  -1.728  1.00  0.00     0.230 C 
ATOM     15  O   UNL     1       0.675  -2.720  -2.058  1.00  0.00    -0.274 OA
ATOM     16  H   UNL     1       0.363  -1.148  -3.624  1.00  0.00     0.169 HD
BRANCH  14  17
ATOM     17  C   UNL     1      -0.042  -1.349  -0.273  1.00  0.00     0.110 C 
ATOM     18  C   UNL     1       2.260  -0.395   0.414  1.00  0.00     0.039 C 
ATOM     19  C   UNL     1       0.778  -0.541   0.707  1.00  0.00     0.127 C 
ATOM     20  O   UNL     1       0.118   0.723   0.862  1.00  0.00    -0.378 OA
ATOM     21  C   UNL     1      -1.252   0.584   0.460  1.00  0.00     0.161 C 
ATOM     22  C   UNL     1      -1.444  -0.815  -0.084  1.00  0.00     0.044 C 
ENDBRANCH  14  17
ENDBRANCH   9  13
ENDBRANCH   6   8
ENDBRANCH   5   6
ENDBRANCH   4   5
ENDBRANCH   3   4
ENDBRANCH   2   3
ENDBRANCH   1   2
BRANCH   1  23
ATOM     23  C   UNL     1      -3.233  -0.457  -3.706  1.00  0.00     0.188 C 
BRANCH  23  24
ATOM     24  O   UNL     1      -3.540  -1.809  -3.995  1.00  0.00    -0.376 OA
BRANCH  24  25
ATOM     25  C   UNL     1      -4.609  -2.380  -3.253  1.00  0.00     0.202 C 
BRANCH  25  26
ATOM     26  C   UNL     1      -5.984  -1.988  -3.803  1.00  0.00     0.261 C 
BRANCH  26  27
ATOM     27  O   UNL     1      -6.275  -0.582  -3.731  1.00  0.00    -0.460 OA
BRANCH  27  28
ATOM     28  C   UNL     1      -6.363  -0.041  -2.496  1.00  0.00     0.338 C 
ATOM     29  O   UNL     1      -6.224  -0.610  -1.428  1.00  0.00    -0.246 OA
BRANCH  28  30
ATOM     30  C   UNL     1      -6.486   1.422  -2.648  1.00  0.00     0.060 A 
ATOM     31  C   UNL     1      -5.596   2.248  -1.952  1.00  0.00     0.016 A 
ATOM     32  C   UNL     1      -7.474   1.972  -3.469  1.00  0.00     0.016 A 
ATOM     33  C   UNL     1      -5.711   3.636  -2.057  1.00  0.00     0.010 A 
ATOM     34  C   UNL     1      -7.596   3.359  -3.562  1.00  0.00     0.010 A 
ATOM     35  C   UNL     1      -6.732   4.198  -2.838  1.00  0.00    -0.014 A 
BRANCH  35  36
ATOM     36  C   UNL     1      -6.997   5.655  -2.783  1.00  0.00     0.031 A 
ATOM     37  C   UNL     1      -8.035   6.165  -1.824  1.00  0.00     0.074 A 
ATOM     38  C   UNL     1      -6.337   6.513  -3.581  1.00  0.00     0.049 A 
ATOM     39  N   UNL     1      -8.459   7.388  -1.632  1.00  0.00    -0.248 NA
ATOM     40  C   UNL     1      -8.684   5.159  -0.968  1.00  0.00     0.031 C 
ATOM     41  C   UNL     1      -5.298   6.150  -4.540  1.00  0.00     0.029 A 
ATOM     42  N   UNL     1      -6.461   7.873  -3.713  1.00  0.00    -0.354 N 
ATOM     43  C   UNL     1      -9.419   7.300  -0.634  1.00  0.00     0.074 A 
ATOM     44  C   UNL     1      -9.537   5.902  -0.279  1.00  0.00     0.031 C 
ATOM     45  C   UNL     1      -4.886   7.262  -5.176  1.00  0.00     0.029 A 
ATOM     46  C   UNL     1      -5.649   8.408  -4.683  1.00  0.00     0.049 A 
ATOM     47  H   UNL     1      -7.074   8.415  -3.165  1.00  0.00     0.167 HD
ATOM     48  C   UNL     1     -10.135   8.295  -0.058  1.00  0.00     0.037 A 
ATOM     49  C   UNL     1      -5.549   9.674  -5.131  1.00  0.00     0.037 A 
ATOM     50  C   UNL     1     -10.032   9.684  -0.414  1.00  0.00     0.049 A 
ATOM     51  C   UNL     1      -6.404  10.753  -4.522  1.00  0.00     0.074 A 
ATOM     52  C   UNL     1     -10.703  10.765   0.130  1.00  0.00     0.029 A 
ATOM     53  N   UNL     1      -9.214  10.182  -1.415  1.00  0.00    -0.354 N 
ATOM     54  N   UNL     1      -7.279  10.666  -3.550  1.00  0.00    -0.248 NA
ATOM     55  C   UNL     1      -6.255  12.109  -5.073  1.00  0.00     0.031 C 
ATOM     56  C   UNL     1     -10.319  11.915  -0.570  1.00  0.00     0.029 A 
ATOM     57  C   UNL     1      -9.380  11.552  -1.522  1.00  0.00     0.049 A 
ATOM     58  H   UNL     1      -8.605   9.641  -1.969  1.00  0.00     0.167 HD
ATOM     59  C   UNL     1      -7.764  11.954  -3.356  1.00  0.00     0.074 A 
ATOM     60  C   UNL     1      -7.082  12.806  -4.306  1.00  0.00     0.031 C 
ATOM     61  C   UNL     1      -8.689  12.391  -2.467  1.00  0.00     0.037 A 
BRANCH  48  62
ATOM     62  C   UNL     1     -11.109   7.903   1.011  1.00  0.00     0.057 A 
ATOM     63  C   UNL     1     -10.684   7.528   2.292  1.00  0.00     0.134 A 
ATOM     64  C   UNL     1     -12.486   7.918   0.762  1.00  0.00     0.134 A 
ATOM     65  F   UNL     1      -9.376   7.478   2.586  1.00  0.00    -0.206 F 
ATOM     66  C   UNL     1     -11.595   7.162   3.283  1.00  0.00     0.040 A 
ATOM     67  C   UNL     1     -13.408   7.574   1.751  1.00  0.00     0.040 A 
ATOM     68  F   UNL     1     -12.957   8.268  -0.445  1.00  0.00    -0.206 F 
ATOM     69  C   UNL     1     -12.963   7.190   3.015  1.00  0.00     0.006 A 
ENDBRANCH  48  62
BRANCH  49  70
ATOM     70  C   UNL     1      -4.604   9.999  -6.228  1.00  0.00     0.057 A 
ATOM     71  C   UNL     1      -3.441  10.738  -5.987  1.00  0.00     0.134 A 
ATOM     72  C   UNL     1      -4.856   9.600  -7.546  1.00  0.00     0.134 A 
ATOM     73  F   UNL     1      -3.162  11.172  -4.749  1.00  0.00    -0.206 F 
ATOM     74  C   UNL     1      -2.567  11.082  -7.019  1.00  0.00     0.040 A 
ATOM     75  C   UNL     1      -3.980   9.918  -8.585  1.00  0.00     0.040 A 
ATOM     76  F   UNL     1      -5.957   8.893  -7.841  1.00  0.00    -0.206 F 
ATOM     77  C   UNL     1      -2.834  10.666  -8.323  1.00  0.00     0.006 A 
ENDBRANCH  49  70
BRANCH  61  78
ATOM     78  C   UNL     1      -8.996  13.859  -2.453  1.00  0.00     0.057 A 
ATOM     79  C   UNL     1      -9.777  14.458  -3.448  1.00  0.00     0.134 A 
ATOM     80  C   UNL     1      -8.546  14.671  -1.404  1.00  0.00     0.134 A 
ATOM     81  F   UNL     1     -10.229  13.737  -4.485  1.00  0.00    -0.206 F 
ATOM     82  C   UNL     1     -10.089  15.819  -3.408  1.00  0.00     0.040 A 
ATOM     83  C   UNL     1      -8.868  16.027  -1.342  1.00  0.00     0.040 A 
ATOM     84  F   UNL     1      -7.800  14.155  -0.415  1.00  0.00    -0.206 F 
ATOM     85  C   UNL     1      -9.639  16.606  -2.348  1.00  0.00     0.006 A 
ENDBRANCH  61  78
ENDBRANCH  35  36
ENDBRANCH  28  30
ENDBRANCH  27  28
ENDBRANCH  26  27
ENDBRANCH  25  26
ENDBRANCH  24  25
ENDBRANCH  23  24
ENDBRANCH   1  23
TORSDOF 19
