REMARK SMILES Cc1ccc(-c2cnnc(-n3nc(C)c4c3NC(=O)C[C@@H]4c3ccc(C(=O)OCCOCCOCCOC(=O)c4ccc(-c5c6nc(c(-c7c(F)cccc7F)c7ccc([nH]7)c(-c7c(F)cccc7F)c7nc(c(-c8c(F)cccc8F)c8ccc5[nH]8)C=C7)C=C6)cc4)cc3)n2)cc1
REMARK SMILES IDX 32 1 31 2 30 3 29 4 28 5 26 6 27 7 25 8 22 9 23 10 95 11
REMARK SMILES IDX 24 12 94 13 21 14 11 15 12 16 16 17 13 18 15 19 17 20 14 21
REMARK SMILES IDX 18 22 20 24 19 25 10 26 6 27 7 28 96 29 8 30 9 31 5 32 1 33
REMARK SMILES IDX 2 34 3 35 98 36 4 37 97 38 33 39 34 40 35 41 36 42 37 43
REMARK SMILES IDX 38 44 39 45 40 46 41 47 93 48 42 49 92 50 43 51 44 52 45 53
REMARK SMILES IDX 86 54 46 55 91 56 85 57 87 58 47 59 90 60 84 61 83 62 48 64
REMARK SMILES IDX 74 65 57 66 73 67 58 68 61 69 72 70 88 71 59 72 60 73 71 75
REMARK SMILES IDX 89 76 62 77 49 78 50 79 55 80 51 81 52 82 54 83 56 84 53 85
REMARK SMILES IDX 75 86 76 87 81 88 77 89 78 90 80 91 82 92 79 93 63 94 64 95
REMARK SMILES IDX 69 96 65 97 66 98 68 99 70 100 67 101
REMARK H PARENT 17 23 87 63 61 74
REMARK Flexibility Score: inf
ROOT
ATOM      1  C   UNL     1     -11.827   7.609 -10.205  1.00  0.00     0.188 C 
ENDROOT
BRANCH   1   2
ATOM      2  O   UNL     1     -13.043   7.569  -9.445  1.00  0.00    -0.376 OA
BRANCH   2   3
ATOM      3  C   UNL     1     -13.137   8.088  -8.100  1.00  0.00     0.202 C 
BRANCH   3   4
ATOM      4  C   UNL     1     -13.320   7.093  -6.840  1.00  0.00     0.261 C 
BRANCH   4   5
ATOM      5  O   UNL     1     -12.200   6.707  -5.856  1.00  0.00    -0.460 OA
BRANCH   5   6
ATOM      6  C   UNL     1     -11.122   6.182  -6.507  1.00  0.00     0.338 C 
ATOM      7  O   UNL     1     -11.182   6.510  -7.681  1.00  0.00    -0.246 OA
BRANCH   6   8
ATOM      8  C   UNL     1      -9.945   4.946  -5.948  1.00  0.00     0.060 A 
ATOM      9  C   UNL     1      -7.826   2.913  -5.633  1.00  0.00    -0.040 A 
ATOM     10  C   UNL     1      -8.850   2.633  -6.458  1.00  0.00     0.005 A 
ATOM     11  C   UNL     1      -7.795   4.231  -5.049  1.00  0.00     0.005 A 
ATOM     12  C   UNL     1      -9.821   3.600  -6.557  1.00  0.00     0.016 A 
ATOM     13  C   UNL     1      -8.844   5.218  -5.170  1.00  0.00     0.016 A 
BRANCH   9  14
ATOM     14  C   UNL     1      -7.036   1.667  -5.292  1.00  0.00     0.064 C 
ATOM     15  N   UNL     1      -5.642   2.232  -2.063  1.00  0.00    -0.180 N 
ATOM     16  N   UNL     1      -6.925   2.600  -1.765  1.00  0.00    -0.168 NA
ATOM     17  C   UNL     1      -5.481   2.214  -3.439  1.00  0.00     0.143 A 
ATOM     18  C   UNL     1      -7.621   2.117  -2.795  1.00  0.00     0.066 A 
ATOM     19  C   UNL     1      -6.735   1.877  -3.882  1.00  0.00     0.026 A 
ATOM     20  N   UNL     1      -4.465   2.493  -4.345  1.00  0.00    -0.310 N 
ATOM     21  C   UNL     1      -9.107   2.148  -2.761  1.00  0.00     0.069 C 
ATOM     22  C   UNL     1      -4.705   2.290  -5.753  1.00  0.00     0.226 C 
ATOM     23  H   UNL     1      -3.593   2.825  -4.030  1.00  0.00     0.171 HD
ATOM     24  C   UNL     1      -5.816   1.365  -6.140  1.00  0.00     0.113 C 
ATOM     25  O   UNL     1      -3.916   2.804  -6.543  1.00  0.00    -0.275 OA
BRANCH  15  26
ATOM     26  C   UNL     1      -4.960   1.391  -1.153  1.00  0.00     0.272 A 
ATOM     27  C   UNL     1      -3.156   0.244  -0.436  1.00  0.00     0.095 A 
ATOM     28  C   UNL     1      -3.963  -0.449   0.451  1.00  0.00     0.164 A 
ATOM     29  N   UNL     1      -3.653   1.144  -1.319  1.00  0.00    -0.208 NA
ATOM     30  N   UNL     1      -5.277  -0.208   0.528  1.00  0.00    -0.153 NA
ATOM     31  N   UNL     1      -5.767   0.759  -0.255  1.00  0.00    -0.109 NA
BRANCH  27  32
ATOM     32  C   UNL     1      -1.702   0.146  -0.369  1.00  0.00     0.002 A 
ATOM     33  C   UNL     1       2.581  -0.055   0.081  1.00  0.00     0.044 C 
ATOM     34  C   UNL     1       1.093   0.024  -0.068  1.00  0.00    -0.051 A 
ATOM     35  C   UNL     1       0.335  -1.151  -0.129  1.00  0.00     0.004 A 
ATOM     36  C   UNL     1       0.451   1.260  -0.160  1.00  0.00     0.004 A 
ATOM     37  C   UNL     1      -1.050  -1.091  -0.279  1.00  0.00     0.011 A 
ATOM     38  C   UNL     1      -0.932   1.319  -0.313  1.00  0.00     0.011 A 
ENDBRANCH  27  32
ENDBRANCH  15  26
ENDBRANCH   9  14
ENDBRANCH   6   8
ENDBRANCH   5   6
ENDBRANCH   4   5
ENDBRANCH   3   4
ENDBRANCH   2   3
ENDBRANCH   1   2
BRANCH   1  39
ATOM     39  C   UNL     1     -10.778   8.710 -10.056  1.00  0.00     0.188 C 
BRANCH  39  40
ATOM     40  O   UNL     1     -10.330   8.816  -8.714  1.00  0.00    -0.376 OA
BRANCH  40  41
ATOM     41  C   UNL     1      -9.640  10.016  -8.413  1.00  0.00     0.202 C 
BRANCH  41  42
ATOM     42  C   UNL     1      -8.281  10.126  -9.128  1.00  0.00     0.261 C 
BRANCH  42  43
ATOM     43  O   UNL     1      -7.484   8.939  -8.882  1.00  0.00    -0.460 OA
BRANCH  43  44
ATOM     44  C   UNL     1      -7.136   8.115  -9.931  1.00  0.00     0.338 C 
ATOM     45  O   UNL     1      -6.939   8.475 -11.077  1.00  0.00    -0.246 OA
BRANCH  44  46
ATOM     46  C   UNL     1      -7.299   6.666  -9.510  1.00  0.00     0.060 A 
ATOM     47  C   UNL     1      -7.720   5.635 -10.371  1.00  0.00     0.016 A 
ATOM     48  C   UNL     1      -7.661   6.508  -8.229  1.00  0.00     0.016 A 
ATOM     49  C   UNL     1      -8.833   4.742 -10.037  1.00  0.00     0.010 A 
ATOM     50  C   UNL     1      -8.913   5.910  -8.127  1.00  0.00     0.010 A 
ATOM     51  C   UNL     1      -9.651   4.959  -8.933  1.00  0.00    -0.014 A 
BRANCH  51  52
ATOM     52  C   UNL     1     -11.315   4.373  -8.762  1.00  0.00     0.031 A 
ATOM     53  C   UNL     1     -12.374   3.814  -7.415  1.00  0.00     0.074 A 
ATOM     54  C   UNL     1     -12.043   4.331  -9.897  1.00  0.00     0.049 A 
ATOM     55  N   UNL     1     -13.297   2.868  -7.544  1.00  0.00    -0.248 NA
ATOM     56  C   UNL     1     -12.295   3.974  -5.879  1.00  0.00     0.031 C 
ATOM     57  C   UNL     1     -13.496   4.269  -9.995  1.00  0.00     0.029 A 
ATOM     58  N   UNL     1     -11.612   4.298 -11.220  1.00  0.00    -0.354 N 
ATOM     59  C   UNL     1     -13.864   2.687  -6.262  1.00  0.00     0.074 A 
ATOM     60  C   UNL     1     -12.839   2.894  -5.348  1.00  0.00     0.031 C 
ATOM     61  C   UNL     1     -13.834   3.946 -11.249  1.00  0.00     0.029 A 
ATOM     62  C   UNL     1     -12.612   3.623 -11.948  1.00  0.00     0.049 A 
ATOM     63  H   UNL     1     -10.774   4.672 -11.576  1.00  0.00     0.167 HD
ATOM     64  C   UNL     1     -15.194   2.788  -5.970  1.00  0.00     0.037 A 
ATOM     65  C   UNL     1     -12.316   2.441 -12.559  1.00  0.00     0.037 A 
ATOM     66  C   UNL     1     -15.907   2.483  -7.171  1.00  0.00     0.049 A 
ATOM     67  C   UNL     1     -13.096   1.266 -11.986  1.00  0.00     0.074 A 
ATOM     68  C   UNL     1     -16.596   3.153  -8.152  1.00  0.00     0.029 A 
ATOM     69  N   UNL     1     -15.608   1.250  -7.676  1.00  0.00    -0.354 N 
ATOM     70  N   UNL     1     -14.073   1.376 -11.122  1.00  0.00    -0.248 NA
ATOM     71  C   UNL     1     -12.800  -0.135 -12.285  1.00  0.00     0.031 C 
ATOM     72  C   UNL     1     -16.544   2.314  -9.323  1.00  0.00     0.029 A 
ATOM     73  C   UNL     1     -15.879   1.136  -9.006  1.00  0.00     0.049 A 
ATOM     74  H   UNL     1     -15.235   0.518  -7.135  1.00  0.00     0.167 HD
ATOM     75  C   UNL     1     -14.440   0.137 -10.664  1.00  0.00     0.074 A 
ATOM     76  C   UNL     1     -13.628  -0.780 -11.444  1.00  0.00     0.031 C 
ATOM     77  C   UNL     1     -15.329  -0.055  -9.641  1.00  0.00     0.037 A 
BRANCH  64  78
ATOM     78  C   UNL     1     -15.836   3.177  -4.623  1.00  0.00     0.057 A 
ATOM     79  C   UNL     1     -17.235   3.081  -4.494  1.00  0.00     0.134 A 
ATOM     80  C   UNL     1     -15.215   3.733  -3.468  1.00  0.00     0.134 A 
ATOM     81  F   UNL     1     -17.985   2.578  -5.484  1.00  0.00    -0.206 F 
ATOM     82  C   UNL     1     -17.945   3.506  -3.355  1.00  0.00     0.040 A 
ATOM     83  C   UNL     1     -15.911   4.112  -2.303  1.00  0.00     0.040 A 
ATOM     84  F   UNL     1     -13.908   4.008  -3.390  1.00  0.00    -0.206 F 
ATOM     85  C   UNL     1     -17.286   4.018  -2.248  1.00  0.00     0.006 A 
ENDBRANCH  64  78
BRANCH  65  86
ATOM     86  C   UNL     1     -10.926   2.489 -13.124  1.00  0.00     0.057 A 
ATOM     87  C   UNL     1     -10.661   3.543 -14.034  1.00  0.00     0.134 A 
ATOM     88  C   UNL     1      -9.818   1.938 -12.473  1.00  0.00     0.134 A 
ATOM     89  F   UNL     1     -11.674   4.126 -14.697  1.00  0.00    -0.206 F 
ATOM     90  C   UNL     1      -9.406   4.149 -14.130  1.00  0.00     0.040 A 
ATOM     91  C   UNL     1      -8.534   2.493 -12.625  1.00  0.00     0.040 A 
ATOM     92  F   UNL     1      -9.972   0.974 -11.554  1.00  0.00    -0.206 F 
ATOM     93  C   UNL     1      -8.341   3.639 -13.402  1.00  0.00     0.006 A 
ENDBRANCH  65  86
BRANCH  77  94
ATOM     94  C   UNL     1     -15.659  -1.427  -9.070  1.00  0.00     0.057 A 
ATOM     95  C   UNL     1     -16.024  -2.483  -9.907  1.00  0.00     0.134 A 
ATOM     96  C   UNL     1     -15.739  -1.719  -7.682  1.00  0.00     0.134 A 
ATOM     97  F   UNL     1     -16.041  -2.326 -11.238  1.00  0.00    -0.206 F 
ATOM     98  C   UNL     1     -16.397  -3.740  -9.409  1.00  0.00     0.040 A 
ATOM     99  C   UNL     1     -16.185  -2.939  -7.173  1.00  0.00     0.040 A 
ATOM    100  F   UNL     1     -15.345  -0.856  -6.735  1.00  0.00    -0.206 F 
ATOM    101  C   UNL     1     -16.497  -3.967  -8.040  1.00  0.00     0.006 A 
ENDBRANCH  77  94
ENDBRANCH  51  52
ENDBRANCH  44  46
ENDBRANCH  43  44
ENDBRANCH  42  43
ENDBRANCH  41  42
ENDBRANCH  40  41
ENDBRANCH  39  40
ENDBRANCH   1  39
TORSDOF 20
