REMARK SMILES Cc1n[nH]c(SCC[C@@H]2CCC[C@]2([NH2+]C(C)C)C(=O)OCCOCCOCCOC(=O)c2ccc(-c3c4nc(c(-c5c(F)cccc5F)c5ccc([nH]5)c(-c5c(F)cccc5F)c5nc(c(-c6c(F)cccc6F)c6ccc3[nH]6)C=C5)C=C4)cc2)n1
REMARK SMILES IDX 24 1 23 2 22 3 21 4 20 5 18 6 19 7 13 8 9 9 10 10 11 11
REMARK SMILES IDX 12 12 8 13 7 14 6 15 5 16 1 17 2 18 3 19 86 20 4 21 14 23
REMARK SMILES IDX 15 26 16 27 17 28 25 29 26 30 27 31 28 32 29 33 30 34 31 35
REMARK SMILES IDX 32 36 33 37 85 38 34 39 84 40 35 41 36 42 37 43 78 44 38 45
REMARK SMILES IDX 83 46 77 47 79 48 39 49 82 50 76 51 75 52 40 54 66 55 49 56
REMARK SMILES IDX 65 57 50 58 53 59 64 60 80 61 51 62 52 63 63 65 81 66 54 67
REMARK SMILES IDX 41 68 42 69 47 70 43 71 44 72 46 73 48 74 45 75 67 76 68 77
REMARK SMILES IDX 73 78 69 79 70 80 72 81 74 82 71 83 55 84 56 85 61 86 57 87
REMARK SMILES IDX 58 88 60 89 62 90 59 91
REMARK H PARENT 4 22 14 24 14 25 79 53 53 64
REMARK Flexibility Score: inf
ROOT
ATOM      1  C   UNL     1       1.534  -1.514  -9.242  1.00  0.00     0.188 C 
ENDROOT
BRANCH   1   2
ATOM      2  O   UNL     1       0.397  -2.255  -9.674  1.00  0.00    -0.376 OA
BRANCH   2   3
ATOM      3  C   UNL     1      -0.670  -1.544 -10.271  1.00  0.00     0.202 C 
BRANCH   3   4
ATOM      4  C   UNL     1      -1.771  -1.122  -9.283  1.00  0.00     0.261 C 
BRANCH   4   5
ATOM      5  O   UNL     1      -1.345  -0.738  -7.958  1.00  0.00    -0.459 OA
BRANCH   5   6
ATOM      6  C   UNL     1      -1.029  -1.758  -7.112  1.00  0.00     0.368 C 
ATOM      7  O   UNL     1      -1.056  -2.939  -7.447  1.00  0.00    -0.245 OA
BRANCH   6   8
ATOM      8  C   UNL     1      -0.869  -1.307  -5.616  1.00  0.00     0.197 C 
ATOM      9  C   UNL     1       0.058  -0.105  -5.250  1.00  0.00     0.063 C 
ATOM     10  C   UNL     1       1.481  -0.649  -5.359  1.00  0.00     0.011 C 
ATOM     11  C   UNL     1       1.379  -2.096  -4.904  1.00  0.00     0.008 C 
ATOM     12  C   UNL     1      -0.114  -2.438  -4.854  1.00  0.00     0.081 C 
BRANCH   9  13
ATOM     13  C   UNL     1      -0.119   1.275  -5.905  1.00  0.00     0.022 C 
BRANCH  13  14
ATOM     14  C   UNL     1      -1.029   2.256  -5.156  1.00  0.00     0.079 C 
BRANCH  14  15
ATOM     15  S   UNL     1      -0.219   3.140  -3.783  1.00  0.00    -0.087 SA
BRANCH  15  16
ATOM     16  C   UNL     1      -0.195   1.990  -2.507  1.00  0.00     0.183 A 
ATOM     17  C   UNL     1       1.107   0.102   0.162  1.00  0.00     0.092 C 
ATOM     18  C   UNL     1       0.311   0.715  -0.921  1.00  0.00     0.148 A 
ATOM     19  N   UNL     1      -0.947   0.344  -1.201  1.00  0.00    -0.158 NA
ATOM     20  N   UNL     1       0.808   1.722  -1.709  1.00  0.00    -0.206 NA
ATOM     21  N   UNL     1      -1.260   1.208  -2.185  1.00  0.00    -0.254 N 
ATOM     22  H   UNL     1      -2.144   1.267  -2.614  1.00  0.00     0.192 HD
ENDBRANCH  15  16
ENDBRANCH  14  15
ENDBRANCH  13  14
ENDBRANCH   9  13
BRANCH   8  23
ATOM     23  N   UNL     1      -2.211  -1.024  -5.020  1.00  0.00    -0.330 N 
ATOM     24  H   UNL     1      -2.462  -0.067  -5.268  1.00  0.00     0.347 HD
ATOM     25  H   UNL     1      -2.099  -1.190  -4.020  1.00  0.00     0.347 HD
BRANCH  23  26
ATOM     26  C   UNL     1      -3.321  -1.899  -5.436  1.00  0.00     0.176 C 
ATOM     27  C   UNL     1      -3.224  -3.319  -4.879  1.00  0.00     0.075 C 
ATOM     28  C   UNL     1      -4.611  -1.240  -4.944  1.00  0.00     0.075 C 
ENDBRANCH  23  26
ENDBRANCH   8  23
ENDBRANCH   6   8
ENDBRANCH   5   6
ENDBRANCH   4   5
ENDBRANCH   3   4
ENDBRANCH   2   3
ENDBRANCH   1   2
BRANCH   1  29
ATOM     29  C   UNL     1       1.405  -0.009  -8.981  1.00  0.00     0.188 C 
BRANCH  29  30
ATOM     30  O   UNL     1       1.223   0.732 -10.188  1.00  0.00    -0.376 OA
BRANCH  30  31
ATOM     31  C   UNL     1       1.989   1.933 -10.247  1.00  0.00     0.202 C 
BRANCH  31  32
ATOM     32  C   UNL     1       3.280   1.672 -11.014  1.00  0.00     0.261 C 
BRANCH  32  33
ATOM     33  O   UNL     1       3.980   0.529 -10.522  1.00  0.00    -0.460 OA
BRANCH  33  34
ATOM     34  C   UNL     1       4.470   0.602  -9.267  1.00  0.00     0.338 C 
ATOM     35  O   UNL     1       4.410   1.550  -8.509  1.00  0.00    -0.246 OA
BRANCH  34  36
ATOM     36  C   UNL     1       5.155  -0.672  -8.980  1.00  0.00     0.060 A 
ATOM     37  C   UNL     1       5.963  -0.705  -7.845  1.00  0.00     0.016 A 
ATOM     38  C   UNL     1       5.210  -1.680  -9.958  1.00  0.00     0.016 A 
ATOM     39  C   UNL     1       7.038  -1.566  -7.847  1.00  0.00     0.010 A 
ATOM     40  C   UNL     1       6.280  -2.541  -9.960  1.00  0.00     0.010 A 
ATOM     41  C   UNL     1       7.246  -2.366  -8.975  1.00  0.00    -0.014 A 
BRANCH  41  42
ATOM     42  C   UNL     1       8.600  -2.812  -9.222  1.00  0.00     0.031 A 
ATOM     43  C   UNL     1       9.029  -4.042  -8.539  1.00  0.00     0.074 A 
ATOM     44  C   UNL     1       9.387  -2.156 -10.097  1.00  0.00     0.049 A 
ATOM     45  N   UNL     1       9.997  -4.178  -7.697  1.00  0.00    -0.248 NA
ATOM     46  C   UNL     1       8.249  -5.261  -8.784  1.00  0.00     0.031 C 
ATOM     47  C   UNL     1       8.999  -1.122 -11.064  1.00  0.00     0.029 A 
ATOM     48  N   UNL     1      10.698  -2.371 -10.383  1.00  0.00    -0.354 N 
ATOM     49  C   UNL     1      10.062  -5.536  -7.421  1.00  0.00     0.074 A 
ATOM     50  C   UNL     1       8.898  -6.140  -8.021  1.00  0.00     0.031 C 
ATOM     51  C   UNL     1       9.991  -0.973 -11.969  1.00  0.00     0.029 A 
ATOM     52  C   UNL     1      11.114  -1.810 -11.579  1.00  0.00     0.049 A 
ATOM     53  H   UNL     1      11.299  -2.880  -9.792  1.00  0.00     0.167 HD
ATOM     54  C   UNL     1      11.174  -6.106  -6.888  1.00  0.00     0.037 A 
ATOM     55  C   UNL     1      12.258  -2.101 -12.242  1.00  0.00     0.037 A 
ATOM     56  C   UNL     1      12.047  -5.142  -6.277  1.00  0.00     0.049 A 
ATOM     57  C   UNL     1      13.192  -2.742 -11.280  1.00  0.00     0.074 A 
ATOM     58  C   UNL     1      11.898  -4.205  -5.271  1.00  0.00     0.029 A 
ATOM     59  N   UNL     1      13.214  -4.809  -6.919  1.00  0.00    -0.354 N 
ATOM     60  N   UNL     1      13.795  -2.120 -10.306  1.00  0.00    -0.248 NA
ATOM     61  C   UNL     1      13.142  -4.193 -11.153  1.00  0.00     0.031 C 
ATOM     62  C   UNL     1      12.705  -3.100  -5.666  1.00  0.00     0.029 A 
ATOM     63  C   UNL     1      13.309  -3.440  -6.876  1.00  0.00     0.049 A 
ATOM     64  H   UNL     1      13.857  -5.430  -7.331  1.00  0.00     0.167 HD
ATOM     65  C   UNL     1      13.824  -3.035  -9.263  1.00  0.00     0.074 A 
ATOM     66  C   UNL     1      13.508  -4.321  -9.876  1.00  0.00     0.031 C 
ATOM     67  C   UNL     1      13.818  -2.632  -7.959  1.00  0.00     0.037 A 
BRANCH  54  68
ATOM     68  C   UNL     1      11.597  -7.510  -7.194  1.00  0.00     0.057 A 
ATOM     69  C   UNL     1      12.532  -8.155  -6.372  1.00  0.00     0.134 A 
ATOM     70  C   UNL     1      11.307  -8.154  -8.415  1.00  0.00     0.134 A 
ATOM     71  F   UNL     1      12.916  -7.610  -5.208  1.00  0.00    -0.206 F 
ATOM     72  C   UNL     1      13.158  -9.348  -6.753  1.00  0.00     0.040 A 
ATOM     73  C   UNL     1      11.884  -9.370  -8.780  1.00  0.00     0.040 A 
ATOM     74  F   UNL     1      10.529  -7.588  -9.348  1.00  0.00    -0.206 F 
ATOM     75  C   UNL     1      12.832  -9.960  -7.958  1.00  0.00     0.006 A 
ENDBRANCH  54  68
BRANCH  55  76
ATOM     76  C   UNL     1      12.483  -2.117 -13.706  1.00  0.00     0.057 A 
ATOM     77  C   UNL     1      13.779  -2.161 -14.236  1.00  0.00     0.134 A 
ATOM     78  C   UNL     1      11.437  -2.335 -14.621  1.00  0.00     0.134 A 
ATOM     79  F   UNL     1      14.848  -2.015 -13.439  1.00  0.00    -0.206 F 
ATOM     80  C   UNL     1      14.021  -2.418 -15.592  1.00  0.00     0.040 A 
ATOM     81  C   UNL     1      11.663  -2.574 -15.980  1.00  0.00     0.040 A 
ATOM     82  F   UNL     1      10.161  -2.411 -14.220  1.00  0.00    -0.206 F 
ATOM     83  C   UNL     1      12.961  -2.630 -16.468  1.00  0.00     0.006 A 
ENDBRANCH  55  76
BRANCH  67  84
ATOM     84  C   UNL     1      14.064  -1.180  -7.665  1.00  0.00     0.057 A 
ATOM     85  C   UNL     1      13.227  -0.145  -8.106  1.00  0.00     0.134 A 
ATOM     86  C   UNL     1      15.094  -0.830  -6.784  1.00  0.00     0.134 A 
ATOM     87  F   UNL     1      12.148  -0.398  -8.859  1.00  0.00    -0.206 F 
ATOM     88  C   UNL     1      13.441   1.185  -7.732  1.00  0.00     0.040 A 
ATOM     89  C   UNL     1      15.297   0.491  -6.375  1.00  0.00     0.040 A 
ATOM     90  F   UNL     1      15.895  -1.776  -6.268  1.00  0.00    -0.206 F 
ATOM     91  C   UNL     1      14.477   1.506  -6.861  1.00  0.00     0.006 A 
ENDBRANCH  67  84
ENDBRANCH  41  42
ENDBRANCH  34  36
ENDBRANCH  33  34
ENDBRANCH  32  33
ENDBRANCH  31  32
ENDBRANCH  30  31
ENDBRANCH  29  30
ENDBRANCH   1  29
TORSDOF 23
