REMARK SMILES CCCc1cc2c(cc1Cl)C=C(C(=O)OCCOCCOCCOC(=O)c1ccc(-c3c4nc(c(-c5c(F)cccc5F)c5ccc([nH]5)c(-c5c(F)cccc5F)c5nc(c(-c6c(F)cccc6F)c6ccc3[nH]6)C=C5)C=C4)cc1)[C@H](C(F)(F)F)O2
REMARK SMILES IDX 19 1 18 2 17 3 16 4 15 5 13 6 14 7 12 8 4 9 5 10 9 11 6 12
REMARK SMILES IDX 8 13 10 14 7 15 86 16 11 17 81 18 3 19 2 20 1 21 82 22 83 23
REMARK SMILES IDX 84 24 85 25 20 26 21 27 22 28 23 29 24 30 25 31 26 32 27 33
REMARK SMILES IDX 28 34 80 35 29 36 79 37 30 38 31 39 32 40 73 41 33 42 78 43
REMARK SMILES IDX 72 44 74 45 34 46 77 47 71 48 70 49 35 51 61 52 44 53 60 54
REMARK SMILES IDX 45 55 48 56 59 57 75 58 46 59 47 60 58 62 76 63 49 64 36 65
REMARK SMILES IDX 37 66 42 67 38 68 39 69 41 70 43 71 40 72 62 73 63 74 68 75
REMARK SMILES IDX 64 76 65 77 67 78 69 79 66 80 50 81 51 82 56 83 52 84 53 85
REMARK SMILES IDX 55 86 57 87 54 88
REMARK H PARENT 74 50 48 61
REMARK Flexibility Score: inf
ROOT
ATOM      1  C   UNL     1      -2.341   8.816   2.921  1.00  0.00     0.188 C 
ENDROOT
BRANCH   1   2
ATOM      2  O   UNL     1      -2.728   9.915   2.103  1.00  0.00    -0.376 OA
BRANCH   2   3
ATOM      3  C   UNL     1      -3.892   9.832   1.292  1.00  0.00     0.202 C 
BRANCH   3   4
ATOM      4  C   UNL     1      -3.886   8.794   0.165  1.00  0.00     0.261 C 
BRANCH   4   5
ATOM      5  O   UNL     1      -3.649   7.446   0.611  1.00  0.00    -0.460 OA
BRANCH   5   6
ATOM      6  C   UNL     1      -2.558   6.843   0.094  1.00  0.00     0.338 C 
ATOM      7  O   UNL     1      -1.819   7.291  -0.769  1.00  0.00    -0.246 OA
BRANCH   6   8
ATOM      8  C   UNL     1      -2.269   5.581   0.798  1.00  0.00     0.087 C 
ATOM      9  C   UNL     1       0.373   1.572   2.295  1.00  0.00    -0.026 A 
ATOM     10  C   UNL     1      -0.930   1.779   1.804  1.00  0.00     0.052 A 
ATOM     11  C   UNL     1       1.148   2.704   2.599  1.00  0.00     0.045 A 
ATOM     12  C   UNL     1      -1.395   3.060   1.509  1.00  0.00     0.128 A 
ATOM     13  C   UNL     1       0.669   3.993   2.331  1.00  0.00     0.032 A 
ATOM     14  Cl  UNL     1       2.735   2.586   3.274  1.00  0.00    -0.084 Cl
ATOM     15  C   UNL     1      -0.592   4.170   1.756  1.00  0.00     0.019 A 
ATOM     16  O   UNL     1      -2.605   3.129   0.877  1.00  0.00    -0.475 OA
ATOM     17  C   UNL     1      -1.024   5.475   1.285  1.00  0.00     0.027 C 
ATOM     18  C   UNL     1      -3.244   4.433   0.767  1.00  0.00     0.316 C 
BRANCH   9  19
ATOM     19  C   UNL     1       0.891   0.155   2.449  1.00  0.00     0.037 C 
BRANCH  19  20
ATOM     20  C   UNL     1       0.573  -0.787   1.275  1.00  0.00     0.001 C 
ATOM     21  C   UNL     1       1.107  -0.293  -0.065  1.00  0.00     0.004 C 
ENDBRANCH  19  20
ENDBRANCH   9  19
BRANCH  18  22
ATOM     22  C   UNL     1      -4.376   4.503   1.806  1.00  0.00     0.430 C 
ATOM     23  F   UNL     1      -5.064   3.334   1.856  1.00  0.00    -0.167 F 
ATOM     24  F   UNL     1      -3.916   4.743   3.055  1.00  0.00    -0.167 F 
ATOM     25  F   UNL     1      -5.278   5.463   1.501  1.00  0.00    -0.167 F 
ENDBRANCH  18  22
ENDBRANCH   6   8
ENDBRANCH   5   6
ENDBRANCH   4   5
ENDBRANCH   3   4
ENDBRANCH   2   3
ENDBRANCH   1   2
BRANCH   1  26
ATOM     26  C   UNL     1      -3.391   7.853   3.503  1.00  0.00     0.188 C 
BRANCH  26  27
ATOM     27  O   UNL     1      -4.702   8.385   3.535  1.00  0.00    -0.376 OA
BRANCH  27  28
ATOM     28  C   UNL     1      -5.345   8.391   4.799  1.00  0.00     0.202 C 
BRANCH  28  29
ATOM     29  C   UNL     1      -4.862   9.527   5.706  1.00  0.00     0.261 C 
BRANCH  29  30
ATOM     30  O   UNL     1      -3.447   9.528   5.961  1.00  0.00    -0.460 OA
BRANCH  30  31
ATOM     31  C   UNL     1      -2.952   8.521   6.714  1.00  0.00     0.338 C 
ATOM     32  O   UNL     1      -3.572   7.606   7.225  1.00  0.00    -0.246 OA
BRANCH  31  33
ATOM     33  C   UNL     1      -1.476   8.613   6.637  1.00  0.00     0.060 A 
ATOM     34  C   UNL     1      -0.835   9.822   6.914  1.00  0.00     0.016 A 
ATOM     35  C   UNL     1      -0.735   7.494   6.234  1.00  0.00     0.016 A 
ATOM     36  C   UNL     1       0.552   9.909   6.801  1.00  0.00     0.010 A 
ATOM     37  C   UNL     1       0.655   7.585   6.115  1.00  0.00     0.010 A 
ATOM     38  C   UNL     1       1.310   8.790   6.413  1.00  0.00    -0.014 A 
BRANCH  38  39
ATOM     39  C   UNL     1       2.789   8.859   6.490  1.00  0.00     0.031 A 
ATOM     40  C   UNL     1       3.642   9.088   5.279  1.00  0.00     0.074 A 
ATOM     41  C   UNL     1       3.359   8.738   7.703  1.00  0.00     0.049 A 
ATOM     42  N   UNL     1       4.933   9.302   5.215  1.00  0.00    -0.248 NA
ATOM     43  C   UNL     1       2.967   9.067   3.975  1.00  0.00     0.031 C 
ATOM     44  C   UNL     1       2.632   8.483   8.949  1.00  0.00     0.029 A 
ATOM     45  N   UNL     1       4.670   8.826   8.092  1.00  0.00    -0.354 N 
ATOM     46  C   UNL     1       5.226   9.469   3.869  1.00  0.00     0.074 A 
ATOM     47  C   UNL     1       3.983   9.280   3.146  1.00  0.00     0.031 C 
ATOM     48  C   UNL     1       3.504   8.462   9.967  1.00  0.00     0.029 A 
ATOM     49  C   UNL     1       4.849   8.684   9.446  1.00  0.00     0.049 A 
ATOM     50  H   UNL     1       5.411   8.976   7.462  1.00  0.00     0.167 HD
ATOM     51  C   UNL     1       6.418   9.769   3.295  1.00  0.00     0.037 A 
ATOM     52  C   UNL     1       5.970   8.737  10.186  1.00  0.00     0.037 A 
ATOM     53  C   UNL     1       7.657   9.933   4.019  1.00  0.00     0.049 A 
ATOM     54  C   UNL     1       7.283   9.022   9.515  1.00  0.00     0.074 A 
ATOM     55  C   UNL     1       8.904  10.284   3.528  1.00  0.00     0.029 A 
ATOM     56  N   UNL     1       7.810   9.738   5.384  1.00  0.00    -0.354 N 
ATOM     57  N   UNL     1       7.530   9.278   8.254  1.00  0.00    -0.248 NA
ATOM     58  C   UNL     1       8.473   9.036  10.377  1.00  0.00     0.031 C 
ATOM     59  C   UNL     1       9.821  10.251   4.586  1.00  0.00     0.029 A 
ATOM     60  C   UNL     1       9.136   9.928   5.746  1.00  0.00     0.049 A 
ATOM     61  H   UNL     1       7.085   9.500   6.005  1.00  0.00     0.167 HD
ATOM     62  C   UNL     1       8.896   9.509   8.175  1.00  0.00     0.074 A 
ATOM     63  C   UNL     1       9.420   9.385   9.519  1.00  0.00     0.031 C 
ATOM     64  C   UNL     1       9.650   9.797   7.086  1.00  0.00     0.037 A 
BRANCH  51  65
ATOM     65  C   UNL     1       6.448   9.947   1.804  1.00  0.00     0.057 A 
ATOM     66  C   UNL     1       7.111   9.026   0.982  1.00  0.00     0.134 A 
ATOM     67  C   UNL     1       5.879  11.068   1.188  1.00  0.00     0.134 A 
ATOM     68  F   UNL     1       7.691   7.937   1.508  1.00  0.00    -0.206 F 
ATOM     69  C   UNL     1       7.208   9.217  -0.398  1.00  0.00     0.040 A 
ATOM     70  C   UNL     1       5.949  11.258  -0.194  1.00  0.00     0.040 A 
ATOM     71  F   UNL     1       5.229  11.988   1.917  1.00  0.00    -0.206 F 
ATOM     72  C   UNL     1       6.622  10.333  -0.991  1.00  0.00     0.006 A 
ENDBRANCH  51  65
BRANCH  52  73
ATOM     73  C   UNL     1       5.903   8.538  11.655  1.00  0.00     0.057 A 
ATOM     74  C   UNL     1       5.611   7.286  12.207  1.00  0.00     0.134 A 
ATOM     75  C   UNL     1       6.162   9.591  12.539  1.00  0.00     0.134 A 
ATOM     76  F   UNL     1       5.345   6.239  11.411  1.00  0.00    -0.206 F 
ATOM     77  C   UNL     1       5.582   7.086  13.587  1.00  0.00     0.040 A 
ATOM     78  C   UNL     1       6.163   9.400  13.921  1.00  0.00     0.040 A 
ATOM     79  F   UNL     1       6.463  10.810  12.067  1.00  0.00    -0.206 F 
ATOM     80  C   UNL     1       5.870   8.143  14.448  1.00  0.00     0.006 A 
ENDBRANCH  52  73
BRANCH  64  81
ATOM     81  C   UNL     1      11.117  10.020   7.316  1.00  0.00     0.057 A 
ATOM     82  C   UNL     1      11.673  11.301   7.203  1.00  0.00     0.134 A 
ATOM     83  C   UNL     1      11.981   8.970   7.655  1.00  0.00     0.134 A 
ATOM     84  F   UNL     1      10.905  12.351   6.877  1.00  0.00    -0.206 F 
ATOM     85  C   UNL     1      13.033  11.530   7.423  1.00  0.00     0.040 A 
ATOM     86  C   UNL     1      13.337   9.191   7.905  1.00  0.00     0.040 A 
ATOM     87  F   UNL     1      11.510   7.722   7.798  1.00  0.00    -0.206 F 
ATOM     88  C   UNL     1      13.867  10.474   7.785  1.00  0.00     0.006 A 
ENDBRANCH  64  81
ENDBRANCH  38  39
ENDBRANCH  31  33
ENDBRANCH  30  31
ENDBRANCH  29  30
ENDBRANCH  28  29
ENDBRANCH  27  28
ENDBRANCH  26  27
ENDBRANCH   1  26
TORSDOF 20
