REMARK SMILES COC(=O)c1ccccc1-c1ccc(/C=C(\C#N)C(=O)OCCOCCOCCOC(=O)c2ccc(-c3c4nc(c(-c5c(F)cccc5F)c5ccc([nH]5)c(-c5c(F)cccc5F)c5nc(c(-c6c(F)cccc6F)c6ccc3[nH]6)C=C5)C=C4)cc2)o1
REMARK SMILES IDX 25 1 24 2 23 3 22 4 21 5 19 6 20 7 16 8 15 9 14 10 11 11
REMARK SMILES IDX 12 12 87 13 13 14 10 15 5 16 6 17 7 18 9 19 8 20 3 21 4 22
REMARK SMILES IDX 2 23 1 24 17 25 18 26 26 27 27 28 28 29 29 30 30 31 31 32
REMARK SMILES IDX 32 33 33 34 34 35 86 36 35 37 85 38 36 39 37 40 38 41 79 42
REMARK SMILES IDX 39 43 84 44 78 45 80 46 40 47 83 48 77 49 76 50 41 52 67 53
REMARK SMILES IDX 50 54 66 55 51 56 54 57 65 58 81 59 52 60 53 61 64 63 82 64
REMARK SMILES IDX 55 65 42 66 43 67 48 68 44 69 45 70 47 71 49 72 46 73 68 74
REMARK SMILES IDX 69 75 74 76 70 77 71 78 73 79 75 80 72 81 56 82 57 83 62 84
REMARK SMILES IDX 58 85 59 86 61 87 63 88 60 89
REMARK H PARENT 80 51 54 62
REMARK Flexibility Score: inf
ROOT
ATOM      1  C   UNL     1      -5.055  -3.181  -3.952  1.00  0.00     0.188 C 
ENDROOT
BRANCH   1   2
ATOM      2  O   UNL     1      -6.194  -3.594  -4.689  1.00  0.00    -0.376 OA
BRANCH   2   3
ATOM      3  C   UNL     1      -6.626  -2.890  -5.845  1.00  0.00     0.202 C 
BRANCH   3   4
ATOM      4  C   UNL     1      -6.780  -1.365  -5.820  1.00  0.00     0.261 C 
BRANCH   4   5
ATOM      5  O   UNL     1      -5.611  -0.681  -5.351  1.00  0.00    -0.459 OA
BRANCH   5   6
ATOM      6  C   UNL     1      -5.709  -0.184  -4.098  1.00  0.00     0.349 C 
ATOM      7  O   UNL     1      -6.726  -0.139  -3.420  1.00  0.00    -0.245 OA
BRANCH   6   8
ATOM      8  C   UNL     1      -4.366   0.178  -3.578  1.00  0.00     0.141 C 
ATOM      9  C   UNL     1      -4.270   0.158  -2.228  1.00  0.00     0.074 C 
BRANCH   9  10
ATOM     10  C   UNL     1      -3.385   0.983  -1.466  1.00  0.00     0.129 A 
ATOM     11  C   UNL     1      -1.906   2.584  -0.982  1.00  0.00     0.135 A 
ATOM     12  C   UNL     1      -2.343   2.092   0.225  1.00  0.00     0.051 A 
ATOM     13  O   UNL     1      -2.528   1.925  -1.995  1.00  0.00    -0.457 OA
ATOM     14  C   UNL     1      -3.281   1.076  -0.081  1.00  0.00     0.051 A 
BRANCH  11  15
ATOM     15  C   UNL     1      -0.940   3.604  -1.369  1.00  0.00     0.032 A 
ATOM     16  C   UNL     1       0.403   3.571  -0.948  1.00  0.00     0.071 A 
ATOM     17  C   UNL     1       1.274   4.633  -1.244  1.00  0.00     0.016 A 
ATOM     18  C   UNL     1       0.823   5.725  -1.983  1.00  0.00     0.001 A 
ATOM     19  C   UNL     1      -1.369   4.706  -2.129  1.00  0.00     0.013 A 
ATOM     20  C   UNL     1      -0.496   5.758  -2.430  1.00  0.00     0.001 A 
BRANCH  16  21
ATOM     21  C   UNL     1       0.964   2.453  -0.163  1.00  0.00     0.338 C 
ATOM     22  O   UNL     1       1.670   2.613   0.825  1.00  0.00    -0.246 OA
BRANCH  21  23
ATOM     23  O   UNL     1       0.630   1.273  -0.732  1.00  0.00    -0.465 OA
ATOM     24  C   UNL     1       1.065   0.128  -0.001  1.00  0.00     0.282 C 
ENDBRANCH  21  23
ENDBRANCH  16  21
ENDBRANCH  11  15
ENDBRANCH   9  10
BRANCH   8  25
ATOM     25  C   UNL     1      -3.544   1.149  -4.408  1.00  0.00     0.107 C 
ATOM     26  N   UNL     1      -2.861   1.956  -5.097  1.00  0.00    -0.192 NA
ENDBRANCH   8  25
ENDBRANCH   6   8
ENDBRANCH   5   6
ENDBRANCH   4   5
ENDBRANCH   3   4
ENDBRANCH   2   3
ENDBRANCH   1   2
BRANCH   1  27
ATOM     27  C   UNL     1      -3.740  -2.790  -4.664  1.00  0.00     0.188 C 
BRANCH  27  28
ATOM     28  O   UNL     1      -3.733  -2.861  -6.059  1.00  0.00    -0.376 OA
BRANCH  28  29
ATOM     29  C   UNL     1      -3.425  -4.093  -6.679  1.00  0.00     0.202 C 
BRANCH  29  30
ATOM     30  C   UNL     1      -3.142  -5.422  -5.939  1.00  0.00     0.261 C 
BRANCH  30  31
ATOM     31  O   UNL     1      -3.354  -5.499  -4.519  1.00  0.00    -0.460 OA
BRANCH  31  32
ATOM     32  C   UNL     1      -2.245  -5.418  -3.736  1.00  0.00     0.338 C 
ATOM     33  O   UNL     1      -1.093  -5.286  -4.109  1.00  0.00    -0.246 OA
BRANCH  32  34
ATOM     34  C   UNL     1      -2.654  -5.276  -2.317  1.00  0.00     0.060 A 
ATOM     35  C   UNL     1      -2.366  -4.080  -1.637  1.00  0.00     0.016 A 
ATOM     36  C   UNL     1      -3.285  -6.325  -1.650  1.00  0.00     0.016 A 
ATOM     37  C   UNL     1      -2.676  -3.946  -0.281  1.00  0.00     0.010 A 
ATOM     38  C   UNL     1      -3.569  -6.199  -0.284  1.00  0.00     0.010 A 
ATOM     39  C   UNL     1      -3.233  -5.025   0.417  1.00  0.00    -0.014 A 
BRANCH  39  40
ATOM     40  C   UNL     1      -3.269  -5.011   1.904  1.00  0.00     0.031 A 
ATOM     41  C   UNL     1      -2.175  -5.729   2.652  1.00  0.00     0.074 A 
ATOM     42  C   UNL     1      -4.236  -4.374   2.587  1.00  0.00     0.049 A 
ATOM     43  N   UNL     1      -2.025  -5.911   3.939  1.00  0.00    -0.248 NA
ATOM     44  C   UNL     1      -1.109  -6.325   1.832  1.00  0.00     0.031 C 
ATOM     45  C   UNL     1      -5.331  -3.610   1.994  1.00  0.00     0.029 A 
ATOM     46  N   UNL     1      -4.457  -4.284   3.941  1.00  0.00    -0.354 N 
ATOM     47  C   UNL     1      -0.857  -6.651   4.082  1.00  0.00     0.074 A 
ATOM     48  C   UNL     1      -0.356  -6.911   2.750  1.00  0.00     0.031 C 
ATOM     49  C   UNL     1      -6.119  -3.142   2.980  1.00  0.00     0.029 A 
ATOM     50  C   UNL     1      -5.603  -3.601   4.269  1.00  0.00     0.049 A 
ATOM     51  H   UNL     1      -3.850  -4.672   4.612  1.00  0.00     0.167 HD
ATOM     52  C   UNL     1      -0.250  -7.071   5.218  1.00  0.00     0.037 A 
ATOM     53  C   UNL     1      -6.181  -3.394   5.470  1.00  0.00     0.037 A 
ATOM     54  C   UNL     1      -0.749  -6.820   6.545  1.00  0.00     0.049 A 
ATOM     55  C   UNL     1      -5.529  -3.938   6.717  1.00  0.00     0.074 A 
ATOM     56  C   UNL     1      -0.194  -7.189   7.758  1.00  0.00     0.029 A 
ATOM     57  N   UNL     1      -1.926  -6.147   6.833  1.00  0.00    -0.354 N 
ATOM     58  N   UNL     1      -4.410  -4.611   6.843  1.00  0.00    -0.248 NA
ATOM     59  C   UNL     1      -6.220  -3.689   7.991  1.00  0.00     0.031 C 
ATOM     60  C   UNL     1      -1.065  -6.793   8.777  1.00  0.00     0.029 A 
ATOM     61  C   UNL     1      -2.129  -6.116   8.203  1.00  0.00     0.049 A 
ATOM     62  H   UNL     1      -2.529  -5.751   6.163  1.00  0.00     0.167 HD
ATOM     63  C   UNL     1      -4.247  -4.831   8.207  1.00  0.00     0.074 A 
ATOM     64  C   UNL     1      -5.374  -4.210   8.868  1.00  0.00     0.031 C 
ATOM     65  C   UNL     1      -3.251  -5.486   8.854  1.00  0.00     0.037 A 
BRANCH  52  66
ATOM     66  C   UNL     1       1.010  -7.875   5.071  1.00  0.00     0.057 A 
ATOM     67  C   UNL     1       2.208  -7.305   4.621  1.00  0.00     0.134 A 
ATOM     68  C   UNL     1       1.032  -9.234   5.414  1.00  0.00     0.134 A 
ATOM     69  F   UNL     1       2.254  -6.013   4.261  1.00  0.00    -0.206 F 
ATOM     70  C   UNL     1       3.374  -8.063   4.491  1.00  0.00     0.040 A 
ATOM     71  C   UNL     1       2.199  -9.994   5.318  1.00  0.00     0.040 A 
ATOM     72  F   UNL     1      -0.079  -9.843   5.857  1.00  0.00    -0.206 F 
ATOM     73  C   UNL     1       3.373  -9.410   4.848  1.00  0.00     0.006 A 
ENDBRANCH  52  66
BRANCH  53  74
ATOM     74  C   UNL     1      -7.463  -2.647   5.564  1.00  0.00     0.057 A 
ATOM     75  C   UNL     1      -7.531  -1.395   6.188  1.00  0.00     0.134 A 
ATOM     76  C   UNL     1      -8.659  -3.182   5.067  1.00  0.00     0.134 A 
ATOM     77  F   UNL     1      -6.426  -0.840   6.709  1.00  0.00    -0.206 F 
ATOM     78  C   UNL     1      -8.741  -0.713   6.335  1.00  0.00     0.040 A 
ATOM     79  C   UNL     1      -9.870  -2.498   5.180  1.00  0.00     0.040 A 
ATOM     80  F   UNL     1      -8.665  -4.378   4.461  1.00  0.00    -0.206 F 
ATOM     81  C   UNL     1      -9.915  -1.263   5.824  1.00  0.00     0.006 A 
ENDBRANCH  53  74
BRANCH  65  82
ATOM     82  C   UNL     1      -3.303  -5.523  10.357  1.00  0.00     0.057 A 
ATOM     83  C   UNL     1      -4.260  -6.273  11.053  1.00  0.00     0.134 A 
ATOM     84  C   UNL     1      -2.357  -4.823  11.118  1.00  0.00     0.134 A 
ATOM     85  F   UNL     1      -5.201  -6.961  10.389  1.00  0.00    -0.206 F 
ATOM     86  C   UNL     1      -4.293  -6.300  12.449  1.00  0.00     0.040 A 
ATOM     87  C   UNL     1      -2.360  -4.868  12.513  1.00  0.00     0.040 A 
ATOM     88  F   UNL     1      -1.404  -4.094  10.518  1.00  0.00    -0.206 F 
ATOM     89  C   UNL     1      -3.336  -5.601  13.183  1.00  0.00     0.006 A 
ENDBRANCH  65  82
ENDBRANCH  39  40
ENDBRANCH  32  34
ENDBRANCH  31  32
ENDBRANCH  30  31
ENDBRANCH  29  30
ENDBRANCH  28  29
ENDBRANCH  27  28
ENDBRANCH   1  27
TORSDOF 22
