REMARK SMILES O=C(CCN1C(=O)S/C(=C\c2ccc(F)cc2)C1=O)Nc1ccc(O)cc1C(=O)OCCOCCOCCOC(=O)c1ccc(-c2c3nc(c(-c4c(F)cccc4F)c4ccc([nH]4)c(-c4c(F)cccc4F)c4nc(c(-c5c(F)cccc5F)c5ccc2[nH]5)C=C4)C=C3)cc1
REMARK SMILES IDX 33 1 32 2 31 3 30 4 28 5 29 6 27 7 21 8 22 9 23 10 26 11
REMARK SMILES IDX 24 12 20 13 1 14 2 15 3 17 4 18 5 19 6 20 18 21 7 22 8 23
REMARK SMILES IDX 9 24 19 25 10 26 11 27 12 28 17 29 13 30 16 31 14 32 15 33
REMARK SMILES IDX 25 34 34 36 35 37 36 38 37 39 38 40 39 41 40 42 41 43 42 44
REMARK SMILES IDX 43 45 95 46 44 47 94 48 45 49 46 50 47 51 88 52 48 53 93 54
REMARK SMILES IDX 87 55 89 56 49 57 92 58 86 59 85 60 50 62 76 63 59 64 75 65
REMARK SMILES IDX 60 66 63 67 74 68 90 69 61 70 62 71 73 73 91 74 64 75 51 76
REMARK SMILES IDX 52 77 57 78 53 79 54 80 56 81 58 82 55 83 77 84 78 85 83 86
REMARK SMILES IDX 79 87 80 88 82 89 84 90 81 91 65 92 66 93 71 94 67 95 68 96
REMARK SMILES IDX 70 97 72 98 69 99
REMARK H PARENT 20 16 25 35 89 61 63 72
REMARK Flexibility Score: inf
ROOT
ATOM      1  O   UNL     1       4.205  -6.306   0.736  1.00  0.00    -0.376 OA
ENDROOT
BRANCH   1   2
ATOM      2  C   UNL     1       5.366  -5.577   0.377  1.00  0.00     0.202 C 
BRANCH   2   3
ATOM      3  C   UNL     1       5.170  -4.069   0.331  1.00  0.00     0.261 C 
BRANCH   3   4
ATOM      4  O   UNL     1       4.073  -3.519  -0.465  1.00  0.00    -0.460 OA
BRANCH   4   5
ATOM      5  C   UNL     1       4.035  -3.498  -1.809  1.00  0.00     0.340 C 
ATOM      6  O   UNL     1       4.824  -4.067  -2.543  1.00  0.00    -0.246 OA
BRANCH   5   7
ATOM      7  C   UNL     1       2.790  -2.838  -2.316  1.00  0.00     0.087 A 
ATOM      8  C   UNL     1       2.208  -1.640  -1.826  1.00  0.00     0.056 A 
ATOM      9  C   UNL     1       1.026  -1.187  -2.446  1.00  0.00     0.031 A 
ATOM     10  C   UNL     1       0.420  -1.894  -3.493  1.00  0.00     0.048 A 
ATOM     11  C   UNL     1       2.176  -3.533  -3.380  1.00  0.00     0.064 A 
ATOM     12  C   UNL     1       1.000  -3.064  -3.949  1.00  0.00     0.116 A 
BRANCH   8  13
ATOM     13  N   UNL     1       2.834  -0.862  -0.807  1.00  0.00    -0.325 N 
ATOM     14  O   UNL     1       1.150   0.562  -0.146  1.00  0.00    -0.275 OA
ATOM     15  C   UNL     1       2.347   0.264  -0.179  1.00  0.00     0.226 C 
ATOM     16  H   UNL     1       3.724  -1.168  -0.517  1.00  0.00     0.169 HD
BRANCH  15  17
ATOM     17  C   UNL     1       3.358   1.296   0.366  1.00  0.00     0.122 C 
BRANCH  17  18
ATOM     18  C   UNL     1       4.642   0.941   1.126  1.00  0.00     0.140 C 
BRANCH  18  19
ATOM     19  N   UNL     1       5.833   0.639   0.309  1.00  0.00    -0.268 N 
ATOM     20  C   UNL     1       6.965   1.390   0.204  1.00  0.00     0.293 C 
ATOM     21  C   UNL     1       5.970  -0.605  -0.184  1.00  0.00     0.268 C 
ATOM     22  O   UNL     1       7.121   2.537   0.596  1.00  0.00    -0.261 OA
ATOM     23  S   UNL     1       8.284   0.438  -0.559  1.00  0.00    -0.022 SA
ATOM     24  C   UNL     1       7.255  -0.874  -0.873  1.00  0.00     0.083 C 
ATOM     25  O   UNL     1       5.132  -1.452   0.056  1.00  0.00    -0.268 OA
ATOM     26  C   UNL     1       7.365  -2.067  -1.479  1.00  0.00     0.029 C 
BRANCH  26  27
ATOM     27  C   UNL     1       8.357  -3.030  -2.002  1.00  0.00    -0.024 A 
ATOM     28  C   UNL     1       9.583  -3.273  -1.382  1.00  0.00     0.011 A 
ATOM     29  C   UNL     1       7.890  -3.992  -2.932  1.00  0.00     0.011 A 
ATOM     30  C   UNL     1      10.311  -4.439  -1.685  1.00  0.00     0.040 A 
ATOM     31  C   UNL     1       8.593  -5.168  -3.206  1.00  0.00     0.040 A 
ATOM     32  C   UNL     1       9.805  -5.380  -2.578  1.00  0.00     0.123 A 
ATOM     33  F   UNL     1      10.480  -6.512  -2.814  1.00  0.00    -0.207 F 
ENDBRANCH  26  27
ENDBRANCH  18  19
ENDBRANCH  17  18
ENDBRANCH  15  17
ENDBRANCH   8  13
BRANCH  12  34
ATOM     34  O   UNL     1       0.449  -3.790  -4.960  1.00  0.00    -0.508 OA
ATOM     35  H   UNL     1      -0.345  -3.500  -5.366  1.00  0.00     0.293 HD
ENDBRANCH  12  34
ENDBRANCH   5   7
ENDBRANCH   4   5
ENDBRANCH   3   4
ENDBRANCH   2   3
ENDBRANCH   1   2
BRANCH   1  36
ATOM     36  C   UNL     1       3.135  -6.083  -0.164  1.00  0.00     0.188 C 
BRANCH  36  37
ATOM     37  C   UNL     1       2.046  -5.100   0.342  1.00  0.00     0.188 C 
BRANCH  37  38
ATOM     38  O   UNL     1       2.258  -4.301   1.497  1.00  0.00    -0.376 OA
BRANCH  38  39
ATOM     39  C   UNL     1       2.709  -4.914   2.697  1.00  0.00     0.202 C 
BRANCH  39  40
ATOM     40  C   UNL     1       2.009  -6.172   3.234  1.00  0.00     0.261 C 
BRANCH  40  41
ATOM     41  O   UNL     1       1.851  -7.232   2.279  1.00  0.00    -0.460 OA
BRANCH  41  42
ATOM     42  C   UNL     1       0.601  -7.422   1.780  1.00  0.00     0.338 C 
ATOM     43  O   UNL     1      -0.424  -6.858   2.118  1.00  0.00    -0.246 OA
BRANCH  42  44
ATOM     44  C   UNL     1       0.726  -8.228   0.541  1.00  0.00     0.060 A 
ATOM     45  C   UNL     1       0.218  -7.707  -0.668  1.00  0.00     0.016 A 
ATOM     46  C   UNL     1       1.463  -9.412   0.544  1.00  0.00     0.016 A 
ATOM     47  C   UNL     1       0.450  -8.367  -1.874  1.00  0.00     0.010 A 
ATOM     48  C   UNL     1       1.634 -10.109  -0.650  1.00  0.00     0.010 A 
ATOM     49  C   UNL     1       1.097  -9.607  -1.851  1.00  0.00    -0.014 A 
BRANCH  49  50
ATOM     50  C   UNL     1       0.894 -10.558  -2.963  1.00  0.00     0.031 A 
ATOM     51  C   UNL     1      -0.310 -11.450  -2.852  1.00  0.00     0.074 A 
ATOM     52  C   UNL     1       1.756 -10.678  -3.985  1.00  0.00     0.049 A 
ATOM     53  N   UNL     1      -0.626 -12.512  -3.541  1.00  0.00    -0.248 NA
ATOM     54  C   UNL     1      -1.282 -11.104  -1.798  1.00  0.00     0.031 C 
ATOM     55  C   UNL     1       2.913  -9.821  -4.229  1.00  0.00     0.029 A 
ATOM     56  N   UNL     1       1.796 -11.603  -4.998  1.00  0.00    -0.354 N 
ATOM     57  C   UNL     1      -1.815 -12.968  -2.987  1.00  0.00     0.074 A 
ATOM     58  C   UNL     1      -2.159 -12.087  -1.899  1.00  0.00     0.031 C 
ATOM     59  C   UNL     1       3.571 -10.282  -5.309  1.00  0.00     0.029 A 
ATOM     60  C   UNL     1       2.908 -11.492  -5.796  1.00  0.00     0.049 A 
ATOM     61  H   UNL     1       1.096 -12.281  -5.138  1.00  0.00     0.167 HD
ATOM     62  C   UNL     1      -2.553 -14.036  -3.357  1.00  0.00     0.037 A 
ATOM     63  C   UNL     1       3.352 -12.304  -6.777  1.00  0.00     0.037 A 
ATOM     64  C   UNL     1      -2.194 -14.909  -4.436  1.00  0.00     0.049 A 
ATOM     65  C   UNL     1       2.562 -13.545  -7.116  1.00  0.00     0.074 A 
ATOM     66  C   UNL     1      -2.873 -16.017  -4.904  1.00  0.00     0.029 A 
ATOM     67  N   UNL     1      -1.050 -14.773  -5.208  1.00  0.00    -0.354 N 
ATOM     68  N   UNL     1       1.438 -13.977  -6.594  1.00  0.00    -0.248 NA
ATOM     69  C   UNL     1       3.104 -14.417  -8.169  1.00  0.00     0.031 C 
ATOM     70  C   UNL     1      -2.110 -16.586  -5.925  1.00  0.00     0.029 A 
ATOM     71  C   UNL     1      -0.990 -15.795  -6.135  1.00  0.00     0.049 A 
ATOM     72  H   UNL     1      -0.383 -14.056  -5.110  1.00  0.00     0.167 HD
ATOM     73  C   UNL     1       1.124 -15.149  -7.272  1.00  0.00     0.074 A 
ATOM     74  C   UNL     1       2.175 -15.363  -8.244  1.00  0.00     0.031 C 
ATOM     75  C   UNL     1       0.060 -15.973  -7.107  1.00  0.00     0.037 A 
BRANCH  62  76
ATOM     76  C   UNL     1      -3.795 -14.330  -2.572  1.00  0.00     0.057 A 
ATOM     77  C   UNL     1      -3.866 -15.464  -1.754  1.00  0.00     0.134 A 
ATOM     78  C   UNL     1      -4.932 -13.517  -2.654  1.00  0.00     0.134 A 
ATOM     79  F   UNL     1      -2.808 -16.279  -1.625  1.00  0.00    -0.206 F 
ATOM     80  C   UNL     1      -5.032 -15.792  -1.063  1.00  0.00     0.040 A 
ATOM     81  C   UNL     1      -6.095 -13.818  -1.944  1.00  0.00     0.040 A 
ATOM     82  F   UNL     1      -4.919 -12.400  -3.398  1.00  0.00    -0.206 F 
ATOM     83  C   UNL     1      -6.151 -14.966  -1.156  1.00  0.00     0.006 A 
ENDBRANCH  62  76
BRANCH  63  84
ATOM     84  C   UNL     1       4.612 -11.977  -7.493  1.00  0.00     0.057 A 
ATOM     85  C   UNL     1       5.857 -12.033  -6.854  1.00  0.00     0.134 A 
ATOM     86  C   UNL     1       4.597 -11.578  -8.834  1.00  0.00     0.134 A 
ATOM     87  F   UNL     1       5.943 -12.412  -5.570  1.00  0.00    -0.206 F 
ATOM     88  C   UNL     1       7.036 -11.678  -7.513  1.00  0.00     0.040 A 
ATOM     89  C   UNL     1       5.771 -11.244  -9.513  1.00  0.00     0.040 A 
ATOM     90  F   UNL     1       3.439 -11.531  -9.511  1.00  0.00    -0.206 F 
ATOM     91  C   UNL     1       6.994 -11.283  -8.848  1.00  0.00     0.006 A 
ENDBRANCH  63  84
BRANCH  75  92
ATOM     92  C   UNL     1      -0.064 -17.165  -8.009  1.00  0.00     0.057 A 
ATOM     93  C   UNL     1      -1.086 -17.222  -8.967  1.00  0.00     0.134 A 
ATOM     94  C   UNL     1       0.721 -18.308  -7.828  1.00  0.00     0.134 A 
ATOM     95  F   UNL     1      -1.885 -16.164  -9.174  1.00  0.00    -0.206 F 
ATOM     96  C   UNL     1      -1.344 -18.387  -9.689  1.00  0.00     0.040 A 
ATOM     97  C   UNL     1       0.490 -19.471  -8.564  1.00  0.00     0.040 A 
ATOM     98  F   UNL     1       1.717 -18.315  -6.929  1.00  0.00    -0.206 F 
ATOM     99  C   UNL     1      -0.555 -19.517  -9.486  1.00  0.00     0.006 A 
ENDBRANCH  75  92
ENDBRANCH  49  50
ENDBRANCH  42  44
ENDBRANCH  41  42
ENDBRANCH  40  41
ENDBRANCH  39  40
ENDBRANCH  38  39
ENDBRANCH  37  38
ENDBRANCH  36  37
ENDBRANCH   1  36
TORSDOF 23
