REMARK SMILES C#CC[C@@H](C(=O)OCCOCCOCCOC(=O)c1ccc(-c2c3nc(c(-c4c(F)cccc4F)c4ccc([nH]4)c(-c4c(F)cccc4F)c4nc(c(-c5c(F)cccc5F)c5ccc2[nH]5)C=C4)C=C3)cc1)[C@H]1CCS(=O)(=O)C1
REMARK SMILES IDX 11 1 10 2 9 3 8 4 7 5 5 6 6 7 4 8 3 9 2 10 1 11 73 12 74 13
REMARK SMILES IDX 79 14 75 15 76 16 77 17 78 18 12 19 13 20 14 21 15 22 16 23
REMARK SMILES IDX 17 24 18 25 19 26 20 27 72 28 21 29 71 30 22 31 23 32 24 33
REMARK SMILES IDX 65 34 25 35 70 36 64 37 66 38 26 39 69 40 63 41 62 42 27 44
REMARK SMILES IDX 53 45 36 46 52 47 37 48 40 49 51 50 67 51 38 52 39 53 50 55
REMARK SMILES IDX 68 56 41 57 28 58 29 59 34 60 30 61 31 62 33 63 35 64 32 65
REMARK SMILES IDX 54 66 55 67 60 68 56 69 57 70 59 71 61 72 58 73 42 74 43 75
REMARK SMILES IDX 48 76 44 77 45 78 47 79 49 80 46 81
REMARK H PARENT 66 43 40 54
REMARK Flexibility Score: inf
ROOT
ATOM      1  C   UNL     1      -3.805  -1.556   3.036  1.00  0.00     0.188 C 
ENDROOT
BRANCH   1   2
ATOM      2  O   UNL     1      -4.569  -1.828   4.189  1.00  0.00    -0.376 OA
BRANCH   2   3
ATOM      3  C   UNL     1      -5.517  -2.888   4.134  1.00  0.00     0.202 C 
BRANCH   3   4
ATOM      4  C   UNL     1      -6.218  -3.332   2.827  1.00  0.00     0.261 C 
BRANCH   4   5
ATOM      5  O   UNL     1      -5.402  -3.380   1.637  1.00  0.00    -0.463 OA
BRANCH   5   6
ATOM      6  C   UNL     1      -5.846  -2.709   0.551  1.00  0.00     0.310 C 
ATOM      7  O   UNL     1      -6.905  -2.087   0.524  1.00  0.00    -0.252 OA
BRANCH   6   8
ATOM      8  C   UNL     1      -4.911  -2.694  -0.667  1.00  0.00     0.115 C 
BRANCH   8   9
ATOM      9  C   UNL     1      -3.775  -3.729  -0.832  1.00  0.00     0.105 C 
BRANCH   9  10
ATOM     10  C   UNL     1      -4.011  -5.065  -0.286  1.00  0.00    -0.106 C 
ATOM     11  C   UNL     1      -4.088  -6.165   0.198  1.00  0.00     0.004 C 
ENDBRANCH   9  10
ENDBRANCH   8   9
BRANCH   8  12
ATOM     12  C   UNL     1      -4.351  -1.266  -1.021  1.00  0.00     0.020 C 
ATOM     13  C   UNL     1      -4.745  -0.885  -2.463  1.00  0.00     0.022 C 
ATOM     14  C   UNL     1      -4.780  -0.055  -0.181  1.00  0.00     0.141 C 
ATOM     15  C   UNL     1      -4.345   0.563  -2.725  1.00  0.00     0.137 C 
ATOM     16  S   UNL     1      -4.313   1.371  -1.145  1.00  0.00     0.150 S 
ATOM     17  O   UNL     1      -2.930   1.670  -0.837  1.00  0.00    -0.229 OA
ATOM     18  O   UNL     1      -5.366   2.360  -1.070  1.00  0.00    -0.229 OA
ENDBRANCH   8  12
ENDBRANCH   6   8
ENDBRANCH   5   6
ENDBRANCH   4   5
ENDBRANCH   3   4
ENDBRANCH   2   3
ENDBRANCH   1   2
BRANCH   1  19
ATOM     19  C   UNL     1      -2.895  -2.657   2.480  1.00  0.00     0.188 C 
BRANCH  19  20
ATOM     20  O   UNL     1      -3.022  -3.949   3.007  1.00  0.00    -0.376 OA
BRANCH  20  21
ATOM     21  C   UNL     1      -2.374  -4.283   4.220  1.00  0.00     0.202 C 
BRANCH  21  22
ATOM     22  C   UNL     1      -1.448  -3.350   5.035  1.00  0.00     0.261 C 
BRANCH  22  23
ATOM     23  O   UNL     1      -1.239  -2.004   4.588  1.00  0.00    -0.460 OA
BRANCH  23  24
ATOM     24  C   UNL     1      -0.153  -1.796   3.799  1.00  0.00     0.338 C 
ATOM     25  O   UNL     1       0.648  -2.631   3.419  1.00  0.00    -0.246 OA
BRANCH  24  26
ATOM     26  C   UNL     1      -0.222  -0.416   3.260  1.00  0.00     0.060 A 
ATOM     27  C   UNL     1      -0.394  -0.228   1.880  1.00  0.00     0.016 A 
ATOM     28  C   UNL     1      -0.099   0.684   4.107  1.00  0.00     0.016 A 
ATOM     29  C   UNL     1      -0.428   1.061   1.343  1.00  0.00     0.010 A 
ATOM     30  C   UNL     1      -0.101   1.974   3.563  1.00  0.00     0.010 A 
ATOM     31  C   UNL     1      -0.242   2.171   2.177  1.00  0.00    -0.014 A 
BRANCH  31  32
ATOM     32  C   UNL     1      -0.015   3.517   1.589  1.00  0.00     0.031 A 
ATOM     33  C   UNL     1       1.398   4.006   1.436  1.00  0.00     0.074 A 
ATOM     34  C   UNL     1      -1.036   4.299   1.193  1.00  0.00     0.049 A 
ATOM     35  N   UNL     1       1.839   5.168   1.028  1.00  0.00    -0.248 NA
ATOM     36  C   UNL     1       2.458   3.056   1.810  1.00  0.00     0.031 C 
ATOM     37  C   UNL     1      -2.445   3.929   1.240  1.00  0.00     0.029 A 
ATOM     38  N   UNL     1      -1.038   5.568   0.664  1.00  0.00    -0.354 N 
ATOM     39  C   UNL     1       3.223   5.101   1.122  1.00  0.00     0.074 A 
ATOM     40  C   UNL     1       3.547   3.790   1.642  1.00  0.00     0.031 C 
ATOM     41  C   UNL     1      -3.179   4.936   0.733  1.00  0.00     0.029 A 
ATOM     42  C   UNL     1      -2.296   6.049   0.393  1.00  0.00     0.049 A 
ATOM     43  H   UNL     1      -0.215   6.083   0.497  1.00  0.00     0.167 HD
ATOM     44  C   UNL     1       4.138   6.048   0.809  1.00  0.00     0.037 A 
ATOM     45  C   UNL     1      -2.691   7.258  -0.054  1.00  0.00     0.037 A 
ATOM     46  C   UNL     1       3.811   7.354   0.298  1.00  0.00     0.049 A 
ATOM     47  C   UNL     1      -1.655   8.322  -0.322  1.00  0.00     0.074 A 
ATOM     48  C   UNL     1       4.672   8.377  -0.061  1.00  0.00     0.029 A 
ATOM     49  N   UNL     1       2.523   7.824   0.087  1.00  0.00    -0.354 N 
ATOM     50  N   UNL     1      -0.348   8.248  -0.243  1.00  0.00    -0.248 NA
ATOM     51  C   UNL     1      -2.152   9.645  -0.731  1.00  0.00     0.031 C 
ATOM     52  C   UNL     1       3.905   9.490  -0.415  1.00  0.00     0.029 A 
ATOM     53  C   UNL     1       2.567   9.136  -0.361  1.00  0.00     0.049 A 
ATOM     54  H   UNL     1       1.700   7.304   0.233  1.00  0.00     0.167 HD
ATOM     55  C   UNL     1       0.131   9.498  -0.622  1.00  0.00     0.074 A 
ATOM     56  C   UNL     1      -1.024  10.306  -0.947  1.00  0.00     0.031 C 
ATOM     57  C   UNL     1       1.413   9.934  -0.693  1.00  0.00     0.037 A 
BRANCH  44  58
ATOM     58  C   UNL     1       5.583   5.725   1.065  1.00  0.00     0.057 A 
ATOM     59  C   UNL     1       6.280   4.766   0.320  1.00  0.00     0.134 A 
ATOM     60  C   UNL     1       6.294   6.408   2.061  1.00  0.00     0.134 A 
ATOM     61  F   UNL     1       5.658   4.065  -0.641  1.00  0.00    -0.206 F 
ATOM     62  C   UNL     1       7.621   4.475   0.577  1.00  0.00     0.040 A 
ATOM     63  C   UNL     1       7.644   6.151   2.304  1.00  0.00     0.040 A 
ATOM     64  F   UNL     1       5.691   7.344   2.810  1.00  0.00    -0.206 F 
ATOM     65  C   UNL     1       8.309   5.175   1.566  1.00  0.00     0.006 A 
ENDBRANCH  44  58
BRANCH  45  66
ATOM     66  C   UNL     1      -4.137   7.555  -0.248  1.00  0.00     0.057 A 
ATOM     67  C   UNL     1      -4.656   7.849  -1.516  1.00  0.00     0.134 A 
ATOM     68  C   UNL     1      -5.026   7.602   0.833  1.00  0.00     0.134 A 
ATOM     69  F   UNL     1      -3.853   7.856  -2.590  1.00  0.00    -0.206 F 
ATOM     70  C   UNL     1      -5.996   8.199  -1.697  1.00  0.00     0.040 A 
ATOM     71  C   UNL     1      -6.376   7.915   0.662  1.00  0.00     0.040 A 
ATOM     72  F   UNL     1      -4.596   7.344   2.078  1.00  0.00    -0.206 F 
ATOM     73  C   UNL     1      -6.862   8.226  -0.606  1.00  0.00     0.006 A 
ENDBRANCH  45  66
BRANCH  57  74
ATOM     74  C   UNL     1       1.647  11.335  -1.190  1.00  0.00     0.057 A 
ATOM     75  C   UNL     1       1.281  12.466  -0.448  1.00  0.00     0.134 A 
ATOM     76  C   UNL     1       2.290  11.553  -2.417  1.00  0.00     0.134 A 
ATOM     77  F   UNL     1       0.655  12.333   0.731  1.00  0.00    -0.206 F 
ATOM     78  C   UNL     1       1.519  13.759  -0.921  1.00  0.00     0.040 A 
ATOM     79  C   UNL     1       2.565  12.840  -2.883  1.00  0.00     0.040 A 
ATOM     80  F   UNL     1       2.681  10.518  -3.176  1.00  0.00    -0.206 F 
ATOM     81  C   UNL     1       2.170  13.948  -2.138  1.00  0.00     0.006 A 
ENDBRANCH  57  74
ENDBRANCH  31  32
ENDBRANCH  24  26
ENDBRANCH  23  24
ENDBRANCH  22  23
ENDBRANCH  21  22
ENDBRANCH  20  21
ENDBRANCH  19  20
ENDBRANCH   1  19
TORSDOF 20
