REMARK SMILES Cc1cccc(-n2c(C)cc(/C=N\c3ccc(O)c(C(=O)OCCOCCOCCOC(=O)c4ccc(-c5c6nc(c(-c7c(F)cccc7F)c7ccc([nH]7)c(-c7c(F)cccc7F)c7nc(c(-c8c(F)cccc8F)c8ccc5[nH]8)C=C7)C=C6)cc4)c3)c2C)c1
REMARK SMILES IDX 26 1 25 2 24 3 23 4 22 5 20 6 21 7 19 8 14 9 15 10 88 11
REMARK SMILES IDX 16 12 17 13 13 14 12 15 11 16 7 17 8 18 89 19 9 20 10 21
REMARK SMILES IDX 90 22 6 23 1 24 2 25 3 26 91 27 4 28 5 29 18 30 27 32 28 33
REMARK SMILES IDX 29 34 30 35 31 36 32 37 33 38 34 39 35 40 87 41 36 42 86 43
REMARK SMILES IDX 37 44 38 45 39 46 80 47 40 48 85 49 79 50 81 51 41 52 84 53
REMARK SMILES IDX 78 54 77 55 42 57 68 58 51 59 67 60 52 61 55 62 66 63 82 64
REMARK SMILES IDX 53 65 54 66 65 68 83 69 56 70 43 71 44 72 49 73 45 74 46 75
REMARK SMILES IDX 48 76 50 77 47 78 69 79 70 80 75 81 71 82 72 83 74 84 76 85
REMARK SMILES IDX 73 86 57 87 58 88 63 89 59 90 60 91 62 92 64 93 61 94
REMARK H PARENT 18 31 81 56 55 67
REMARK Flexibility Score: inf
ROOT
ATOM      1  C   UNL     1      -8.107  -0.836   7.666  1.00  0.00     0.188 C 
ENDROOT
BRANCH   1   2
ATOM      2  O   UNL     1      -7.736  -2.035   6.974  1.00  0.00    -0.376 OA
BRANCH   2   3
ATOM      3  C   UNL     1      -6.510  -2.743   7.213  1.00  0.00     0.202 C 
BRANCH   3   4
ATOM      4  C   UNL     1      -5.278  -2.842   6.159  1.00  0.00     0.261 C 
BRANCH   4   5
ATOM      5  O   UNL     1      -4.555  -1.611   5.653  1.00  0.00    -0.460 OA
BRANCH   5   6
ATOM      6  C   UNL     1      -3.247  -1.205   5.616  1.00  0.00     0.342 C 
ATOM      7  O   UNL     1      -2.356  -1.968   5.984  1.00  0.00    -0.246 OA
BRANCH   6   8
ATOM      8  C   UNL     1      -2.825   0.343   5.155  1.00  0.00     0.103 A 
ATOM      9  C   UNL     1      -2.949   2.609   3.871  1.00  0.00     0.064 A 
ATOM     10  C   UNL     1      -1.712   2.932   4.377  1.00  0.00     0.032 A 
ATOM     11  C   UNL     1      -3.490   1.369   4.348  1.00  0.00     0.048 A 
ATOM     12  C   UNL     1      -1.034   2.019   5.207  1.00  0.00     0.049 A 
ATOM     13  C   UNL     1      -1.556   0.750   5.550  1.00  0.00     0.130 A 
BRANCH   9  14
ATOM     14  N   UNL     1      -3.714   3.546   3.120  1.00  0.00    -0.256 NA
ATOM     15  C   UNL     1      -3.581   3.999   1.893  1.00  0.00     0.121 C 
BRANCH  15  16
ATOM     16  C   UNL     1      -2.730   3.608   0.754  1.00  0.00     0.014 A 
ATOM     17  N   UNL     1      -1.552   2.296  -0.688  1.00  0.00    -0.318 N 
ATOM     18  C   UNL     1      -1.498   3.576  -1.199  1.00  0.00     0.021 A 
ATOM     19  C   UNL     1      -2.375   2.321   0.415  1.00  0.00     0.029 A 
ATOM     20  C   UNL     1      -0.773   3.885  -2.465  1.00  0.00     0.065 C 
ATOM     21  C   UNL     1      -2.263   4.387  -0.360  1.00  0.00     0.033 A 
ATOM     22  C   UNL     1      -2.751   1.120   1.138  1.00  0.00     0.065 C 
BRANCH  17  23
ATOM     23  C   UNL     1      -0.758   1.166  -1.031  1.00  0.00     0.046 A 
ATOM     24  C   UNL     1       2.712   0.013   0.001  1.00  0.00     0.044 C 
ATOM     25  C   UNL     1       1.287   0.005  -0.466  1.00  0.00    -0.049 A 
ATOM     26  C   UNL     1       0.619  -1.219  -0.629  1.00  0.00     0.003 A 
ATOM     27  C   UNL     1       0.593   1.205  -0.674  1.00  0.00     0.030 A 
ATOM     28  C   UNL     1      -0.706  -1.252  -1.061  1.00  0.00     0.002 A 
ATOM     29  C   UNL     1      -1.387  -0.059  -1.294  1.00  0.00     0.026 A 
ENDBRANCH  17  23
ENDBRANCH  15  16
ENDBRANCH   9  14
BRANCH  13  30
ATOM     30  O   UNL     1      -0.719  -0.043   6.291  1.00  0.00    -0.507 OA
ATOM     31  H   UNL     1       0.129   0.271   6.536  1.00  0.00     0.293 HD
ENDBRANCH  13  30
ENDBRANCH   6   8
ENDBRANCH   5   6
ENDBRANCH   4   5
ENDBRANCH   3   4
ENDBRANCH   2   3
ENDBRANCH   1   2
BRANCH   1  32
ATOM     32  C   UNL     1      -7.780  -0.567   9.120  1.00  0.00     0.188 C 
BRANCH  32  33
ATOM     33  O   UNL     1      -6.382  -0.662   9.312  1.00  0.00    -0.376 OA
BRANCH  33  34
ATOM     34  C   UNL     1      -5.937  -0.369  10.625  1.00  0.00     0.202 C 
BRANCH  34  35
ATOM     35  C   UNL     1      -6.096   1.116  11.012  1.00  0.00     0.261 C 
BRANCH  35  36
ATOM     36  O   UNL     1      -5.323   1.962  10.119  1.00  0.00    -0.460 OA
BRANCH  36  37
ATOM     37  C   UNL     1      -5.992   2.790   9.262  1.00  0.00     0.338 C 
ATOM     38  O   UNL     1      -6.878   3.581   9.604  1.00  0.00    -0.246 OA
BRANCH  37  39
ATOM     39  C   UNL     1      -5.694   2.430   7.833  1.00  0.00     0.060 A 
ATOM     40  C   UNL     1      -6.376   2.902   6.696  1.00  0.00     0.016 A 
ATOM     41  C   UNL     1      -4.986   1.283   7.665  1.00  0.00     0.016 A 
ATOM     42  C   UNL     1      -6.482   2.107   5.481  1.00  0.00     0.010 A 
ATOM     43  C   UNL     1      -5.415   0.450   6.639  1.00  0.00     0.010 A 
ATOM     44  C   UNL     1      -6.077   0.767   5.432  1.00  0.00    -0.014 A 
BRANCH  44  45
ATOM     45  C   UNL     1      -6.407  -0.347   4.317  1.00  0.00     0.031 A 
ATOM     46  C   UNL     1      -5.461  -1.282   3.404  1.00  0.00     0.074 A 
ATOM     47  C   UNL     1      -7.672  -0.820   4.356  1.00  0.00     0.049 A 
ATOM     48  N   UNL     1      -5.707  -2.525   3.070  1.00  0.00    -0.248 NA
ATOM     49  C   UNL     1      -4.138  -0.991   2.857  1.00  0.00     0.031 C 
ATOM     50  C   UNL     1      -8.239  -2.077   3.861  1.00  0.00     0.029 A 
ATOM     51  N   UNL     1      -8.806  -0.137   4.785  1.00  0.00    -0.354 N 
ATOM     52  C   UNL     1      -4.597  -3.124   2.488  1.00  0.00     0.074 A 
ATOM     53  C   UNL     1      -3.601  -2.126   2.417  1.00  0.00     0.031 C 
ATOM     54  C   UNL     1      -9.552  -1.908   3.645  1.00  0.00     0.029 A 
ATOM     55  C   UNL     1      -9.827  -0.509   3.887  1.00  0.00     0.049 A 
ATOM     56  H   UNL     1      -8.880   0.475   5.553  1.00  0.00     0.167 HD
ATOM     57  C   UNL     1      -4.640  -4.330   1.865  1.00  0.00     0.037 A 
ATOM     58  C   UNL     1     -10.223   0.435   2.990  1.00  0.00     0.037 A 
ATOM     59  C   UNL     1      -5.971  -4.458   1.301  1.00  0.00     0.049 A 
ATOM     60  C   UNL     1      -9.736   0.072   1.597  1.00  0.00     0.074 A 
ATOM     61  C   UNL     1      -7.177  -4.986   1.706  1.00  0.00     0.029 A 
ATOM     62  N   UNL     1      -6.266  -3.554   0.291  1.00  0.00    -0.354 N 
ATOM     63  N   UNL     1      -9.028  -0.999   1.331  1.00  0.00    -0.248 NA
ATOM     64  C   UNL     1      -9.994   0.853   0.393  1.00  0.00     0.031 C 
ATOM     65  C   UNL     1      -8.205  -4.203   1.072  1.00  0.00     0.029 A 
ATOM     66  C   UNL     1      -7.612  -3.248   0.254  1.00  0.00     0.049 A 
ATOM     67  H   UNL     1      -5.598  -3.177  -0.326  1.00  0.00     0.167 HD
ATOM     68  C   UNL     1      -8.747  -1.079   0.006  1.00  0.00     0.074 A 
ATOM     69  C   UNL     1      -9.354   0.126  -0.545  1.00  0.00     0.031 C 
ATOM     70  C   UNL     1      -8.052  -2.112  -0.559  1.00  0.00     0.037 A 
BRANCH  57  71
ATOM     71  C   UNL     1      -3.468  -5.264   1.611  1.00  0.00     0.057 A 
ATOM     72  C   UNL     1      -3.704  -6.546   1.077  1.00  0.00     0.134 A 
ATOM     73  C   UNL     1      -2.126  -5.051   2.006  1.00  0.00     0.134 A 
ATOM     74  F   UNL     1      -4.937  -6.924   0.708  1.00  0.00    -0.206 F 
ATOM     75  C   UNL     1      -2.701  -7.524   0.942  1.00  0.00     0.040 A 
ATOM     76  C   UNL     1      -1.107  -6.008   1.843  1.00  0.00     0.040 A 
ATOM     77  F   UNL     1      -1.728  -3.928   2.613  1.00  0.00    -0.206 F 
ATOM     78  C   UNL     1      -1.394  -7.257   1.320  1.00  0.00     0.006 A 
ENDBRANCH  57  71
BRANCH  58  79
ATOM     79  C   UNL     1     -10.341   1.760   3.701  1.00  0.00     0.057 A 
ATOM     80  C   UNL     1     -11.087   1.758   4.915  1.00  0.00     0.134 A 
ATOM     81  C   UNL     1      -9.453   2.824   3.539  1.00  0.00     0.134 A 
ATOM     82  F   UNL     1     -11.964   0.769   5.161  1.00  0.00    -0.206 F 
ATOM     83  C   UNL     1     -10.818   2.632   5.973  1.00  0.00     0.040 A 
ATOM     84  C   UNL     1      -9.238   3.761   4.573  1.00  0.00     0.040 A 
ATOM     85  F   UNL     1      -8.668   2.902   2.456  1.00  0.00    -0.206 F 
ATOM     86  C   UNL     1      -9.867   3.626   5.813  1.00  0.00     0.006 A 
ENDBRANCH  58  79
BRANCH  70  87
ATOM     87  C   UNL     1      -7.752  -2.084  -2.019  1.00  0.00     0.057 A 
ATOM     88  C   UNL     1      -8.780  -1.992  -2.962  1.00  0.00     0.134 A 
ATOM     89  C   UNL     1      -6.445  -2.217  -2.519  1.00  0.00     0.134 A 
ATOM     90  F   UNL     1     -10.060  -1.894  -2.570  1.00  0.00    -0.206 F 
ATOM     91  C   UNL     1      -8.520  -1.983  -4.332  1.00  0.00     0.040 A 
ATOM     92  C   UNL     1      -6.178  -2.276  -3.886  1.00  0.00     0.040 A 
ATOM     93  F   UNL     1      -5.384  -2.277  -1.698  1.00  0.00    -0.206 F 
ATOM     94  C   UNL     1      -7.217  -2.140  -4.797  1.00  0.00     0.006 A 
ENDBRANCH  70  87
ENDBRANCH  44  45
ENDBRANCH  37  39
ENDBRANCH  36  37
ENDBRANCH  35  36
ENDBRANCH  34  35
ENDBRANCH  33  34
ENDBRANCH  32  33
ENDBRANCH   1  32
TORSDOF 21
