REMARK SMILES Cc1ccccc1OC1(C(=O)OCCOCCOCCOC(=O)c2ccc(-c3c4nc(c(-c5c(F)cccc5F)c5ccc([nH]5)c(-c5c(F)cccc5F)c5nc(c(-c6c(F)cccc6F)c6ccc3[nH]6)C=C5)C=C4)cc2)CCN(C(=O)[C@H]2CCCCO2)CC1
REMARK SMILES IDX 16 1 15 2 14 3 13 4 12 5 10 6 11 7 9 8 78 9 90 10 79 11
REMARK SMILES IDX 89 12 80 13 81 14 82 15 8 16 7 17 1 18 2 19 3 20 4 21 6 22
REMARK SMILES IDX 5 23 83 24 84 25 88 26 85 27 87 28 86 29 17 30 18 31 19 32
REMARK SMILES IDX 20 33 21 34 22 35 23 36 24 37 25 38 77 39 26 40 76 41 27 42
REMARK SMILES IDX 28 43 29 44 70 45 30 46 75 47 69 48 71 49 31 50 74 51 68 52
REMARK SMILES IDX 67 53 32 55 58 56 41 57 57 58 42 59 45 60 56 61 72 62 43 63
REMARK SMILES IDX 44 64 55 66 73 67 46 68 33 69 34 70 39 71 35 72 36 73 38 74
REMARK SMILES IDX 40 75 37 76 59 77 60 78 65 79 61 80 62 81 64 82 66 83 63 84
REMARK SMILES IDX 47 85 48 86 53 87 49 88 50 89 52 90 54 91 51 92
REMARK H PARENT 71 54 45 65
REMARK Flexibility Score: inf
ROOT
ATOM      1  C   UNL     1       9.508  -8.163  -5.476  1.00  0.00     0.188 C 
ENDROOT
BRANCH   1   2
ATOM      2  O   UNL     1       9.276  -6.744  -5.599  1.00  0.00    -0.376 OA
BRANCH   2   3
ATOM      3  C   UNL     1       9.789  -5.726  -4.726  1.00  0.00     0.202 C 
BRANCH   3   4
ATOM      4  C   UNL     1       8.974  -4.721  -3.588  1.00  0.00     0.261 C 
BRANCH   4   5
ATOM      5  O   UNL     1       7.865  -5.001  -2.248  1.00  0.00    -0.460 OA
BRANCH   5   6
ATOM      6  C   UNL     1       6.469  -5.356  -1.946  1.00  0.00     0.350 C 
ATOM      7  O   UNL     1       5.581  -5.650  -2.756  1.00  0.00    -0.247 OA
BRANCH   6   8
ATOM      8  C   UNL     1       5.883  -5.242  -0.531  1.00  0.00     0.209 C 
ATOM      9  C   UNL     1       7.019  -5.077   0.436  1.00  0.00     0.082 C 
ATOM     10  C   UNL     1       4.798  -4.144  -0.681  1.00  0.00     0.082 C 
ATOM     11  C   UNL     1       6.910  -3.913   1.378  1.00  0.00     0.124 C 
ATOM     12  C   UNL     1       5.222  -2.801  -0.153  1.00  0.00     0.124 C 
ATOM     13  N   UNL     1       5.951  -2.856   1.103  1.00  0.00    -0.340 N 
ATOM     14  C   UNL     1       5.921  -1.850   2.069  1.00  0.00     0.251 C 
ATOM     15  O   UNL     1       6.772  -1.822   2.964  1.00  0.00    -0.272 OA
BRANCH   8  16
ATOM     16  O   UNL     1       5.278  -6.568  -0.350  1.00  0.00    -0.475 OA
BRANCH  16  17
ATOM     17  C   UNL     1       4.117  -6.945   0.273  1.00  0.00     0.123 A 
ATOM     18  C   UNL     1       3.979  -5.353   2.317  1.00  0.00     0.048 C 
ATOM     19  C   UNL     1       3.534  -6.500   1.471  1.00  0.00    -0.009 A 
ATOM     20  C   UNL     1       2.441  -7.220   2.023  1.00  0.00     0.007 A 
ATOM     21  C   UNL     1       1.892  -8.331   1.396  1.00  0.00     0.001 A 
ATOM     22  C   UNL     1       3.512  -8.050  -0.366  1.00  0.00     0.047 A 
ATOM     23  C   UNL     1       2.415  -8.734   0.180  1.00  0.00     0.004 A 
ENDBRANCH  16  17
ENDBRANCH   8  16
BRANCH  14  24
ATOM     24  C   UNL     1       4.743  -0.865   2.058  1.00  0.00     0.207 C 
ATOM     25  C   UNL     1       3.549  -1.592   2.700  1.00  0.00     0.042 C 
ATOM     26  O   UNL     1       5.124   0.291   2.807  1.00  0.00    -0.368 OA
ATOM     27  C   UNL     1       2.413  -0.645   3.055  1.00  0.00     0.006 C 
ATOM     28  C   UNL     1       4.063   1.216   2.991  1.00  0.00     0.161 C 
ATOM     29  C   UNL     1       2.949   0.570   3.796  1.00  0.00     0.029 C 
ENDBRANCH  14  24
ENDBRANCH   6   8
ENDBRANCH   5   6
ENDBRANCH   4   5
ENDBRANCH   3   4
ENDBRANCH   2   3
ENDBRANCH   1   2
BRANCH   1  30
ATOM     30  C   UNL     1      10.747  -8.760  -4.803  1.00  0.00     0.188 C 
BRANCH  30  31
ATOM     31  O   UNL     1      11.043  -8.069  -3.604  1.00  0.00    -0.376 OA
BRANCH  31  32
ATOM     32  C   UNL     1      12.153  -8.554  -2.868  1.00  0.00     0.202 C 
BRANCH  32  33
ATOM     33  C   UNL     1      11.838  -9.817  -2.040  1.00  0.00     0.261 C 
BRANCH  33  34
ATOM     34  O   UNL     1      10.678  -9.617  -1.195  1.00  0.00    -0.460 OA
BRANCH  34  35
ATOM     35  C   UNL     1       9.522 -10.287  -1.515  1.00  0.00     0.338 C 
ATOM     36  O   UNL     1       9.454 -11.480  -1.776  1.00  0.00    -0.246 OA
BRANCH  35  37
ATOM     37  C   UNL     1       8.418  -9.301  -1.771  1.00  0.00     0.060 A 
ATOM     38  C   UNL     1       7.251  -9.540  -2.513  1.00  0.00     0.016 A 
ATOM     39  C   UNL     1       8.788  -8.010  -1.663  1.00  0.00     0.016 A 
ATOM     40  C   UNL     1       6.631  -8.503  -3.326  1.00  0.00     0.010 A 
ATOM     41  C   UNL     1       8.390  -7.213  -2.724  1.00  0.00     0.010 A 
ATOM     42  C   UNL     1       7.256  -7.277  -3.581  1.00  0.00    -0.014 A 
BRANCH  42  43
ATOM     43  C   UNL     1       6.766  -6.112  -4.756  1.00  0.00     0.031 A 
ATOM     44  C   UNL     1       6.339  -4.404  -4.665  1.00  0.00     0.074 A 
ATOM     45  C   UNL     1       6.451  -6.638  -5.962  1.00  0.00     0.049 A 
ATOM     46  N   UNL     1       5.515  -3.780  -5.493  1.00  0.00    -0.248 NA
ATOM     47  C   UNL     1       6.666  -3.351  -3.616  1.00  0.00     0.031 C 
ATOM     48  C   UNL     1       6.096  -5.944  -7.195  1.00  0.00     0.029 A 
ATOM     49  N   UNL     1       6.208  -7.987  -6.255  1.00  0.00    -0.354 N 
ATOM     50  C   UNL     1       5.401  -2.425  -5.125  1.00  0.00     0.074 A 
ATOM     51  C   UNL     1       5.912  -2.302  -3.839  1.00  0.00     0.031 C 
ATOM     52  C   UNL     1       5.378  -6.781  -7.959  1.00  0.00     0.029 A 
ATOM     53  C   UNL     1       5.155  -7.986  -7.179  1.00  0.00     0.049 A 
ATOM     54  H   UNL     1       6.678  -8.771  -5.888  1.00  0.00     0.167 HD
ATOM     55  C   UNL     1       4.977  -1.406  -5.913  1.00  0.00     0.037 A 
ATOM     56  C   UNL     1       3.949  -8.544  -6.883  1.00  0.00     0.037 A 
ATOM     57  C   UNL     1       4.189  -1.983  -6.963  1.00  0.00     0.049 A 
ATOM     58  C   UNL     1       2.797  -7.587  -7.082  1.00  0.00     0.074 A 
ATOM     59  C   UNL     1       4.490  -2.400  -8.241  1.00  0.00     0.029 A 
ATOM     60  N   UNL     1       3.009  -2.609  -6.589  1.00  0.00    -0.354 N 
ATOM     61  N   UNL     1       2.915  -6.286  -7.141  1.00  0.00    -0.248 NA
ATOM     62  C   UNL     1       1.415  -8.028  -7.233  1.00  0.00     0.031 C 
ATOM     63  C   UNL     1       3.556  -3.420  -8.570  1.00  0.00     0.029 A 
ATOM     64  C   UNL     1       2.649  -3.549  -7.529  1.00  0.00     0.049 A 
ATOM     65  H   UNL     1       2.501  -2.409  -5.769  1.00  0.00     0.167 HD
ATOM     66  C   UNL     1       1.675  -5.723  -7.284  1.00  0.00     0.074 A 
ATOM     67  C   UNL     1       0.774  -6.856  -7.367  1.00  0.00     0.031 C 
ATOM     68  C   UNL     1       1.472  -4.373  -7.300  1.00  0.00     0.037 A 
BRANCH  55  69
ATOM     69  C   UNL     1       5.396   0.078  -5.778  1.00  0.00     0.057 A 
ATOM     70  C   UNL     1       5.043   0.979  -6.802  1.00  0.00     0.134 A 
ATOM     71  C   UNL     1       6.243   0.676  -4.800  1.00  0.00     0.134 A 
ATOM     72  F   UNL     1       4.260   0.596  -7.819  1.00  0.00    -0.206 F 
ATOM     73  C   UNL     1       5.506   2.311  -6.865  1.00  0.00     0.040 A 
ATOM     74  C   UNL     1       6.673   2.016  -4.829  1.00  0.00     0.040 A 
ATOM     75  F   UNL     1       6.779   0.017  -3.770  1.00  0.00    -0.206 F 
ATOM     76  C   UNL     1       6.324   2.838  -5.878  1.00  0.00     0.006 A 
ENDBRANCH  55  69
BRANCH  56  77
ATOM     77  C   UNL     1       3.993  -9.694  -5.926  1.00  0.00     0.057 A 
ATOM     78  C   UNL     1       4.890 -10.756  -6.177  1.00  0.00     0.134 A 
ATOM     79  C   UNL     1       3.393  -9.680  -4.662  1.00  0.00     0.134 A 
ATOM     80  F   UNL     1       5.504 -10.855  -7.369  1.00  0.00    -0.206 F 
ATOM     81  C   UNL     1       5.254 -11.686  -5.198  1.00  0.00     0.040 A 
ATOM     82  C   UNL     1       3.734 -10.624  -3.675  1.00  0.00     0.040 A 
ATOM     83  F   UNL     1       2.549  -8.700  -4.314  1.00  0.00    -0.206 F 
ATOM     84  C   UNL     1       4.684 -11.612  -3.933  1.00  0.00     0.006 A 
ENDBRANCH  56  77
BRANCH  68  85
ATOM     85  C   UNL     1       0.134  -3.694  -7.121  1.00  0.00     0.057 A 
ATOM     86  C   UNL     1      -0.934  -4.242  -6.394  1.00  0.00     0.134 A 
ATOM     87  C   UNL     1      -0.056  -2.359  -7.545  1.00  0.00     0.134 A 
ATOM     88  F   UNL     1      -0.849  -5.449  -5.819  1.00  0.00    -0.206 F 
ATOM     89  C   UNL     1      -2.126  -3.543  -6.167  1.00  0.00     0.040 A 
ATOM     90  C   UNL     1      -1.214  -1.629  -7.265  1.00  0.00     0.040 A 
ATOM     91  F   UNL     1       0.892  -1.692  -8.221  1.00  0.00    -0.206 F 
ATOM     92  C   UNL     1      -2.265  -2.228  -6.591  1.00  0.00     0.006 A 
ENDBRANCH  68  85
ENDBRANCH  42  43
ENDBRANCH  35  37
ENDBRANCH  34  35
ENDBRANCH  33  34
ENDBRANCH  32  33
ENDBRANCH  31  32
ENDBRANCH  30  31
ENDBRANCH   1  30
TORSDOF 20
