REMARK SMILES Cn1cc(C(=O)OCCOCCOCCOC(=O)c2ccc(-c3c4nc(c(-c5c(F)cccc5F)c5ccc([nH]5)c(-c5c(F)cccc5F)c5nc(c(-c6c(F)cccc6F)c6ccc3[nH]6)C=C5)C=C4)cc2)c(C(=O)Nc2ccc(-c3nc4cc(Cl)ccc4o3)cc2)n1
REMARK SMILES IDX 11 1 10 2 9 3 8 4 7 5 5 6 6 7 4 8 1 9 2 10 3 11 93 12 73 13
REMARK SMILES IDX 74 14 75 15 76 16 77 18 78 19 92 20 79 21 91 22 80 23 81 24
REMARK SMILES IDX 82 25 90 26 83 27 89 28 84 29 88 30 85 31 87 32 86 33 12 34
REMARK SMILES IDX 13 35 14 36 15 37 16 38 17 39 18 40 19 41 20 42 72 43 21 44
REMARK SMILES IDX 71 45 22 46 23 47 24 48 65 49 25 50 70 51 64 52 66 53 26 54
REMARK SMILES IDX 69 55 63 56 62 57 27 59 53 60 36 61 52 62 37 63 40 64 51 65
REMARK SMILES IDX 67 66 38 67 39 68 50 70 68 71 41 72 28 73 29 74 34 75 30 76
REMARK SMILES IDX 31 77 33 78 35 79 32 80 54 81 55 82 60 83 56 84 57 85 59 86
REMARK SMILES IDX 61 87 58 88 42 89 43 90 48 91 44 92 45 93 47 94 49 95 46 96
REMARK H PARENT 76 17 66 58 40 69
REMARK Flexibility Score: inf
ROOT
ATOM      1  C   UNL     1       3.573  -1.950  -2.710  1.00  0.00     0.188 C 
ENDROOT
BRANCH   1   2
ATOM      2  O   UNL     1       4.064  -3.289  -2.761  1.00  0.00    -0.376 OA
BRANCH   2   3
ATOM      3  C   UNL     1       3.764  -4.127  -1.649  1.00  0.00     0.202 C 
BRANCH   3   4
ATOM      4  C   UNL     1       2.332  -4.124  -1.121  1.00  0.00     0.261 C 
BRANCH   4   5
ATOM      5  O   UNL     1       2.047  -2.805  -0.618  1.00  0.00    -0.460 OA
BRANCH   5   6
ATOM      6  C   UNL     1       1.261  -2.682   0.464  1.00  0.00     0.342 C 
ATOM      7  O   UNL     1       0.888  -3.616   1.166  1.00  0.00    -0.246 OA
BRANCH   6   8
ATOM      8  C   UNL     1       0.756  -1.333   0.603  1.00  0.00     0.111 A 
ATOM      9  C   UNL     1      -2.055   0.861   0.139  1.00  0.00     0.173 C 
ATOM     10  N   UNL     1      -0.823   0.177   0.450  1.00  0.00    -0.274 N 
ATOM     11  C   UNL     1      -0.616  -1.152   0.487  1.00  0.00     0.125 A 
ATOM     12  N   UNL     1       0.281   0.881   0.663  1.00  0.00    -0.167 NA
ATOM     13  C   UNL     1       1.312  -0.003   0.750  1.00  0.00     0.165 A 
BRANCH  13  14
ATOM     14  C   UNL     1       2.637   0.681   0.915  1.00  0.00     0.277 C 
ATOM     15  O   UNL     1       2.715   1.899   0.664  1.00  0.00    -0.267 OA
ATOM     16  N   UNL     1       3.874   0.219   1.305  1.00  0.00    -0.321 N 
ATOM     17  H   UNL     1       4.518   0.963   1.347  1.00  0.00     0.170 HD
BRANCH  16  18
ATOM     18  C   UNL     1       4.495  -0.972   1.656  1.00  0.00     0.041 A 
ATOM     19  C   UNL     1       5.903  -1.013   1.629  1.00  0.00     0.027 A 
ATOM     20  C   UNL     1       3.809  -2.118   1.962  1.00  0.00     0.027 A 
ATOM     21  C   UNL     1       6.589  -2.237   1.646  1.00  0.00     0.016 A 
ATOM     22  C   UNL     1       4.471  -3.339   1.932  1.00  0.00     0.016 A 
ATOM     23  C   UNL     1       5.856  -3.418   1.707  1.00  0.00     0.037 A 
BRANCH  23  24
ATOM     24  C   UNL     1       6.393  -4.724   1.328  1.00  0.00     0.227 A 
ATOM     25  N   UNL     1       6.807  -5.066   0.117  1.00  0.00    -0.209 NA
ATOM     26  O   UNL     1       5.856  -5.762   2.050  1.00  0.00    -0.436 OA
ATOM     27  C   UNL     1       6.245  -6.308  -0.066  1.00  0.00     0.111 A 
ATOM     28  C   UNL     1       5.666  -6.733   1.118  1.00  0.00     0.155 A 
ATOM     29  C   UNL     1       6.072  -7.082  -1.221  1.00  0.00     0.053 A 
ATOM     30  C   UNL     1       4.906  -7.883   1.273  1.00  0.00     0.051 A 
ATOM     31  C   UNL     1       5.254  -8.217  -1.119  1.00  0.00     0.043 A 
ATOM     32  C   UNL     1       4.683  -8.611   0.100  1.00  0.00     0.024 A 
ATOM     33  Cl  UNL     1       4.877  -9.112  -2.542  1.00  0.00    -0.084 Cl
ENDBRANCH  23  24
ENDBRANCH  16  18
ENDBRANCH  13  14
ENDBRANCH   6   8
ENDBRANCH   5   6
ENDBRANCH   4   5
ENDBRANCH   3   4
ENDBRANCH   2   3
ENDBRANCH   1   2
BRANCH   1  34
ATOM     34  C   UNL     1       2.182  -1.833  -3.364  1.00  0.00     0.188 C 
BRANCH  34  35
ATOM     35  O   UNL     1       1.819  -3.013  -4.079  1.00  0.00    -0.376 OA
BRANCH  35  36
ATOM     36  C   UNL     1       2.126  -3.027  -5.473  1.00  0.00     0.202 C 
BRANCH  36  37
ATOM     37  C   UNL     1       3.596  -2.812  -5.874  1.00  0.00     0.261 C 
BRANCH  37  38
ATOM     38  O   UNL     1       4.124  -1.501  -5.593  1.00  0.00    -0.460 OA
BRANCH  38  39
ATOM     39  C   UNL     1       3.482  -0.440  -6.123  1.00  0.00     0.338 C 
ATOM     40  O   UNL     1       2.561  -0.452  -6.919  1.00  0.00    -0.246 OA
BRANCH  39  41
ATOM     41  C   UNL     1       3.953   0.774  -5.427  1.00  0.00     0.060 A 
ATOM     42  C   UNL     1       3.007   1.595  -4.799  1.00  0.00     0.016 A 
ATOM     43  C   UNL     1       5.305   1.123  -5.435  1.00  0.00     0.016 A 
ATOM     44  C   UNL     1       3.403   2.805  -4.234  1.00  0.00     0.010 A 
ATOM     45  C   UNL     1       5.698   2.350  -4.895  1.00  0.00     0.010 A 
ATOM     46  C   UNL     1       4.739   3.216  -4.341  1.00  0.00    -0.014 A 
BRANCH  46  47
ATOM     47  C   UNL     1       5.065   4.649  -4.155  1.00  0.00     0.031 A 
ATOM     48  C   UNL     1       4.929   5.554  -5.351  1.00  0.00     0.074 A 
ATOM     49  C   UNL     1       5.445   5.148  -2.967  1.00  0.00     0.049 A 
ATOM     50  N   UNL     1       5.148   6.840  -5.453  1.00  0.00    -0.248 NA
ATOM     51  C   UNL     1       4.480   4.919  -6.603  1.00  0.00     0.031 C 
ATOM     52  C   UNL     1       5.570   4.390  -1.726  1.00  0.00     0.029 A 
ATOM     53  N   UNL     1       5.799   6.429  -2.621  1.00  0.00    -0.354 N 
ATOM     54  C   UNL     1       4.846   7.167  -6.769  1.00  0.00     0.074 A 
ATOM     55  C   UNL     1       4.463   5.945  -7.439  1.00  0.00     0.031 C 
ATOM     56  C   UNL     1       5.987   5.220  -0.751  1.00  0.00     0.029 A 
ATOM     57  C   UNL     1       6.172   6.560  -1.307  1.00  0.00     0.049 A 
ATOM     58  H   UNL     1       5.786   7.181  -3.256  1.00  0.00     0.167 HD
ATOM     59  C   UNL     1       4.875   8.379  -7.368  1.00  0.00     0.037 A 
ATOM     60  C   UNL     1       6.619   7.641  -0.639  1.00  0.00     0.037 A 
ATOM     61  C   UNL     1       5.277   9.593  -6.719  1.00  0.00     0.049 A 
ATOM     62  C   UNL     1       6.733   8.963  -1.354  1.00  0.00     0.074 A 
ATOM     63  C   UNL     1       5.343  10.872  -7.242  1.00  0.00     0.029 A 
ATOM     64  N   UNL     1       5.695   9.674  -5.400  1.00  0.00    -0.354 N 
ATOM     65  N   UNL     1       6.417   9.268  -2.589  1.00  0.00    -0.248 NA
ATOM     66  C   UNL     1       7.269  10.092  -0.578  1.00  0.00     0.031 C 
ATOM     67  C   UNL     1       5.838  11.723  -6.248  1.00  0.00     0.029 A 
ATOM     68  C   UNL     1       6.045  10.977  -5.098  1.00  0.00     0.049 A 
ATOM     69  H   UNL     1       5.735   8.917  -4.772  1.00  0.00     0.167 HD
ATOM     70  C   UNL     1       6.689  10.624  -2.730  1.00  0.00     0.074 A 
ATOM     71  C   UNL     1       7.191  11.085  -1.453  1.00  0.00     0.031 C 
ATOM     72  C   UNL     1       6.536  11.417  -3.818  1.00  0.00     0.037 A 
BRANCH  59  73
ATOM     73  C   UNL     1       4.478   8.430  -8.810  1.00  0.00     0.057 A 
ATOM     74  C   UNL     1       3.137   8.338  -9.204  1.00  0.00     0.134 A 
ATOM     75  C   UNL     1       5.444   8.569  -9.813  1.00  0.00     0.134 A 
ATOM     76  F   UNL     1       2.169   8.181  -8.289  1.00  0.00    -0.206 F 
ATOM     77  C   UNL     1       2.772   8.364 -10.551  1.00  0.00     0.040 A 
ATOM     78  C   UNL     1       5.089   8.614 -11.162  1.00  0.00     0.040 A 
ATOM     79  F   UNL     1       6.745   8.655  -9.499  1.00  0.00    -0.206 F 
ATOM     80  C   UNL     1       3.750   8.507 -11.534  1.00  0.00     0.006 A 
ENDBRANCH  59  73
BRANCH  60  81
ATOM     81  C   UNL     1       7.010   7.529   0.788  1.00  0.00     0.057 A 
ATOM     82  C   UNL     1       6.244   8.121   1.798  1.00  0.00     0.134 A 
ATOM     83  C   UNL     1       8.183   6.869   1.169  1.00  0.00     0.134 A 
ATOM     84  F   UNL     1       5.125   8.794   1.491  1.00  0.00    -0.206 F 
ATOM     85  C   UNL     1       6.640   8.075   3.136  1.00  0.00     0.040 A 
ATOM     86  C   UNL     1       8.582   6.799   2.504  1.00  0.00     0.040 A 
ATOM     87  F   UNL     1       8.964   6.287   0.246  1.00  0.00    -0.206 F 
ATOM     88  C   UNL     1       7.812   7.410   3.492  1.00  0.00     0.006 A 
ENDBRANCH  60  81
BRANCH  72  89
ATOM     89  C   UNL     1       6.891  12.866  -3.672  1.00  0.00     0.057 A 
ATOM     90  C   UNL     1       8.222  13.297  -3.650  1.00  0.00     0.134 A 
ATOM     91  C   UNL     1       5.889  13.843  -3.613  1.00  0.00     0.134 A 
ATOM     92  F   UNL     1       9.226  12.408  -3.693  1.00  0.00    -0.206 F 
ATOM     93  C   UNL     1       8.546  14.652  -3.562  1.00  0.00     0.040 A 
ATOM     94  C   UNL     1       6.201  15.201  -3.545  1.00  0.00     0.040 A 
ATOM     95  F   UNL     1       4.594  13.494  -3.640  1.00  0.00    -0.206 F 
ATOM     96  C   UNL     1       7.533  15.608  -3.516  1.00  0.00     0.006 A 
ENDBRANCH  72  89
ENDBRANCH  46  47
ENDBRANCH  39  41
ENDBRANCH  38  39
ENDBRANCH  37  38
ENDBRANCH  36  37
ENDBRANCH  35  36
ENDBRANCH  34  35
ENDBRANCH   1  34
TORSDOF 20
