REMARK SMILES Cc1ccc(-c2ccc(C(=O)Nc3ccc(C(=O)OCCOCCOCCOC(=O)c4ccc(-c5c6nc(c(-c7c(F)cccc7F)c7ccc([nH]7)c(-c7c(F)cccc7F)c7nc(c(-c8c(F)cccc8F)c8ccc5[nH]8)C=C7)C=C6)cc4)c(O)c3)o2)c([N+](=O)[O-])c1
REMARK SMILES IDX 23 1 22 2 21 3 20 4 19 5 17 6 18 7 16 8 13 9 14 10 87 11
REMARK SMILES IDX 15 12 85 13 12 14 10 15 11 16 9 18 6 19 7 20 88 21 8 22 5 23
REMARK SMILES IDX 1 24 2 25 3 26 93 27 4 28 89 29 90 30 91 31 92 32 86 33
REMARK SMILES IDX 24 35 25 36 26 37 27 38 28 39 29 40 30 41 31 42 32 43 84 44
REMARK SMILES IDX 33 45 83 46 34 47 35 48 36 49 77 50 37 51 82 52 76 53 78 54
REMARK SMILES IDX 38 55 81 56 75 57 74 58 39 60 65 61 48 62 64 63 49 64 52 65
REMARK SMILES IDX 63 66 79 67 50 68 51 69 62 71 80 72 53 73 40 74 41 75 46 76
REMARK SMILES IDX 42 77 43 78 45 79 47 80 44 81 66 82 67 83 72 84 68 85 69 86
REMARK SMILES IDX 71 87 73 88 70 89 54 90 55 91 60 92 56 93 57 94 59 95 61 96
REMARK SMILES IDX 58 97
REMARK H PARENT 12 17 86 34 78 59 52 70
REMARK Flexibility Score: inf
ROOT
ATOM      1  C   UNL     1      -9.957   3.920  -7.605  1.00  0.00     0.188 C 
ENDROOT
BRANCH   1   2
ATOM      2  O   UNL     1      -8.620   3.798  -7.095  1.00  0.00    -0.376 OA
BRANCH   2   3
ATOM      3  C   UNL     1      -7.707   3.058  -7.917  1.00  0.00     0.202 C 
BRANCH   3   4
ATOM      4  C   UNL     1      -6.474   2.408  -7.186  1.00  0.00     0.261 C 
BRANCH   4   5
ATOM      5  O   UNL     1      -6.439   1.141  -6.363  1.00  0.00    -0.460 OA
BRANCH   5   6
ATOM      6  C   UNL     1      -7.440   0.841  -5.456  1.00  0.00     0.341 C 
ATOM      7  O   UNL     1      -8.526   1.049  -6.016  1.00  0.00    -0.246 OA
BRANCH   6   8
ATOM      8  C   UNL     1      -7.215   0.284  -3.687  1.00  0.00     0.101 A 
ATOM      9  C   UNL     1      -7.496  -0.897  -0.995  1.00  0.00     0.045 A 
ATOM     10  C   UNL     1      -6.938  -1.580  -2.100  1.00  0.00     0.027 A 
ATOM     11  C   UNL     1      -7.990   0.353  -1.179  1.00  0.00     0.073 A 
ATOM     12  C   UNL     1      -6.883  -1.043  -3.441  1.00  0.00     0.022 A 
ATOM     13  C   UNL     1      -7.633   0.960  -2.383  1.00  0.00     0.132 A 
BRANCH   9  14
ATOM     14  N   UNL     1      -7.388  -1.307   0.349  1.00  0.00    -0.319 N 
ATOM     15  C   UNL     1      -6.253  -1.150   1.156  1.00  0.00     0.291 C 
ATOM     16  O   UNL     1      -6.326  -1.535   2.325  1.00  0.00    -0.265 OA
ATOM     17  H   UNL     1      -8.174  -1.740   0.754  1.00  0.00     0.170 HD
BRANCH  15  18
ATOM     18  C   UNL     1      -5.102  -0.450   0.614  1.00  0.00     0.192 A 
ATOM     19  C   UNL     1      -2.984  -0.015   0.228  1.00  0.00     0.142 A 
ATOM     20  C   UNL     1      -3.710   0.840  -0.559  1.00  0.00     0.052 A 
ATOM     21  O   UNL     1      -3.814  -0.858   0.913  1.00  0.00    -0.451 OA
ATOM     22  C   UNL     1      -5.029   0.700  -0.149  1.00  0.00     0.057 A 
BRANCH  19  23
ATOM     23  C   UNL     1      -1.548  -0.071   0.415  1.00  0.00     0.095 A 
ATOM     24  C   UNL     1       2.752  -0.173  -0.002  1.00  0.00     0.044 C 
ATOM     25  C   UNL     1       1.268  -0.137   0.200  1.00  0.00    -0.044 A 
ATOM     26  C   UNL     1       0.522  -1.325   0.264  1.00  0.00     0.004 A 
ATOM     27  C   UNL     1       0.611   1.088   0.307  1.00  0.00     0.089 A 
ATOM     28  C   UNL     1      -0.875  -1.295   0.373  1.00  0.00     0.019 A 
ATOM     29  C   UNL     1      -0.779   1.113   0.430  1.00  0.00     0.280 A 
BRANCH  29  30
ATOM     30  N   UNL     1      -1.400   2.433   0.541  1.00  0.00     0.063 N 
ATOM     31  O   UNL     1      -2.230   2.612   1.442  1.00  0.00    -0.258 OA
ATOM     32  O   UNL     1      -1.028   3.300  -0.263  1.00  0.00    -0.258 OA
ENDBRANCH  29  30
ENDBRANCH  19  23
ENDBRANCH  15  18
ENDBRANCH   9  14
BRANCH  13  33
ATOM     33  O   UNL     1      -7.424   2.293  -2.032  1.00  0.00    -0.507 OA
ATOM     34  H   UNL     1      -7.169   2.915  -2.686  1.00  0.00     0.293 HD
ENDBRANCH  13  33
ENDBRANCH   6   8
ENDBRANCH   5   6
ENDBRANCH   4   5
ENDBRANCH   3   4
ENDBRANCH   2   3
ENDBRANCH   1   2
BRANCH   1  35
ATOM     35  C   UNL     1     -10.784   2.676  -7.315  1.00  0.00     0.188 C 
BRANCH  35  36
ATOM     36  O   UNL     1     -10.142   1.558  -7.882  1.00  0.00    -0.376 OA
BRANCH  36  37
ATOM     37  C   UNL     1     -10.888   0.574  -8.548  1.00  0.00     0.202 C 
BRANCH  37  38
ATOM     38  C   UNL     1     -12.254   0.212  -7.949  1.00  0.00     0.261 C 
BRANCH  38  39
ATOM     39  O   UNL     1     -12.153  -0.068  -6.536  1.00  0.00    -0.460 OA
BRANCH  39  40
ATOM     40  C   UNL     1     -12.854   0.717  -5.647  1.00  0.00     0.338 C 
ATOM     41  O   UNL     1     -13.846   1.365  -5.895  1.00  0.00    -0.246 OA
BRANCH  40  42
ATOM     42  C   UNL     1     -12.026   0.892  -4.400  1.00  0.00     0.060 A 
ATOM     43  C   UNL     1     -11.926   2.111  -3.717  1.00  0.00     0.016 A 
ATOM     44  C   UNL     1     -10.955   0.095  -4.283  1.00  0.00     0.016 A 
ATOM     45  C   UNL     1     -10.642   2.739  -3.442  1.00  0.00     0.010 A 
ATOM     46  C   UNL     1      -9.755   0.775  -4.074  1.00  0.00     0.010 A 
ATOM     47  C   UNL     1      -9.443   2.195  -3.880  1.00  0.00    -0.014 A 
BRANCH  47  48
ATOM     48  C   UNL     1      -7.956   3.161  -4.164  1.00  0.00     0.031 A 
ATOM     49  C   UNL     1      -6.179   2.896  -3.963  1.00  0.00     0.074 A 
ATOM     50  C   UNL     1      -8.137   4.468  -4.465  1.00  0.00     0.049 A 
ATOM     51  N   UNL     1      -5.302   3.710  -3.377  1.00  0.00    -0.248 NA
ATOM     52  C   UNL     1      -5.340   1.699  -4.298  1.00  0.00     0.031 C 
ATOM     53  C   UNL     1      -7.128   5.430  -4.911  1.00  0.00     0.029 A 
ATOM     54  N   UNL     1      -9.314   5.214  -4.442  1.00  0.00    -0.354 N 
ATOM     55  C   UNL     1      -3.992   3.130  -3.467  1.00  0.00     0.074 A 
ATOM     56  C   UNL     1      -4.156   1.786  -3.749  1.00  0.00     0.031 C 
ATOM     57  C   UNL     1      -7.653   6.664  -4.891  1.00  0.00     0.029 A 
ATOM     58  C   UNL     1      -8.957   6.561  -4.276  1.00  0.00     0.049 A 
ATOM     59  H   UNL     1     -10.229   4.860  -4.526  1.00  0.00     0.167 HD
ATOM     60  C   UNL     1      -2.799   3.767  -3.651  1.00  0.00     0.037 A 
ATOM     61  C   UNL     1      -9.393   7.257  -3.189  1.00  0.00     0.037 A 
ATOM     62  C   UNL     1      -3.084   5.163  -3.659  1.00  0.00     0.049 A 
ATOM     63  C   UNL     1      -8.230   7.678  -2.316  1.00  0.00     0.074 A 
ATOM     64  C   UNL     1      -3.382   6.051  -4.672  1.00  0.00     0.029 A 
ATOM     65  N   UNL     1      -3.564   5.686  -2.485  1.00  0.00    -0.354 N 
ATOM     66  N   UNL     1      -7.032   7.165  -2.438  1.00  0.00    -0.248 NA
ATOM     67  C   UNL     1      -8.263   8.733  -1.307  1.00  0.00     0.031 C 
ATOM     68  C   UNL     1      -4.150   7.095  -4.086  1.00  0.00     0.029 A 
ATOM     69  C   UNL     1      -4.266   6.840  -2.728  1.00  0.00     0.049 A 
ATOM     70  H   UNL     1      -3.424   5.291  -1.594  1.00  0.00     0.167 HD
ATOM     71  C   UNL     1      -6.156   7.810  -1.614  1.00  0.00     0.074 A 
ATOM     72  C   UNL     1      -6.979   8.765  -0.902  1.00  0.00     0.031 C 
ATOM     73  C   UNL     1      -4.822   7.532  -1.585  1.00  0.00     0.037 A 
BRANCH  60  74
ATOM     74  C   UNL     1      -1.490   3.115  -4.168  1.00  0.00     0.057 A 
ATOM     75  C   UNL     1      -0.544   3.897  -4.856  1.00  0.00     0.134 A 
ATOM     76  C   UNL     1      -1.102   1.752  -4.076  1.00  0.00     0.134 A 
ATOM     77  F   UNL     1      -0.668   5.229  -4.929  1.00  0.00    -0.206 F 
ATOM     78  C   UNL     1       0.593   3.365  -5.496  1.00  0.00     0.040 A 
ATOM     79  C   UNL     1      -0.022   1.189  -4.789  1.00  0.00     0.040 A 
ATOM     80  F   UNL     1      -1.689   0.897  -3.227  1.00  0.00    -0.206 F 
ATOM     81  C   UNL     1       0.833   2.000  -5.509  1.00  0.00     0.006 A 
ENDBRANCH  60  74
BRANCH  61  82
ATOM     82  C   UNL     1     -10.812   6.904  -2.866  1.00  0.00     0.057 A 
ATOM     83  C   UNL     1     -11.739   7.099  -3.922  1.00  0.00     0.134 A 
ATOM     84  C   UNL     1     -11.182   5.977  -1.887  1.00  0.00     0.134 A 
ATOM     85  F   UNL     1     -11.469   7.990  -4.890  1.00  0.00    -0.206 F 
ATOM     86  C   UNL     1     -12.843   6.266  -4.119  1.00  0.00     0.040 A 
ATOM     87  C   UNL     1     -12.347   5.194  -2.030  1.00  0.00     0.040 A 
ATOM     88  F   UNL     1     -10.343   5.662  -0.890  1.00  0.00    -0.206 F 
ATOM     89  C   UNL     1     -13.136   5.289  -3.181  1.00  0.00     0.006 A 
ENDBRANCH  61  82
BRANCH  73  90
ATOM     90  C   UNL     1      -3.885   7.833  -0.440  1.00  0.00     0.057 A 
ATOM     91  C   UNL     1      -4.310   7.901   0.890  1.00  0.00     0.134 A 
ATOM     92  C   UNL     1      -2.480   7.783  -0.627  1.00  0.00     0.134 A 
ATOM     93  F   UNL     1      -5.609   7.852   1.216  1.00  0.00    -0.206 F 
ATOM     94  C   UNL     1      -3.407   7.950   1.957  1.00  0.00     0.040 A 
ATOM     95  C   UNL     1      -1.577   7.736   0.434  1.00  0.00     0.040 A 
ATOM     96  F   UNL     1      -1.929   7.714  -1.849  1.00  0.00    -0.206 F 
ATOM     97  C   UNL     1      -2.039   7.841   1.734  1.00  0.00     0.006 A 
ENDBRANCH  73  90
ENDBRANCH  47  48
ENDBRANCH  40  42
ENDBRANCH  39  40
ENDBRANCH  38  39
ENDBRANCH  37  38
ENDBRANCH  36  37
ENDBRANCH  35  36
ENDBRANCH   1  35
TORSDOF 22
