REMARK SMILES Cc1ccccc1NC(=O)CSc1nc(C(=O)OCCOCCOCCOC(=O)c2ccc(-c3c4nc(c(-c5c(F)cccc5F)c5ccc([nH]5)c(-c5c(F)cccc5F)c5nc(c(-c6c(F)cccc6F)c6ccc3[nH]6)C=C5)C=C4)cc2)c2ccccc2n1
REMARK SMILES IDX 22 1 21 2 20 3 19 4 18 5 16 6 17 7 15 8 13 9 14 10 90 11
REMARK SMILES IDX 89 12 84 13 88 14 85 15 87 16 86 17 12 18 11 19 9 20 8 21
REMARK SMILES IDX 10 23 7 24 1 25 2 26 3 27 4 28 6 29 5 30 23 31 24 32 25 33
REMARK SMILES IDX 26 34 27 35 28 36 29 37 30 38 31 39 83 40 32 41 82 42 33 43
REMARK SMILES IDX 34 44 35 45 76 46 36 47 81 48 75 49 77 50 37 51 80 52 74 53
REMARK SMILES IDX 73 54 38 56 64 57 47 58 63 59 48 60 51 61 62 62 78 63 49 64
REMARK SMILES IDX 50 65 61 67 79 68 52 69 39 70 40 71 45 72 41 73 42 74 44 75
REMARK SMILES IDX 46 76 43 77 65 78 66 79 71 80 67 81 68 82 70 83 72 84 69 85
REMARK SMILES IDX 53 86 54 87 59 88 55 89 56 90 58 91 60 92 57 93
REMARK H PARENT 8 22 77 55 51 66
REMARK Flexibility Score: inf
ROOT
ATOM      1  C   UNL     1      -4.111  10.258  -5.853  1.00  0.00     0.188 C 
ENDROOT
BRANCH   1   2
ATOM      2  O   UNL     1      -3.406  10.229  -7.120  1.00  0.00    -0.376 OA
BRANCH   2   3
ATOM      3  C   UNL     1      -2.053   9.701  -7.199  1.00  0.00     0.202 C 
BRANCH   3   4
ATOM      4  C   UNL     1      -1.857   8.235  -8.014  1.00  0.00     0.261 C 
BRANCH   4   5
ATOM      5  O   UNL     1      -1.739   6.732  -7.348  1.00  0.00    -0.458 OA
BRANCH   5   6
ATOM      6  C   UNL     1      -0.935   5.984  -6.480  1.00  0.00     0.357 C 
ATOM      7  O   UNL     1       0.206   6.228  -6.113  1.00  0.00    -0.244 OA
BRANCH   6   8
ATOM      8  C   UNL     1      -1.305   4.608  -6.000  1.00  0.00     0.160 A 
ATOM      9  C   UNL     1      -1.234   3.226  -4.126  1.00  0.00     0.189 A 
ATOM     10  N   UNL     1      -1.554   4.426  -4.650  1.00  0.00    -0.215 NA
ATOM     11  N   UNL     1      -0.716   2.221  -4.849  1.00  0.00    -0.222 NA
ATOM     12  C   UNL     1      -0.452   2.430  -6.143  1.00  0.00     0.076 A 
ATOM     13  C   UNL     1      -0.731   3.628  -6.798  1.00  0.00     0.034 A 
ATOM     14  C   UNL     1       0.181   1.435  -6.873  1.00  0.00     0.029 A 
ATOM     15  C   UNL     1      -0.318   3.839  -8.134  1.00  0.00     0.013 A 
ATOM     16  C   UNL     1       0.582   1.633  -8.200  1.00  0.00     0.002 A 
ATOM     17  C   UNL     1       0.348   2.847  -8.827  1.00  0.00     0.001 A 
BRANCH   9  18
ATOM     18  S   UNL     1      -1.833   2.680  -2.526  1.00  0.00    -0.076 SA
BRANCH  18  19
ATOM     19  C   UNL     1      -1.144   3.788  -1.260  1.00  0.00     0.178 C 
BRANCH  19  20
ATOM     20  C   UNL     1       0.243   3.488  -0.715  1.00  0.00     0.234 C 
ATOM     21  N   UNL     1       0.691   2.306  -0.209  1.00  0.00    -0.325 N 
ATOM     22  H   UNL     1       1.635   2.352   0.068  1.00  0.00     0.169 HD
ATOM     23  O   UNL     1       1.066   4.415  -0.649  1.00  0.00    -0.274 OA
BRANCH  21  24
ATOM     24  C   UNL     1       0.132   1.037   0.015  1.00  0.00     0.044 A 
ATOM     25  C   UNL     1       2.475  -0.062  -0.170  1.00  0.00     0.046 C 
ATOM     26  C   UNL     1       0.977  -0.099   0.002  1.00  0.00    -0.027 A 
ATOM     27  C   UNL     1       0.403  -1.382   0.101  1.00  0.00     0.005 A 
ATOM     28  C   UNL     1      -0.966  -1.544   0.283  1.00  0.00     0.000 A 
ATOM     29  C   UNL     1      -1.228   0.860   0.281  1.00  0.00     0.026 A 
ATOM     30  C   UNL     1      -1.775  -0.421   0.408  1.00  0.00     0.002 A 
ENDBRANCH  21  24
ENDBRANCH  19  20
ENDBRANCH  18  19
ENDBRANCH   9  18
ENDBRANCH   6   8
ENDBRANCH   5   6
ENDBRANCH   4   5
ENDBRANCH   3   4
ENDBRANCH   2   3
ENDBRANCH   1   2
BRANCH   1  31
ATOM     31  C   UNL     1      -5.533   9.684  -6.035  1.00  0.00     0.188 C 
BRANCH  31  32
ATOM     32  O   UNL     1      -5.438   8.670  -7.028  1.00  0.00    -0.376 OA
BRANCH  32  33
ATOM     33  C   UNL     1      -6.642   8.195  -7.598  1.00  0.00     0.202 C 
BRANCH  33  34
ATOM     34  C   UNL     1      -7.385   7.173  -6.716  1.00  0.00     0.261 C 
BRANCH  34  35
ATOM     35  O   UNL     1      -6.488   6.122  -6.269  1.00  0.00    -0.460 OA
BRANCH  35  36
ATOM     36  C   UNL     1      -6.255   6.010  -4.920  1.00  0.00     0.338 C 
ATOM     37  O   UNL     1      -7.129   6.009  -4.060  1.00  0.00    -0.246 OA
BRANCH  36  38
ATOM     38  C   UNL     1      -4.786   6.152  -4.623  1.00  0.00     0.060 A 
ATOM     39  C   UNL     1      -4.151   6.196  -3.373  1.00  0.00     0.016 A 
ATOM     40  C   UNL     1      -4.043   6.629  -5.646  1.00  0.00     0.016 A 
ATOM     41  C   UNL     1      -2.830   6.818  -3.185  1.00  0.00     0.010 A 
ATOM     42  C   UNL     1      -2.951   7.433  -5.327  1.00  0.00     0.010 A 
ATOM     43  C   UNL     1      -2.174   7.517  -4.198  1.00  0.00    -0.014 A 
BRANCH  43  44
ATOM     44  C   UNL     1      -0.980   8.514  -4.181  1.00  0.00     0.031 A 
ATOM     45  C   UNL     1       0.439   8.511  -4.870  1.00  0.00     0.074 A 
ATOM     46  C   UNL     1      -1.221   9.693  -3.568  1.00  0.00     0.049 A 
ATOM     47  N   UNL     1       1.598   8.609  -4.259  1.00  0.00    -0.248 NA
ATOM     48  C   UNL     1       0.687   8.531  -6.327  1.00  0.00     0.031 C 
ATOM     49  C   UNL     1      -0.316  10.830  -3.421  1.00  0.00     0.029 A 
ATOM     50  N   UNL     1      -2.298  10.000  -2.736  1.00  0.00    -0.354 N 
ATOM     51  C   UNL     1       2.612   8.682  -5.235  1.00  0.00     0.074 A 
ATOM     52  C   UNL     1       2.000   8.422  -6.481  1.00  0.00     0.031 C 
ATOM     53  C   UNL     1      -0.656  11.473  -2.291  1.00  0.00     0.029 A 
ATOM     54  C   UNL     1      -1.740  10.724  -1.671  1.00  0.00     0.049 A 
ATOM     55  H   UNL     1      -3.244   9.760  -2.867  1.00  0.00     0.167 HD
ATOM     56  C   UNL     1       3.873   9.178  -5.077  1.00  0.00     0.037 A 
ATOM     57  C   UNL     1      -1.758  10.171  -0.427  1.00  0.00     0.037 A 
ATOM     58  C   UNL     1       3.928   9.910  -3.844  1.00  0.00     0.049 A 
ATOM     59  C   UNL     1      -0.364   9.905   0.099  1.00  0.00     0.074 A 
ATOM     60  C   UNL     1       3.660  11.241  -3.573  1.00  0.00     0.029 A 
ATOM     61  N   UNL     1       3.798   9.216  -2.659  1.00  0.00    -0.354 N 
ATOM     62  N   UNL     1       0.725   9.974  -0.621  1.00  0.00    -0.248 NA
ATOM     63  C   UNL     1      -0.087   9.545   1.486  1.00  0.00     0.031 C 
ATOM     64  C   UNL     1       3.216  11.316  -2.229  1.00  0.00     0.029 A 
ATOM     65  C   UNL     1       3.303  10.050  -1.677  1.00  0.00     0.049 A 
ATOM     66  H   UNL     1       4.025   8.267  -2.532  1.00  0.00     0.167 HD
ATOM     67  C   UNL     1       1.806   9.622   0.146  1.00  0.00     0.074 A 
ATOM     68  C   UNL     1       1.249   9.403   1.465  1.00  0.00     0.031 C 
ATOM     69  C   UNL     1       3.072   9.513  -0.352  1.00  0.00     0.037 A 
BRANCH  56  70
ATOM     70  C   UNL     1       4.833   9.309  -6.253  1.00  0.00     0.057 A 
ATOM     71  C   UNL     1       5.548  10.487  -6.524  1.00  0.00     0.134 A 
ATOM     72  C   UNL     1       5.028   8.278  -7.199  1.00  0.00     0.134 A 
ATOM     73  F   UNL     1       5.546  11.517  -5.668  1.00  0.00    -0.206 F 
ATOM     74  C   UNL     1       6.282  10.675  -7.710  1.00  0.00     0.040 A 
ATOM     75  C   UNL     1       5.722   8.465  -8.408  1.00  0.00     0.040 A 
ATOM     76  F   UNL     1       4.507   7.057  -6.997  1.00  0.00    -0.206 F 
ATOM     77  C   UNL     1       6.335   9.680  -8.678  1.00  0.00     0.006 A 
ENDBRANCH  56  70
BRANCH  57  78
ATOM     78  C   UNL     1      -3.016   9.397  -0.152  1.00  0.00     0.057 A 
ATOM     79  C   UNL     1      -4.255  10.034  -0.407  1.00  0.00     0.134 A 
ATOM     80  C   UNL     1      -3.071   8.016   0.040  1.00  0.00     0.134 A 
ATOM     81  F   UNL     1      -4.301  11.364  -0.594  1.00  0.00    -0.206 F 
ATOM     82  C   UNL     1      -5.447   9.329  -0.601  1.00  0.00     0.040 A 
ATOM     83  C   UNL     1      -4.274   7.299  -0.113  1.00  0.00     0.040 A 
ATOM     84  F   UNL     1      -1.954   7.305   0.247  1.00  0.00    -0.206 F 
ATOM     85  C   UNL     1      -5.454   7.948  -0.481  1.00  0.00     0.006 A 
ENDBRANCH  57  78
BRANCH  69  86
ATOM     86  C   UNL     1       4.249   8.899   0.362  1.00  0.00     0.057 A 
ATOM     87  C   UNL     1       4.143   7.834   1.263  1.00  0.00     0.134 A 
ATOM     88  C   UNL     1       5.569   9.256  -0.003  1.00  0.00     0.134 A 
ATOM     89  F   UNL     1       2.953   7.329   1.616  1.00  0.00    -0.206 F 
ATOM     90  C   UNL     1       5.268   7.200   1.804  1.00  0.00     0.040 A 
ATOM     91  C   UNL     1       6.695   8.588   0.480  1.00  0.00     0.040 A 
ATOM     92  F   UNL     1       5.817  10.249  -0.871  1.00  0.00    -0.206 F 
ATOM     93  C   UNL     1       6.547   7.564   1.401  1.00  0.00     0.006 A 
ENDBRANCH  69  86
ENDBRANCH  43  44
ENDBRANCH  36  38
ENDBRANCH  35  36
ENDBRANCH  34  35
ENDBRANCH  33  34
ENDBRANCH  32  33
ENDBRANCH  31  32
ENDBRANCH   1  31
TORSDOF 21
