REMARK SMILES Cc1nc(-c2ccc(S(=O)(=O)N3CC[NH2+][C@H](C(=O)OCCOCCOCCOC(=O)c4ccc(-c5c6nc(c(-c7c(F)cccc7F)c7ccc([nH]7)c(-c7c(F)cccc7F)c7nc(c(-c8c(F)cccc8F)c8ccc5[nH]8)C=C7)C=C6)cc4)C3)s2)cs1
REMARK SMILES IDX 23 1 22 2 21 3 20 4 19 5 17 6 18 7 16 8 12 9 13 10 85 11
REMARK SMILES IDX 14 12 15 13 9 16 10 17 11 18 8 19 5 20 6 21 86 22 7 23 4 24
REMARK SMILES IDX 1 25 2 26 3 27 88 28 87 29 24 30 25 31 26 32 27 33 28 34
REMARK SMILES IDX 29 35 30 36 31 37 32 38 84 39 33 40 83 41 34 42 35 43 36 44
REMARK SMILES IDX 77 45 37 46 82 47 76 48 78 49 38 50 81 51 75 52 74 53 39 55
REMARK SMILES IDX 65 56 48 57 64 58 49 59 52 60 63 61 79 62 50 63 51 64 62 66
REMARK SMILES IDX 80 67 53 68 40 69 41 70 46 71 42 72 43 73 45 74 47 75 44 76
REMARK SMILES IDX 66 77 67 78 72 79 68 80 69 81 71 82 73 83 70 84 54 85 55 86
REMARK SMILES IDX 60 87 56 88 57 89 59 90 61 91 58 92
REMARK H PARENT 15 14 15 15 78 54 52 65
REMARK Flexibility Score: inf
ROOT
ATOM      1  C   UNL     1       4.615  -5.967  -5.760  1.00  0.00     0.188 C 
ENDROOT
BRANCH   1   2
ATOM      2  O   UNL     1       5.264  -4.921  -6.474  1.00  0.00    -0.376 OA
BRANCH   2   3
ATOM      3  C   UNL     1       6.541  -4.482  -6.035  1.00  0.00     0.202 C 
BRANCH   3   4
ATOM      4  C   UNL     1       6.564  -3.682  -4.734  1.00  0.00     0.261 C 
BRANCH   4   5
ATOM      5  O   UNL     1       6.187  -4.476  -3.592  1.00  0.00    -0.459 OA
BRANCH   5   6
ATOM      6  C   UNL     1       5.000  -4.143  -3.022  1.00  0.00     0.366 C 
ATOM      7  O   UNL     1       4.270  -3.238  -3.414  1.00  0.00    -0.245 OA
BRANCH   6   8
ATOM      8  C   UNL     1       4.620  -5.041  -1.852  1.00  0.00     0.308 C 
ATOM      9  N   UNL     1       5.178  -5.862   0.372  1.00  0.00    -0.185 NA
ATOM     10  C   UNL     1       4.417  -7.121   0.162  1.00  0.00     0.164 C 
ATOM     11  C   UNL     1       5.767  -5.335  -0.888  1.00  0.00     0.180 C 
ATOM     12  C   UNL     1       3.477  -7.077  -1.067  1.00  0.00     0.278 C 
ATOM     13  N   UNL     1       3.910  -6.297  -2.252  1.00  0.00    -0.332 N 
ATOM     14  H   UNL     1       3.089  -6.052  -2.806  1.00  0.00     0.347 HD
ATOM     15  H   UNL     1       4.556  -6.871  -2.795  1.00  0.00     0.347 HD
BRANCH   9  16
ATOM     16  S   UNL     1       4.692  -4.740   1.556  1.00  0.00     0.253 S 
ATOM     17  O   UNL     1       5.783  -3.799   1.690  1.00  0.00    -0.206 OA
ATOM     18  O   UNL     1       4.184  -5.485   2.688  1.00  0.00    -0.206 OA
BRANCH  16  19
ATOM     19  C   UNL     1       3.284  -3.765   1.009  1.00  0.00     0.135 A 
ATOM     20  C   UNL     1       1.772  -1.831   0.659  1.00  0.00     0.055 A 
ATOM     21  C   UNL     1       1.308  -2.970   0.046  1.00  0.00     0.023 A 
ATOM     22  S   UNL     1       3.273  -2.089   1.423  1.00  0.00    -0.121 S 
ATOM     23  C   UNL     1       2.132  -4.087   0.314  1.00  0.00     0.034 A 
BRANCH  20  24
ATOM     24  C   UNL     1       0.951  -0.581   0.640  1.00  0.00     0.091 A 
ATOM     25  C   UNL     1      -2.399   0.711   0.020  1.00  0.00     0.079 C 
ATOM     26  C   UNL     1      -0.960   0.498   0.330  1.00  0.00     0.090 A 
ATOM     27  N   UNL     1      -0.353  -0.654   0.175  1.00  0.00    -0.241 NA
ATOM     28  S   UNL     1       0.027   1.767   0.934  1.00  0.00    -0.127 S 
ATOM     29  C   UNL     1       1.342   0.664   1.080  1.00  0.00     0.096 A 
ENDBRANCH  20  24
ENDBRANCH  16  19
ENDBRANCH   9  16
ENDBRANCH   6   8
ENDBRANCH   5   6
ENDBRANCH   4   5
ENDBRANCH   3   4
ENDBRANCH   2   3
ENDBRANCH   1   2
BRANCH   1  30
ATOM     30  C   UNL     1       5.472  -7.083  -5.131  1.00  0.00     0.188 C 
BRANCH  30  31
ATOM     31  O   UNL     1       6.545  -7.645  -5.870  1.00  0.00    -0.376 OA
BRANCH  31  32
ATOM     32  C   UNL     1       6.338  -7.913  -7.248  1.00  0.00     0.202 C 
BRANCH  32  33
ATOM     33  C   UNL     1       5.396  -9.079  -7.546  1.00  0.00     0.261 C 
BRANCH  33  34
ATOM     34  O   UNL     1       4.019  -8.719  -7.332  1.00  0.00    -0.460 OA
BRANCH  34  35
ATOM     35  C   UNL     1       3.387  -9.347  -6.313  1.00  0.00     0.338 C 
ATOM     36  O   UNL     1       3.849 -10.190  -5.563  1.00  0.00    -0.246 OA
BRANCH  35  37
ATOM     37  C   UNL     1       2.049  -8.752  -6.117  1.00  0.00     0.060 A 
ATOM     38  C   UNL     1       1.637  -8.453  -4.811  1.00  0.00     0.016 A 
ATOM     39  C   UNL     1       1.182  -8.556  -7.194  1.00  0.00     0.016 A 
ATOM     40  C   UNL     1       0.337  -8.004  -4.572  1.00  0.00     0.010 A 
ATOM     41  C   UNL     1      -0.122  -8.121  -6.952  1.00  0.00     0.010 A 
ATOM     42  C   UNL     1      -0.561  -7.878  -5.639  1.00  0.00    -0.014 A 
BRANCH  42  43
ATOM     43  C   UNL     1      -2.008  -7.666  -5.397  1.00  0.00     0.031 A 
ATOM     44  C   UNL     1      -2.913  -8.865  -5.372  1.00  0.00     0.074 A 
ATOM     45  C   UNL     1      -2.518  -6.432  -5.253  1.00  0.00     0.049 A 
ATOM     46  N   UNL     1      -4.220  -8.921  -5.373  1.00  0.00    -0.248 NA
ATOM     47  C   UNL     1      -2.252 -10.180  -5.349  1.00  0.00     0.031 C 
ATOM     48  C   UNL     1      -1.743  -5.195  -5.196  1.00  0.00     0.029 A 
ATOM     49  N   UNL     1      -3.825  -6.020  -5.158  1.00  0.00    -0.354 N 
ATOM     50  C   UNL     1      -4.537 -10.272  -5.370  1.00  0.00     0.074 A 
ATOM     51  C   UNL     1      -3.289 -11.004  -5.373  1.00  0.00     0.031 C 
ATOM     52  C   UNL     1      -2.592  -4.156  -5.108  1.00  0.00     0.029 A 
ATOM     53  C   UNL     1      -3.967  -4.654  -5.149  1.00  0.00     0.049 A 
ATOM     54  H   UNL     1      -4.585  -6.643  -5.101  1.00  0.00     0.167 HD
ATOM     55  C   UNL     1      -5.761 -10.851  -5.372  1.00  0.00     0.037 A 
ATOM     56  C   UNL     1      -5.079  -3.897  -5.215  1.00  0.00     0.037 A 
ATOM     57  C   UNL     1      -7.001 -10.124  -5.376  1.00  0.00     0.049 A 
ATOM     58  C   UNL     1      -6.428  -4.561  -5.311  1.00  0.00     0.074 A 
ATOM     59  C   UNL     1      -8.292 -10.621  -5.379  1.00  0.00     0.029 A 
ATOM     60  N   UNL     1      -7.101  -8.742  -5.384  1.00  0.00    -0.354 N 
ATOM     61  N   UNL     1      -6.723  -5.839  -5.316  1.00  0.00    -0.248 NA
ATOM     62  C   UNL     1      -7.599  -3.678  -5.426  1.00  0.00     0.031 C 
ATOM     63  C   UNL     1      -9.176  -9.538  -5.428  1.00  0.00     0.029 A 
ATOM     64  C   UNL     1      -8.433  -8.368  -5.413  1.00  0.00     0.049 A 
ATOM     65  H   UNL     1      -6.339  -8.120  -5.371  1.00  0.00     0.167 HD
ATOM     66  C   UNL     1      -8.109  -5.911  -5.402  1.00  0.00     0.074 A 
ATOM     67  C   UNL     1      -8.598  -4.550  -5.448  1.00  0.00     0.031 C 
ATOM     68  C   UNL     1      -8.904  -7.008  -5.436  1.00  0.00     0.037 A 
BRANCH  55  69
ATOM     69  C   UNL     1      -5.813 -12.348  -5.406  1.00  0.00     0.057 A 
ATOM     70  C   UNL     1      -5.515 -13.123  -4.279  1.00  0.00     0.134 A 
ATOM     71  C   UNL     1      -6.189 -13.020  -6.576  1.00  0.00     0.134 A 
ATOM     72  F   UNL     1      -5.131 -12.539  -3.134  1.00  0.00    -0.206 F 
ATOM     73  C   UNL     1      -5.574 -14.517  -4.319  1.00  0.00     0.040 A 
ATOM     74  C   UNL     1      -6.272 -14.412  -6.622  1.00  0.00     0.040 A 
ATOM     75  F   UNL     1      -6.488 -12.333  -7.689  1.00  0.00    -0.206 F 
ATOM     76  C   UNL     1      -5.959 -15.165  -5.492  1.00  0.00     0.006 A 
ENDBRANCH  55  69
BRANCH  56  77
ATOM     77  C   UNL     1      -4.970  -2.417  -5.235  1.00  0.00     0.057 A 
ATOM     78  C   UNL     1      -5.391  -1.646  -4.147  1.00  0.00     0.134 A 
ATOM     79  C   UNL     1      -4.467  -1.739  -6.352  1.00  0.00     0.134 A 
ATOM     80  F   UNL     1      -5.909  -2.238  -3.061  1.00  0.00    -0.206 F 
ATOM     81  C   UNL     1      -5.330  -0.252  -4.172  1.00  0.00     0.040 A 
ATOM     82  C   UNL     1      -4.378  -0.347  -6.382  1.00  0.00     0.040 A 
ATOM     83  F   UNL     1      -4.053  -2.422  -7.430  1.00  0.00    -0.206 F 
ATOM     84  C   UNL     1      -4.816   0.401  -5.291  1.00  0.00     0.006 A 
ENDBRANCH  56  77
BRANCH  68  85
ATOM     85  C   UNL     1     -10.387  -6.792  -5.476  1.00  0.00     0.057 A 
ATOM     86  C   UNL     1     -11.047  -6.415  -6.651  1.00  0.00     0.134 A 
ATOM     87  C   UNL     1     -11.170  -7.044  -4.342  1.00  0.00     0.134 A 
ATOM     88  F   UNL     1     -10.351  -6.150  -7.766  1.00  0.00    -0.206 F 
ATOM     89  C   UNL     1     -12.437  -6.291  -6.695  1.00  0.00     0.040 A 
ATOM     90  C   UNL     1     -12.561  -6.942  -4.379  1.00  0.00     0.040 A 
ATOM     91  F   UNL     1     -10.597  -7.417  -3.188  1.00  0.00    -0.206 F 
ATOM     92  C   UNL     1     -13.198  -6.564  -5.559  1.00  0.00     0.006 A 
ENDBRANCH  68  85
ENDBRANCH  42  43
ENDBRANCH  35  37
ENDBRANCH  34  35
ENDBRANCH  33  34
ENDBRANCH  32  33
ENDBRANCH  31  32
ENDBRANCH  30  31
ENDBRANCH   1  30
TORSDOF 20
