REMARK SMILES O=C(C[C@]12CSc3[nH]c(=O)sc3[C@H]1c1cc(Cl)ccc1OC2=O)OCCOCCOCCOC(=O)c1ccc(-c2c3nc(c(-c4c(F)cccc4F)c4ccc([nH]4)c(-c4c(F)cccc4F)c4nc(c(-c5c(F)cccc5F)c5ccc2[nH]5)C=C4)C=C3)cc1
REMARK SMILES IDX 29 1 28 2 27 3 26 4 25 5 24 6 2 7 1 8 3 9 4 10 5 11 13 12
REMARK SMILES IDX 22 13 6 14 12 15 14 16 21 17 23 18 7 19 11 20 15 21 20 22
REMARK SMILES IDX 8 23 9 24 16 25 19 26 10 28 17 29 18 30 30 31 31 32 32 33
REMARK SMILES IDX 33 34 34 35 35 36 36 37 37 38 89 39 38 40 88 41 39 42 40 43
REMARK SMILES IDX 41 44 82 45 42 46 87 47 81 48 83 49 43 50 86 51 80 52 79 53
REMARK SMILES IDX 44 55 70 56 53 57 69 58 54 59 57 60 68 61 84 62 55 63 56 64
REMARK SMILES IDX 67 66 85 67 58 68 45 69 46 70 51 71 47 72 48 73 50 74 52 75
REMARK SMILES IDX 49 76 71 77 72 78 77 79 73 80 74 81 76 82 78 83 75 84 59 85
REMARK SMILES IDX 60 86 65 87 61 88 62 89 64 90 66 91 63 92
REMARK H PARENT 8 27 83 54 57 65
REMARK Flexibility Score: inf
ROOT
ATOM      1  C   UNL     1       3.087   2.393   2.307  1.00  0.00     0.188 C 
ENDROOT
BRANCH   1   2
ATOM      2  C   UNL     1       3.859   1.087   1.917  1.00  0.00     0.188 C 
BRANCH   2   3
ATOM      3  O   UNL     1       4.877   1.068   0.921  1.00  0.00    -0.376 OA
BRANCH   3   4
ATOM      4  C   UNL     1       4.804   1.356  -0.477  1.00  0.00     0.202 C 
BRANCH   4   5
ATOM      5  C   UNL     1       4.824   0.178  -1.687  1.00  0.00     0.261 C 
BRANCH   5   6
ATOM      6  O   UNL     1       3.869  -1.280  -1.630  1.00  0.00    -0.463 OA
BRANCH   6   7
ATOM      7  C   UNL     1       2.145  -1.966  -1.498  1.00  0.00     0.307 C 
ATOM      8  O   UNL     1       1.138  -1.810  -2.200  1.00  0.00    -0.252 OA
BRANCH   7   9
ATOM      9  C   UNL     1       2.088  -3.066  -0.579  1.00  0.00     0.143 C 
BRANCH   9  10
ATOM     10  C   UNL     1       3.485  -3.064  -0.928  1.00  0.00     0.100 C 
ATOM     11  C   UNL     1       3.975  -4.451  -0.535  1.00  0.00     0.097 C 
ATOM     12  C   UNL     1       3.677  -1.541   0.229  1.00  0.00     0.085 C 
ATOM     13  C   UNL     1       3.601  -2.808  -2.854  1.00  0.00     0.319 C 
ATOM     14  S   UNL     1       4.730  -4.474   1.086  1.00  0.00    -0.106 SA
ATOM     15  C   UNL     1       5.271  -1.842   0.578  1.00  0.00     0.049 A 
ATOM     16  C   UNL     1       2.654  -0.073  -0.598  1.00  0.00     0.006 A 
ATOM     17  O   UNL     1       3.001  -1.243  -3.310  1.00  0.00    -0.426 OA
ATOM     18  O   UNL     1       3.974  -3.615  -3.683  1.00  0.00    -0.251 OA
ATOM     19  C   UNL     1       5.696  -3.099   0.870  1.00  0.00     0.090 A 
ATOM     20  S   UNL     1       6.765  -0.878   0.520  1.00  0.00    -0.077 S 
ATOM     21  C   UNL     1       1.712   0.689   0.054  1.00  0.00     0.028 A 
ATOM     22  C   UNL     1       2.413   0.103  -2.286  1.00  0.00     0.134 A 
ATOM     23  N   UNL     1       7.041  -3.319   0.941  1.00  0.00    -0.307 N 
ATOM     24  C   UNL     1       7.842  -2.238   0.769  1.00  0.00     0.305 A 
ATOM     25  C   UNL     1       0.580   1.255  -0.615  1.00  0.00     0.041 A 
ATOM     26  C   UNL     1       1.326   0.723  -2.904  1.00  0.00     0.049 A 
ATOM     27  H   UNL     1       7.410  -4.215   1.109  1.00  0.00     0.171 HD
ATOM     28  O   UNL     1       9.058  -2.206   0.775  1.00  0.00    -0.257 OA
ATOM     29  Cl  UNL     1      -0.582   2.066   0.394  1.00  0.00    -0.084 Cl
ATOM     30  C   UNL     1       0.375   1.236  -2.015  1.00  0.00     0.024 A 
ENDBRANCH   9  10
ENDBRANCH   7   9
ENDBRANCH   6   7
ENDBRANCH   5   6
ENDBRANCH   4   5
ENDBRANCH   3   4
ENDBRANCH   2   3
ENDBRANCH   1   2
BRANCH   1  31
ATOM     31  O   UNL     1       3.873   3.544   2.455  1.00  0.00    -0.376 OA
BRANCH  31  32
ATOM     32  C   UNL     1       4.989   3.326   3.301  1.00  0.00     0.202 C 
BRANCH  32  33
ATOM     33  C   UNL     1       4.688   2.718   4.712  1.00  0.00     0.261 C 
BRANCH  33  34
ATOM     34  O   UNL     1       4.072   1.376   4.713  1.00  0.00    -0.460 OA
BRANCH  34  35
ATOM     35  C   UNL     1       2.851   1.185   5.307  1.00  0.00     0.338 C 
ATOM     36  O   UNL     1       2.356   1.936   6.132  1.00  0.00    -0.246 OA
BRANCH  35  37
ATOM     37  C   UNL     1       2.023   0.139   4.568  1.00  0.00     0.060 A 
ATOM     38  C   UNL     1       2.476  -1.128   4.196  1.00  0.00     0.016 A 
ATOM     39  C   UNL     1       0.732   0.514   4.136  1.00  0.00     0.016 A 
ATOM     40  C   UNL     1       1.661  -1.966   3.384  1.00  0.00     0.010 A 
ATOM     41  C   UNL     1      -0.057  -0.306   3.290  1.00  0.00     0.010 A 
ATOM     42  C   UNL     1       0.400  -1.557   2.875  1.00  0.00    -0.014 A 
BRANCH  42  43
ATOM     43  C   UNL     1      -0.499  -2.570   2.210  1.00  0.00     0.031 A 
ATOM     44  C   UNL     1      -0.837  -3.674   3.147  1.00  0.00     0.074 A 
ATOM     45  C   UNL     1      -1.149  -2.593   1.009  1.00  0.00     0.049 A 
ATOM     46  N   UNL     1      -0.477  -4.913   3.070  1.00  0.00    -0.248 NA
ATOM     47  C   UNL     1      -1.538  -3.317   4.389  1.00  0.00     0.031 C 
ATOM     48  C   UNL     1      -1.211  -1.526   0.032  1.00  0.00     0.029 A 
ATOM     49  N   UNL     1      -1.927  -3.562   0.389  1.00  0.00    -0.354 N 
ATOM     50  C   UNL     1      -1.082  -5.539   4.156  1.00  0.00     0.074 A 
ATOM     51  C   UNL     1      -1.558  -4.490   5.020  1.00  0.00     0.031 C 
ATOM     52  C   UNL     1      -2.099  -1.791  -0.950  1.00  0.00     0.029 A 
ATOM     53  C   UNL     1      -2.634  -3.122  -0.749  1.00  0.00     0.049 A 
ATOM     54  H   UNL     1      -1.980  -4.488   0.719  1.00  0.00     0.167 HD
ATOM     55  C   UNL     1      -1.375  -6.867   4.132  1.00  0.00     0.037 A 
ATOM     56  C   UNL     1      -3.582  -3.757  -1.504  1.00  0.00     0.037 A 
ATOM     57  C   UNL     1      -0.613  -7.557   3.123  1.00  0.00     0.049 A 
ATOM     58  C   UNL     1      -3.491  -5.206  -1.238  1.00  0.00     0.074 A 
ATOM     59  C   UNL     1       0.729  -7.750   2.858  1.00  0.00     0.029 A 
ATOM     60  N   UNL     1      -1.267  -7.946   1.983  1.00  0.00    -0.354 N 
ATOM     61  N   UNL     1      -2.528  -5.971  -1.657  1.00  0.00    -0.248 NA
ATOM     62  C   UNL     1      -4.251  -5.709  -0.110  1.00  0.00     0.031 C 
ATOM     63  C   UNL     1       0.829  -7.766   1.435  1.00  0.00     0.029 A 
ATOM     64  C   UNL     1      -0.460  -7.653   0.916  1.00  0.00     0.049 A 
ATOM     65  H   UNL     1      -2.158  -8.363   1.938  1.00  0.00     0.167 HD
ATOM     66  C   UNL     1      -2.233  -6.769  -0.566  1.00  0.00     0.074 A 
ATOM     67  C   UNL     1      -3.372  -6.607   0.338  1.00  0.00     0.031 C 
ATOM     68  C   UNL     1      -0.974  -7.259  -0.374  1.00  0.00     0.037 A 
BRANCH  55  69
ATOM     69  C   UNL     1      -2.641  -7.451   4.719  1.00  0.00     0.057 A 
ATOM     70  C   UNL     1      -3.817  -6.713   4.971  1.00  0.00     0.134 A 
ATOM     71  C   UNL     1      -2.805  -8.848   4.723  1.00  0.00     0.134 A 
ATOM     72  F   UNL     1      -3.851  -5.376   4.946  1.00  0.00    -0.206 F 
ATOM     73  C   UNL     1      -5.064  -7.313   5.160  1.00  0.00     0.040 A 
ATOM     74  C   UNL     1      -4.058  -9.457   4.859  1.00  0.00     0.040 A 
ATOM     75  F   UNL     1      -1.764  -9.663   4.494  1.00  0.00    -0.206 F 
ATOM     76  C   UNL     1      -5.196  -8.687   5.064  1.00  0.00     0.006 A 
ENDBRANCH  55  69
BRANCH  56  77
ATOM     77  C   UNL     1      -4.745  -3.207  -2.269  1.00  0.00     0.057 A 
ATOM     78  C   UNL     1      -5.360  -2.004  -1.882  1.00  0.00     0.134 A 
ATOM     79  C   UNL     1      -5.470  -3.975  -3.204  1.00  0.00     0.134 A 
ATOM     80  F   UNL     1      -4.813  -1.227  -0.937  1.00  0.00    -0.206 F 
ATOM     81  C   UNL     1      -6.607  -1.594  -2.374  1.00  0.00     0.040 A 
ATOM     82  C   UNL     1      -6.725  -3.577  -3.702  1.00  0.00     0.040 A 
ATOM     83  F   UNL     1      -5.014  -5.169  -3.610  1.00  0.00    -0.206 F 
ATOM     84  C   UNL     1      -7.303  -2.386  -3.279  1.00  0.00     0.006 A 
ENDBRANCH  56  77
BRANCH  68  85
ATOM     85  C   UNL     1       0.007  -7.165  -1.513  1.00  0.00     0.057 A 
ATOM     86  C   UNL     1       0.689  -8.318  -1.916  1.00  0.00     0.134 A 
ATOM     87  C   UNL     1       0.382  -5.967  -2.135  1.00  0.00     0.134 A 
ATOM     88  F   UNL     1       0.392  -9.504  -1.363  1.00  0.00    -0.206 F 
ATOM     89  C   UNL     1       1.712  -8.280  -2.867  1.00  0.00     0.040 A 
ATOM     90  C   UNL     1       1.393  -5.915  -3.101  1.00  0.00     0.040 A 
ATOM     91  F   UNL     1      -0.184  -4.804  -1.787  1.00  0.00    -0.206 F 
ATOM     92  C   UNL     1       2.071  -7.074  -3.460  1.00  0.00     0.006 A 
ENDBRANCH  68  85
ENDBRANCH  42  43
ENDBRANCH  35  37
ENDBRANCH  34  35
ENDBRANCH  33  34
ENDBRANCH  32  33
ENDBRANCH  31  32
ENDBRANCH   1  31
TORSDOF 18
