REMARK SMILES COc1ccc2[nH]c(C(=O)c3cc(C)ccn3)c(CC(=O)OCCOCCOCCOC(=O)c3ccc(-c4c5nc(c(-c6c(F)cccc6F)c6ccc([nH]6)c(-c6c(F)cccc6F)c6nc(c(-c7c(F)cccc7F)c7ccc4[nH]7)C=C6)C=C5)cc3)c2c1
REMARK SMILES IDX 26 1 25 2 24 3 23 4 22 5 20 6 21 7 19 8 18 9 3 10 4 11 89 12
REMARK SMILES IDX 5 13 88 14 6 15 7 16 8 17 2 19 1 20 9 21 10 22 11 23 12 24
REMARK SMILES IDX 17 25 13 26 16 27 14 28 15 29 27 30 28 31 29 32 30 33 31 34
REMARK SMILES IDX 32 35 33 36 34 37 35 38 87 39 36 40 86 41 37 42 38 43 39 44
REMARK SMILES IDX 80 45 40 46 85 47 79 48 81 49 41 50 84 51 78 52 77 53 42 55
REMARK SMILES IDX 68 56 51 57 67 58 52 59 55 60 66 61 82 62 53 63 54 64 65 66
REMARK SMILES IDX 83 67 56 68 43 69 44 70 49 71 45 72 46 73 48 74 50 75 47 76
REMARK SMILES IDX 69 77 70 78 75 79 71 80 72 81 74 82 76 83 73 84 57 85 58 86
REMARK SMILES IDX 63 87 59 88 60 89 62 90 64 91 61 92
REMARK H PARENT 7 18 81 54 55 65
REMARK Flexibility Score: inf
ROOT
ATOM      1  C   UNL     1      -3.336   5.379   6.061  1.00  0.00     0.188 C 
ENDROOT
BRANCH   1   2
ATOM      2  O   UNL     1      -4.481   4.569   6.319  1.00  0.00    -0.376 OA
BRANCH   2   3
ATOM      3  C   UNL     1      -4.402   3.183   6.010  1.00  0.00     0.202 C 
BRANCH   3   4
ATOM      4  C   UNL     1      -4.234   2.847   4.524  1.00  0.00     0.261 C 
BRANCH   4   5
ATOM      5  O   UNL     1      -3.049   3.451   3.958  1.00  0.00    -0.463 OA
BRANCH   5   6
ATOM      6  C   UNL     1      -3.187   4.063   2.753  1.00  0.00     0.310 C 
ATOM      7  O   UNL     1      -4.191   3.957   2.053  1.00  0.00    -0.252 OA
BRANCH   6   8
ATOM      8  C   UNL     1      -2.077   5.051   2.419  1.00  0.00     0.161 C 
BRANCH   8   9
ATOM      9  C   UNL     1      -0.647   4.697   2.762  1.00  0.00     0.000 A 
ATOM     10  C   UNL     1       0.831   1.817   0.734  1.00  0.00     0.119 A 
ATOM     11  C   UNL     1       2.134   1.943   1.214  1.00  0.00     0.048 A 
ATOM     12  C   UNL     1      -0.197   2.636   1.214  1.00  0.00     0.057 A 
ATOM     13  C   UNL     1       2.438   2.864   2.219  1.00  0.00     0.030 A 
ATOM     14  C   UNL     1       0.098   3.612   2.186  1.00  0.00     0.008 A 
ATOM     15  C   UNL     1       1.402   3.689   2.668  1.00  0.00     0.046 A 
ATOM     16  N   UNL     1       1.431   4.718   3.574  1.00  0.00    -0.352 N 
ATOM     17  C   UNL     1       0.296   5.489   3.436  1.00  0.00     0.093 A 
ATOM     18  H   UNL     1       2.152   4.882   4.224  1.00  0.00     0.167 HD
BRANCH  10  19
ATOM     19  O   UNL     1       0.495   0.981  -0.298  1.00  0.00    -0.497 OA
ATOM     20  C   UNL     1       0.960  -0.352  -0.107  1.00  0.00     0.278 C 
ENDBRANCH  10  19
BRANCH  17  21
ATOM     21  C   UNL     1       0.224   6.884   3.841  1.00  0.00     0.227 C 
ATOM     22  O   UNL     1      -0.640   7.657   3.434  1.00  0.00    -0.285 OA
BRANCH  21  23
ATOM     23  C   UNL     1       1.277   7.438   4.742  1.00  0.00     0.113 A 
ATOM     24  C   UNL     1       2.293   8.238   4.228  1.00  0.00     0.036 A 
ATOM     25  N   UNL     1       1.120   7.168   6.063  1.00  0.00    -0.253 NA
ATOM     26  C   UNL     1       3.191   8.826   5.126  1.00  0.00    -0.047 A 
ATOM     27  C   UNL     1       1.960   7.805   6.909  1.00  0.00     0.112 A 
ATOM     28  C   UNL     1       4.342   9.670   4.663  1.00  0.00     0.044 C 
ATOM     29  C   UNL     1       2.987   8.636   6.495  1.00  0.00     0.023 A 
ENDBRANCH  21  23
ENDBRANCH  17  21
ENDBRANCH   8   9
ENDBRANCH   6   8
ENDBRANCH   5   6
ENDBRANCH   4   5
ENDBRANCH   3   4
ENDBRANCH   2   3
ENDBRANCH   1   2
BRANCH   1  30
ATOM     30  C   UNL     1      -1.930   4.785   6.292  1.00  0.00     0.188 C 
BRANCH  30  31
ATOM     31  O   UNL     1      -1.876   3.871   7.381  1.00  0.00    -0.376 OA
BRANCH  31  32
ATOM     32  C   UNL     1      -1.071   4.301   8.470  1.00  0.00     0.202 C 
BRANCH  32  33
ATOM     33  C   UNL     1      -1.755   5.400   9.278  1.00  0.00     0.261 C 
BRANCH  33  34
ATOM     34  O   UNL     1      -1.918   6.600   8.492  1.00  0.00    -0.460 OA
BRANCH  34  35
ATOM     35  C   UNL     1      -1.099   7.639   8.751  1.00  0.00     0.338 C 
ATOM     36  O   UNL     1      -0.237   7.689   9.610  1.00  0.00    -0.246 OA
BRANCH  35  37
ATOM     37  C   UNL     1      -1.427   8.780   7.856  1.00  0.00     0.060 A 
ATOM     38  C   UNL     1      -1.623   8.620   6.481  1.00  0.00     0.016 A 
ATOM     39  C   UNL     1      -1.455  10.062   8.399  1.00  0.00     0.016 A 
ATOM     40  C   UNL     1      -1.805   9.729   5.649  1.00  0.00     0.010 A 
ATOM     41  C   UNL     1      -1.705  11.167   7.576  1.00  0.00     0.010 A 
ATOM     42  C   UNL     1      -1.876  11.016   6.188  1.00  0.00    -0.014 A 
BRANCH  42  43
ATOM     43  C   UNL     1      -2.148  12.209   5.340  1.00  0.00     0.031 A 
ATOM     44  C   UNL     1      -1.162  13.341   5.287  1.00  0.00     0.074 A 
ATOM     45  C   UNL     1      -3.309  12.320   4.665  1.00  0.00     0.049 A 
ATOM     46  N   UNL     1      -1.336  14.577   4.892  1.00  0.00    -0.248 NA
ATOM     47  C   UNL     1       0.205  13.040   5.740  1.00  0.00     0.031 C 
ATOM     48  C   UNL     1      -4.326  11.276   4.540  1.00  0.00     0.029 A 
ATOM     49  N   UNL     1      -3.843  13.387   3.981  1.00  0.00    -0.354 N 
ATOM     50  C   UNL     1      -0.120  15.216   5.094  1.00  0.00     0.074 A 
ATOM     51  C   UNL     1       0.789  14.226   5.638  1.00  0.00     0.031 C 
ATOM     52  C   UNL     1      -5.365  11.756   3.840  1.00  0.00     0.029 A 
ATOM     53  C   UNL     1      -5.130  13.166   3.551  1.00  0.00     0.049 A 
ATOM     54  H   UNL     1      -3.353  14.225   3.817  1.00  0.00     0.167 HD
ATOM     55  C   UNL     1       0.200  16.512   4.858  1.00  0.00     0.037 A 
ATOM     56  C   UNL     1      -6.050  14.013   3.051  1.00  0.00     0.037 A 
ATOM     57  C   UNL     1      -0.702  17.484   4.292  1.00  0.00     0.049 A 
ATOM     58  C   UNL     1      -5.714  15.470   2.905  1.00  0.00     0.074 A 
ATOM     59  C   UNL     1      -0.465  18.819   4.010  1.00  0.00     0.029 A 
ATOM     60  N   UNL     1      -2.012  17.227   3.919  1.00  0.00    -0.354 N 
ATOM     61  N   UNL     1      -4.588  16.089   3.160  1.00  0.00    -0.248 NA
ATOM     62  C   UNL     1      -6.789  16.351   2.425  1.00  0.00     0.031 C 
ATOM     63  C   UNL     1      -1.647  19.381   3.513  1.00  0.00     0.029 A 
ATOM     64  C   UNL     1      -2.605  18.384   3.440  1.00  0.00     0.049 A 
ATOM     65  H   UNL     1      -2.456  16.350   3.986  1.00  0.00     0.167 HD
ATOM     66  C   UNL     1      -4.814  17.427   2.862  1.00  0.00     0.074 A 
ATOM     67  C   UNL     1      -6.178  17.526   2.387  1.00  0.00     0.031 C 
ATOM     68  C   UNL     1      -3.966  18.478   2.977  1.00  0.00     0.037 A 
BRANCH  55  69
ATOM     69  C   UNL     1       1.570  16.976   5.259  1.00  0.00     0.057 A 
ATOM     70  C   UNL     1       2.719  16.629   4.540  1.00  0.00     0.134 A 
ATOM     71  C   UNL     1       1.729  17.833   6.357  1.00  0.00     0.134 A 
ATOM     72  F   UNL     1       2.639  15.801   3.487  1.00  0.00    -0.206 F 
ATOM     73  C   UNL     1       3.980  17.106   4.906  1.00  0.00     0.040 A 
ATOM     74  C   UNL     1       2.980  18.335   6.718  1.00  0.00     0.040 A 
ATOM     75  F   UNL     1       0.668  18.211   7.086  1.00  0.00    -0.206 F 
ATOM     76  C   UNL     1       4.111  17.968   5.994  1.00  0.00     0.006 A 
ENDBRANCH  55  69
BRANCH  56  77
ATOM     77  C   UNL     1      -7.411  13.515   2.729  1.00  0.00     0.057 A 
ATOM     78  C   UNL     1      -7.864  13.451   1.407  1.00  0.00     0.134 A 
ATOM     79  C   UNL     1      -8.291  13.093   3.735  1.00  0.00     0.134 A 
ATOM     80  F   UNL     1      -7.080  13.872   0.404  1.00  0.00    -0.206 F 
ATOM     81  C   UNL     1      -9.144  12.988   1.096  1.00  0.00     0.040 A 
ATOM     82  C   UNL     1      -9.561  12.600   3.436  1.00  0.00     0.040 A 
ATOM     83  F   UNL     1      -7.919  13.136   5.023  1.00  0.00    -0.206 F 
ATOM     84  C   UNL     1      -9.992  12.552   2.112  1.00  0.00     0.006 A 
ENDBRANCH  56  77
BRANCH  68  85
ATOM     85  C   UNL     1      -4.487  19.823   2.563  1.00  0.00     0.057 A 
ATOM     86  C   UNL     1      -5.417  20.525   3.340  1.00  0.00     0.134 A 
ATOM     87  C   UNL     1      -4.040  20.432   1.383  1.00  0.00     0.134 A 
ATOM     88  F   UNL     1      -5.898  19.990   4.473  1.00  0.00    -0.206 F 
ATOM     89  C   UNL     1      -5.902  21.774   2.947  1.00  0.00     0.040 A 
ATOM     90  C   UNL     1      -4.498  21.691   0.993  1.00  0.00     0.040 A 
ATOM     91  F   UNL     1      -3.144  19.818   0.596  1.00  0.00    -0.206 F 
ATOM     92  C   UNL     1      -5.438  22.363   1.772  1.00  0.00     0.006 A 
ENDBRANCH  68  85
ENDBRANCH  42  43
ENDBRANCH  35  37
ENDBRANCH  34  35
ENDBRANCH  33  34
ENDBRANCH  32  33
ENDBRANCH  31  32
ENDBRANCH  30  31
ENDBRANCH   1  30
TORSDOF 21
