REMARK SMILES COCc1cc(N2CCCC[C@H]2C(=O)OCCOCCOCCOC(=O)c2ccc(-c3c4nc(c(-c5c(F)cccc5F)c5ccc([nH]5)c(-c5c(F)cccc5F)c5nc(c(-c6c(F)cccc6F)c6ccc3[nH]6)C=C5)C=C4)cc2)nc(-c2ccc(Cl)cc2)n1
REMARK SMILES IDX 19 1 18 2 17 3 16 4 15 5 13 6 14 7 12 8 7 9 8 10 9 11 11 12
REMARK SMILES IDX 10 13 6 14 4 15 5 16 90 17 82 18 81 19 3 20 2 21 1 22 83 23
REMARK SMILES IDX 84 24 89 25 85 26 88 27 86 28 87 29 20 30 21 31 22 32 23 33
REMARK SMILES IDX 24 34 25 35 26 36 27 37 28 38 80 39 29 40 79 41 30 42 31 43
REMARK SMILES IDX 32 44 73 45 33 46 78 47 72 48 74 49 34 50 77 51 71 52 70 53
REMARK SMILES IDX 35 55 61 56 44 57 60 58 45 59 48 60 59 61 75 62 46 63 47 64
REMARK SMILES IDX 58 66 76 67 49 68 36 69 37 70 42 71 38 72 39 73 41 74 43 75
REMARK SMILES IDX 40 76 62 77 63 78 68 79 64 80 65 81 67 82 69 83 66 84 50 85
REMARK SMILES IDX 51 86 56 87 52 88 53 89 55 90 57 91 54 92
REMARK H PARENT 74 54 48 65
REMARK Flexibility Score: inf
ROOT
ATOM      1  C   UNL     1      -4.125   1.520   4.315  1.00  0.00     0.188 C 
ENDROOT
BRANCH   1   2
ATOM      2  O   UNL     1      -4.905   0.388   3.966  1.00  0.00    -0.376 OA
BRANCH   2   3
ATOM      3  C   UNL     1      -5.265   0.260   2.599  1.00  0.00     0.202 C 
BRANCH   3   4
ATOM      4  C   UNL     1      -4.091  -0.082   1.681  1.00  0.00     0.261 C 
BRANCH   4   5
ATOM      5  O   UNL     1      -3.071   0.928   1.604  1.00  0.00    -0.462 OA
BRANCH   5   6
ATOM      6  C   UNL     1      -3.414   2.151   1.110  1.00  0.00     0.328 C 
ATOM      7  O   UNL     1      -4.540   2.460   0.745  1.00  0.00    -0.250 OA
BRANCH   6   8
ATOM      8  C   UNL     1      -2.178   3.065   1.119  1.00  0.00     0.193 C 
ATOM      9  N   UNL     1      -2.079   3.806  -0.142  1.00  0.00    -0.343 N 
ATOM     10  C   UNL     1      -2.933   4.970  -0.353  1.00  0.00     0.119 C 
ATOM     11  C   UNL     1      -2.886   5.924   0.839  1.00  0.00     0.022 C 
ATOM     12  C   UNL     1      -2.118   4.044   2.299  1.00  0.00     0.037 C 
ATOM     13  C   UNL     1      -3.104   5.197   2.162  1.00  0.00     0.005 C 
BRANCH   9  14
ATOM     14  C   UNL     1      -0.975   3.582  -0.936  1.00  0.00     0.133 A 
ATOM     15  C   UNL     1       0.604   2.110  -1.921  1.00  0.00     0.072 A 
ATOM     16  C   UNL     1      -0.577   2.290  -1.230  1.00  0.00     0.073 A 
ATOM     17  N   UNL     1       1.328   3.157  -2.362  1.00  0.00    -0.230 NA
ATOM     18  C   UNL     1       0.847   4.377  -2.061  1.00  0.00     0.161 A 
ATOM     19  N   UNL     1      -0.272   4.633  -1.365  1.00  0.00    -0.211 NA
BRANCH  15  20
ATOM     20  C   UNL     1       1.114   0.718  -2.223  1.00  0.00     0.216 C 
BRANCH  20  21
ATOM     21  O   UNL     1       0.649  -0.281  -1.304  1.00  0.00    -0.378 OA
ATOM     22  C   UNL     1       1.377  -0.295  -0.081  1.00  0.00     0.195 C 
ENDBRANCH  20  21
ENDBRANCH  15  20
BRANCH  18  23
ATOM     23  C   UNL     1       1.615   5.540  -2.493  1.00  0.00     0.019 A 
ATOM     24  C   UNL     1       1.705   5.879  -3.853  1.00  0.00     0.013 A 
ATOM     25  C   UNL     1       2.247   6.369  -1.550  1.00  0.00     0.013 A 
ATOM     26  C   UNL     1       2.396   7.024  -4.258  1.00  0.00     0.021 A 
ATOM     27  C   UNL     1       2.951   7.506  -1.953  1.00  0.00     0.021 A 
ATOM     28  C   UNL     1       3.016   7.831  -3.306  1.00  0.00     0.041 A 
ATOM     29  Cl  UNL     1       3.861   9.244  -3.804  1.00  0.00    -0.084 Cl
ENDBRANCH  18  23
ENDBRANCH   9  14
ENDBRANCH   6   8
ENDBRANCH   5   6
ENDBRANCH   4   5
ENDBRANCH   3   4
ENDBRANCH   2   3
ENDBRANCH   1   2
BRANCH   1  30
ATOM     30  C   UNL     1      -2.653   1.182   4.634  1.00  0.00     0.188 C 
BRANCH  30  31
ATOM     31  O   UNL     1      -2.316  -0.098   5.153  1.00  0.00    -0.376 OA
BRANCH  31  32
ATOM     32  C   UNL     1      -3.225  -0.756   6.022  1.00  0.00     0.202 C 
BRANCH  32  33
ATOM     33  C   UNL     1      -3.464  -0.120   7.395  1.00  0.00     0.261 C 
BRANCH  33  34
ATOM     34  O   UNL     1      -3.997   1.217   7.339  1.00  0.00    -0.460 OA
BRANCH  34  35
ATOM     35  C   UNL     1      -3.149   2.201   7.727  1.00  0.00     0.338 C 
ATOM     36  O   UNL     1      -2.011   2.071   8.142  1.00  0.00    -0.246 OA
BRANCH  35  37
ATOM     37  C   UNL     1      -3.731   3.531   7.437  1.00  0.00     0.060 A 
ATOM     38  C   UNL     1      -2.943   4.453   6.734  1.00  0.00     0.016 A 
ATOM     39  C   UNL     1      -4.986   3.906   7.921  1.00  0.00     0.016 A 
ATOM     40  C   UNL     1      -3.383   5.767   6.558  1.00  0.00     0.010 A 
ATOM     41  C   UNL     1      -5.418   5.229   7.760  1.00  0.00     0.010 A 
ATOM     42  C   UNL     1      -4.603   6.176   7.112  1.00  0.00    -0.014 A 
BRANCH  42  43
ATOM     43  C   UNL     1      -4.937   7.621   7.179  1.00  0.00     0.031 A 
ATOM     44  C   UNL     1      -4.607   8.384   8.435  1.00  0.00     0.074 A 
ATOM     45  C   UNL     1      -5.510   8.261   6.146  1.00  0.00     0.049 A 
ATOM     46  N   UNL     1      -4.846   9.634   8.739  1.00  0.00    -0.248 NA
ATOM     47  C   UNL     1      -3.911   7.630   9.490  1.00  0.00     0.031 C 
ATOM     48  C   UNL     1      -5.838   7.663   4.855  1.00  0.00     0.029 A 
ATOM     49  N   UNL     1      -5.927   9.565   6.031  1.00  0.00    -0.354 N 
ATOM     50  C   UNL     1      -4.338   9.816  10.019  1.00  0.00     0.074 A 
ATOM     51  C   UNL     1      -3.799   8.541  10.444  1.00  0.00     0.031 C 
ATOM     52  C   UNL     1      -6.418   8.596   4.079  1.00  0.00     0.029 A 
ATOM     53  C   UNL     1      -6.530   9.847   4.830  1.00  0.00     0.049 A 
ATOM     54  H   UNL     1      -5.805  10.235   6.742  1.00  0.00     0.167 HD
ATOM     55  C   UNL     1      -4.316  10.941  10.774  1.00  0.00     0.037 A 
ATOM     56  C   UNL     1      -7.122  10.977   4.396  1.00  0.00     0.037 A 
ATOM     57  C   UNL     1      -4.858  12.209  10.364  1.00  0.00     0.049 A 
ATOM     58  C   UNL     1      -7.172  12.189   5.289  1.00  0.00     0.074 A 
ATOM     59  C   UNL     1      -4.862  13.409  11.054  1.00  0.00     0.029 A 
ATOM     60  N   UNL     1      -5.504  12.439   9.159  1.00  0.00    -0.354 N 
ATOM     61  N   UNL     1      -6.667  12.358   6.487  1.00  0.00    -0.248 NA
ATOM     62  C   UNL     1      -7.881  13.369   4.768  1.00  0.00     0.031 C 
ATOM     63  C   UNL     1      -5.558  14.352  10.289  1.00  0.00     0.029 A 
ATOM     64  C   UNL     1      -5.942  13.752   9.100  1.00  0.00     0.049 A 
ATOM     65  H   UNL     1      -5.634  11.768   8.451  1.00  0.00     0.167 HD
ATOM     66  C   UNL     1      -6.967  13.668   6.848  1.00  0.00     0.074 A 
ATOM     67  C   UNL     1      -7.696  14.250   5.741  1.00  0.00     0.031 C 
ATOM     68  C   UNL     1      -6.662  14.327   7.992  1.00  0.00     0.037 A 
BRANCH  55  69
ATOM     69  C   UNL     1      -3.715  10.831  12.144  1.00  0.00     0.057 A 
ATOM     70  C   UNL     1      -2.334  10.689  12.339  1.00  0.00     0.134 A 
ATOM     71  C   UNL     1      -4.528  10.871  13.283  1.00  0.00     0.134 A 
ATOM     72  F   UNL     1      -1.502  10.627  11.288  1.00  0.00    -0.206 F 
ATOM     73  C   UNL     1      -1.788  10.559  13.617  1.00  0.00     0.040 A 
ATOM     74  C   UNL     1      -3.991  10.768  14.567  1.00  0.00     0.040 A 
ATOM     75  F   UNL     1      -5.857  11.010  13.166  1.00  0.00    -0.206 F 
ATOM     76  C   UNL     1      -2.618  10.602  14.736  1.00  0.00     0.006 A 
ENDBRANCH  55  69
BRANCH  56  77
ATOM     77  C   UNL     1      -7.733  11.021   3.044  1.00  0.00     0.057 A 
ATOM     78  C   UNL     1      -7.165  11.785   2.019  1.00  0.00     0.134 A 
ATOM     79  C   UNL     1      -8.910  10.320   2.752  1.00  0.00     0.134 A 
ATOM     80  F   UNL     1      -6.054  12.501   2.249  1.00  0.00    -0.206 F 
ATOM     81  C   UNL     1      -7.749  11.861   0.754  1.00  0.00     0.040 A 
ATOM     82  C   UNL     1      -9.492  10.369   1.484  1.00  0.00     0.040 A 
ATOM     83  F   UNL     1      -9.506   9.575   3.693  1.00  0.00    -0.206 F 
ATOM     84  C   UNL     1      -8.914  11.146   0.482  1.00  0.00     0.006 A 
ENDBRANCH  56  77
BRANCH  68  85
ATOM     85  C   UNL     1      -7.077  15.767   8.097  1.00  0.00     0.057 A 
ATOM     86  C   UNL     1      -8.413  16.141   8.289  1.00  0.00     0.134 A 
ATOM     87  C   UNL     1      -6.120  16.790   8.051  1.00  0.00     0.134 A 
ATOM     88  F   UNL     1      -9.380  15.213   8.329  1.00  0.00    -0.206 F 
ATOM     89  C   UNL     1      -8.784  17.482   8.414  1.00  0.00     0.040 A 
ATOM     90  C   UNL     1      -6.476  18.131   8.200  1.00  0.00     0.040 A 
ATOM     91  F   UNL     1      -4.822  16.500   7.879  1.00  0.00    -0.206 F 
ATOM     92  C   UNL     1      -7.813  18.481   8.377  1.00  0.00     0.006 A 
ENDBRANCH  68  85
ENDBRANCH  42  43
ENDBRANCH  35  37
ENDBRANCH  34  35
ENDBRANCH  33  34
ENDBRANCH  32  33
ENDBRANCH  31  32
ENDBRANCH  30  31
ENDBRANCH   1  30
TORSDOF 21
