REMARK SMILES C[C@H](CCC(=O)OCCOCCOCCOC(=O)c1ccc(-c2c3nc(c(-c4c(F)cccc4F)c4ccc([nH]4)c(-c4c(F)cccc4F)c4nc(c(-c5c(F)cccc5F)c5ccc2[nH]5)C=C4)C=C3)cc1)[C@@H]1CC[C@@H]2[C@@H]3C[C@H](O)[C@@H]4C[C@H](O)CC[C@]4(C)[C@H]3CC[C@]21C
REMARK SMILES IDX 11 1 10 2 9 3 8 4 7 5 5 6 6 7 4 8 3 9 2 10 1 11 73 12 74 13
REMARK SMILES IDX 92 14 75 15 76 16 91 17 93 18 77 19 90 20 78 21 89 22 79 23
REMARK SMILES IDX 87 24 81 25 86 26 88 27 82 28 85 29 83 30 80 31 84 33 12 35
REMARK SMILES IDX 13 36 14 37 15 38 16 39 17 40 18 41 19 42 20 43 72 44 21 45
REMARK SMILES IDX 71 46 22 47 23 48 24 49 65 50 25 51 70 52 64 53 66 54 26 55
REMARK SMILES IDX 69 56 63 57 62 58 27 60 53 61 36 62 52 63 37 64 40 65 51 66
REMARK SMILES IDX 67 67 38 68 39 69 50 71 68 72 41 73 28 74 29 75 34 76 30 77
REMARK SMILES IDX 31 78 33 79 35 80 32 81 54 82 55 83 60 84 56 85 57 86 59 87
REMARK SMILES IDX 61 88 58 89 42 90 43 91 48 92 44 93 45 94 47 95 49 96 46 97
REMARK H PARENT 80 32 84 34 66 59 40 70
REMARK Flexibility Score: inf
ROOT
ATOM      1  C   UNL     1       0.474   5.592   2.018  1.00  0.00     0.188 C 
ENDROOT
BRANCH   1   2
ATOM      2  O   UNL     1      -0.279   6.427   2.886  1.00  0.00    -0.376 OA
BRANCH   2   3
ATOM      3  C   UNL     1      -1.672   6.111   2.950  1.00  0.00     0.202 C 
BRANCH   3   4
ATOM      4  C   UNL     1      -2.466   6.358   1.651  1.00  0.00     0.261 C 
BRANCH   4   5
ATOM      5  O   UNL     1      -2.274   5.315   0.664  1.00  0.00    -0.463 OA
BRANCH   5   6
ATOM      6  C   UNL     1      -1.587   5.634  -0.459  1.00  0.00     0.305 C 
ATOM      7  O   UNL     1      -1.174   6.756  -0.729  1.00  0.00    -0.252 OA
BRANCH   6   8
ATOM      8  C   UNL     1      -1.382   4.455  -1.386  1.00  0.00     0.123 C 
BRANCH   8   9
ATOM      9  C   UNL     1      -1.092   3.081  -0.756  1.00  0.00     0.015 C 
BRANCH   9  10
ATOM     10  C   UNL     1      -2.297   2.130  -0.744  1.00  0.00    -0.010 C 
ATOM     11  C   UNL     1      -1.914   0.806  -1.465  1.00  0.00     0.008 C 
BRANCH  10  12
ATOM     12  C   UNL     1      -2.990   1.732   0.573  1.00  0.00    -0.002 C 
ATOM     13  C   UNL     1      -4.239   2.624   1.091  1.00  0.00     0.005 C 
ATOM     14  C   UNL     1      -2.384   1.270   1.954  1.00  0.00    -0.026 C 
ATOM     15  C   UNL     1      -4.595   2.044   2.534  1.00  0.00     0.005 C 
ATOM     16  C   UNL     1      -3.782   0.774   2.443  1.00  0.00    -0.001 C 
ATOM     17  C   UNL     1      -1.253   0.244   2.282  1.00  0.00     0.007 C 
ATOM     18  C   UNL     1      -1.820   2.560   2.580  1.00  0.00     0.012 C 
ATOM     19  C   UNL     1      -3.839  -0.672   2.889  1.00  0.00    -0.001 C 
ATOM     20  C   UNL     1      -1.492  -0.859   3.379  1.00  0.00     0.005 C 
ATOM     21  C   UNL     1      -5.210  -1.315   2.817  1.00  0.00     0.036 C 
ATOM     22  C   UNL     1      -2.909  -0.966   4.042  1.00  0.00    -0.001 C 
ATOM     23  C   UNL     1      -5.013  -2.799   3.042  1.00  0.00     0.118 C 
ATOM     24  C   UNL     1      -3.214  -2.334   4.834  1.00  0.00    -0.024 C 
ATOM     25  C   UNL     1      -4.586  -3.034   4.490  1.00  0.00     0.026 C 
ATOM     26  C   UNL     1      -3.170  -2.082   6.365  1.00  0.00     0.010 C 
ATOM     27  C   UNL     1      -2.106  -3.393   4.564  1.00  0.00     0.012 C 
ATOM     28  C   UNL     1      -5.755  -2.815   5.484  1.00  0.00     0.038 C 
ATOM     29  C   UNL     1      -4.307  -1.224   6.906  1.00  0.00     0.032 C 
ATOM     30  C   UNL     1      -5.693  -1.608   6.409  1.00  0.00     0.114 C 
BRANCH  23  31
ATOM     31  O   UNL     1      -6.181  -3.537   2.704  1.00  0.00    -0.393 OA
ATOM     32  H   UNL     1      -6.918  -3.251   3.266  1.00  0.00     0.210 HD
ENDBRANCH  23  31
BRANCH  30  33
ATOM     33  O   UNL     1      -6.280  -0.469   5.783  1.00  0.00    -0.393 OA
ATOM     34  H   UNL     1      -5.754  -0.220   5.007  1.00  0.00     0.210 HD
ENDBRANCH  30  33
ENDBRANCH  10  12
ENDBRANCH   9  10
ENDBRANCH   8   9
ENDBRANCH   6   8
ENDBRANCH   5   6
ENDBRANCH   4   5
ENDBRANCH   3   4
ENDBRANCH   2   3
ENDBRANCH   1   2
BRANCH   1  35
ATOM     35  C   UNL     1       1.468   4.706   2.747  1.00  0.00     0.188 C 
BRANCH  35  36
ATOM     36  O   UNL     1       0.815   3.620   3.394  1.00  0.00    -0.376 OA
BRANCH  36  37
ATOM     37  C   UNL     1       0.856   3.603   4.816  1.00  0.00     0.202 C 
BRANCH  37  38
ATOM     38  C   UNL     1       1.542   2.314   5.288  1.00  0.00     0.261 C 
BRANCH  38  39
ATOM     39  O   UNL     1       2.905   2.337   4.838  1.00  0.00    -0.460 OA
BRANCH  39  40
ATOM     40  C   UNL     1       3.118   1.802   3.610  1.00  0.00     0.338 C 
ATOM     41  O   UNL     1       2.506   0.879   3.092  1.00  0.00    -0.246 OA
BRANCH  40  42
ATOM     42  C   UNL     1       4.078   2.677   2.892  1.00  0.00     0.060 A 
ATOM     43  C   UNL     1       4.042   2.708   1.488  1.00  0.00     0.016 A 
ATOM     44  C   UNL     1       4.892   3.577   3.592  1.00  0.00     0.016 A 
ATOM     45  C   UNL     1       4.811   3.640   0.787  1.00  0.00     0.010 A 
ATOM     46  C   UNL     1       5.656   4.505   2.897  1.00  0.00     0.010 A 
ATOM     47  C   UNL     1       5.640   4.520   1.493  1.00  0.00    -0.014 A 
BRANCH  47  48
ATOM     48  C   UNL     1       6.719   5.262   0.810  1.00  0.00     0.031 A 
ATOM     49  C   UNL     1       8.077   4.620   0.817  1.00  0.00     0.074 A 
ATOM     50  C   UNL     1       6.526   6.486   0.291  1.00  0.00     0.049 A 
ATOM     51  N   UNL     1       9.233   5.107   0.460  1.00  0.00    -0.248 NA
ATOM     52  C   UNL     1       8.135   3.241   1.336  1.00  0.00     0.031 C 
ATOM     53  C   UNL     1       5.248   7.192   0.224  1.00  0.00     0.029 A 
ATOM     54  N   UNL     1       7.428   7.364  -0.253  1.00  0.00    -0.354 N 
ATOM     55  C   UNL     1      10.154   4.102   0.726  1.00  0.00     0.074 A 
ATOM     56  C   UNL     1       9.434   2.998   1.314  1.00  0.00     0.031 C 
ATOM     57  C   UNL     1       5.452   8.408  -0.315  1.00  0.00     0.029 A 
ATOM     58  C   UNL     1       6.877   8.576  -0.594  1.00  0.00     0.049 A 
ATOM     59  H   UNL     1       8.378   7.147  -0.387  1.00  0.00     0.167 HD
ATOM     60  C   UNL     1      11.485   4.099   0.492  1.00  0.00     0.037 A 
ATOM     61  C   UNL     1       7.474   9.694  -1.052  1.00  0.00     0.037 A 
ATOM     62  C   UNL     1      12.189   5.212  -0.081  1.00  0.00     0.049 A 
ATOM     63  C   UNL     1       8.969   9.688  -1.256  1.00  0.00     0.074 A 
ATOM     64  C   UNL     1      13.532   5.321  -0.383  1.00  0.00     0.029 A 
ATOM     65  N   UNL     1      11.595   6.418  -0.428  1.00  0.00    -0.354 N 
ATOM     66  N   UNL     1       9.833   8.723  -1.041  1.00  0.00    -0.248 NA
ATOM     67  C   UNL     1       9.574  10.927  -1.766  1.00  0.00     0.031 C 
ATOM     68  C   UNL     1      13.762   6.613  -0.864  1.00  0.00     0.029 A 
ATOM     69  C   UNL     1      12.551   7.287  -0.921  1.00  0.00     0.049 A 
ATOM     70  H   UNL     1      10.637   6.624  -0.336  1.00  0.00     0.167 HD
ATOM     71  C   UNL     1      11.073   9.224  -1.422  1.00  0.00     0.074 A 
ATOM     72  C   UNL     1      10.846  10.576  -1.891  1.00  0.00     0.031 C 
ATOM     73  C   UNL     1      12.289   8.624  -1.391  1.00  0.00     0.037 A 
BRANCH  60  74
ATOM     74  C   UNL     1      12.248   2.869   0.885  1.00  0.00     0.057 A 
ATOM     75  C   UNL     1      12.075   1.644   0.224  1.00  0.00     0.134 A 
ATOM     76  C   UNL     1      13.158   2.904   1.949  1.00  0.00     0.134 A 
ATOM     77  F   UNL     1      11.198   1.535  -0.786  1.00  0.00    -0.206 F 
ATOM     78  C   UNL     1      12.756   0.494   0.625  1.00  0.00     0.040 A 
ATOM     79  C   UNL     1      13.869   1.768   2.338  1.00  0.00     0.040 A 
ATOM     80  F   UNL     1      13.368   4.040   2.630  1.00  0.00    -0.206 F 
ATOM     81  C   UNL     1      13.662   0.556   1.682  1.00  0.00     0.006 A 
ENDBRANCH  60  74
BRANCH  61  82
ATOM     82  C   UNL     1       6.671  10.909  -1.349  1.00  0.00     0.057 A 
ATOM     83  C   UNL     1       6.515  11.371  -2.661  1.00  0.00     0.134 A 
ATOM     84  C   UNL     1       6.059  11.653  -0.332  1.00  0.00     0.134 A 
ATOM     85  F   UNL     1       7.097  10.719  -3.679  1.00  0.00    -0.206 F 
ATOM     86  C   UNL     1       5.799  12.535  -2.951  1.00  0.00     0.040 A 
ATOM     87  C   UNL     1       5.316  12.803  -0.609  1.00  0.00     0.040 A 
ATOM     88  F   UNL     1       6.169  11.269   0.949  1.00  0.00    -0.206 F 
ATOM     89  C   UNL     1       5.191  13.251  -1.922  1.00  0.00     0.006 A 
ENDBRANCH  61  82
BRANCH  73  90
ATOM     90  C   UNL     1      13.457   9.405  -1.923  1.00  0.00     0.057 A 
ATOM     91  C   UNL     1      13.996  10.498  -1.235  1.00  0.00     0.134 A 
ATOM     92  C   UNL     1      14.083   9.016  -3.115  1.00  0.00     0.134 A 
ATOM     93  F   UNL     1      13.438  10.926  -0.092  1.00  0.00    -0.206 F 
ATOM     94  C   UNL     1      15.103  11.192  -1.726  1.00  0.00     0.040 A 
ATOM     95  C   UNL     1      15.209   9.682  -3.599  1.00  0.00     0.040 A 
ATOM     96  F   UNL     1      13.625   7.968  -3.816  1.00  0.00    -0.206 F 
ATOM     97  C   UNL     1      15.717  10.779  -2.907  1.00  0.00     0.006 A 
ENDBRANCH  73  90
ENDBRANCH  47  48
ENDBRANCH  40  42
ENDBRANCH  39  40
ENDBRANCH  38  39
ENDBRANCH  37  38
ENDBRANCH  36  37
ENDBRANCH  35  36
ENDBRANCH   1  35
TORSDOF 22
