REMARK SMILES CC[N@@H+](C)Cc1cc2c(cc1Cl)C=C(C(=O)OCCOCCOCCOC(=O)c1ccc(-c3c4nc(c(-c5c(F)cccc5F)c5ccc([nH]5)c(-c5c(F)cccc5F)c5nc(c(-c6c(F)cccc6F)c6ccc3[nH]6)C=C5)C=C4)cc1)[C@@H](C(F)(F)F)O2
REMARK SMILES IDX 21 1 20 2 19 3 18 4 17 5 15 6 16 7 14 8 6 9 7 10 11 11 8 12
REMARK SMILES IDX 10 13 12 14 9 15 88 16 13 17 83 18 5 19 3 20 4 21 2 23 1 24
REMARK SMILES IDX 84 25 85 26 86 27 87 28 22 29 23 30 24 31 25 32 26 33 27 34
REMARK SMILES IDX 28 35 29 36 30 37 82 38 31 39 81 40 32 41 33 42 34 43 75 44
REMARK SMILES IDX 35 45 80 46 74 47 76 48 36 49 79 50 73 51 72 52 37 54 63 55
REMARK SMILES IDX 46 56 62 57 47 58 50 59 61 60 77 61 48 62 49 63 60 65 78 66
REMARK SMILES IDX 51 67 38 68 39 69 44 70 40 71 41 72 43 73 45 74 42 75 64 76
REMARK SMILES IDX 65 77 70 78 66 79 67 80 69 81 71 82 68 83 52 84 53 85 58 86
REMARK SMILES IDX 54 87 55 88 57 89 59 90 56 91
REMARK H PARENT 3 22 76 53 50 64
REMARK Flexibility Score: inf
ROOT
ATOM      1  C   UNL     1       5.997  -9.130   0.706  1.00  0.00     0.188 C 
ENDROOT
BRANCH   1   2
ATOM      2  O   UNL     1       6.294 -10.262  -0.085  1.00  0.00    -0.376 OA
BRANCH   2   3
ATOM      3  C   UNL     1       6.598 -10.140  -1.466  1.00  0.00     0.202 C 
BRANCH   3   4
ATOM      4  C   UNL     1       5.884  -9.139  -2.378  1.00  0.00     0.261 C 
BRANCH   4   5
ATOM      5  O   UNL     1       5.730  -7.830  -1.818  1.00  0.00    -0.460 OA
BRANCH   5   6
ATOM      6  C   UNL     1       4.451  -7.393  -1.742  1.00  0.00     0.338 C 
ATOM      7  O   UNL     1       3.448  -7.972  -2.122  1.00  0.00    -0.246 OA
BRANCH   6   8
ATOM      8  C   UNL     1       4.411  -6.146  -0.965  1.00  0.00     0.087 C 
ATOM      9  C   UNL     1       2.912  -2.499   2.137  1.00  0.00     0.029 A 
ATOM     10  C   UNL     1       3.677  -2.546   0.953  1.00  0.00     0.058 A 
ATOM     11  C   UNL     1       2.618  -3.713   2.774  1.00  0.00     0.050 A 
ATOM     12  C   UNL     1       4.010  -3.760   0.355  1.00  0.00     0.128 A 
ATOM     13  C   UNL     1       2.895  -4.930   2.142  1.00  0.00     0.033 A 
ATOM     14  Cl  UNL     1       1.944  -3.801   4.361  1.00  0.00    -0.084 Cl
ATOM     15  C   UNL     1       3.543  -4.949   0.906  1.00  0.00     0.019 A 
ATOM     16  O   UNL     1       4.728  -3.694  -0.804  1.00  0.00    -0.475 OA
ATOM     17  C   UNL     1       3.655  -6.176   0.140  1.00  0.00     0.027 C 
ATOM     18  C   UNL     1       5.196  -4.939  -1.402  1.00  0.00     0.316 C 
BRANCH   9  19
ATOM     19  C   UNL     1       2.407  -1.149   2.613  1.00  0.00     0.300 C 
BRANCH  19  20
ATOM     20  N   UNL     1       1.010  -0.796   2.282  1.00  0.00    -0.334 N 
ATOM     21  C   UNL     1       0.033  -1.377   3.198  1.00  0.00     0.333 C 
ATOM     22  H   UNL     1       1.016   0.216   2.410  1.00  0.00     0.348 HD
BRANCH  20  23
ATOM     23  C   UNL     1       0.597  -1.004   0.889  1.00  0.00     0.258 C 
ATOM     24  C   UNL     1       1.192   0.024  -0.063  1.00  0.00     0.071 C 
ENDBRANCH  20  23
ENDBRANCH  19  20
ENDBRANCH   9  19
BRANCH  18  25
ATOM     25  C   UNL     1       5.214  -4.728  -2.924  1.00  0.00     0.430 C 
ATOM     26  F   UNL     1       5.958  -3.645  -3.256  1.00  0.00    -0.167 F 
ATOM     27  F   UNL     1       5.753  -5.781  -3.581  1.00  0.00    -0.167 F 
ATOM     28  F   UNL     1       3.971  -4.535  -3.420  1.00  0.00    -0.167 F 
ENDBRANCH  18  25
ENDBRANCH   6   8
ENDBRANCH   5   6
ENDBRANCH   4   5
ENDBRANCH   3   4
ENDBRANCH   2   3
ENDBRANCH   1   2
BRANCH   1  29
ATOM     29  C   UNL     1       7.015  -7.983   0.885  1.00  0.00     0.188 C 
BRANCH  29  30
ATOM     30  O   UNL     1       8.306  -8.055   0.315  1.00  0.00    -0.376 OA
BRANCH  30  31
ATOM     31  C   UNL     1       9.141  -9.165   0.613  1.00  0.00     0.202 C 
BRANCH  31  32
ATOM     32  C   UNL     1       9.392  -9.580   2.065  1.00  0.00     0.261 C 
BRANCH  32  33
ATOM     33  O   UNL     1       8.191  -9.861   2.797  1.00  0.00    -0.460 OA
BRANCH  33  34
ATOM     34  C   UNL     1       7.968  -9.064   3.870  1.00  0.00     0.338 C 
ATOM     35  O   UNL     1       8.676  -8.161   4.285  1.00  0.00    -0.246 OA
BRANCH  34  36
ATOM     36  C   UNL     1       6.605  -9.311   4.377  1.00  0.00     0.060 A 
ATOM     37  C   UNL     1       6.200 -10.591   4.755  1.00  0.00     0.016 A 
ATOM     38  C   UNL     1       5.728  -8.223   4.482  1.00  0.00     0.016 A 
ATOM     39  C   UNL     1       4.916 -10.775   5.272  1.00  0.00     0.010 A 
ATOM     40  C   UNL     1       4.441  -8.411   4.987  1.00  0.00     0.010 A 
ATOM     41  C   UNL     1       4.036  -9.686   5.406  1.00  0.00    -0.014 A 
BRANCH  41  42
ATOM     42  C   UNL     1       2.757  -9.861   6.133  1.00  0.00     0.031 A 
ATOM     43  C   UNL     1       1.455 -10.037   5.415  1.00  0.00     0.074 A 
ATOM     44  C   UNL     1       2.791  -9.857   7.478  1.00  0.00     0.049 A 
ATOM     45  N   UNL     1       0.275 -10.312   5.911  1.00  0.00    -0.248 NA
ATOM     46  C   UNL     1       1.476  -9.877   3.954  1.00  0.00     0.031 C 
ATOM     47  C   UNL     1       3.994  -9.650   8.286  1.00  0.00     0.029 A 
ATOM     48  N   UNL     1       1.794 -10.037   8.400  1.00  0.00    -0.354 N 
ATOM     49  C   UNL     1      -0.585 -10.389   4.825  1.00  0.00     0.074 A 
ATOM     50  C   UNL     1       0.201 -10.076   3.647  1.00  0.00     0.031 C 
ATOM     51  C   UNL     1       3.668  -9.739   9.585  1.00  0.00     0.029 A 
ATOM     52  C   UNL     1       2.236  -9.993   9.699  1.00  0.00     0.049 A 
ATOM     53  H   UNL     1       0.851 -10.184   8.155  1.00  0.00     0.167 HD
ATOM     54  C   UNL     1      -1.902 -10.711   4.815  1.00  0.00     0.037 A 
ATOM     55  C   UNL     1       1.563 -10.153  10.852  1.00  0.00     0.037 A 
ATOM     56  C   UNL     1      -2.684 -10.992   5.994  1.00  0.00     0.049 A 
ATOM     57  C   UNL     1       0.094 -10.461  10.812  1.00  0.00     0.074 A 
ATOM     58  C   UNL     1      -4.014 -11.371   6.080  1.00  0.00     0.029 A 
ATOM     59  N   UNL     1      -2.214 -10.905   7.297  1.00  0.00    -0.354 N 
ATOM     60  N   UNL     1      -0.687 -10.634   9.774  1.00  0.00    -0.248 NA
ATOM     61  C   UNL     1      -0.582 -10.610  12.107  1.00  0.00     0.031 C 
ATOM     62  C   UNL     1      -4.361 -11.464   7.433  1.00  0.00     0.029 A 
ATOM     63  C   UNL     1      -3.235 -11.191   8.192  1.00  0.00     0.049 A 
ATOM     64  H   UNL     1      -1.291 -10.673   7.549  1.00  0.00     0.167 HD
ATOM     65  C   UNL     1      -1.940 -10.937  10.289  1.00  0.00     0.074 A 
ATOM     66  C   UNL     1      -1.808 -10.944  11.732  1.00  0.00     0.031 C 
ATOM     67  C   UNL     1      -3.096 -11.187   9.627  1.00  0.00     0.037 A 
BRANCH  54  68
ATOM     68  C   UNL     1      -2.585 -10.782   3.479  1.00  0.00     0.057 A 
ATOM     69  C   UNL     1      -3.554  -9.839   3.113  1.00  0.00     0.134 A 
ATOM     70  C   UNL     1      -2.320 -11.819   2.575  1.00  0.00     0.134 A 
ATOM     71  F   UNL     1      -3.866  -8.827   3.936  1.00  0.00    -0.206 F 
ATOM     72  C   UNL     1      -4.234  -9.926   1.897  1.00  0.00     0.040 A 
ATOM     73  C   UNL     1      -2.976 -11.903   1.345  1.00  0.00     0.040 A 
ATOM     74  F   UNL     1      -1.400 -12.752   2.862  1.00  0.00    -0.206 F 
ATOM     75  C   UNL     1      -3.941 -10.957   1.006  1.00  0.00     0.006 A 
ENDBRANCH  54  68
BRANCH  55  76
ATOM     76  C   UNL     1       2.280 -10.057  12.147  1.00  0.00     0.057 A 
ATOM     77  C   UNL     1       2.760  -8.833  12.625  1.00  0.00     0.134 A 
ATOM     78  C   UNL     1       2.483 -11.189  12.944  1.00  0.00     0.134 A 
ATOM     79  F   UNL     1       2.603  -7.715  11.902  1.00  0.00    -0.206 F 
ATOM     80  C   UNL     1       3.417  -8.737  13.851  1.00  0.00     0.040 A 
ATOM     81  C   UNL     1       3.116 -11.104  14.184  1.00  0.00     0.040 A 
ATOM     82  F   UNL     1       2.030 -12.387  12.544  1.00  0.00    -0.206 F 
ATOM     83  C   UNL     1       3.588  -9.874  14.639  1.00  0.00     0.006 A 
ENDBRANCH  55  76
BRANCH  67  84
ATOM     84  C   UNL     1      -4.300 -11.510  10.464  1.00  0.00     0.057 A 
ATOM     85  C   UNL     1      -4.820 -12.810  10.498  1.00  0.00     0.134 A 
ATOM     86  C   UNL     1      -4.944 -10.537  11.241  1.00  0.00     0.134 A 
ATOM     87  F   UNL     1      -4.256 -13.789   9.775  1.00  0.00    -0.206 F 
ATOM     88  C   UNL     1      -5.932 -13.131  11.278  1.00  0.00     0.040 A 
ATOM     89  C   UNL     1      -6.040 -10.852  12.046  1.00  0.00     0.040 A 
ATOM     90  F   UNL     1      -4.486  -9.276  11.267  1.00  0.00    -0.206 F 
ATOM     91  C   UNL     1      -6.540 -12.153  12.063  1.00  0.00     0.006 A 
ENDBRANCH  67  84
ENDBRANCH  41  42
ENDBRANCH  34  36
ENDBRANCH  33  34
ENDBRANCH  32  33
ENDBRANCH  31  32
ENDBRANCH  30  31
ENDBRANCH  29  30
ENDBRANCH   1  29
TORSDOF 21
