REMARK SMILES CC1(C)O[C@@H]2C[C@H]3[C@H]4CCC5=CC(=O)C=C[C@@]5(C)[C@]4(F)[C@H](O)C[C@]3(C)[C@]2(C(=O)OCCOCCOCCOC(=O)c2ccc(-c3c4nc(c(-c5c(F)cccc5F)c5ccc([nH]5)c(-c5c(F)cccc5F)c5nc(c(-c6c(F)cccc6F)c6ccc3[nH]6)C=C5)C=C4)cc2)O1
REMARK SMILES IDX 34 1 33 2 32 3 31 4 30 5 29 6 27 7 28 8 26 9 1 10 2 11 4 12
REMARK SMILES IDX 95 13 3 14 5 15 6 16 24 17 7 18 23 19 25 20 8 21 21 22 9 23
REMARK SMILES IDX 19 24 10 25 17 26 20 27 11 28 16 29 18 30 12 31 15 32 13 33
REMARK SMILES IDX 14 34 22 35 35 37 36 38 37 39 38 40 39 41 40 42 41 43 42 44
REMARK SMILES IDX 94 45 43 46 93 47 44 48 45 49 46 50 87 51 47 52 92 53 86 54
REMARK SMILES IDX 88 55 48 56 91 57 85 58 84 59 49 61 75 62 58 63 74 64 59 65
REMARK SMILES IDX 62 66 73 67 89 68 60 69 61 70 72 72 90 73 63 74 50 75 51 76
REMARK SMILES IDX 56 77 52 78 53 79 55 80 57 81 54 82 76 83 77 84 82 85 78 86
REMARK SMILES IDX 79 87 81 88 83 89 80 90 64 91 65 92 70 93 66 94 67 95 69 96
REMARK SMILES IDX 71 97 68 98
REMARK H PARENT 22 36 88 60 62 71
REMARK Flexibility Score: inf
ROOT
ATOM      1  C   UNL     1       0.404   2.666   2.264  1.00  0.00     0.188 C 
ENDROOT
BRANCH   1   2
ATOM      2  C   UNL     1       1.546   3.679   2.318  1.00  0.00     0.188 C 
BRANCH   2   3
ATOM      3  O   UNL     1       1.186   4.853   3.021  1.00  0.00    -0.376 OA
BRANCH   3   4
ATOM      4  C   UNL     1       0.670   5.929   2.258  1.00  0.00     0.202 C 
BRANCH   4   5
ATOM      5  C   UNL     1      -0.673   5.734   1.508  1.00  0.00     0.261 C 
BRANCH   5   6
ATOM      6  O   UNL     1      -0.785   4.701   0.495  1.00  0.00    -0.461 OA
BRANCH   6   7
ATOM      7  C   UNL     1       0.131   4.741  -0.494  1.00  0.00     0.341 C 
ATOM      8  O   UNL     1       1.010   5.598  -0.514  1.00  0.00    -0.249 OA
BRANCH   7   9
ATOM      9  C   UNL     1       0.062   3.587  -1.526  1.00  0.00     0.200 C 
ATOM     10  C   UNL     1      -0.599   0.435   0.145  1.00  0.00     0.075 C 
ATOM     11  C   UNL     1      -0.362   1.250  -1.129  1.00  0.00     0.165 C 
ATOM     12  O   UNL     1      -1.603   1.836  -1.512  1.00  0.00    -0.344 OA
ATOM     13  O   UNL     1       0.618   2.331  -0.967  1.00  0.00    -0.329 OA
ATOM     14  C   UNL     1       0.092   0.162  -2.147  1.00  0.00     0.075 C 
ATOM     15  C   UNL     1      -1.296   3.093  -2.125  1.00  0.00     0.166 C 
ATOM     16  C   UNL     1      -1.046   2.820  -3.674  1.00  0.00     0.040 C 
ATOM     17  C   UNL     1       0.769   4.173  -2.884  1.00  0.00     0.016 C 
ATOM     18  C   UNL     1       0.480   2.956  -3.770  1.00  0.00     0.008 C 
ATOM     19  C   UNL     1       2.249   4.610  -2.949  1.00  0.00     0.046 C 
ATOM     20  C   UNL     1      -0.025   5.459  -3.329  1.00  0.00     0.015 C 
ATOM     21  C   UNL     1       1.528   2.203  -4.611  1.00  0.00     0.035 C 
ATOM     22  C   UNL     1       3.256   3.528  -3.281  1.00  0.00     0.154 C 
ATOM     23  C   UNL     1       1.103   1.617  -5.947  1.00  0.00     0.012 C 
ATOM     24  C   UNL     1       2.916   2.863  -4.652  1.00  0.00     0.152 C 
ATOM     25  C   UNL     1       2.087   0.490  -6.300  1.00  0.00     0.032 C 
ATOM     26  C   UNL     1       4.007   1.829  -5.141  1.00  0.00     0.044 C 
ATOM     27  F   UNL     1       2.834   3.871  -5.585  1.00  0.00    -0.239 F 
ATOM     28  C   UNL     1       3.529   0.929  -6.287  1.00  0.00    -0.053 C 
ATOM     29  C   UNL     1       5.259   2.562  -5.613  1.00  0.00    -0.009 C 
ATOM     30  C   UNL     1       4.467   0.885  -3.978  1.00  0.00     0.024 C 
ATOM     31  C   UNL     1       4.400   0.458  -7.202  1.00  0.00     0.052 C 
ATOM     32  C   UNL     1       6.250   1.895  -6.221  1.00  0.00     0.048 C 
ATOM     33  C   UNL     1       5.852   0.773  -7.107  1.00  0.00     0.178 C 
ATOM     34  O   UNL     1       6.670   0.211  -7.824  1.00  0.00    -0.290 OA
BRANCH  22  35
ATOM     35  O   UNL     1       3.276   2.627  -2.177  1.00  0.00    -0.390 OA
ATOM     36  H   UNL     1       2.387   2.262  -2.042  1.00  0.00     0.211 HD
ENDBRANCH  22  35
ENDBRANCH   7   9
ENDBRANCH   6   7
ENDBRANCH   5   6
ENDBRANCH   4   5
ENDBRANCH   3   4
ENDBRANCH   2   3
ENDBRANCH   1   2
BRANCH   1  37
ATOM     37  O   UNL     1      -0.644   2.742   3.218  1.00  0.00    -0.376 OA
BRANCH  37  38
ATOM     38  C   UNL     1      -0.283   2.881   4.583  1.00  0.00     0.202 C 
BRANCH  38  39
ATOM     39  C   UNL     1       0.528   1.737   5.196  1.00  0.00     0.261 C 
BRANCH  39  40
ATOM     40  O   UNL     1       1.807   1.523   4.562  1.00  0.00    -0.460 OA
BRANCH  40  41
ATOM     41  C   UNL     1       1.967   0.335   3.949  1.00  0.00     0.338 C 
ATOM     42  O   UNL     1       1.146  -0.596   3.895  1.00  0.00    -0.246 OA
BRANCH  41  43
ATOM     43  C   UNL     1       3.223   0.285   3.190  1.00  0.00     0.060 A 
ATOM     44  C   UNL     1       3.169   0.178   1.793  1.00  0.00     0.016 A 
ATOM     45  C   UNL     1       4.444   0.176   3.852  1.00  0.00     0.016 A 
ATOM     46  C   UNL     1       4.315  -0.104   1.054  1.00  0.00     0.010 A 
ATOM     47  C   UNL     1       5.596  -0.110   3.111  1.00  0.00     0.010 A 
ATOM     48  C   UNL     1       5.529  -0.298   1.716  1.00  0.00    -0.014 A 
BRANCH  48  49
ATOM     49  C   UNL     1       6.687  -0.880   0.995  1.00  0.00     0.031 A 
ATOM     50  C   UNL     1       7.040  -2.320   1.247  1.00  0.00     0.074 A 
ATOM     51  C   UNL     1       7.410  -0.153   0.126  1.00  0.00     0.049 A 
ATOM     52  N   UNL     1       8.108  -2.989   0.898  1.00  0.00    -0.248 NA
ATOM     53  C   UNL     1       6.053  -3.111   2.000  1.00  0.00     0.031 C 
ATOM     54  C   UNL     1       7.119   1.220  -0.281  1.00  0.00     0.029 A 
ATOM     55  N   UNL     1       8.557  -0.473  -0.555  1.00  0.00    -0.354 N 
ATOM     56  C   UNL     1       7.940  -4.265   1.422  1.00  0.00     0.074 A 
ATOM     57  C   UNL     1       6.671  -4.276   2.117  1.00  0.00     0.031 C 
ATOM     58  C   UNL     1       8.082   1.637  -1.121  1.00  0.00     0.029 A 
ATOM     59  C   UNL     1       9.081   0.579  -1.266  1.00  0.00     0.049 A 
ATOM     60  H   UNL     1       8.965  -1.368  -0.536  1.00  0.00     0.167 HD
ATOM     61  C   UNL     1       8.771  -5.330   1.332  1.00  0.00     0.037 A 
ATOM     62  C   UNL     1      10.255   0.689  -1.915  1.00  0.00     0.037 A 
ATOM     63  C   UNL     1      10.021  -5.321   0.620  1.00  0.00     0.049 A 
ATOM     64  C   UNL     1      11.206  -0.480  -1.931  1.00  0.00     0.074 A 
ATOM     65  C   UNL     1      10.937  -6.347   0.469  1.00  0.00     0.029 A 
ATOM     66  N   UNL     1      10.527  -4.228  -0.067  1.00  0.00    -0.354 N 
ATOM     67  N   UNL     1      11.065  -1.670  -1.399  1.00  0.00    -0.248 NA
ATOM     68  C   UNL     1      12.484  -0.286  -2.632  1.00  0.00     0.031 C 
ATOM     69  C   UNL     1      12.018  -5.861  -0.273  1.00  0.00     0.029 A 
ATOM     70  C   UNL     1      11.751  -4.548  -0.628  1.00  0.00     0.049 A 
ATOM     71  H   UNL     1      10.081  -3.353  -0.144  1.00  0.00     0.167 HD
ATOM     72  C   UNL     1      12.216  -2.375  -1.729  1.00  0.00     0.074 A 
ATOM     73  C   UNL     1      13.045  -1.481  -2.509  1.00  0.00     0.031 C 
ATOM     74  C   UNL     1      12.555  -3.651  -1.417  1.00  0.00     0.037 A 
BRANCH  61  75
ATOM     75  C   UNL     1       8.373  -6.581   2.058  1.00  0.00     0.057 A 
ATOM     76  C   UNL     1       7.325  -7.398   1.618  1.00  0.00     0.134 A 
ATOM     77  C   UNL     1       9.068  -6.984   3.207  1.00  0.00     0.134 A 
ATOM     78  F   UNL     1       6.609  -7.061   0.535  1.00  0.00    -0.206 F 
ATOM     79  C   UNL     1       6.967  -8.559   2.306  1.00  0.00     0.040 A 
ATOM     80  C   UNL     1       8.736  -8.155   3.888  1.00  0.00     0.040 A 
ATOM     81  F   UNL     1      10.084  -6.248   3.681  1.00  0.00    -0.206 F 
ATOM     82  C   UNL     1       7.678  -8.944   3.441  1.00  0.00     0.006 A 
ENDBRANCH  61  75
BRANCH  62  83
ATOM     83  C   UNL     1      10.624   1.968  -2.573  1.00  0.00     0.057 A 
ATOM     84  C   UNL     1      10.703   2.069  -3.966  1.00  0.00     0.134 A 
ATOM     85  C   UNL     1      10.928   3.112  -1.825  1.00  0.00     0.134 A 
ATOM     86  F   UNL     1      10.446   1.001  -4.735  1.00  0.00    -0.206 F 
ATOM     87  C   UNL     1      11.089   3.255  -4.592  1.00  0.00     0.040 A 
ATOM     88  C   UNL     1      11.289   4.312  -2.438  1.00  0.00     0.040 A 
ATOM     89  F   UNL     1      10.869   3.082  -0.485  1.00  0.00    -0.206 F 
ATOM     90  C   UNL     1      11.379   4.383  -3.827  1.00  0.00     0.006 A 
ENDBRANCH  62  83
BRANCH  74  91
ATOM     91  C   UNL     1      13.850  -4.177  -1.964  1.00  0.00     0.057 A 
ATOM     92  C   UNL     1      15.089  -3.781  -1.448  1.00  0.00     0.134 A 
ATOM     93  C   UNL     1      13.850  -5.137  -2.984  1.00  0.00     0.134 A 
ATOM     94  F   UNL     1      15.158  -2.857  -0.477  1.00  0.00    -0.206 F 
ATOM     95  C   UNL     1      16.285  -4.309  -1.939  1.00  0.00     0.040 A 
ATOM     96  C   UNL     1      15.037  -5.691  -3.466  1.00  0.00     0.040 A 
ATOM     97  F   UNL     1      12.695  -5.568  -3.514  1.00  0.00    -0.206 F 
ATOM     98  C   UNL     1      16.259  -5.273  -2.946  1.00  0.00     0.006 A 
ENDBRANCH  74  91
ENDBRANCH  48  49
ENDBRANCH  41  43
ENDBRANCH  40  41
ENDBRANCH  39  40
ENDBRANCH  38  39
ENDBRANCH  37  38
ENDBRANCH   1  37
TORSDOF 18
