REMARK SMILES COc1ccc2c(c1)C=C(C(=O)OCCOCCOCCOC(=O)c1ccc(-c3c4nc(c(-c5c(F)cccc5F)c5ccc([nH]5)c(-c5c(F)cccc5F)c5nc(c(-c6c(F)cccc6F)c6ccc3[nH]6)C=C5)C=C4)cc1)[C@H](C(F)(F)F)O2
REMARK SMILES IDX 18 1 17 2 16 3 15 4 14 5 13 6 11 7 12 8 10 9 3 10 4 11 8 12
REMARK SMILES IDX 5 13 7 14 6 15 9 16 84 17 79 18 2 19 1 20 80 21 81 22 82 23
REMARK SMILES IDX 83 24 19 25 20 26 21 27 22 28 23 29 24 30 25 31 26 32 78 33
REMARK SMILES IDX 27 34 77 35 28 36 29 37 30 38 71 39 31 40 76 41 70 42 72 43
REMARK SMILES IDX 32 44 75 45 69 46 68 47 33 49 59 50 42 51 58 52 43 53 46 54
REMARK SMILES IDX 57 55 73 56 44 57 45 58 56 60 74 61 47 62 34 63 35 64 40 65
REMARK SMILES IDX 36 66 37 67 39 68 41 69 38 70 60 71 61 72 66 73 62 74 63 75
REMARK SMILES IDX 65 76 67 77 64 78 48 79 49 80 54 81 50 82 51 83 53 84 55 85
REMARK SMILES IDX 52 86
REMARK H PARENT 72 48 46 59
REMARK Flexibility Score: inf
ROOT
ATOM      1  C   UNL     1      -2.362   7.818  -1.603  1.00  0.00     0.188 C 
ENDROOT
BRANCH   1   2
ATOM      2  C   UNL     1      -1.951   9.039  -2.453  1.00  0.00     0.188 C 
BRANCH   2   3
ATOM      3  O   UNL     1      -3.003   9.643  -3.165  1.00  0.00    -0.376 OA
BRANCH   3   4
ATOM      4  C   UNL     1      -3.278   9.263  -4.502  1.00  0.00     0.202 C 
BRANCH   4   5
ATOM      5  C   UNL     1      -2.845   7.937  -5.162  1.00  0.00     0.261 C 
BRANCH   5   6
ATOM      6  O   UNL     1      -2.019   7.048  -4.406  1.00  0.00    -0.460 OA
BRANCH   6   7
ATOM      7  C   UNL     1      -0.705   7.011  -4.739  1.00  0.00     0.338 C 
ATOM      8  O   UNL     1      -0.161   7.678  -5.598  1.00  0.00    -0.246 OA
BRANCH   7   9
ATOM      9  C   UNL     1       0.029   6.131  -3.808  1.00  0.00     0.087 C 
ATOM     10  C   UNL     1       0.817   1.941  -1.543  1.00  0.00     0.119 A 
ATOM     11  C   UNL     1       2.136   2.332  -1.307  1.00  0.00     0.050 A 
ATOM     12  C   UNL     1      -0.042   2.787  -2.259  1.00  0.00     0.058 A 
ATOM     13  C   UNL     1       2.587   3.575  -1.754  1.00  0.00     0.051 A 
ATOM     14  C   UNL     1       0.406   4.030  -2.717  1.00  0.00     0.021 A 
ATOM     15  C   UNL     1       1.720   4.423  -2.436  1.00  0.00     0.128 A 
ATOM     16  C   UNL     1      -0.417   4.884  -3.573  1.00  0.00     0.027 C 
ATOM     17  O   UNL     1       2.241   5.611  -2.876  1.00  0.00    -0.475 OA
ATOM     18  C   UNL     1       1.252   6.654  -3.087  1.00  0.00     0.316 C 
BRANCH  10  19
ATOM     19  O   UNL     1       0.275   0.738  -1.179  1.00  0.00    -0.497 OA
ATOM     20  C   UNL     1       0.912   0.062  -0.100  1.00  0.00     0.278 C 
ENDBRANCH  10  19
BRANCH  18  21
ATOM     21  C   UNL     1       1.972   7.891  -3.650  1.00  0.00     0.430 C 
ATOM     22  F   UNL     1       1.163   8.977  -3.645  1.00  0.00    -0.167 F 
ATOM     23  F   UNL     1       3.026   8.218  -2.855  1.00  0.00    -0.167 F 
ATOM     24  F   UNL     1       2.453   7.711  -4.894  1.00  0.00    -0.167 F 
ENDBRANCH  18  21
ENDBRANCH   7   9
ENDBRANCH   6   7
ENDBRANCH   5   6
ENDBRANCH   4   5
ENDBRANCH   3   4
ENDBRANCH   2   3
ENDBRANCH   1   2
BRANCH   1  25
ATOM     25  O   UNL     1      -3.701   7.353  -1.621  1.00  0.00    -0.376 OA
BRANCH  25  26
ATOM     26  C   UNL     1      -4.763   8.280  -1.443  1.00  0.00     0.202 C 
BRANCH  26  27
ATOM     27  C   UNL     1      -4.735   9.312  -0.300  1.00  0.00     0.261 C 
BRANCH  27  28
ATOM     28  O   UNL     1      -3.493  10.007  -0.104  1.00  0.00    -0.460 OA
BRANCH  28  29
ATOM     29  C   UNL     1      -2.824   9.695   1.034  1.00  0.00     0.338 C 
ATOM     30  O   UNL     1      -3.159   8.906   1.899  1.00  0.00    -0.246 OA
BRANCH  29  31
ATOM     31  C   UNL     1      -1.492  10.332   1.017  1.00  0.00     0.060 A 
ATOM     32  C   UNL     1      -0.357   9.509   0.988  1.00  0.00     0.016 A 
ATOM     33  C   UNL     1      -1.360  11.717   1.110  1.00  0.00     0.016 A 
ATOM     34  C   UNL     1       0.917  10.068   1.076  1.00  0.00     0.010 A 
ATOM     35  C   UNL     1      -0.082  12.275   1.225  1.00  0.00     0.010 A 
ATOM     36  C   UNL     1       1.059  11.451   1.241  1.00  0.00    -0.014 A 
BRANCH  36  37
ATOM     37  C   UNL     1       2.378  12.015   1.619  1.00  0.00     0.031 A 
ATOM     38  C   UNL     1       2.648  12.304   3.070  1.00  0.00     0.074 A 
ATOM     39  C   UNL     1       3.327  12.253   0.697  1.00  0.00     0.049 A 
ATOM     40  N   UNL     1       3.696  12.854   3.629  1.00  0.00    -0.248 NA
ATOM     41  C   UNL     1       1.591  11.920   4.019  1.00  0.00     0.031 C 
ATOM     42  C   UNL     1       3.211  11.971  -0.732  1.00  0.00     0.029 A 
ATOM     43  N   UNL     1       4.579  12.801   0.833  1.00  0.00    -0.354 N 
ATOM     44  C   UNL     1       3.420  12.892   4.990  1.00  0.00     0.074 A 
ATOM     45  C   UNL     1       2.097  12.335   5.170  1.00  0.00     0.031 C 
ATOM     46  C   UNL     1       4.340  12.365  -1.346  1.00  0.00     0.029 A 
ATOM     47  C   UNL     1       5.242  12.958  -0.359  1.00  0.00     0.049 A 
ATOM     48  H   UNL     1       4.963  13.057   1.702  1.00  0.00     0.167 HD
ATOM     49  C   UNL     1       4.201  13.343   6.000  1.00  0.00     0.037 A 
ATOM     50  C   UNL     1       6.430  13.537  -0.623  1.00  0.00     0.037 A 
ATOM     51  C   UNL     1       5.515  13.901   5.821  1.00  0.00     0.049 A 
ATOM     52  C   UNL     1       7.246  14.108   0.509  1.00  0.00     0.074 A 
ATOM     53  C   UNL     1       6.390  14.375   6.783  1.00  0.00     0.029 A 
ATOM     54  N   UNL     1       6.140  14.071   4.594  1.00  0.00    -0.354 N 
ATOM     55  N   UNL     1       6.988  14.121   1.794  1.00  0.00    -0.248 NA
ATOM     56  C   UNL     1       8.523  14.744   0.150  1.00  0.00     0.031 C 
ATOM     57  C   UNL     1       7.521  14.881   6.135  1.00  0.00     0.029 A 
ATOM     58  C   UNL     1       7.378  14.666   4.774  1.00  0.00     0.049 A 
ATOM     59  H   UNL     1       5.760  13.807   3.725  1.00  0.00     0.167 HD
ATOM     60  C   UNL     1       8.082  14.729   2.399  1.00  0.00     0.074 A 
ATOM     61  C   UNL     1       9.011  15.064   1.340  1.00  0.00     0.031 C 
ATOM     62  C   UNL     1       8.301  14.983   3.713  1.00  0.00     0.037 A 
BRANCH  49  63
ATOM     63  C   UNL     1       3.637  13.279   7.390  1.00  0.00     0.057 A 
ATOM     64  C   UNL     1       3.460  12.064   8.065  1.00  0.00     0.134 A 
ATOM     65  C   UNL     1       3.291  14.453   8.072  1.00  0.00     0.134 A 
ATOM     66  F   UNL     1       3.758  10.902   7.464  1.00  0.00    -0.206 F 
ATOM     67  C   UNL     1       2.936  12.018   9.358  1.00  0.00     0.040 A 
ATOM     68  C   UNL     1       2.792  14.421   9.375  1.00  0.00     0.040 A 
ATOM     69  F   UNL     1       3.438  15.651   7.486  1.00  0.00    -0.206 F 
ATOM     70  C   UNL     1       2.607  13.200  10.019  1.00  0.00     0.006 A 
ENDBRANCH  49  63
BRANCH  50  71
ATOM     71  C   UNL     1       6.921  13.627  -2.022  1.00  0.00     0.057 A 
ATOM     72  C   UNL     1       8.045  12.909  -2.445  1.00  0.00     0.134 A 
ATOM     73  C   UNL     1       6.298  14.459  -2.961  1.00  0.00     0.134 A 
ATOM     74  F   UNL     1       8.703  12.117  -1.585  1.00  0.00    -0.206 F 
ATOM     75  C   UNL     1       8.545  13.029  -3.743  1.00  0.00     0.040 A 
ATOM     76  C   UNL     1       6.769  14.567  -4.270  1.00  0.00     0.040 A 
ATOM     77  F   UNL     1       5.218  15.177  -2.619  1.00  0.00    -0.206 F 
ATOM     78  C   UNL     1       7.902  13.857  -4.661  1.00  0.00     0.006 A 
ENDBRANCH  50  71
BRANCH  62  79
ATOM     79  C   UNL     1       9.614  15.608   4.091  1.00  0.00     0.057 A 
ATOM     80  C   UNL     1       9.917  16.943   3.797  1.00  0.00     0.134 A 
ATOM     81  C   UNL     1      10.572  14.871   4.801  1.00  0.00     0.134 A 
ATOM     82  F   UNL     1       9.049  17.702   3.111  1.00  0.00    -0.206 F 
ATOM     83  C   UNL     1      11.135  17.515   4.172  1.00  0.00     0.040 A 
ATOM     84  C   UNL     1      11.780  15.440   5.207  1.00  0.00     0.040 A 
ATOM     85  F   UNL     1      10.342  13.589   5.126  1.00  0.00    -0.206 F 
ATOM     86  C   UNL     1      12.067  16.764   4.886  1.00  0.00     0.006 A 
ENDBRANCH  62  79
ENDBRANCH  36  37
ENDBRANCH  29  31
ENDBRANCH  28  29
ENDBRANCH  27  28
ENDBRANCH  26  27
ENDBRANCH  25  26
ENDBRANCH   1  25
TORSDOF 19
