REMARK SMILES O=C(OCCOCCOCCOC(=O)[C@H]1CCC(=O)N(C2CCCCC2)[C@H]1c1ccccc1)c1ccc(-c2c3nc(c(-c4c(F)cccc4F)c4ccc([nH]4)c(-c4c(F)cccc4F)c4nc(c(-c5c(F)cccc5F)c5ccc2[nH]5)C=C4)C=C3)cc1
REMARK SMILES IDX 7 1 6 2 5 3 4 4 3 5 2 6 1 7 34 8 35 9 87 10 36 11 86 12
REMARK SMILES IDX 37 13 38 14 39 15 80 16 40 17 85 18 79 19 81 20 41 21 84 22
REMARK SMILES IDX 78 23 77 24 42 26 68 27 51 28 67 29 52 30 55 31 66 32 82 33
REMARK SMILES IDX 53 34 54 35 65 37 83 38 56 39 43 40 44 41 49 42 45 43 46 44
REMARK SMILES IDX 48 45 50 46 47 47 69 48 70 49 75 50 71 51 72 52 74 53 76 54
REMARK SMILES IDX 73 55 57 56 58 57 63 58 59 59 60 60 62 61 64 62 61 63 8 64
REMARK SMILES IDX 9 65 10 66 11 67 12 68 13 69 14 70 15 71 16 72 27 73 17 74
REMARK SMILES IDX 20 75 18 76 19 77 28 78 29 79 33 80 30 81 32 82 31 83 21 84
REMARK SMILES IDX 22 85 26 86 23 87 25 88 24 89
REMARK H PARENT 81 25 55 36
REMARK Flexibility Score: inf
ROOT
ATOM      1  C   UNL     1       2.110  -1.573  -0.157  1.00  0.00     0.188 C 
ENDROOT
BRANCH   1   2
ATOM      2  O   UNL     1       1.233  -0.520   0.221  1.00  0.00    -0.376 OA
BRANCH   2   3
ATOM      3  C   UNL     1       0.654   0.225  -0.845  1.00  0.00     0.202 C 
BRANCH   3   4
ATOM      4  C   UNL     1       1.642   0.972  -1.752  1.00  0.00     0.261 C 
BRANCH   4   5
ATOM      5  O   UNL     1       3.043   0.726  -1.483  1.00  0.00    -0.460 OA
BRANCH   5   6
ATOM      6  C   UNL     1       3.903   1.355  -0.644  1.00  0.00     0.338 C 
ATOM      7  O   UNL     1       5.106   1.122  -0.717  1.00  0.00    -0.246 OA
BRANCH   6   8
ATOM      8  C   UNL     1       3.443   2.369   0.338  1.00  0.00     0.060 A 
ATOM      9  C   UNL     1       2.227   2.271   0.992  1.00  0.00     0.016 A 
ATOM     10  C   UNL     1       4.294   3.425   0.689  1.00  0.00     0.016 A 
ATOM     11  C   UNL     1       1.736   3.300   1.766  1.00  0.00     0.010 A 
ATOM     12  C   UNL     1       3.868   4.405   1.597  1.00  0.00     0.010 A 
ATOM     13  C   UNL     1       2.555   4.377   2.086  1.00  0.00    -0.014 A 
BRANCH  13  14
ATOM     14  C   UNL     1       1.942   5.484   2.849  1.00  0.00     0.031 A 
ATOM     15  C   UNL     1       1.752   6.804   2.168  1.00  0.00     0.074 A 
ATOM     16  C   UNL     1       1.391   5.236   4.053  1.00  0.00     0.049 A 
ATOM     17  N   UNL     1       1.228   7.904   2.636  1.00  0.00    -0.248 NA
ATOM     18  C   UNL     1       2.192   6.897   0.764  1.00  0.00     0.031 C 
ATOM     19  C   UNL     1       1.411   3.937   4.734  1.00  0.00     0.029 A 
ATOM     20  N   UNL     1       0.664   6.032   4.896  1.00  0.00    -0.354 N 
ATOM     21  C   UNL     1       1.293   8.820   1.595  1.00  0.00     0.074 A 
ATOM     22  C   UNL     1       1.928   8.162   0.478  1.00  0.00     0.031 C 
ATOM     23  C   UNL     1       0.690   4.016   5.860  1.00  0.00     0.029 A 
ATOM     24  C   UNL     1       0.250   5.388   6.038  1.00  0.00     0.049 A 
ATOM     25  H   UNL     1       0.457   6.975   4.704  1.00  0.00     0.167 HD
ATOM     26  C   UNL     1       0.852  10.098   1.582  1.00  0.00     0.037 A 
ATOM     27  C   UNL     1      -0.371   5.864   7.132  1.00  0.00     0.037 A 
ATOM     28  C   UNL     1       0.223  10.725   2.711  1.00  0.00     0.049 A 
ATOM     29  C   UNL     1      -0.732   7.321   7.138  1.00  0.00     0.074 A 
ATOM     30  C   UNL     1      -0.191  12.036   2.855  1.00  0.00     0.029 A 
ATOM     31  N   UNL     1      -0.087  10.071   3.897  1.00  0.00    -0.354 N 
ATOM     32  N   UNL     1      -0.591   8.206   6.179  1.00  0.00    -0.248 NA
ATOM     33  C   UNL     1      -1.325   7.850   8.369  1.00  0.00     0.031 C 
ATOM     34  C   UNL     1      -0.710  12.185   4.146  1.00  0.00     0.029 A 
ATOM     35  C   UNL     1      -0.673  10.955   4.786  1.00  0.00     0.049 A 
ATOM     36  H   UNL     1       0.085   9.119   4.079  1.00  0.00     0.167 HD
ATOM     37  C   UNL     1      -1.091   9.395   6.685  1.00  0.00     0.074 A 
ATOM     38  C   UNL     1      -1.571   9.104   8.023  1.00  0.00     0.031 C 
ATOM     39  C   UNL     1      -1.141  10.621   6.108  1.00  0.00     0.037 A 
BRANCH  26  40
ATOM     40  C   UNL     1       1.100  10.892   0.335  1.00  0.00     0.057 A 
ATOM     41  C   UNL     1       0.396  10.656  -0.854  1.00  0.00     0.134 A 
ATOM     42  C   UNL     1       2.079  11.894   0.317  1.00  0.00     0.134 A 
ATOM     43  F   UNL     1      -0.529   9.687  -0.915  1.00  0.00    -0.206 F 
ATOM     44  C   UNL     1       0.671  11.374  -2.020  1.00  0.00     0.040 A 
ATOM     45  C   UNL     1       2.345  12.635  -0.835  1.00  0.00     0.040 A 
ATOM     46  F   UNL     1       2.798  12.162   1.417  1.00  0.00    -0.206 F 
ATOM     47  C   UNL     1       1.645  12.372  -2.010  1.00  0.00     0.006 A 
ENDBRANCH  26  40
BRANCH  27  48
ATOM     48  C   UNL     1      -0.603   4.997   8.319  1.00  0.00     0.057 A 
ATOM     49  C   UNL     1      -1.889   4.732   8.804  1.00  0.00     0.134 A 
ATOM     50  C   UNL     1       0.472   4.442   9.031  1.00  0.00     0.134 A 
ATOM     51  F   UNL     1      -2.963   5.237   8.180  1.00  0.00    -0.206 F 
ATOM     52  C   UNL     1      -2.096   3.982   9.965  1.00  0.00     0.040 A 
ATOM     53  C   UNL     1       0.279   3.662  10.172  1.00  0.00     0.040 A 
ATOM     54  F   UNL     1       1.733   4.644   8.620  1.00  0.00    -0.206 F 
ATOM     55  C   UNL     1      -1.009   3.443  10.652  1.00  0.00     0.006 A 
ENDBRANCH  27  48
BRANCH  39  56
ATOM     56  C   UNL     1      -1.769  11.711   6.920  1.00  0.00     0.057 A 
ATOM     57  C   UNL     1      -1.141  12.244   8.052  1.00  0.00     0.134 A 
ATOM     58  C   UNL     1      -3.014  12.237   6.554  1.00  0.00     0.134 A 
ATOM     59  F   UNL     1       0.044  11.768   8.461  1.00  0.00    -0.206 F 
ATOM     60  C   UNL     1      -1.749  13.239   8.816  1.00  0.00     0.040 A 
ATOM     61  C   UNL     1      -3.615  13.256   7.291  1.00  0.00     0.040 A 
ATOM     62  F   UNL     1      -3.660  11.773   5.474  1.00  0.00    -0.206 F 
ATOM     63  C   UNL     1      -2.987  13.752   8.432  1.00  0.00     0.006 A 
ENDBRANCH  39  56
ENDBRANCH  13  14
ENDBRANCH   6   8
ENDBRANCH   5   6
ENDBRANCH   4   5
ENDBRANCH   3   4
ENDBRANCH   2   3
ENDBRANCH   1   2
BRANCH   1  64
ATOM     64  C   UNL     1       1.924  -2.850   0.674  1.00  0.00     0.188 C 
BRANCH  64  65
ATOM     65  O   UNL     1       0.595  -3.275   0.943  1.00  0.00    -0.376 OA
BRANCH  65  66
ATOM     66  C   UNL     1      -0.328  -2.366   1.548  1.00  0.00     0.202 C 
BRANCH  66  67
ATOM     67  C   UNL     1      -0.238  -2.080   3.062  1.00  0.00     0.261 C 
BRANCH  67  68
ATOM     68  O   UNL     1       0.433  -0.935   3.664  1.00  0.00    -0.463 OA
BRANCH  68  69
ATOM     69  C   UNL     1       1.773  -0.792   3.622  1.00  0.00     0.311 C 
ATOM     70  O   UNL     1       2.481  -1.075   2.676  1.00  0.00    -0.252 OA
BRANCH  69  71
ATOM     71  C   UNL     1       2.430  -0.280   4.883  1.00  0.00     0.127 C 
ATOM     72  C   UNL     1       1.597   0.287   6.011  1.00  0.00     0.028 C 
ATOM     73  C   UNL     1       3.386  -1.348   5.459  1.00  0.00     0.130 C 
ATOM     74  C   UNL     1       2.551   1.007   6.961  1.00  0.00     0.101 C 
ATOM     75  N   UNL     1       4.279  -0.747   6.475  1.00  0.00    -0.332 N 
ATOM     76  C   UNL     1       3.871   0.308   7.284  1.00  0.00     0.223 C 
ATOM     77  O   UNL     1       4.565   0.758   8.197  1.00  0.00    -0.275 OA
BRANCH  73  78
ATOM     78  C   UNL     1       2.696  -2.620   5.976  1.00  0.00    -0.025 A 
ATOM     79  C   UNL     1       2.545  -2.911   7.342  1.00  0.00     0.006 A 
ATOM     80  C   UNL     1       2.202  -3.563   5.061  1.00  0.00     0.006 A 
ATOM     81  C   UNL     1       1.947  -4.101   7.770  1.00  0.00     0.000 A 
ATOM     82  C   UNL     1       1.541  -4.720   5.486  1.00  0.00     0.000 A 
ATOM     83  C   UNL     1       1.428  -4.997   6.842  1.00  0.00     0.000 A 
ENDBRANCH  73  78
BRANCH  75  84
ATOM     84  C   UNL     1       5.626  -1.357   6.631  1.00  0.00     0.085 C 
ATOM     85  C   UNL     1       6.744  -0.384   6.217  1.00  0.00     0.025 C 
ATOM     86  C   UNL     1       5.882  -1.966   8.022  1.00  0.00     0.025 C 
ATOM     87  C   UNL     1       8.130  -1.014   6.356  1.00  0.00     0.002 C 
ATOM     88  C   UNL     1       7.275  -2.583   8.125  1.00  0.00     0.002 C 
ATOM     89  C   UNL     1       8.357  -1.576   7.756  1.00  0.00     0.000 C 
ENDBRANCH  75  84
ENDBRANCH  69  71
ENDBRANCH  68  69
ENDBRANCH  67  68
ENDBRANCH  66  67
ENDBRANCH  65  66
ENDBRANCH  64  65
ENDBRANCH   1  64
TORSDOF 19
