REMARK SMILES O=C(CNC(=O)[C@@H](CC1=c2ccccc2=NC1)N1C(=O)N=C2C=CC=C[C@H]2C1=O)OCCOCCOCCOC(=O)c1ccc(-c2c3nc(c(-c4c(F)cccc4F)c4ccc([nH]4)c(-c4c(F)cccc4F)c4nc(c(-c5c(F)cccc5F)c5ccc2[nH]5)C=C4)C=C3)cc1
REMARK SMILES IDX 34 1 33 2 32 3 31 4 30 5 2 6 1 7 3 8 4 9 5 10 6 12 7 13 8 14
REMARK SMILES IDX 9 15 10 16 17 17 11 18 15 19 16 20 12 21 14 22 13 23 18 24
REMARK SMILES IDX 19 25 28 26 21 27 20 28 27 29 29 30 22 31 26 32 23 33 25 34
REMARK SMILES IDX 24 35 35 36 36 37 37 38 38 39 39 40 40 41 41 42 42 43 43 44
REMARK SMILES IDX 95 45 44 46 94 47 45 48 46 49 47 50 88 51 48 52 93 53 87 54
REMARK SMILES IDX 89 55 49 56 92 57 86 58 85 59 50 61 76 62 59 63 75 64 60 65
REMARK SMILES IDX 63 66 74 67 90 68 61 69 62 70 73 72 91 73 64 74 51 75 52 76
REMARK SMILES IDX 57 77 53 78 54 79 56 80 58 81 55 82 77 83 78 84 83 85 79 86
REMARK SMILES IDX 80 87 82 88 84 89 81 90 65 91 66 92 71 93 67 94 68 95 70 96
REMARK SMILES IDX 72 97 69 98
REMARK H PARENT 4 11 89 60 63 71
REMARK Flexibility Score: inf
ROOT
ATOM      1  C   UNL     1       2.661   0.161  -0.227  1.00  0.00     0.188 C 
ENDROOT
BRANCH   1   2
ATOM      2  O   UNL     1       3.903  -0.345   0.594  1.00  0.00    -0.376 OA
BRANCH   2   3
ATOM      3  C   UNL     1       4.611  -1.567   0.279  1.00  0.00     0.202 C 
BRANCH   3   4
ATOM      4  C   UNL     1       4.460  -2.669   1.309  1.00  0.00     0.261 C 
BRANCH   4   5
ATOM      5  O   UNL     1       3.208  -2.623   1.979  1.00  0.00    -0.462 OA
BRANCH   5   6
ATOM      6  C   UNL     1       2.843  -1.556   2.721  1.00  0.00     0.325 C 
ATOM      7  O   UNL     1       1.668  -1.466   3.085  1.00  0.00    -0.250 OA
BRANCH   6   8
ATOM      8  C   UNL     1       3.854  -0.435   3.085  1.00  0.00     0.238 C 
BRANCH   8   9
ATOM      9  N   UNL     1       5.327  -0.421   2.801  1.00  0.00    -0.343 N 
ATOM     10  C   UNL     1       6.182   0.292   1.975  1.00  0.00     0.244 C 
ATOM     11  H   UNL     1       5.811  -1.089   3.338  1.00  0.00     0.164 HD
ATOM     12  O   UNL     1       7.307  -0.214   1.833  1.00  0.00    -0.273 OA
BRANCH  10  13
ATOM     13  C   UNL     1       5.859   1.642   1.166  1.00  0.00     0.188 C 
BRANCH  13  14
ATOM     14  C   UNL     1       5.616   1.405  -0.444  1.00  0.00     0.069 C 
BRANCH  14  15
ATOM     15  C   UNL     1       4.254   0.989  -1.045  1.00  0.00    -0.037 C 
ATOM     16  C   UNL     1       3.473  -0.194  -1.964  1.00  0.00     0.001 A 
ATOM     17  C   UNL     1       2.843   2.073  -0.097  1.00  0.00     0.174 C 
ATOM     18  C   UNL     1       3.670  -1.461  -2.650  1.00  0.00     0.010 A 
ATOM     19  C   UNL     1       1.508   0.085  -1.765  1.00  0.00     0.065 A 
ATOM     20  N   UNL     1       1.145   1.262  -0.747  1.00  0.00    -0.280 NA
ATOM     21  C   UNL     1       2.648  -2.351  -2.755  1.00  0.00     0.001 A 
ATOM     22  C   UNL     1       0.614  -1.031  -2.087  1.00  0.00     0.028 A 
ATOM     23  C   UNL     1       1.230  -2.176  -2.413  1.00  0.00     0.002 A 
ENDBRANCH  14  15
ENDBRANCH  13  14
BRANCH  13  24
ATOM     24  N   UNL     1       5.015   2.554   1.988  1.00  0.00    -0.249 N 
ATOM     25  C   UNL     1       5.024   2.256   3.304  1.00  0.00     0.351 C 
ATOM     26  C   UNL     1       4.935   3.933   1.944  1.00  0.00     0.244 C 
ATOM     27  N   UNL     1       3.789   2.276   3.853  1.00  0.00    -0.197 NA
ATOM     28  O   UNL     1       6.025   2.061   3.975  1.00  0.00    -0.246 OA
ATOM     29  C   UNL     1       4.022   4.598   3.100  1.00  0.00     0.151 C 
ATOM     30  O   UNL     1       5.554   4.621   1.132  1.00  0.00    -0.273 OA
ATOM     31  C   UNL     1       3.450   3.506   4.004  1.00  0.00     0.062 C 
ATOM     32  C   UNL     1       4.610   5.655   4.006  1.00  0.00    -0.007 C 
ATOM     33  C   UNL     1       2.883   3.735   5.327  1.00  0.00     0.025 C 
ATOM     34  C   UNL     1       4.405   5.651   5.337  1.00  0.00    -0.003 C 
ATOM     35  C   UNL     1       3.623   4.628   5.988  1.00  0.00     0.002 C 
ENDBRANCH  13  24
ENDBRANCH  10  13
ENDBRANCH   8   9
ENDBRANCH   6   8
ENDBRANCH   5   6
ENDBRANCH   4   5
ENDBRANCH   3   4
ENDBRANCH   2   3
ENDBRANCH   1   2
BRANCH   1  36
ATOM     36  C   UNL     1       2.645   1.613  -1.955  1.00  0.00     0.188 C 
BRANCH  36  37
ATOM     37  O   UNL     1       3.098   1.377  -3.476  1.00  0.00    -0.376 OA
BRANCH  37  38
ATOM     38  C   UNL     1       4.340   2.027  -3.872  1.00  0.00     0.202 C 
BRANCH  38  39
ATOM     39  C   UNL     1       4.333   3.558  -4.079  1.00  0.00     0.261 C 
BRANCH  39  40
ATOM     40  O   UNL     1       3.960   4.315  -2.910  1.00  0.00    -0.460 OA
BRANCH  40  41
ATOM     41  C   UNL     1       2.719   4.868  -2.944  1.00  0.00     0.338 C 
ATOM     42  O   UNL     1       1.948   4.872  -3.888  1.00  0.00    -0.246 OA
BRANCH  41  43
ATOM     43  C   UNL     1       2.336   5.353  -1.593  1.00  0.00     0.060 A 
ATOM     44  C   UNL     1       3.207   6.102  -0.803  1.00  0.00     0.016 A 
ATOM     45  C   UNL     1       1.060   5.032  -1.100  1.00  0.00     0.016 A 
ATOM     46  C   UNL     1       2.774   6.568   0.448  1.00  0.00     0.010 A 
ATOM     47  C   UNL     1       0.634   5.488   0.160  1.00  0.00     0.010 A 
ATOM     48  C   UNL     1       1.471   6.297   0.937  1.00  0.00    -0.014 A 
BRANCH  48  49
ATOM     49  C   UNL     1       0.945   7.122   2.070  1.00  0.00     0.031 A 
ATOM     50  C   UNL     1       0.637   6.635   3.465  1.00  0.00     0.074 A 
ATOM     51  C   UNL     1       0.733   8.424   1.793  1.00  0.00     0.049 A 
ATOM     52  N   UNL     1       0.527   7.339   4.571  1.00  0.00    -0.248 NA
ATOM     53  C   UNL     1       0.399   5.200   3.658  1.00  0.00     0.031 C 
ATOM     54  C   UNL     1       0.857   9.027   0.463  1.00  0.00     0.029 A 
ATOM     55  N   UNL     1       0.386   9.471   2.604  1.00  0.00    -0.354 N 
ATOM     56  C   UNL     1       0.292   6.431   5.602  1.00  0.00     0.074 A 
ATOM     57  C   UNL     1       0.183   5.132   4.971  1.00  0.00     0.031 C 
ATOM     58  C   UNL     1       0.638  10.344   0.557  1.00  0.00     0.029 A 
ATOM     59  C   UNL     1       0.334  10.673   1.943  1.00  0.00     0.049 A 
ATOM     60  H   UNL     1       0.194   9.372   3.564  1.00  0.00     0.167 HD
ATOM     61  C   UNL     1       0.204   6.664   6.940  1.00  0.00     0.037 A 
ATOM     62  C   UNL     1       0.080  11.911   2.399  1.00  0.00     0.037 A 
ATOM     63  C   UNL     1       0.155   7.973   7.538  1.00  0.00     0.049 A 
ATOM     64  C   UNL     1      -0.144  12.125   3.865  1.00  0.00     0.074 A 
ATOM     65  C   UNL     1       0.112   8.306   8.882  1.00  0.00     0.029 A 
ATOM     66  N   UNL     1       0.049   9.155   6.830  1.00  0.00    -0.354 N 
ATOM     67  N   UNL     1      -0.071  11.267   4.852  1.00  0.00    -0.248 NA
ATOM     68  C   UNL     1      -0.467  13.496   4.279  1.00  0.00     0.031 C 
ATOM     69  C   UNL     1      -0.109   9.684   8.983  1.00  0.00     0.029 A 
ATOM     70  C   UNL     1      -0.140  10.213   7.704  1.00  0.00     0.049 A 
ATOM     71  H   UNL     1       0.101   9.234   5.850  1.00  0.00     0.167 HD
ATOM     72  C   UNL     1      -0.300  12.002   6.008  1.00  0.00     0.074 A 
ATOM     73  C   UNL     1      -0.493  13.376   5.597  1.00  0.00     0.031 C 
ATOM     74  C   UNL     1      -0.340  11.577   7.295  1.00  0.00     0.037 A 
BRANCH  61  75
ATOM     75  C   UNL     1       0.182   5.497   7.888  1.00  0.00     0.057 A 
ATOM     76  C   UNL     1      -1.000   4.902   8.330  1.00  0.00     0.134 A 
ATOM     77  C   UNL     1       1.368   5.061   8.491  1.00  0.00     0.134 A 
ATOM     78  F   UNL     1      -2.187   5.361   7.910  1.00  0.00    -0.206 F 
ATOM     79  C   UNL     1      -0.986   3.851   9.256  1.00  0.00     0.040 A 
ATOM     80  C   UNL     1       1.410   3.968   9.359  1.00  0.00     0.040 A 
ATOM     81  F   UNL     1       2.502   5.751   8.306  1.00  0.00    -0.206 F 
ATOM     82  C   UNL     1       0.224   3.354   9.741  1.00  0.00     0.006 A 
ENDBRANCH  61  75
BRANCH  62  83
ATOM     83  C   UNL     1       0.051  13.051   1.452  1.00  0.00     0.057 A 
ATOM     84  C   UNL     1      -0.955  13.163   0.484  1.00  0.00     0.134 A 
ATOM     85  C   UNL     1       1.012  14.066   1.509  1.00  0.00     0.134 A 
ATOM     86  F   UNL     1      -1.895  12.213   0.371  1.00  0.00    -0.206 F 
ATOM     87  C   UNL     1      -1.005  14.245  -0.393  1.00  0.00     0.040 A 
ATOM     88  C   UNL     1       0.954  15.171   0.660  1.00  0.00     0.040 A 
ATOM     89  F   UNL     1       1.994  14.017   2.422  1.00  0.00    -0.206 F 
ATOM     90  C   UNL     1      -0.056  15.260  -0.296  1.00  0.00     0.006 A 
ENDBRANCH  62  83
BRANCH  74  91
ATOM     91  C   UNL     1      -0.568  12.622   8.348  1.00  0.00     0.057 A 
ATOM     92  C   UNL     1       0.455  12.966   9.241  1.00  0.00     0.134 A 
ATOM     93  C   UNL     1      -1.784  13.308   8.464  1.00  0.00     0.134 A 
ATOM     94  F   UNL     1       1.640  12.339   9.197  1.00  0.00    -0.206 F 
ATOM     95  C   UNL     1       0.282  13.967  10.198  1.00  0.00     0.040 A 
ATOM     96  C   UNL     1      -1.955  14.337   9.392  1.00  0.00     0.040 A 
ATOM     97  F   UNL     1      -2.802  13.035   7.633  1.00  0.00    -0.206 F 
ATOM     98  C   UNL     1      -0.920  14.667  10.263  1.00  0.00     0.006 A 
ENDBRANCH  74  91
ENDBRANCH  48  49
ENDBRANCH  41  43
ENDBRANCH  40  41
ENDBRANCH  39  40
ENDBRANCH  38  39
ENDBRANCH  37  38
ENDBRANCH  36  37
ENDBRANCH   1  36
TORSDOF 22
