REMARK SMILES COc1ccc(-n2c(SCc3cn(-c4ccc(C(=O)OCCOCCOCCOC(=O)c5ccc(-c6c7nc(c(-c8c(F)cccc8F)c8ccc([nH]8)c(-c8c(F)cccc8F)c8nc(c(-c9c(F)cccc9F)c9ccc6[nH]9)C=C8)C=C7)cc5)cc4)nn3)nc3ccccc3c2=O)cc1
REMARK SMILES IDX 22 1 21 2 20 3 18 4 19 5 17 6 14 7 15 8 87 9 16 10 86 11
REMARK SMILES IDX 13 12 11 13 12 14 89 15 88 16 10 17 9 18 8 19 7 20 97 21
REMARK SMILES IDX 90 22 96 23 98 24 91 25 95 26 92 27 94 28 93 29 6 30 3 31
REMARK SMILES IDX 4 32 100 33 5 34 99 35 2 36 1 37 23 38 24 39 25 40 26 41
REMARK SMILES IDX 27 42 28 43 29 44 30 45 31 46 32 47 33 48 85 49 34 50 84 51
REMARK SMILES IDX 35 52 36 53 37 54 78 55 38 56 83 57 77 58 79 59 39 60 82 61
REMARK SMILES IDX 76 62 75 63 40 65 66 66 49 67 65 68 50 69 53 70 64 71 80 72
REMARK SMILES IDX 51 73 52 74 63 76 81 77 54 78 41 79 42 80 47 81 43 82 44 83
REMARK SMILES IDX 46 84 48 85 45 86 67 87 68 88 73 89 69 90 70 91 72 92 74 93
REMARK SMILES IDX 71 94 55 95 56 96 61 97 57 98 58 99 60 100 62 101 59 102
REMARK H PARENT 79 64 53 75
REMARK Flexibility Score: inf
ROOT
ATOM      1  C   UNL     1      -3.455  -2.456   7.712  1.00  0.00     0.202 C 
ENDROOT
BRANCH   1   2
ATOM      2  C   UNL     1      -2.473  -3.082   6.705  1.00  0.00     0.261 C 
BRANCH   2   3
ATOM      3  O   UNL     1      -1.629  -2.196   5.987  1.00  0.00    -0.460 OA
BRANCH   3   4
ATOM      4  C   UNL     1      -1.959  -1.994   4.685  1.00  0.00     0.338 C 
ATOM      5  O   UNL     1      -2.869  -2.477   4.063  1.00  0.00    -0.246 OA
BRANCH   4   6
ATOM      6  C   UNL     1      -1.104  -0.895   4.198  1.00  0.00     0.060 A 
ATOM      7  C   UNL     1       0.429   1.227   3.371  1.00  0.00     0.066 A 
ATOM      8  C   UNL     1      -0.946   1.261   3.126  1.00  0.00     0.029 A 
ATOM      9  C   UNL     1       1.033   0.178   4.075  1.00  0.00     0.029 A 
ATOM     10  C   UNL     1      -1.711   0.167   3.511  1.00  0.00     0.018 A 
ATOM     11  C   UNL     1       0.258  -0.879   4.509  1.00  0.00     0.018 A 
BRANCH   7  12
ATOM     12  N   UNL     1       1.251   2.227   2.854  1.00  0.00    -0.220 N 
ATOM     13  C   UNL     1       2.931   3.312   2.046  1.00  0.00     0.093 A 
ATOM     14  C   UNL     1       2.541   2.061   2.433  1.00  0.00     0.141 A 
ATOM     15  N   UNL     1       1.886   4.178   2.236  1.00  0.00    -0.134 NA
ATOM     16  N   UNL     1       0.839   3.488   2.651  1.00  0.00    -0.062 NA
BRANCH  13  17
ATOM     17  C   UNL     1       4.225   3.709   1.477  1.00  0.00     0.138 C 
BRANCH  17  18
ATOM     18  S   UNL     1       4.604   5.422   1.746  1.00  0.00    -0.081 SA
BRANCH  18  19
ATOM     19  C   UNL     1       3.195   6.303   1.022  1.00  0.00     0.176 A 
ATOM     20  N   UNL     1       3.075   6.125  -0.347  1.00  0.00    -0.255 N 
ATOM     21  C   UNL     1       3.670   7.094  -1.149  1.00  0.00     0.266 A 
ATOM     22  N   UNL     1       3.030   7.495   1.516  1.00  0.00    -0.223 NA
ATOM     23  C   UNL     1       4.420   8.132  -0.370  1.00  0.00     0.066 A 
ATOM     24  O   UNL     1       3.662   7.132  -2.374  1.00  0.00    -0.268 OA
ATOM     25  C   UNL     1       4.004   8.347   0.959  1.00  0.00     0.079 A 
ATOM     26  C   UNL     1       5.634   8.642  -0.818  1.00  0.00     0.016 A 
ATOM     27  C   UNL     1       4.774   9.123   1.823  1.00  0.00     0.029 A 
ATOM     28  C   UNL     1       6.440   9.350   0.080  1.00  0.00     0.001 A 
ATOM     29  C   UNL     1       6.007   9.602   1.388  1.00  0.00     0.002 A 
BRANCH  20  30
ATOM     30  C   UNL     1       2.248   5.093  -0.866  1.00  0.00     0.052 A 
ATOM     31  C   UNL     1       0.820   2.710  -1.248  1.00  0.00     0.119 A 
ATOM     32  C   UNL     1       0.180   3.817  -0.698  1.00  0.00     0.048 A 
ATOM     33  C   UNL     1       2.119   2.836  -1.741  1.00  0.00     0.048 A 
ATOM     34  C   UNL     1       0.902   4.998  -0.479  1.00  0.00     0.030 A 
ATOM     35  C   UNL     1       2.820   4.040  -1.586  1.00  0.00     0.030 A 
BRANCH  31  36
ATOM     36  O   UNL     1       0.120   1.540  -1.351  1.00  0.00    -0.497 OA
ATOM     37  C   UNL     1       0.696   0.481  -0.581  1.00  0.00     0.278 C 
ENDBRANCH  31  36
ENDBRANCH  20  30
ENDBRANCH  18  19
ENDBRANCH  17  18
ENDBRANCH  13  17
ENDBRANCH   7  12
ENDBRANCH   4   6
ENDBRANCH   3   4
ENDBRANCH   2   3
ENDBRANCH   1   2
BRANCH   1  38
ATOM     38  O   UNL     1      -3.936  -1.122   7.710  1.00  0.00    -0.376 OA
BRANCH  38  39
ATOM     39  C   UNL     1      -3.360  -0.115   6.909  1.00  0.00     0.188 C 
BRANCH  39  40
ATOM     40  C   UNL     1      -1.983   0.458   7.296  1.00  0.00     0.188 C 
BRANCH  40  41
ATOM     41  O   UNL     1      -1.093  -0.328   8.056  1.00  0.00    -0.376 OA
BRANCH  41  42
ATOM     42  C   UNL     1      -1.276  -0.588   9.436  1.00  0.00     0.202 C 
BRANCH  42  43
ATOM     43  C   UNL     1      -2.305   0.067  10.357  1.00  0.00     0.261 C 
BRANCH  43  44
ATOM     44  O   UNL     1      -3.317   0.837   9.750  1.00  0.00    -0.460 OA
BRANCH  44  45
ATOM     45  C   UNL     1      -3.013   2.146   9.663  1.00  0.00     0.338 C 
ATOM     46  O   UNL     1      -1.915   2.664   9.776  1.00  0.00    -0.246 OA
BRANCH  45  47
ATOM     47  C   UNL     1      -4.256   2.899   9.529  1.00  0.00     0.060 A 
ATOM     48  C   UNL     1      -4.157   4.214   9.074  1.00  0.00     0.016 A 
ATOM     49  C   UNL     1      -5.398   2.402  10.171  1.00  0.00     0.016 A 
ATOM     50  C   UNL     1      -5.132   5.103   9.460  1.00  0.00     0.010 A 
ATOM     51  C   UNL     1      -6.352   3.296  10.583  1.00  0.00     0.010 A 
ATOM     52  C   UNL     1      -6.160   4.644  10.291  1.00  0.00    -0.014 A 
BRANCH  52  53
ATOM     53  C   UNL     1      -7.127   5.604  10.774  1.00  0.00     0.031 A 
ATOM     54  C   UNL     1      -8.101   5.966   9.727  1.00  0.00     0.074 A 
ATOM     55  C   UNL     1      -7.162   5.993  12.063  1.00  0.00     0.049 A 
ATOM     56  N   UNL     1      -8.215   7.100   9.124  1.00  0.00    -0.248 NA
ATOM     57  C   UNL     1      -8.906   4.886   9.129  1.00  0.00     0.031 C 
ATOM     58  C   UNL     1      -6.386   5.436  13.178  1.00  0.00     0.029 A 
ATOM     59  N   UNL     1      -7.974   6.899  12.678  1.00  0.00    -0.354 N 
ATOM     60  C   UNL     1      -9.290   6.939   8.255  1.00  0.00     0.074 A 
ATOM     61  C   UNL     1      -9.500   5.527   8.122  1.00  0.00     0.031 C 
ATOM     62  C   UNL     1      -6.921   5.852  14.348  1.00  0.00     0.029 A 
ATOM     63  C   UNL     1      -7.983   6.803  14.066  1.00  0.00     0.049 A 
ATOM     64  H   UNL     1      -8.507   7.563  12.183  1.00  0.00     0.167 HD
ATOM     65  C   UNL     1     -10.131   7.982   8.025  1.00  0.00     0.037 A 
ATOM     66  C   UNL     1      -8.840   7.431  14.909  1.00  0.00     0.037 A 
ATOM     67  C   UNL     1      -9.518   9.221   8.435  1.00  0.00     0.049 A 
ATOM     68  C   UNL     1      -9.438   8.567  14.174  1.00  0.00     0.074 A 
ATOM     69  C   UNL     1      -8.523  10.049   7.965  1.00  0.00     0.029 A 
ATOM     70  N   UNL     1      -9.713   9.520   9.757  1.00  0.00    -0.354 N 
ATOM     71  N   UNL     1      -8.771   9.633  13.834  1.00  0.00    -0.248 NA
ATOM     72  C   UNL     1     -10.715   8.385  13.490  1.00  0.00     0.031 C 
ATOM     73  C   UNL     1      -8.024  10.755   9.099  1.00  0.00     0.029 A 
ATOM     74  C   UNL     1      -8.751  10.371  10.225  1.00  0.00     0.049 A 
ATOM     75  H   UNL     1     -10.452   9.166  10.303  1.00  0.00     0.167 HD
ATOM     76  C   UNL     1      -9.310   9.996  12.616  1.00  0.00     0.074 A 
ATOM     77  C   UNL     1     -10.601   9.325  12.548  1.00  0.00     0.031 C 
ATOM     78  C   UNL     1      -8.516  10.525  11.642  1.00  0.00     0.037 A 
BRANCH  65  79
ATOM     79  C   UNL     1     -11.642   7.853   7.962  1.00  0.00     0.057 A 
ATOM     80  C   UNL     1     -12.400   9.012   7.709  1.00  0.00     0.134 A 
ATOM     81  C   UNL     1     -12.387   6.754   8.441  1.00  0.00     0.134 A 
ATOM     82  F   UNL     1     -11.815  10.132   7.256  1.00  0.00    -0.206 F 
ATOM     83  C   UNL     1     -13.770   9.094   7.990  1.00  0.00     0.040 A 
ATOM     84  C   UNL     1     -13.763   6.812   8.680  1.00  0.00     0.040 A 
ATOM     85  F   UNL     1     -11.829   5.595   8.804  1.00  0.00    -0.206 F 
ATOM     86  C   UNL     1     -14.455   7.994   8.487  1.00  0.00     0.006 A 
ENDBRANCH  65  79
BRANCH  66  87
ATOM     87  C   UNL     1      -9.351   7.018  16.235  1.00  0.00     0.057 A 
ATOM     88  C   UNL     1      -9.942   7.947  17.105  1.00  0.00     0.134 A 
ATOM     89  C   UNL     1      -9.541   5.664  16.555  1.00  0.00     0.134 A 
ATOM     90  F   UNL     1      -9.841   9.263  16.868  1.00  0.00    -0.206 F 
ATOM     91  C   UNL     1     -10.715   7.553  18.204  1.00  0.00     0.040 A 
ATOM     92  C   UNL     1     -10.306   5.257  17.654  1.00  0.00     0.040 A 
ATOM     93  F   UNL     1      -9.069   4.693  15.759  1.00  0.00    -0.206 F 
ATOM     94  C   UNL     1     -10.913   6.202  18.472  1.00  0.00     0.006 A 
ENDBRANCH  66  87
BRANCH  78  95
ATOM     95  C   UNL     1      -7.235  11.164  12.078  1.00  0.00     0.057 A 
ATOM     96  C   UNL     1      -6.145  10.472  12.624  1.00  0.00     0.134 A 
ATOM     97  C   UNL     1      -7.078  12.536  11.860  1.00  0.00     0.134 A 
ATOM     98  F   UNL     1      -6.183   9.144  12.799  1.00  0.00    -0.206 F 
ATOM     99  C   UNL     1      -4.963  11.132  12.972  1.00  0.00     0.040 A 
ATOM    100  C   UNL     1      -5.892  13.200  12.169  1.00  0.00     0.040 A 
ATOM    101  F   UNL     1      -8.071  13.249  11.305  1.00  0.00    -0.206 F 
ATOM    102  C   UNL     1      -4.832  12.499  12.738  1.00  0.00     0.006 A 
ENDBRANCH  78  95
ENDBRANCH  52  53
ENDBRANCH  45  47
ENDBRANCH  44  45
ENDBRANCH  43  44
ENDBRANCH  42  43
ENDBRANCH  41  42
ENDBRANCH  40  41
ENDBRANCH  39  40
ENDBRANCH  38  39
ENDBRANCH   1  38
TORSDOF 23
