REMARK SMILES Cc1[nH]c(=O)sc1S(=O)(=O)NC1(CC(=O)OCCOCCOCCOC(=O)c2ccc(-c3c4nc(c(-c5c(F)cccc5F)c5ccc([nH]5)c(-c5c(F)cccc5F)c5nc(c(-c6c(F)cccc6F)c6ccc3[nH]6)C=C5)C=C4)cc2)CCC1
REMARK SMILES IDX 20 1 19 2 18 3 17 4 16 5 14 6 15 7 13 8 12 9 82 10 84 11
REMARK SMILES IDX 83 12 11 13 8 15 9 16 10 17 7 18 1 19 2 20 3 21 4 22 6 24
REMARK SMILES IDX 5 25 21 26 22 27 23 28 24 29 25 30 26 31 27 32 28 33 29 34
REMARK SMILES IDX 81 35 30 36 80 37 31 38 32 39 33 40 74 41 34 42 79 43 73 44
REMARK SMILES IDX 75 45 35 46 78 47 72 48 71 49 36 51 62 52 45 53 61 54 46 55
REMARK SMILES IDX 49 56 60 57 76 58 47 59 48 60 59 62 77 63 50 64 37 65 38 66
REMARK SMILES IDX 43 67 39 68 40 69 42 70 44 71 41 72 63 73 64 74 69 75 65 76
REMARK SMILES IDX 66 77 68 78 70 79 67 80 51 81 52 82 57 83 53 84 54 85 56 86
REMARK SMILES IDX 58 87 55 88
REMARK H PARENT 11 14 3 23 75 50 49 61
REMARK Flexibility Score: inf
ROOT
ATOM      1  C   UNL     1      -1.838  -1.536  -4.568  1.00  0.00     0.188 C 
ENDROOT
BRANCH   1   2
ATOM      2  O   UNL     1      -1.071  -2.457  -5.334  1.00  0.00    -0.376 OA
BRANCH   2   3
ATOM      3  C   UNL     1       0.308  -2.498  -4.948  1.00  0.00     0.202 C 
BRANCH   3   4
ATOM      4  C   UNL     1       1.111  -1.237  -5.336  1.00  0.00     0.261 C 
BRANCH   4   5
ATOM      5  O   UNL     1       1.178  -0.186  -4.326  1.00  0.00    -0.463 OA
BRANCH   5   6
ATOM      6  C   UNL     1       2.063   0.790  -4.657  1.00  0.00     0.307 C 
ATOM      7  O   UNL     1       2.734   0.752  -5.691  1.00  0.00    -0.252 OA
BRANCH   6   8
ATOM      8  C   UNL     1       2.122   2.027  -3.796  1.00  0.00     0.146 C 
BRANCH   8   9
ATOM      9  C   UNL     1       2.005   2.067  -2.262  1.00  0.00     0.044 C 
ATOM     10  C   UNL     1       2.736   3.381  -1.750  1.00  0.00     0.024 C 
ATOM     11  C   UNL     1       3.017   1.290  -1.365  1.00  0.00     0.024 C 
ATOM     12  C   UNL     1       3.900   2.535  -1.244  1.00  0.00     0.004 C 
BRANCH   9  13
ATOM     13  N   UNL     1       0.583   2.149  -1.811  1.00  0.00    -0.204 NA
ATOM     14  H   UNL     1       0.631   2.801  -1.027  1.00  0.00     0.142 HD
BRANCH  13  15
ATOM     15  S   UNL     1      -0.554   1.030  -1.298  1.00  0.00     0.252 S 
ATOM     16  O   UNL     1      -1.255   0.676  -2.514  1.00  0.00    -0.206 OA
ATOM     17  O   UNL     1      -1.292   1.781  -0.302  1.00  0.00    -0.206 OA
BRANCH  15  18
ATOM     18  C   UNL     1       0.265  -0.349  -0.625  1.00  0.00     0.158 A 
ATOM     19  C   UNL     1      -0.126   0.130   1.887  1.00  0.00     0.067 C 
ATOM     20  C   UNL     1       0.330  -0.632   0.691  1.00  0.00     0.046 A 
ATOM     21  N   UNL     1       0.937  -1.849   0.944  1.00  0.00    -0.315 N 
ATOM     22  C   UNL     1       1.383  -2.558  -0.136  1.00  0.00     0.305 A 
ATOM     23  H   UNL     1       1.043  -2.189   1.861  1.00  0.00     0.170 HD
ATOM     24  S   UNL     1       1.122  -1.573  -1.547  1.00  0.00    -0.061 S 
ATOM     25  O   UNL     1       1.890  -3.666  -0.130  1.00  0.00    -0.257 OA
ENDBRANCH  15  18
ENDBRANCH  13  15
ENDBRANCH   9  13
ENDBRANCH   8   9
ENDBRANCH   6   8
ENDBRANCH   5   6
ENDBRANCH   4   5
ENDBRANCH   3   4
ENDBRANCH   2   3
ENDBRANCH   1   2
BRANCH   1  26
ATOM     26  C   UNL     1      -2.557  -2.182  -3.381  1.00  0.00     0.188 C 
BRANCH  26  27
ATOM     27  O   UNL     1      -1.684  -2.669  -2.357  1.00  0.00    -0.376 OA
BRANCH  27  28
ATOM     28  C   UNL     1      -2.231  -3.732  -1.568  1.00  0.00     0.202 C 
BRANCH  28  29
ATOM     29  C   UNL     1      -3.088  -3.305  -0.374  1.00  0.00     0.261 C 
BRANCH  29  30
ATOM     30  O   UNL     1      -4.034  -2.321  -0.763  1.00  0.00    -0.460 OA
BRANCH  30  31
ATOM     31  C   UNL     1      -3.739  -1.037  -0.443  1.00  0.00     0.338 C 
ATOM     32  O   UNL     1      -2.831  -0.645   0.268  1.00  0.00    -0.246 OA
BRANCH  31  33
ATOM     33  C   UNL     1      -4.823  -0.217  -1.012  1.00  0.00     0.060 A 
ATOM     34  C   UNL     1      -5.194   0.957  -0.355  1.00  0.00     0.016 A 
ATOM     35  C   UNL     1      -5.604  -0.753  -2.050  1.00  0.00     0.016 A 
ATOM     36  C   UNL     1      -6.465   1.459  -0.583  1.00  0.00     0.010 A 
ATOM     37  C   UNL     1      -6.864  -0.265  -2.268  1.00  0.00     0.010 A 
ATOM     38  C   UNL     1      -7.313   0.777  -1.464  1.00  0.00    -0.014 A 
BRANCH  38  39
ATOM     39  C   UNL     1      -8.742   1.008  -1.399  1.00  0.00     0.031 A 
ATOM     40  C   UNL     1      -9.340   1.915  -2.397  1.00  0.00     0.074 A 
ATOM     41  C   UNL     1      -9.511   0.230  -0.611  1.00  0.00     0.049 A 
ATOM     42  N   UNL     1     -10.004   2.999  -2.172  1.00  0.00    -0.248 NA
ATOM     43  C   UNL     1      -9.156   1.603  -3.822  1.00  0.00     0.031 C 
ATOM     44  C   UNL     1      -9.107  -0.974   0.127  1.00  0.00     0.029 A 
ATOM     45  N   UNL     1     -10.854   0.286  -0.405  1.00  0.00    -0.354 N 
ATOM     46  C   UNL     1     -10.468   3.421  -3.412  1.00  0.00     0.074 A 
ATOM     47  C   UNL     1      -9.808   2.609  -4.401  1.00  0.00     0.031 C 
ATOM     48  C   UNL     1     -10.213  -1.631   0.540  1.00  0.00     0.029 A 
ATOM     49  C   UNL     1     -11.387  -0.845   0.193  1.00  0.00     0.049 A 
ATOM     50  H   UNL     1     -11.402   1.065  -0.658  1.00  0.00     0.167 HD
ATOM     51  C   UNL     1     -11.525   4.265  -3.533  1.00  0.00     0.037 A 
ATOM     52  C   UNL     1     -12.702  -1.143   0.324  1.00  0.00     0.037 A 
ATOM     53  C   UNL     1     -11.824   4.945  -2.303  1.00  0.00     0.049 A 
ATOM     54  C   UNL     1     -13.471   0.113   0.138  1.00  0.00     0.074 A 
ATOM     55  C   UNL     1     -11.107   5.759  -1.446  1.00  0.00     0.029 A 
ATOM     56  N   UNL     1     -12.937   4.558  -1.598  1.00  0.00    -0.354 N 
ATOM     57  N   UNL     1     -13.494   1.102   0.986  1.00  0.00    -0.248 NA
ATOM     58  C   UNL     1     -13.939   0.435  -1.203  1.00  0.00     0.031 C 
ATOM     59  C   UNL     1     -11.575   5.431  -0.139  1.00  0.00     0.029 A 
ATOM     60  C   UNL     1     -12.560   4.454  -0.283  1.00  0.00     0.049 A 
ATOM     61  H   UNL     1     -13.834   4.387  -1.966  1.00  0.00     0.167 HD
ATOM     62  C   UNL     1     -13.572   2.242   0.200  1.00  0.00     0.074 A 
ATOM     63  C   UNL     1     -13.968   1.767  -1.120  1.00  0.00     0.031 C 
ATOM     64  C   UNL     1     -13.033   3.426   0.615  1.00  0.00     0.037 A 
BRANCH  51  65
ATOM     65  C   UNL     1     -12.473   4.234  -4.697  1.00  0.00     0.057 A 
ATOM     66  C   UNL     1     -13.324   5.324  -4.934  1.00  0.00     0.134 A 
ATOM     67  C   UNL     1     -12.755   3.069  -5.441  1.00  0.00     0.134 A 
ATOM     68  F   UNL     1     -13.181   6.468  -4.248  1.00  0.00    -0.206 F 
ATOM     69  C   UNL     1     -14.395   5.252  -5.832  1.00  0.00     0.040 A 
ATOM     70  C   UNL     1     -13.785   3.005  -6.382  1.00  0.00     0.040 A 
ATOM     71  F   UNL     1     -12.110   1.915  -5.225  1.00  0.00    -0.206 F 
ATOM     72  C   UNL     1     -14.625   4.092  -6.563  1.00  0.00     0.006 A 
ENDBRANCH  51  65
BRANCH  52  73
ATOM     73  C   UNL     1     -13.354  -2.471   0.368  1.00  0.00     0.057 A 
ATOM     74  C   UNL     1     -14.678  -2.611   0.806  1.00  0.00     0.134 A 
ATOM     75  C   UNL     1     -12.788  -3.603  -0.246  1.00  0.00     0.134 A 
ATOM     76  F   UNL     1     -15.325  -1.578   1.366  1.00  0.00    -0.206 F 
ATOM     77  C   UNL     1     -15.402  -3.797   0.627  1.00  0.00     0.040 A 
ATOM     78  C   UNL     1     -13.493  -4.798  -0.416  1.00  0.00     0.040 A 
ATOM     79  F   UNL     1     -11.559  -3.564  -0.781  1.00  0.00    -0.206 F 
ATOM     80  C   UNL     1     -14.811  -4.894   0.008  1.00  0.00     0.006 A 
ENDBRANCH  52  73
BRANCH  64  81
ATOM     81  C   UNL     1     -12.638   3.547   2.059  1.00  0.00     0.057 A 
ATOM     82  C   UNL     1     -11.646   2.761   2.665  1.00  0.00     0.134 A 
ATOM     83  C   UNL     1     -13.187   4.578   2.830  1.00  0.00     0.134 A 
ATOM     84  F   UNL     1     -10.984   1.825   1.973  1.00  0.00    -0.206 F 
ATOM     85  C   UNL     1     -11.264   2.954   3.996  1.00  0.00     0.040 A 
ATOM     86  C   UNL     1     -12.789   4.803   4.150  1.00  0.00     0.040 A 
ATOM     87  F   UNL     1     -14.095   5.412   2.298  1.00  0.00    -0.206 F 
ATOM     88  C   UNL     1     -11.834   3.981   4.742  1.00  0.00     0.006 A 
ENDBRANCH  64  81
ENDBRANCH  38  39
ENDBRANCH  31  33
ENDBRANCH  30  31
ENDBRANCH  29  30
ENDBRANCH  28  29
ENDBRANCH  27  28
ENDBRANCH  26  27
ENDBRANCH   1  26
TORSDOF 21
