REMARK SMILES COc1ccc([C@@H]2C(C#N)=C(N)N3C(=O)[C@H](CC(=O)OCCOCCOCCOC(=O)c4ccc(-c5c6nc(c(-c7c(F)cccc7F)c7ccc([nH]7)c(-c7c(F)cccc7F)c7nc(c(-c8c(F)cccc8F)c8ccc5[nH]8)C=C7)C=C6)cc4)SC3=C2C#N)cc1
REMARK SMILES IDX 24 1 23 2 22 3 21 4 20 5 18 6 19 7 17 8 16 9 7 10 8 11 88 12
REMARK SMILES IDX 11 13 87 14 13 15 86 16 14 17 15 18 6 19 3 20 4 21 92 22
REMARK SMILES IDX 5 23 91 24 2 25 1 26 9 27 10 28 89 29 90 30 12 31 25 34
REMARK SMILES IDX 26 35 27 36 28 37 29 38 30 39 31 40 32 41 33 42 85 43 34 44
REMARK SMILES IDX 84 45 35 46 36 47 37 48 78 49 38 50 83 51 77 52 79 53 39 54
REMARK SMILES IDX 82 55 76 56 75 57 40 59 66 60 49 61 65 62 50 63 53 64 64 65
REMARK SMILES IDX 80 66 51 67 52 68 63 70 81 71 54 72 41 73 42 74 47 75 43 76
REMARK SMILES IDX 44 77 46 78 48 79 45 80 67 81 68 82 73 83 69 84 70 85 72 86
REMARK SMILES IDX 74 87 71 88 55 89 56 90 61 91 57 92 58 93 60 94 62 95 59 96
REMARK H PARENT 12 32 12 33 79 58 53 69
REMARK Flexibility Score: inf
ROOT
ATOM      1  C   UNL     1       5.235  -4.216 -12.904  1.00  0.00     0.188 C 
ENDROOT
BRANCH   1   2
ATOM      2  O   UNL     1       6.173  -5.085 -13.528  1.00  0.00    -0.376 OA
BRANCH   2   3
ATOM      3  C   UNL     1       6.736  -6.107 -12.705  1.00  0.00     0.202 C 
BRANCH   3   4
ATOM      4  C   UNL     1       7.490  -5.632 -11.451  1.00  0.00     0.261 C 
BRANCH   4   5
ATOM      5  O   UNL     1       6.705  -4.790 -10.575  1.00  0.00    -0.463 OA
BRANCH   5   6
ATOM      6  C   UNL     1       7.194  -3.551 -10.320  1.00  0.00     0.307 C 
ATOM      7  O   UNL     1       8.260  -3.123 -10.754  1.00  0.00    -0.252 OA
BRANCH   6   8
ATOM      8  C   UNL     1       6.249  -2.640  -9.559  1.00  0.00     0.147 C 
BRANCH   8   9
ATOM      9  C   UNL     1       4.969  -3.235  -9.003  1.00  0.00     0.154 C 
ATOM     10  C   UNL     1       1.849  -3.751  -5.186  1.00  0.00     0.107 C 
ATOM     11  C   UNL     1       2.826  -4.908  -5.078  1.00  0.00     0.083 C 
ATOM     12  C   UNL     1       2.274  -2.730  -6.222  1.00  0.00     0.073 C 
ATOM     13  C   UNL     1       3.871  -5.066  -5.931  1.00  0.00     0.126 C 
ATOM     14  C   UNL     1       3.325  -2.987  -7.019  1.00  0.00     0.099 C 
ATOM     15  N   UNL     1       4.106  -4.125  -6.938  1.00  0.00    -0.258 N 
ATOM     16  S   UNL     1       3.898  -1.933  -8.275  1.00  0.00    -0.093 SA
ATOM     17  C   UNL     1       5.149  -4.240  -7.880  1.00  0.00     0.247 C 
ATOM     18  O   UNL     1       6.044  -5.081  -7.862  1.00  0.00    -0.273 OA
BRANCH  10  19
ATOM     19  C   UNL     1       1.542  -3.109  -3.833  1.00  0.00    -0.034 A 
ATOM     20  C   UNL     1       0.923  -1.870  -1.388  1.00  0.00     0.118 A 
ATOM     21  C   UNL     1      -0.070  -2.533  -2.104  1.00  0.00     0.047 A 
ATOM     22  C   UNL     1       2.233  -1.862  -1.863  1.00  0.00     0.047 A 
ATOM     23  C   UNL     1       0.232  -3.141  -3.324  1.00  0.00     0.008 A 
ATOM     24  C   UNL     1       2.542  -2.474  -3.081  1.00  0.00     0.008 A 
BRANCH  20  25
ATOM     25  O   UNL     1       0.542  -1.306  -0.201  1.00  0.00    -0.497 OA
ATOM     26  C   UNL     1       1.066   0.005  -0.000  1.00  0.00     0.278 C 
ENDBRANCH  20  25
ENDBRANCH  10  19
BRANCH  11  27
ATOM     27  C   UNL     1       2.591  -5.872  -4.050  1.00  0.00     0.100 C 
ATOM     28  N   UNL     1       2.430  -6.670  -3.220  1.00  0.00    -0.193 NA
ENDBRANCH  11  27
BRANCH  12  29
ATOM     29  C   UNL     1       1.518  -1.526  -6.331  1.00  0.00     0.098 C 
ATOM     30  N   UNL     1       0.893  -0.546  -6.398  1.00  0.00    -0.193 NA
ENDBRANCH  12  29
BRANCH  13  31
ATOM     31  N   UNL     1       4.698  -6.157  -5.845  1.00  0.00    -0.384 N 
ATOM     32  H   UNL     1       4.551  -6.832  -5.144  1.00  0.00     0.158 HD
ATOM     33  H   UNL     1       5.439  -6.264  -6.484  1.00  0.00     0.158 HD
ENDBRANCH  13  31
ENDBRANCH   8   9
ENDBRANCH   6   8
ENDBRANCH   5   6
ENDBRANCH   4   5
ENDBRANCH   3   4
ENDBRANCH   2   3
ENDBRANCH   1   2
BRANCH   1  34
ATOM     34  C   UNL     1       4.036  -4.911 -12.267  1.00  0.00     0.188 C 
BRANCH  34  35
ATOM     35  O   UNL     1       4.291  -5.974 -11.379  1.00  0.00    -0.376 OA
BRANCH  35  36
ATOM     36  C   UNL     1       3.400  -7.091 -11.369  1.00  0.00     0.202 C 
BRANCH  36  37
ATOM     37  C   UNL     1       2.382  -7.434 -12.501  1.00  0.00     0.261 C 
BRANCH  37  38
ATOM     38  O   UNL     1       1.797  -6.388 -13.308  1.00  0.00    -0.460 OA
BRANCH  38  39
ATOM     39  C   UNL     1       1.095  -5.406 -12.691  1.00  0.00     0.338 C 
ATOM     40  O   UNL     1       0.731  -5.418 -11.529  1.00  0.00    -0.246 OA
BRANCH  39  41
ATOM     41  C   UNL     1       1.125  -4.176 -13.553  1.00  0.00     0.060 A 
ATOM     42  C   UNL     1       1.454  -2.954 -12.940  1.00  0.00     0.016 A 
ATOM     43  C   UNL     1       0.939  -4.204 -14.939  1.00  0.00     0.016 A 
ATOM     44  C   UNL     1       1.604  -1.780 -13.690  1.00  0.00     0.010 A 
ATOM     45  C   UNL     1       1.041  -3.014 -15.685  1.00  0.00     0.010 A 
ATOM     46  C   UNL     1       1.363  -1.790 -15.067  1.00  0.00    -0.014 A 
BRANCH  46  47
ATOM     47  C   UNL     1       1.296  -0.512 -15.835  1.00  0.00     0.031 A 
ATOM     48  C   UNL     1      -0.056   0.077 -16.143  1.00  0.00     0.074 A 
ATOM     49  C   UNL     1       2.402   0.131 -16.259  1.00  0.00     0.049 A 
ATOM     50  N   UNL     1      -0.372   1.099 -16.899  1.00  0.00    -0.248 NA
ATOM     51  C   UNL     1      -1.208  -0.583 -15.511  1.00  0.00     0.031 C 
ATOM     52  C   UNL     1       3.777  -0.273 -15.978  1.00  0.00     0.029 A 
ATOM     53  N   UNL     1       2.536   1.258 -17.039  1.00  0.00    -0.354 N 
ATOM     54  C   UNL     1      -1.758   1.193 -16.849  1.00  0.00     0.074 A 
ATOM     55  C   UNL     1      -2.222   0.112 -16.006  1.00  0.00     0.031 C 
ATOM     56  C   UNL     1       4.616   0.575 -16.599  1.00  0.00     0.029 A 
ATOM     57  C   UNL     1       3.840   1.554 -17.361  1.00  0.00     0.049 A 
ATOM     58  H   UNL     1       1.771   1.800 -17.338  1.00  0.00     0.167 HD
ATOM     59  C   UNL     1      -2.571   2.095 -17.450  1.00  0.00     0.037 A 
ATOM     60  C   UNL     1       4.349   2.478 -18.204  1.00  0.00     0.037 A 
ATOM     61  C   UNL     1      -2.112   3.169 -18.295  1.00  0.00     0.049 A 
ATOM     62  C   UNL     1       3.419   3.401 -18.954  1.00  0.00     0.074 A 
ATOM     63  C   UNL     1      -2.863   4.141 -18.934  1.00  0.00     0.029 A 
ATOM     64  N   UNL     1      -0.788   3.403 -18.631  1.00  0.00    -0.354 N 
ATOM     65  N   UNL     1       2.112   3.493 -18.889  1.00  0.00    -0.248 NA
ATOM     66  C   UNL     1       4.035   4.345 -19.901  1.00  0.00     0.031 C 
ATOM     67  C   UNL     1      -2.001   4.916 -19.716  1.00  0.00     0.029 A 
ATOM     68  C   UNL     1      -0.705   4.476 -19.505  1.00  0.00     0.049 A 
ATOM     69  H   UNL     1      -0.020   2.885 -18.298  1.00  0.00     0.167 HD
ATOM     70  C   UNL     1       1.756   4.517 -19.761  1.00  0.00     0.074 A 
ATOM     71  C   UNL     1       2.984   5.031 -20.328  1.00  0.00     0.031 C 
ATOM     72  C   UNL     1       0.520   4.987 -20.066  1.00  0.00     0.037 A 
BRANCH  59  73
ATOM     73  C   UNL     1      -4.053   1.935 -17.255  1.00  0.00     0.057 A 
ATOM     74  C   UNL     1      -4.675   2.169 -16.022  1.00  0.00     0.134 A 
ATOM     75  C   UNL     1      -4.876   1.578 -18.332  1.00  0.00     0.134 A 
ATOM     76  F   UNL     1      -3.947   2.505 -14.946  1.00  0.00    -0.206 F 
ATOM     77  C   UNL     1      -6.054   2.024 -15.859  1.00  0.00     0.040 A 
ATOM     78  C   UNL     1      -6.260   1.463 -18.191  1.00  0.00     0.040 A 
ATOM     79  F   UNL     1      -4.351   1.348 -19.545  1.00  0.00    -0.206 F 
ATOM     80  C   UNL     1      -6.852   1.678 -16.948  1.00  0.00     0.006 A 
ENDBRANCH  59  73
BRANCH  60  81
ATOM     81  C   UNL     1       5.819   2.558 -18.432  1.00  0.00     0.057 A 
ATOM     82  C   UNL     1       6.554   3.690 -18.059  1.00  0.00     0.134 A 
ATOM     83  C   UNL     1       6.517   1.523 -19.070  1.00  0.00     0.134 A 
ATOM     84  F   UNL     1       5.941   4.731 -17.477  1.00  0.00    -0.206 F 
ATOM     85  C   UNL     1       7.921   3.799 -18.327  1.00  0.00     0.040 A 
ATOM     86  C   UNL     1       7.890   1.604 -19.313  1.00  0.00     0.040 A 
ATOM     87  F   UNL     1       5.874   0.414 -19.464  1.00  0.00    -0.206 F 
ATOM     88  C   UNL     1       8.594   2.749 -18.949  1.00  0.00     0.006 A 
ENDBRANCH  60  81
BRANCH  72  89
ATOM     89  C   UNL     1       0.426   6.133 -21.036  1.00  0.00     0.057 A 
ATOM     90  C   UNL     1       0.713   5.979 -22.399  1.00  0.00     0.134 A 
ATOM     91  C   UNL     1      -0.013   7.395 -20.612  1.00  0.00     0.134 A 
ATOM     92  F   UNL     1       1.147   4.802 -22.874  1.00  0.00    -0.206 F 
ATOM     93  C   UNL     1       0.591   7.042 -23.297  1.00  0.00     0.040 A 
ATOM     94  C   UNL     1      -0.172   8.456 -21.506  1.00  0.00     0.040 A 
ATOM     95  F   UNL     1      -0.318   7.613 -19.324  1.00  0.00    -0.206 F 
ATOM     96  C   UNL     1       0.137   8.282 -22.853  1.00  0.00     0.006 A 
ENDBRANCH  72  89
ENDBRANCH  46  47
ENDBRANCH  39  41
ENDBRANCH  38  39
ENDBRANCH  37  38
ENDBRANCH  36  37
ENDBRANCH  35  36
ENDBRANCH  34  35
ENDBRANCH   1  34
TORSDOF 23
