REMARK SMILES O=C(CCc1nc(-c2ccccc2)c(-c2ccccc2)o1)OCCOCCOCCOC(=O)c1ccc(-c2c3nc(c(-c4c(F)cccc4F)c4ccc([nH]4)c(-c4c(F)cccc4F)c4nc(c(-c5c(F)cccc5F)c5ccc2[nH]5)C=C4)C=C3)cc1
REMARK SMILES IDX 26 1 25 2 24 3 23 4 22 5 2 6 1 7 3 8 4 9 5 10 6 11 21 12
REMARK SMILES IDX 7 13 14 14 8 15 9 16 13 17 10 18 12 19 11 20 15 21 16 22
REMARK SMILES IDX 20 23 17 24 19 25 18 26 27 27 28 28 29 29 30 30 31 31 32 32
REMARK SMILES IDX 33 33 34 34 35 35 87 36 36 37 86 38 37 39 38 40 39 41 80 42
REMARK SMILES IDX 40 43 85 44 79 45 81 46 41 47 84 48 78 49 77 50 42 52 68 53
REMARK SMILES IDX 51 54 67 55 52 56 55 57 66 58 82 59 53 60 54 61 65 63 83 64
REMARK SMILES IDX 56 65 43 66 44 67 49 68 45 69 46 70 48 71 50 72 47 73 69 74
REMARK SMILES IDX 70 75 75 76 71 77 72 78 74 79 76 80 73 81 57 82 58 83 63 84
REMARK SMILES IDX 59 85 60 86 62 87 64 88 61 89
REMARK H PARENT 81 51 55 62
REMARK Flexibility Score: inf
ROOT
ATOM      1  C   UNL     1       2.871   0.154   2.386  1.00  0.00     0.188 C 
ENDROOT
BRANCH   1   2
ATOM      2  O   UNL     1       4.224   0.142   1.994  1.00  0.00    -0.376 OA
BRANCH   2   3
ATOM      3  C   UNL     1       4.544   0.569   0.682  1.00  0.00     0.202 C 
BRANCH   3   4
ATOM      4  C   UNL     1       3.454   1.233  -0.157  1.00  0.00     0.261 C 
BRANCH   4   5
ATOM      5  O   UNL     1       2.257   0.466  -0.419  1.00  0.00    -0.463 OA
BRANCH   5   6
ATOM      6  C   UNL     1       2.140  -0.692  -1.096  1.00  0.00     0.306 C 
ATOM      7  O   UNL     1       1.111  -0.925  -1.729  1.00  0.00    -0.252 OA
BRANCH   6   8
ATOM      8  C   UNL     1       3.177  -1.771  -0.938  1.00  0.00     0.132 C 
BRANCH   8   9
ATOM      9  C   UNL     1       4.057  -1.958  -2.168  1.00  0.00     0.109 C 
BRANCH   9  10
ATOM     10  C   UNL     1       5.192  -1.001  -2.288  1.00  0.00     0.196 A 
ATOM     11  N   UNL     1       6.487  -1.250  -2.280  1.00  0.00    -0.213 NA
ATOM     12  O   UNL     1       4.883   0.325  -2.431  1.00  0.00    -0.440 OA
ATOM     13  C   UNL     1       7.061  -0.001  -2.368  1.00  0.00     0.117 A 
ATOM     14  C   UNL     1       6.091   0.976  -2.389  1.00  0.00     0.162 A 
BRANCH  13  15
ATOM     15  C   UNL     1       8.437   0.267  -2.690  1.00  0.00     0.004 A 
ATOM     16  C   UNL     1       9.224   1.131  -1.922  1.00  0.00     0.010 A 
ATOM     17  C   UNL     1       8.893  -0.181  -3.934  1.00  0.00     0.010 A 
ATOM     18  C   UNL     1      10.436   1.595  -2.435  1.00  0.00     0.001 A 
ATOM     19  C   UNL     1      10.096   0.291  -4.445  1.00  0.00     0.001 A 
ATOM     20  C   UNL     1      10.858   1.190  -3.703  1.00  0.00     0.000 A 
ENDBRANCH  13  15
BRANCH  14  21
ATOM     21  C   UNL     1       6.077   2.432  -2.380  1.00  0.00     0.020 A 
ATOM     22  C   UNL     1       6.250   3.127  -1.170  1.00  0.00     0.012 A 
ATOM     23  C   UNL     1       5.918   3.172  -3.552  1.00  0.00     0.012 A 
ATOM     24  C   UNL     1       6.185   4.519  -1.113  1.00  0.00     0.001 A 
ATOM     25  C   UNL     1       5.899   4.572  -3.504  1.00  0.00     0.001 A 
ATOM     26  C   UNL     1       6.011   5.243  -2.286  1.00  0.00     0.000 A 
ENDBRANCH  14  21
ENDBRANCH   9  10
ENDBRANCH   8   9
ENDBRANCH   6   8
ENDBRANCH   5   6
ENDBRANCH   4   5
ENDBRANCH   3   4
ENDBRANCH   2   3
ENDBRANCH   1   2
BRANCH   1  27
ATOM     27  C   UNL     1       2.215   1.526   2.651  1.00  0.00     0.188 C 
BRANCH  27  28
ATOM     28  O   UNL     1       2.988   2.720   2.695  1.00  0.00    -0.376 OA
BRANCH  28  29
ATOM     29  C   UNL     1       4.273   2.755   3.296  1.00  0.00     0.202 C 
BRANCH  29  30
ATOM     30  C   UNL     1       4.400   2.411   4.778  1.00  0.00     0.261 C 
BRANCH  30  31
ATOM     31  O   UNL     1       4.043   1.054   5.073  1.00  0.00    -0.460 OA
BRANCH  31  32
ATOM     32  C   UNL     1       2.863   0.904   5.723  1.00  0.00     0.338 C 
ATOM     33  O   UNL     1       2.110   1.777   6.103  1.00  0.00    -0.246 OA
BRANCH  32  34
ATOM     34  C   UNL     1       2.502  -0.527   5.757  1.00  0.00     0.060 A 
ATOM     35  C   UNL     1       1.230  -0.889   5.286  1.00  0.00     0.016 A 
ATOM     36  C   UNL     1       3.378  -1.489   6.261  1.00  0.00     0.016 A 
ATOM     37  C   UNL     1       0.797  -2.204   5.390  1.00  0.00     0.010 A 
ATOM     38  C   UNL     1       2.929  -2.803   6.404  1.00  0.00     0.010 A 
ATOM     39  C   UNL     1       1.615  -3.141   6.030  1.00  0.00    -0.014 A 
BRANCH  39  40
ATOM     40  C   UNL     1       0.970  -4.339   6.611  1.00  0.00     0.031 A 
ATOM     41  C   UNL     1       0.506  -4.244   8.040  1.00  0.00     0.074 A 
ATOM     42  C   UNL     1       0.742  -5.444   5.884  1.00  0.00     0.049 A 
ATOM     43  N   UNL     1      -0.088  -5.137   8.787  1.00  0.00    -0.248 NA
ATOM     44  C   UNL     1       0.752  -2.960   8.721  1.00  0.00     0.031 C 
ATOM     45  C   UNL     1       1.090  -5.622   4.477  1.00  0.00     0.029 A 
ATOM     46  N   UNL     1       0.153  -6.628   6.243  1.00  0.00    -0.354 N 
ATOM     47  C   UNL     1      -0.270  -4.529  10.023  1.00  0.00     0.074 A 
ATOM     48  C   UNL     1       0.305  -3.207   9.941  1.00  0.00     0.031 C 
ATOM     49  C   UNL     1       0.709  -6.853   4.090  1.00  0.00     0.029 A 
ATOM     50  C   UNL     1       0.117  -7.552   5.230  1.00  0.00     0.049 A 
ATOM     51  H   UNL     1      -0.211  -6.799   7.142  1.00  0.00     0.167 HD
ATOM     52  C   UNL     1      -0.872  -5.025  11.129  1.00  0.00     0.037 A 
ATOM     53  C   UNL     1      -0.334  -8.820   5.237  1.00  0.00     0.037 A 
ATOM     54  C   UNL     1      -1.442  -6.343  11.202  1.00  0.00     0.049 A 
ATOM     55  C   UNL     1      -0.935  -9.378   6.502  1.00  0.00     0.074 A 
ATOM     56  C   UNL     1      -2.088  -6.945  12.265  1.00  0.00     0.029 A 
ATOM     57  N   UNL     1      -1.420  -7.266  10.167  1.00  0.00    -0.354 N 
ATOM     58  N   UNL     1      -1.124  -8.793   7.662  1.00  0.00    -0.248 NA
ATOM     59  C   UNL     1      -1.397 -10.772   6.454  1.00  0.00     0.031 C 
ATOM     60  C   UNL     1      -2.401  -8.257  11.894  1.00  0.00     0.029 A 
ATOM     61  C   UNL     1      -2.017  -8.446  10.575  1.00  0.00     0.049 A 
ATOM     62  H   UNL     1      -1.036  -7.106   9.274  1.00  0.00     0.167 HD
ATOM     63  C   UNL     1      -1.768  -9.729   8.463  1.00  0.00     0.074 A 
ATOM     64  C   UNL     1      -1.938 -10.918   7.654  1.00  0.00     0.031 C 
ATOM     65  C   UNL     1      -2.190  -9.614   9.748  1.00  0.00     0.037 A 
BRANCH  52  66
ATOM     66  C   UNL     1      -0.892  -4.153  12.351  1.00  0.00     0.057 A 
ATOM     67  C   UNL     1      -1.648  -2.974  12.421  1.00  0.00     0.134 A 
ATOM     68  C   UNL     1      -0.132  -4.496  13.477  1.00  0.00     0.134 A 
ATOM     69  F   UNL     1      -2.382  -2.573  11.372  1.00  0.00    -0.206 F 
ATOM     70  C   UNL     1      -1.618  -2.152  13.550  1.00  0.00     0.040 A 
ATOM     71  C   UNL     1      -0.121  -3.701  14.623  1.00  0.00     0.040 A 
ATOM     72  F   UNL     1       0.617  -5.609  13.479  1.00  0.00    -0.206 F 
ATOM     73  C   UNL     1      -0.858  -2.519  14.658  1.00  0.00     0.006 A 
ENDBRANCH  52  66
BRANCH  53  74
ATOM     74  C   UNL     1      -0.251  -9.649   4.007  1.00  0.00     0.057 A 
ATOM     75  C   UNL     1      -1.405 -10.047   3.323  1.00  0.00     0.134 A 
ATOM     76  C   UNL     1       0.980 -10.080   3.498  1.00  0.00     0.134 A 
ATOM     77  F   UNL     1      -2.615  -9.685   3.774  1.00  0.00    -0.206 F 
ATOM     78  C   UNL     1      -1.341 -10.859   2.189  1.00  0.00     0.040 A 
ATOM     79  C   UNL     1       1.061 -10.869   2.350  1.00  0.00     0.040 A 
ATOM     80  F   UNL     1       2.124  -9.732   4.105  1.00  0.00    -0.206 F 
ATOM     81  C   UNL     1      -0.104 -11.268   1.697  1.00  0.00     0.006 A 
ENDBRANCH  53  74
BRANCH  65  82
ATOM     82  C   UNL     1      -2.940 -10.778  10.334  1.00  0.00     0.057 A 
ATOM     83  C   UNL     1      -2.321 -11.999  10.630  1.00  0.00     0.134 A 
ATOM     84  C   UNL     1      -4.304 -10.657  10.634  1.00  0.00     0.134 A 
ATOM     85  F   UNL     1      -1.020 -12.185  10.362  1.00  0.00    -0.206 F 
ATOM     86  C   UNL     1      -3.040 -13.069  11.167  1.00  0.00     0.040 A 
ATOM     87  C   UNL     1      -5.024 -11.707  11.204  1.00  0.00     0.040 A 
ATOM     88  F   UNL     1      -4.957  -9.510  10.392  1.00  0.00    -0.206 F 
ATOM     89  C   UNL     1      -4.394 -12.922  11.460  1.00  0.00     0.006 A 
ENDBRANCH  65  82
ENDBRANCH  39  40
ENDBRANCH  32  34
ENDBRANCH  31  32
ENDBRANCH  30  31
ENDBRANCH  29  30
ENDBRANCH  28  29
ENDBRANCH  27  28
ENDBRANCH   1  27
TORSDOF 21
