REMARK SMILES C[C@@H](C(=O)OCCOCCOCCOC(=O)c1ccc(-c2c3nc(c(-c4c(F)cccc4F)c4ccc([nH]4)c(-c4c(F)cccc4F)c4nc(c(-c5c(F)cccc5F)c5ccc2[nH]5)C=C4)C=C3)cc1)c1ccc(C[C@H]2CCCC2=O)c(-c2ccc(F)cc2)c1
REMARK SMILES IDX 9 1 8 2 7 3 6 4 5 5 3 6 4 7 2 8 1 9 71 10 72 11 90 12 73 13
REMARK SMILES IDX 82 14 74 15 83 16 84 17 89 18 85 19 88 20 86 21 87 22 75 23
REMARK SMILES IDX 76 24 77 25 80 26 78 27 79 28 81 29 10 30 11 31 12 32 13 33
REMARK SMILES IDX 14 34 15 35 16 36 17 37 18 38 70 39 19 40 69 41 20 42 21 43
REMARK SMILES IDX 22 44 63 45 23 46 68 47 62 48 64 49 24 50 67 51 61 52 60 53
REMARK SMILES IDX 25 55 51 56 34 57 50 58 35 59 38 60 49 61 65 62 36 63 37 64
REMARK SMILES IDX 48 66 66 67 39 68 26 69 27 70 32 71 28 72 29 73 31 74 33 75
REMARK SMILES IDX 30 76 52 77 53 78 58 79 54 80 55 81 57 82 59 83 56 84 40 85
REMARK SMILES IDX 41 86 46 87 42 88 43 89 45 90 47 91 44 92
REMARK H PARENT 64 54 38 65
REMARK Flexibility Score: inf
ROOT
ATOM      1  C   UNL     1       0.656  -3.657   0.766  1.00  0.00     0.188 C 
ENDROOT
BRANCH   1   2
ATOM      2  O   UNL     1       1.446  -4.803   0.526  1.00  0.00    -0.376 OA
BRANCH   2   3
ATOM      3  C   UNL     1       2.597  -4.688  -0.301  1.00  0.00     0.202 C 
BRANCH   3   4
ATOM      4  C   UNL     1       2.552  -3.844  -1.580  1.00  0.00     0.261 C 
BRANCH   4   5
ATOM      5  O   UNL     1       2.080  -2.501  -1.371  1.00  0.00    -0.463 OA
BRANCH   5   6
ATOM      6  C   UNL     1       1.440  -1.941  -2.434  1.00  0.00     0.313 C 
ATOM      7  O   UNL     1       1.323  -2.493  -3.524  1.00  0.00    -0.252 OA
BRANCH   6   8
ATOM      8  C   UNL     1       0.776  -0.597  -2.119  1.00  0.00     0.126 C 
ATOM      9  C   UNL     1       1.540   0.262  -1.100  1.00  0.00     0.025 C 
BRANCH   8  10
ATOM     10  C   UNL     1      -0.721  -0.674  -1.813  1.00  0.00    -0.033 A 
ATOM     11  C   UNL     1      -1.451   0.490  -1.593  1.00  0.00     0.005 A 
ATOM     12  C   UNL     1      -1.441  -1.873  -1.816  1.00  0.00     0.013 A 
ATOM     13  C   UNL     1      -2.834   0.448  -1.379  1.00  0.00     0.004 A 
ATOM     14  C   UNL     1      -2.837  -1.960  -1.551  1.00  0.00    -0.015 A 
ATOM     15  C   UNL     1      -3.561  -0.757  -1.315  1.00  0.00    -0.039 A 
BRANCH  14  16
ATOM     16  C   UNL     1      -3.371  -3.344  -1.570  1.00  0.00    -0.018 A 
ATOM     17  C   UNL     1      -4.257  -3.808  -2.554  1.00  0.00     0.012 A 
ATOM     18  C   UNL     1      -2.870  -4.293  -0.648  1.00  0.00     0.012 A 
ATOM     19  C   UNL     1      -4.669  -5.152  -2.572  1.00  0.00     0.040 A 
ATOM     20  C   UNL     1      -3.290  -5.628  -0.653  1.00  0.00     0.040 A 
ATOM     21  C   UNL     1      -4.202  -6.041  -1.608  1.00  0.00     0.123 A 
ATOM     22  F   UNL     1      -4.668  -7.297  -1.579  1.00  0.00    -0.207 F 
ENDBRANCH  14  16
BRANCH  15  23
ATOM     23  C   UNL     1      -5.082  -0.670  -1.192  1.00  0.00     0.047 C 
BRANCH  23  24
ATOM     24  C   UNL     1      -5.817   0.239  -0.166  1.00  0.00     0.060 C 
ATOM     25  C   UNL     1      -5.680  -0.153   1.301  1.00  0.00     0.012 C 
ATOM     26  C   UNL     1      -5.421   1.699  -0.098  1.00  0.00     0.136 C 
ATOM     27  C   UNL     1      -4.587   0.731   1.878  1.00  0.00     0.009 C 
ATOM     28  C   UNL     1      -4.844   2.086   1.246  1.00  0.00     0.076 C 
ATOM     29  O   UNL     1      -5.568   2.492  -1.020  1.00  0.00    -0.299 OA
ENDBRANCH  23  24
ENDBRANCH  15  23
ENDBRANCH   8  10
ENDBRANCH   6   8
ENDBRANCH   5   6
ENDBRANCH   4   5
ENDBRANCH   3   4
ENDBRANCH   2   3
ENDBRANCH   1   2
BRANCH   1  30
ATOM     30  C   UNL     1       1.268  -2.409   1.426  1.00  0.00     0.188 C 
BRANCH  30  31
ATOM     31  O   UNL     1       2.618  -2.389   1.827  1.00  0.00    -0.376 OA
BRANCH  31  32
ATOM     32  C   UNL     1       3.058  -3.319   2.803  1.00  0.00     0.202 C 
BRANCH  32  33
ATOM     33  C   UNL     1       2.204  -3.692   4.026  1.00  0.00     0.261 C 
BRANCH  33  34
ATOM     34  O   UNL     1       0.799  -3.885   3.790  1.00  0.00    -0.460 OA
BRANCH  34  35
ATOM     35  C   UNL     1      -0.022  -3.054   4.464  1.00  0.00     0.338 C 
ATOM     36  O   UNL     1       0.305  -2.149   5.243  1.00  0.00    -0.246 OA
BRANCH  35  37
ATOM     37  C   UNL     1      -1.420  -3.260   4.067  1.00  0.00     0.060 A 
ATOM     38  C   UNL     1      -1.982  -2.410   3.116  1.00  0.00     0.016 A 
ATOM     39  C   UNL     1      -2.224  -4.199   4.715  1.00  0.00     0.016 A 
ATOM     40  C   UNL     1      -3.342  -2.497   2.825  1.00  0.00     0.010 A 
ATOM     41  C   UNL     1      -3.604  -4.252   4.440  1.00  0.00     0.010 A 
ATOM     42  C   UNL     1      -4.193  -3.371   3.517  1.00  0.00    -0.014 A 
BRANCH  42  43
ATOM     43  C   UNL     1      -5.686  -3.245   3.398  1.00  0.00     0.031 A 
ATOM     44  C   UNL     1      -6.470  -2.612   4.505  1.00  0.00     0.074 A 
ATOM     45  C   UNL     1      -6.374  -3.537   2.277  1.00  0.00     0.049 A 
ATOM     46  N   UNL     1      -7.764  -2.446   4.600  1.00  0.00    -0.248 NA
ATOM     47  C   UNL     1      -5.700  -2.067   5.630  1.00  0.00     0.031 C 
ATOM     48  C   UNL     1      -5.743  -3.945   1.044  1.00  0.00     0.029 A 
ATOM     49  N   UNL     1      -7.711  -3.467   1.948  1.00  0.00    -0.354 N 
ATOM     50  C   UNL     1      -7.974  -1.817   5.814  1.00  0.00     0.074 A 
ATOM     51  C   UNL     1      -6.669  -1.619   6.415  1.00  0.00     0.031 C 
ATOM     52  C   UNL     1      -6.665  -4.054   0.081  1.00  0.00     0.029 A 
ATOM     53  C   UNL     1      -7.977  -3.819   0.644  1.00  0.00     0.049 A 
ATOM     54  H   UNL     1      -8.409  -3.192   2.586  1.00  0.00     0.167 HD
ATOM     55  C   UNL     1      -9.147  -1.452   6.379  1.00  0.00     0.037 A 
ATOM     56  C   UNL     1      -9.122  -3.970  -0.050  1.00  0.00     0.037 A 
ATOM     57  C   UNL     1     -10.449  -1.623   5.783  1.00  0.00     0.049 A 
ATOM     58  C   UNL     1     -10.416  -3.692   0.638  1.00  0.00     0.074 A 
ATOM     59  C   UNL     1     -11.685  -1.312   6.325  1.00  0.00     0.029 A 
ATOM     60  N   UNL     1     -10.693  -2.143   4.520  1.00  0.00    -0.354 N 
ATOM     61  N   UNL     1     -10.606  -3.197   1.834  1.00  0.00    -0.248 NA
ATOM     62  C   UNL     1     -11.649  -3.995  -0.100  1.00  0.00     0.031 C 
ATOM     63  C   UNL     1     -12.678  -1.696   5.417  1.00  0.00     0.029 A 
ATOM     64  C   UNL     1     -12.061  -2.194   4.282  1.00  0.00     0.049 A 
ATOM     65  H   UNL     1      -9.999  -2.433   3.885  1.00  0.00     0.167 HD
ATOM     66  C   UNL     1     -11.979  -3.113   1.990  1.00  0.00     0.074 A 
ATOM     67  C   UNL     1     -12.575  -3.586   0.757  1.00  0.00     0.031 C 
ATOM     68  C   UNL     1     -12.670  -2.679   3.070  1.00  0.00     0.037 A 
BRANCH  55  69
ATOM     69  C   UNL     1      -9.070  -0.911   7.772  1.00  0.00     0.057 A 
ATOM     70  C   UNL     1      -8.589   0.371   8.058  1.00  0.00     0.134 A 
ATOM     71  C   UNL     1      -9.481  -1.710   8.848  1.00  0.00     0.134 A 
ATOM     72  F   UNL     1      -8.150   1.169   7.072  1.00  0.00    -0.206 F 
ATOM     73  C   UNL     1      -8.500   0.834   9.371  1.00  0.00     0.040 A 
ATOM     74  C   UNL     1      -9.422  -1.247  10.161  1.00  0.00     0.040 A 
ATOM     75  F   UNL     1      -9.943  -2.951   8.636  1.00  0.00    -0.206 F 
ATOM     76  C   UNL     1      -8.924   0.026  10.425  1.00  0.00     0.006 A 
ENDBRANCH  55  69
BRANCH  56  77
ATOM     77  C   UNL     1      -9.101  -4.458  -1.459  1.00  0.00     0.057 A 
ATOM     78  C   UNL     1      -9.516  -3.650  -2.524  1.00  0.00     0.134 A 
ATOM     79  C   UNL     1      -8.682  -5.760  -1.769  1.00  0.00     0.134 A 
ATOM     80  F   UNL     1      -9.954  -2.404  -2.294  1.00  0.00    -0.206 F 
ATOM     81  C   UNL     1      -9.522  -4.119  -3.841  1.00  0.00     0.040 A 
ATOM     82  C   UNL     1      -8.655  -6.232  -3.082  1.00  0.00     0.040 A 
ATOM     83  F   UNL     1      -8.279  -6.590  -0.796  1.00  0.00    -0.206 F 
ATOM     84  C   UNL     1      -9.084  -5.412  -4.123  1.00  0.00     0.006 A 
ENDBRANCH  56  77
BRANCH  68  85
ATOM     85  C   UNL     1     -14.164  -2.679   2.956  1.00  0.00     0.057 A 
ATOM     86  C   UNL     1     -14.905  -3.868   2.936  1.00  0.00     0.134 A 
ATOM     87  C   UNL     1     -14.871  -1.474   2.856  1.00  0.00     0.134 A 
ATOM     88  F   UNL     1     -14.285  -5.056   3.004  1.00  0.00    -0.206 F 
ATOM     89  C   UNL     1     -16.293  -3.860   2.791  1.00  0.00     0.040 A 
ATOM     90  C   UNL     1     -16.261  -1.452   2.739  1.00  0.00     0.040 A 
ATOM     91  F   UNL     1     -14.222  -0.300   2.868  1.00  0.00    -0.206 F 
ATOM     92  C   UNL     1     -16.975  -2.648   2.698  1.00  0.00     0.006 A 
ENDBRANCH  68  85
ENDBRANCH  42  43
ENDBRANCH  35  37
ENDBRANCH  34  35
ENDBRANCH  33  34
ENDBRANCH  32  33
ENDBRANCH  31  32
ENDBRANCH  30  31
ENDBRANCH   1  30
TORSDOF 21
