REMARK SMILES CC(C)CN(C)S(=O)(=O)c1ccc(C(=O)OCCOCCOCCOC(=O)c2ccc(-c3c4nc(c(-c5c(F)cccc5F)c5ccc([nH]5)c(-c5c(F)cccc5F)c5nc(c(-c6c(F)cccc6F)c6ccc3[nH]6)C=C5)C=C4)cc2)cc1
REMARK SMILES IDX 20 1 19 2 18 3 17 4 16 5 14 6 15 7 13 8 10 9 11 10 83 11
REMARK SMILES IDX 12 12 82 13 7 14 8 15 9 16 5 17 6 18 4 19 2 20 1 21 3 22
REMARK SMILES IDX 21 23 22 24 23 25 24 26 25 27 26 28 27 29 28 30 29 31 81 32
REMARK SMILES IDX 30 33 80 34 31 35 32 36 33 37 74 38 34 39 79 40 73 41 75 42
REMARK SMILES IDX 35 43 78 44 72 45 71 46 36 48 62 49 45 50 61 51 46 52 49 53
REMARK SMILES IDX 60 54 76 55 47 56 48 57 59 59 77 60 50 61 37 62 38 63 43 64
REMARK SMILES IDX 39 65 40 66 42 67 44 68 41 69 63 70 64 71 69 72 65 73 66 74
REMARK SMILES IDX 68 75 70 76 67 77 51 78 52 79 57 80 53 81 54 82 56 83 58 84
REMARK SMILES IDX 55 85
REMARK H PARENT 75 47 49 58
REMARK Flexibility Score: inf
ROOT
ATOM      1  C   UNL     1      -1.383  -6.156   6.194  1.00  0.00     0.188 C 
ENDROOT
BRANCH   1   2
ATOM      2  O   UNL     1      -2.187  -7.155   6.810  1.00  0.00    -0.376 OA
BRANCH   2   3
ATOM      3  C   UNL     1      -2.651  -8.263   6.053  1.00  0.00     0.202 C 
BRANCH   3   4
ATOM      4  C   UNL     1      -3.636  -7.986   4.913  1.00  0.00     0.261 C 
BRANCH   4   5
ATOM      5  O   UNL     1      -3.175  -7.003   3.974  1.00  0.00    -0.460 OA
BRANCH   5   6
ATOM      6  C   UNL     1      -3.849  -5.827   3.979  1.00  0.00     0.338 C 
ATOM      7  O   UNL     1      -4.823  -5.533   4.653  1.00  0.00    -0.246 OA
BRANCH   6   8
ATOM      8  C   UNL     1      -3.136  -4.840   3.139  1.00  0.00     0.060 A 
ATOM      9  C   UNL     1      -1.857  -2.892   1.607  1.00  0.00     0.082 A 
ATOM     10  C   UNL     1      -2.280  -2.575   2.897  1.00  0.00     0.022 A 
ATOM     11  C   UNL     1      -2.021  -4.194   1.104  1.00  0.00     0.022 A 
ATOM     12  C   UNL     1      -2.954  -3.543   3.648  1.00  0.00     0.017 A 
ATOM     13  C   UNL     1      -2.644  -5.176   1.876  1.00  0.00     0.017 A 
BRANCH   9  14
ATOM     14  S   UNL     1      -1.092  -1.707   0.519  1.00  0.00     0.242 S 
ATOM     15  O   UNL     1      -1.737  -1.862  -0.770  1.00  0.00    -0.207 OA
ATOM     16  O   UNL     1       0.325  -1.931   0.680  1.00  0.00    -0.207 OA
BRANCH  14  17
ATOM     17  N   UNL     1      -1.478  -0.110   1.066  1.00  0.00    -0.201 NA
ATOM     18  C   UNL     1      -2.952   0.143   1.173  1.00  0.00     0.124 C 
BRANCH  17  19
ATOM     19  C   UNL     1      -0.911   0.970   0.151  1.00  0.00     0.105 C 
BRANCH  19  20
ATOM     20  C   UNL     1       0.532   1.426   0.434  1.00  0.00    -0.002 C 
ATOM     21  C   UNL     1       1.601   0.516  -0.176  1.00  0.00     0.009 C 
ATOM     22  C   UNL     1       0.720   2.832  -0.168  1.00  0.00     0.009 C 
ENDBRANCH  19  20
ENDBRANCH  17  19
ENDBRANCH  14  17
ENDBRANCH   9  14
ENDBRANCH   6   8
ENDBRANCH   5   6
ENDBRANCH   4   5
ENDBRANCH   3   4
ENDBRANCH   2   3
ENDBRANCH   1   2
BRANCH   1  23
ATOM     23  C   UNL     1      -0.362  -6.517   5.095  1.00  0.00     0.188 C 
BRANCH  23  24
ATOM     24  O   UNL     1      -0.011  -7.891   5.042  1.00  0.00    -0.376 OA
BRANCH  24  25
ATOM     25  C   UNL     1       1.322  -8.209   5.421  1.00  0.00     0.202 C 
BRANCH  25  26
ATOM     26  C   UNL     1       1.551  -8.195   6.936  1.00  0.00     0.261 C 
BRANCH  26  27
ATOM     27  O   UNL     1       1.334  -6.922   7.566  1.00  0.00    -0.460 OA
BRANCH  27  28
ATOM     28  C   UNL     1       2.196  -5.931   7.246  1.00  0.00     0.338 C 
ATOM     29  O   UNL     1       3.139  -5.994   6.481  1.00  0.00    -0.246 OA
BRANCH  28  30
ATOM     30  C   UNL     1       1.714  -4.684   7.876  1.00  0.00     0.060 A 
ATOM     31  C   UNL     1       1.514  -3.555   7.073  1.00  0.00     0.016 A 
ATOM     32  C   UNL     1       1.481  -4.626   9.253  1.00  0.00     0.016 A 
ATOM     33  C   UNL     1       1.116  -2.350   7.656  1.00  0.00     0.010 A 
ATOM     34  C   UNL     1       1.095  -3.416   9.836  1.00  0.00     0.010 A 
ATOM     35  C   UNL     1       0.942  -2.264   9.046  1.00  0.00    -0.014 A 
BRANCH  35  36
ATOM     36  C   UNL     1       0.780  -0.938   9.692  1.00  0.00     0.031 A 
ATOM     37  C   UNL     1       2.004  -0.242  10.222  1.00  0.00     0.074 A 
ATOM     38  C   UNL     1      -0.426  -0.353   9.803  1.00  0.00     0.049 A 
ATOM     39  N   UNL     1       2.107   0.910  10.832  1.00  0.00    -0.248 NA
ATOM     40  C   UNL     1       3.285  -0.944  10.038  1.00  0.00     0.031 C 
ATOM     41  C   UNL     1      -1.687  -0.911   9.320  1.00  0.00     0.029 A 
ATOM     42  N   UNL     1      -0.781   0.845  10.372  1.00  0.00    -0.354 N 
ATOM     43  C   UNL     1       3.459   1.074  11.102  1.00  0.00     0.074 A 
ATOM     44  C   UNL     1       4.135  -0.111  10.618  1.00  0.00     0.031 C 
ATOM     45  C   UNL     1      -2.683  -0.058   9.622  1.00  0.00     0.029 A 
ATOM     46  C   UNL     1      -2.131   1.094  10.335  1.00  0.00     0.049 A 
ATOM     47  H   UNL     1      -0.130   1.468  10.768  1.00  0.00     0.167 HD
ATOM     48  C   UNL     1       4.087   2.119  11.690  1.00  0.00     0.037 A 
ATOM     49  C   UNL     1      -2.839   2.127  10.834  1.00  0.00     0.037 A 
ATOM     50  C   UNL     1       3.422   3.296  12.181  1.00  0.00     0.049 A 
ATOM     51  C   UNL     1      -2.126   3.252  11.538  1.00  0.00     0.074 A 
ATOM     52  C   UNL     1       3.977   4.414  12.779  1.00  0.00     0.029 A 
ATOM     53  N   UNL     1       2.053   3.501  12.141  1.00  0.00    -0.354 N 
ATOM     54  N   UNL     1      -0.842   3.415  11.749  1.00  0.00    -0.248 NA
ATOM     55  C   UNL     1      -2.962   4.339  12.069  1.00  0.00     0.031 C 
ATOM     56  C   UNL     1       2.938   5.280  13.134  1.00  0.00     0.029 A 
ATOM     57  C   UNL     1       1.741   4.719  12.720  1.00  0.00     0.049 A 
ATOM     58  H   UNL     1       1.398   2.873  11.758  1.00  0.00     0.167 HD
ATOM     59  C   UNL     1      -0.715   4.632  12.408  1.00  0.00     0.074 A 
ATOM     60  C   UNL     1      -2.050   5.170  12.557  1.00  0.00     0.031 C 
ATOM     61  C   UNL     1       0.409   5.250  12.848  1.00  0.00     0.037 A 
BRANCH  48  62
ATOM     62  C   UNL     1       5.574   2.025  11.845  1.00  0.00     0.057 A 
ATOM     63  C   UNL     1       6.439   2.168  10.752  1.00  0.00     0.134 A 
ATOM     64  C   UNL     1       6.149   1.808  13.103  1.00  0.00     0.134 A 
ATOM     65  F   UNL     1       5.948   2.361   9.518  1.00  0.00    -0.206 F 
ATOM     66  C   UNL     1       7.823   2.079  10.902  1.00  0.00     0.040 A 
ATOM     67  C   UNL     1       7.533   1.740  13.269  1.00  0.00     0.040 A 
ATOM     68  F   UNL     1       5.377   1.665  14.190  1.00  0.00    -0.206 F 
ATOM     69  C   UNL     1       8.374   1.870  12.165  1.00  0.00     0.006 A 
ENDBRANCH  48  62
BRANCH  49  70
ATOM     70  C   UNL     1      -4.316   2.154  10.690  1.00  0.00     0.057 A 
ATOM     71  C   UNL     1      -4.945   3.068   9.837  1.00  0.00     0.134 A 
ATOM     72  C   UNL     1      -5.134   1.290  11.427  1.00  0.00     0.134 A 
ATOM     73  F   UNL     1      -4.215   3.939   9.126  1.00  0.00    -0.206 F 
ATOM     74  C   UNL     1      -6.336   3.133   9.733  1.00  0.00     0.040 A 
ATOM     75  C   UNL     1      -6.525   1.328  11.316  1.00  0.00     0.040 A 
ATOM     76  F   UNL     1      -4.591   0.395  12.266  1.00  0.00    -0.206 F 
ATOM     77  C   UNL     1      -7.130   2.257  10.471  1.00  0.00     0.006 A 
ENDBRANCH  49  70
BRANCH  61  78
ATOM     78  C   UNL     1       0.252   6.595  13.493  1.00  0.00     0.057 A 
ATOM     79  C   UNL     1      -0.258   6.739  14.790  1.00  0.00     0.134 A 
ATOM     80  C   UNL     1       0.663   7.756  12.826  1.00  0.00     0.134 A 
ATOM     81  F   UNL     1      -0.679   5.668  15.478  1.00  0.00    -0.206 F 
ATOM     82  C   UNL     1      -0.368   7.994  15.393  1.00  0.00     0.040 A 
ATOM     83  C   UNL     1       0.579   9.012  13.427  1.00  0.00     0.040 A 
ATOM     84  F   UNL     1       1.169   7.685  11.585  1.00  0.00    -0.206 F 
ATOM     85  C   UNL     1       0.057   9.134  14.713  1.00  0.00     0.006 A 
ENDBRANCH  61  78
ENDBRANCH  35  36
ENDBRANCH  28  30
ENDBRANCH  27  28
ENDBRANCH  26  27
ENDBRANCH  25  26
ENDBRANCH  24  25
ENDBRANCH  23  24
ENDBRANCH   1  23
TORSDOF 21
