REMARK SMILES O=C(OCCOCCOCCOC(=O)c1ccc(-n2cccc2/C=N/NC(=O)c2cccs2)cc1)c1ccc(-c2c3nc(c(-c4c(F)cccc4F)c4ccc([nH]4)c(-c4c(F)cccc4F)c4nc(c(-c5c(F)cccc5F)c5ccc2[nH]5)C=C4)C=C3)cc1
REMARK SMILES IDX 8 1 7 2 6 3 5 4 4 5 3 6 2 7 1 8 36 9 37 10 89 11 38 12 88 13
REMARK SMILES IDX 39 14 40 15 41 16 82 17 42 18 87 19 81 20 83 21 43 22 86 23
REMARK SMILES IDX 80 24 79 25 44 27 70 28 53 29 69 30 54 31 57 32 68 33 84 34
REMARK SMILES IDX 55 35 56 36 67 38 85 39 58 40 45 41 46 42 51 43 47 44 48 45
REMARK SMILES IDX 50 46 52 47 49 48 71 49 72 50 77 51 73 52 74 53 76 54 78 55
REMARK SMILES IDX 75 56 59 57 60 58 65 59 61 60 62 61 64 62 66 63 63 64 9 65
REMARK SMILES IDX 10 66 11 67 12 68 13 69 14 70 15 71 16 72 35 73 17 74 34 75
REMARK SMILES IDX 18 76 19 77 20 78 23 79 21 80 22 81 24 82 25 83 26 84 27 85
REMARK SMILES IDX 28 87 29 88 30 89 33 90 31 91 32 92
REMARK H PARENT 83 26 57 37 26 86
REMARK Flexibility Score: inf
ROOT
ATOM      1  C   UNL     1       2.199   2.245   2.188  1.00  0.00     0.188 C 
ENDROOT
BRANCH   1   2
ATOM      2  C   UNL     1       2.739   1.631   0.904  1.00  0.00     0.188 C 
BRANCH   2   3
ATOM      3  O   UNL     1       3.893   0.795   1.071  1.00  0.00    -0.376 OA
BRANCH   3   4
ATOM      4  C   UNL     1       4.978   1.038   0.172  1.00  0.00     0.202 C 
BRANCH   4   5
ATOM      5  C   UNL     1       4.733   1.062  -1.352  1.00  0.00     0.261 C 
BRANCH   5   6
ATOM      6  O   UNL     1       3.368   1.145  -1.786  1.00  0.00    -0.460 OA
BRANCH   6   7
ATOM      7  C   UNL     1       2.367   0.245  -1.663  1.00  0.00     0.338 C 
ATOM      8  O   UNL     1       1.205   0.647  -1.703  1.00  0.00    -0.246 OA
BRANCH   7   9
ATOM      9  C   UNL     1       2.607  -1.219  -1.605  1.00  0.00     0.060 A 
ATOM     10  C   UNL     1       3.838  -1.821  -1.358  1.00  0.00     0.016 A 
ATOM     11  C   UNL     1       1.508  -2.030  -1.943  1.00  0.00     0.016 A 
ATOM     12  C   UNL     1       4.044  -3.142  -1.703  1.00  0.00     0.010 A 
ATOM     13  C   UNL     1       1.689  -3.374  -2.234  1.00  0.00     0.010 A 
ATOM     14  C   UNL     1       2.983  -3.890  -2.208  1.00  0.00    -0.014 A 
BRANCH  14  15
ATOM     15  C   UNL     1       3.308  -5.227  -2.727  1.00  0.00     0.031 A 
ATOM     16  C   UNL     1       3.602  -6.226  -1.627  1.00  0.00     0.074 A 
ATOM     17  C   UNL     1       3.402  -5.317  -4.083  1.00  0.00     0.049 A 
ATOM     18  N   UNL     1       4.406  -7.244  -1.611  1.00  0.00    -0.248 NA
ATOM     19  C   UNL     1       2.985  -5.989  -0.300  1.00  0.00     0.031 C 
ATOM     20  C   UNL     1       3.129  -4.195  -5.002  1.00  0.00     0.029 A 
ATOM     21  N   UNL     1       3.748  -6.320  -4.963  1.00  0.00    -0.354 N 
ATOM     22  C   UNL     1       4.212  -7.883  -0.372  1.00  0.00     0.074 A 
ATOM     23  C   UNL     1       3.489  -6.965   0.452  1.00  0.00     0.031 C 
ATOM     24  C   UNL     1       3.365  -4.553  -6.275  1.00  0.00     0.029 A 
ATOM     25  C   UNL     1       3.802  -5.931  -6.325  1.00  0.00     0.049 A 
ATOM     26  H   UNL     1       3.944  -7.238  -4.667  1.00  0.00     0.167 HD
ATOM     27  C   UNL     1       4.474  -9.203  -0.157  1.00  0.00     0.037 A 
ATOM     28  C   UNL     1       4.200  -6.652  -7.418  1.00  0.00     0.037 A 
ATOM     29  C   UNL     1       5.031  -9.803  -1.325  1.00  0.00     0.049 A 
ATOM     30  C   UNL     1       4.429  -8.025  -6.927  1.00  0.00     0.074 A 
ATOM     31  C   UNL     1       6.261  -9.740  -1.923  1.00  0.00     0.029 A 
ATOM     32  N   UNL     1       4.145 -10.378  -2.203  1.00  0.00    -0.354 N 
ATOM     33  N   UNL     1       3.490  -8.838  -6.544  1.00  0.00    -0.248 NA
ATOM     34  C   UNL     1       5.805  -8.506  -6.755  1.00  0.00     0.031 C 
ATOM     35  C   UNL     1       6.000  -9.947  -3.297  1.00  0.00     0.029 A 
ATOM     36  C   UNL     1       4.637 -10.204  -3.475  1.00  0.00     0.049 A 
ATOM     37  H   UNL     1       3.305 -10.834  -1.964  1.00  0.00     0.167 HD
ATOM     38  C   UNL     1       4.172  -9.759  -5.783  1.00  0.00     0.074 A 
ATOM     39  C   UNL     1       5.555  -9.686  -6.194  1.00  0.00     0.031 C 
ATOM     40  C   UNL     1       3.685 -10.120  -4.566  1.00  0.00     0.037 A 
BRANCH  27  41
ATOM     41  C   UNL     1       4.019 -10.113   0.951  1.00  0.00     0.057 A 
ATOM     42  C   UNL     1       4.708 -11.332   1.142  1.00  0.00     0.134 A 
ATOM     43  C   UNL     1       2.790 -10.003   1.615  1.00  0.00     0.134 A 
ATOM     44  F   UNL     1       5.911 -11.540   0.584  1.00  0.00    -0.206 F 
ATOM     45  C   UNL     1       4.161 -12.404   1.852  1.00  0.00     0.040 A 
ATOM     46  C   UNL     1       2.255 -11.055   2.370  1.00  0.00     0.040 A 
ATOM     47  F   UNL     1       2.015  -8.920   1.494  1.00  0.00    -0.206 F 
ATOM     48  C   UNL     1       2.920 -12.272   2.457  1.00  0.00     0.006 A 
ENDBRANCH  27  41
BRANCH  28  49
ATOM     49  C   UNL     1       4.499  -6.374  -8.876  1.00  0.00     0.057 A 
ATOM     50  C   UNL     1       4.337  -5.154  -9.543  1.00  0.00     0.134 A 
ATOM     51  C   UNL     1       5.076  -7.386  -9.690  1.00  0.00     0.134 A 
ATOM     52  F   UNL     1       3.717  -4.113  -8.984  1.00  0.00    -0.206 F 
ATOM     53  C   UNL     1       4.797  -4.929 -10.855  1.00  0.00     0.040 A 
ATOM     54  C   UNL     1       5.567  -7.170 -10.983  1.00  0.00     0.040 A 
ATOM     55  F   UNL     1       5.201  -8.651  -9.264  1.00  0.00    -0.206 F 
ATOM     56  C   UNL     1       5.444  -5.926 -11.569  1.00  0.00     0.006 A 
ENDBRANCH  28  49
BRANCH  40  57
ATOM     57  C   UNL     1       2.183  -9.919  -4.434  1.00  0.00     0.057 A 
ATOM     58  C   UNL     1       1.293 -10.598  -5.277  1.00  0.00     0.134 A 
ATOM     59  C   UNL     1       1.597  -8.964  -3.591  1.00  0.00     0.134 A 
ATOM     60  F   UNL     1       1.745 -11.550  -6.107  1.00  0.00    -0.206 F 
ATOM     61  C   UNL     1      -0.080 -10.313  -5.300  1.00  0.00     0.040 A 
ATOM     62  C   UNL     1       0.230  -8.670  -3.592  1.00  0.00     0.040 A 
ATOM     63  F   UNL     1       2.338  -8.280  -2.726  1.00  0.00    -0.206 F 
ATOM     64  C   UNL     1      -0.616  -9.338  -4.462  1.00  0.00     0.006 A 
ENDBRANCH  40  57
ENDBRANCH  14  15
ENDBRANCH   7   9
ENDBRANCH   6   7
ENDBRANCH   5   6
ENDBRANCH   4   5
ENDBRANCH   3   4
ENDBRANCH   2   3
ENDBRANCH   1   2
BRANCH   1  65
ATOM     65  O   UNL     1       2.785   3.487   2.565  1.00  0.00    -0.376 OA
BRANCH  65  66
ATOM     66  C   UNL     1       4.182   3.475   2.807  1.00  0.00     0.202 C 
BRANCH  66  67
ATOM     67  C   UNL     1       4.629   2.943   4.171  1.00  0.00     0.261 C 
BRANCH  67  68
ATOM     68  O   UNL     1       4.095   1.655   4.520  1.00  0.00    -0.460 OA
BRANCH  68  69
ATOM     69  C   UNL     1       2.994   1.711   5.313  1.00  0.00     0.338 C 
ATOM     70  O   UNL     1       2.408   2.703   5.705  1.00  0.00    -0.246 OA
BRANCH  69  71
ATOM     71  C   UNL     1       2.558   0.353   5.677  1.00  0.00     0.060 A 
ATOM     72  C   UNL     1       1.354  -0.162   5.174  1.00  0.00     0.018 A 
ATOM     73  C   UNL     1       3.245  -0.309   6.693  1.00  0.00     0.018 A 
ATOM     74  C   UNL     1       0.815  -1.339   5.706  1.00  0.00     0.027 A 
ATOM     75  C   UNL     1       2.686  -1.454   7.257  1.00  0.00     0.027 A 
ATOM     76  C   UNL     1       1.464  -1.959   6.778  1.00  0.00     0.046 A 
BRANCH  76  77
ATOM     77  N   UNL     1       0.827  -2.992   7.515  1.00  0.00    -0.316 N 
ATOM     78  C   UNL     1       0.733  -2.972   8.895  1.00  0.00     0.092 A 
ATOM     79  C   UNL     1       0.238  -4.163   7.059  1.00  0.00     0.066 A 
ATOM     80  C   UNL     1       0.067  -4.093   9.322  1.00  0.00     0.021 A 
ATOM     81  C   UNL     1      -0.220  -4.854   8.174  1.00  0.00     0.030 A 
BRANCH  79  82
ATOM     82  C   UNL     1       0.207  -4.634   5.699  1.00  0.00     0.160 C 
ATOM     83  N   UNL     1       0.245  -5.908   5.459  1.00  0.00    -0.179 NA
BRANCH  83  84
ATOM     84  N   UNL     1       0.254  -6.333   4.156  1.00  0.00    -0.242 N 
ATOM     85  C   UNL     1       0.822  -5.759   3.027  1.00  0.00     0.281 C 
ATOM     86  H   UNL     1      -0.219  -7.181   3.995  1.00  0.00     0.194 HD
ATOM     87  O   UNL     1       0.464  -6.175   1.923  1.00  0.00    -0.266 OA
BRANCH  85  88
ATOM     88  C   UNL     1       1.833  -4.729   3.196  1.00  0.00     0.094 A 
ATOM     89  C   UNL     1       2.922  -4.701   4.048  1.00  0.00     0.026 A 
ATOM     90  S   UNL     1       1.744  -3.306   2.243  1.00  0.00    -0.139 S 
ATOM     91  C   UNL     1       3.662  -3.488   3.938  1.00  0.00     0.012 A 
ATOM     92  C   UNL     1       3.127  -2.640   2.994  1.00  0.00     0.065 A 
ENDBRANCH  85  88
ENDBRANCH  83  84
ENDBRANCH  79  82
ENDBRANCH  76  77
ENDBRANCH  69  71
ENDBRANCH  68  69
ENDBRANCH  67  68
ENDBRANCH  66  67
ENDBRANCH  65  66
ENDBRANCH   1  65
TORSDOF 21
