REMARK SMILES Cc1ccccc1NC(=S)NN1C(=O)CS[C@H]1c1ccccc1C(=O)OCCOCCOCCOC(=O)c1ccc(-c2c3nc(c(-c4c(F)cccc4F)c4ccc([nH]4)c(-c4c(F)cccc4F)c4nc(c(-c5c(F)cccc5F)c5ccc2[nH]5)C=C4)C=C3)cc1
REMARK SMILES IDX 29 1 28 2 27 3 26 4 24 5 25 6 23 7 18 8 19 9 20 10 22 11
REMARK SMILES IDX 21 12 17 13 12 14 13 15 14 16 15 17 16 18 11 19 9 21 10 22
REMARK SMILES IDX 8 23 7 25 1 26 2 27 3 28 4 29 6 30 5 31 30 32 31 33 32 34
REMARK SMILES IDX 33 35 34 36 35 37 36 38 37 39 38 40 39 41 91 42 40 43 90 44
REMARK SMILES IDX 41 45 42 46 43 47 84 48 44 49 89 50 83 51 85 52 45 53 88 54
REMARK SMILES IDX 82 55 81 56 46 58 72 59 55 60 71 61 56 62 59 63 70 64 86 65
REMARK SMILES IDX 57 66 58 67 69 69 87 70 60 71 47 72 48 73 53 74 49 75 50 76
REMARK SMILES IDX 52 77 54 78 51 79 73 80 74 81 79 82 75 83 76 84 78 85 80 86
REMARK SMILES IDX 77 87 61 88 62 89 67 90 63 91 64 92 66 93 68 94 65 95
REMARK H PARENT 11 20 8 24 85 57 59 68
REMARK Flexibility Score: inf
ROOT
ATOM      1  O   UNL     1       2.520   5.027  -2.654  1.00  0.00    -0.376 OA
ENDROOT
BRANCH   1   2
ATOM      2  C   UNL     1       2.331   4.104  -1.611  1.00  0.00     0.202 C 
BRANCH   2   3
ATOM      3  C   UNL     1       0.930   3.965  -0.976  1.00  0.00     0.261 C 
BRANCH   3   4
ATOM      4  O   UNL     1      -0.305   5.053  -0.655  1.00  0.00    -0.460 OA
BRANCH   4   5
ATOM      5  C   UNL     1      -1.447   6.112  -0.376  1.00  0.00     0.338 C 
ATOM      6  O   UNL     1      -1.351   7.116  -1.047  1.00  0.00    -0.246 OA
BRANCH   5   7
ATOM      7  C   UNL     1      -3.101   5.743   0.519  1.00  0.00     0.066 A 
ATOM      8  C   UNL     1      -3.986   4.262   0.447  1.00  0.00     0.001 A 
ATOM      9  C   UNL     1      -5.380   4.375   0.255  1.00  0.00     0.008 A 
ATOM     10  C   UNL     1      -5.961   5.655   0.251  1.00  0.00     0.000 A 
ATOM     11  C   UNL     1      -3.838   6.925   0.628  1.00  0.00     0.016 A 
ATOM     12  C   UNL     1      -5.234   6.862   0.455  1.00  0.00     0.001 A 
BRANCH   8  13
ATOM     13  C   UNL     1      -3.363   2.456   0.318  1.00  0.00     0.197 C 
ATOM     14  N   UNL     1      -1.889   1.637   0.809  1.00  0.00    -0.236 N 
ATOM     15  C   UNL     1      -1.976   0.279   1.047  1.00  0.00     0.252 C 
ATOM     16  O   UNL     1      -1.107  -0.407   1.576  1.00  0.00    -0.272 OA
ATOM     17  C   UNL     1      -3.220  -0.288   0.427  1.00  0.00     0.174 C 
ATOM     18  S   UNL     1      -4.562   0.973   0.465  1.00  0.00    -0.120 SA
BRANCH  14  19
ATOM     19  N   UNL     1      -0.435   2.228   1.152  1.00  0.00    -0.270 N 
ATOM     20  H   UNL     1      -0.478   3.202   1.292  1.00  0.00     0.191 HD
BRANCH  19  21
ATOM     21  C   UNL     1       0.860   1.766   1.307  1.00  0.00     0.189 C 
ATOM     22  S   UNL     1       2.276   2.458   1.994  1.00  0.00    -0.039 S 
BRANCH  21  23
ATOM     23  N   UNL     1       1.507   1.042   0.417  1.00  0.00    -0.331 N 
ATOM     24  H   UNL     1       2.478   1.205   0.437  1.00  0.00     0.169 HD
BRANCH  23  25
ATOM     25  C   UNL     1       1.161   0.134  -0.513  1.00  0.00     0.043 A 
ATOM     26  C   UNL     1       3.307  -1.005  -0.041  1.00  0.00     0.046 C 
ATOM     27  C   UNL     1       1.852  -1.042  -0.403  1.00  0.00    -0.028 A 
ATOM     28  C   UNL     1       1.047  -2.154  -0.514  1.00  0.00     0.005 A 
ATOM     29  C   UNL     1      -0.222  -2.038  -1.117  1.00  0.00     0.000 A 
ATOM     30  C   UNL     1       0.045   0.279  -1.272  1.00  0.00     0.026 A 
ATOM     31  C   UNL     1      -0.642  -0.831  -1.661  1.00  0.00     0.002 A 
ENDBRANCH  23  25
ENDBRANCH  21  23
ENDBRANCH  19  21
ENDBRANCH  14  19
ENDBRANCH   8  13
ENDBRANCH   5   7
ENDBRANCH   4   5
ENDBRANCH   3   4
ENDBRANCH   2   3
ENDBRANCH   1   2
BRANCH   1  32
ATOM     32  C   UNL     1       1.435   5.907  -2.689  1.00  0.00     0.188 C 
BRANCH  32  33
ATOM     33  C   UNL     1       0.217   5.237  -3.238  1.00  0.00     0.188 C 
BRANCH  33  34
ATOM     34  O   UNL     1       0.114   3.812  -3.190  1.00  0.00    -0.376 OA
BRANCH  34  35
ATOM     35  C   UNL     1       0.591   2.901  -4.142  1.00  0.00     0.202 C 
BRANCH  35  36
ATOM     36  C   UNL     1       0.688   3.640  -5.416  1.00  0.00     0.261 C 
BRANCH  36  37
ATOM     37  O   UNL     1      -0.625   4.227  -5.861  1.00  0.00    -0.460 OA
BRANCH  37  38
ATOM     38  C   UNL     1      -1.710   4.845  -5.262  1.00  0.00     0.338 C 
ATOM     39  O   UNL     1      -2.052   5.945  -5.708  1.00  0.00    -0.246 OA
BRANCH  38  40
ATOM     40  C   UNL     1      -2.415   4.379  -3.977  1.00  0.00     0.060 A 
ATOM     41  C   UNL     1      -3.000   5.309  -3.182  1.00  0.00     0.016 A 
ATOM     42  C   UNL     1      -2.280   3.163  -3.315  1.00  0.00     0.016 A 
ATOM     43  C   UNL     1      -2.977   5.048  -1.785  1.00  0.00     0.010 A 
ATOM     44  C   UNL     1      -1.986   3.060  -1.840  1.00  0.00     0.010 A 
ATOM     45  C   UNL     1      -2.131   4.056  -0.854  1.00  0.00    -0.014 A 
BRANCH  45  46
ATOM     46  C   UNL     1      -1.527   4.296   1.048  1.00  0.00     0.031 A 
ATOM     47  C   UNL     1      -2.605   3.675   2.413  1.00  0.00     0.074 A 
ATOM     48  C   UNL     1      -0.213   5.125   1.564  1.00  0.00     0.049 A 
ATOM     49  N   UNL     1      -2.111   3.359   3.543  1.00  0.00    -0.248 NA
ATOM     50  C   UNL     1      -4.041   3.046   2.620  1.00  0.00     0.031 C 
ATOM     51  C   UNL     1       0.905   5.154   2.619  1.00  0.00     0.029 A 
ATOM     52  N   UNL     1       0.562   6.228   0.842  1.00  0.00    -0.354 N 
ATOM     53  C   UNL     1      -2.587   2.072   3.893  1.00  0.00     0.074 A 
ATOM     54  C   UNL     1      -3.892   1.970   3.402  1.00  0.00     0.031 C 
ATOM     55  C   UNL     1       1.782   6.207   2.596  1.00  0.00     0.029 A 
ATOM     56  C   UNL     1       1.315   7.103   1.608  1.00  0.00     0.049 A 
ATOM     57  H   UNL     1       0.526   6.314  -0.138  1.00  0.00     0.167 HD
ATOM     58  C   UNL     1      -1.682   1.234   4.448  1.00  0.00     0.037 A 
ATOM     59  C   UNL     1       0.891   8.370   1.827  1.00  0.00     0.037 A 
ATOM     60  C   UNL     1      -0.547   2.074   4.832  1.00  0.00     0.049 A 
ATOM     61  C   UNL     1       0.183   8.197   3.199  1.00  0.00     0.074 A 
ATOM     62  C   UNL     1       0.805   2.116   4.691  1.00  0.00     0.029 A 
ATOM     63  N   UNL     1      -0.859   3.322   5.344  1.00  0.00    -0.354 N 
ATOM     64  N   UNL     1      -0.539   7.137   3.558  1.00  0.00    -0.248 NA
ATOM     65  C   UNL     1       0.737   8.906   4.351  1.00  0.00     0.031 C 
ATOM     66  C   UNL     1       1.226   3.467   5.039  1.00  0.00     0.029 A 
ATOM     67  C   UNL     1       0.105   4.284   5.249  1.00  0.00     0.049 A 
ATOM     68  H   UNL     1      -1.733   3.506   5.758  1.00  0.00     0.167 HD
ATOM     69  C   UNL     1      -0.271   6.841   4.901  1.00  0.00     0.074 A 
ATOM     70  C   UNL     1       0.487   8.028   5.334  1.00  0.00     0.031 C 
ATOM     71  C   UNL     1      -0.302   5.661   5.652  1.00  0.00     0.037 A 
BRANCH  58  72
ATOM     72  C   UNL     1      -1.718  -0.277   4.585  1.00  0.00     0.057 A 
ATOM     73  C   UNL     1      -0.729  -0.848   5.400  1.00  0.00     0.134 A 
ATOM     74  C   UNL     1      -2.541  -1.232   3.940  1.00  0.00     0.134 A 
ATOM     75  F   UNL     1       0.103  -0.081   6.114  1.00  0.00    -0.206 F 
ATOM     76  C   UNL     1      -0.547  -2.223   5.567  1.00  0.00     0.040 A 
ATOM     77  C   UNL     1      -2.349  -2.631   4.073  1.00  0.00     0.040 A 
ATOM     78  F   UNL     1      -3.557  -0.869   3.144  1.00  0.00    -0.206 F 
ATOM     79  C   UNL     1      -1.354  -3.127   4.904  1.00  0.00     0.006 A 
ENDBRANCH  58  72
BRANCH  59  80
ATOM     80  C   UNL     1       0.532   9.042   0.520  1.00  0.00     0.057 A 
ATOM     81  C   UNL     1       1.441   8.986  -0.585  1.00  0.00     0.134 A 
ATOM     82  C   UNL     1      -0.772   9.392   0.201  1.00  0.00     0.134 A 
ATOM     83  F   UNL     1       2.736   8.677  -0.389  1.00  0.00    -0.206 F 
ATOM     84  C   UNL     1       1.021   9.038  -1.926  1.00  0.00     0.040 A 
ATOM     85  C   UNL     1      -1.204   9.480  -1.146  1.00  0.00     0.040 A 
ATOM     86  F   UNL     1      -1.706   9.350   1.160  1.00  0.00    -0.206 F 
ATOM     87  C   UNL     1      -0.327   9.193  -2.206  1.00  0.00     0.006 A 
ENDBRANCH  59  80
BRANCH  71  88
ATOM     88  C   UNL     1      -0.987   5.749   7.031  1.00  0.00     0.057 A 
ATOM     89  C   UNL     1      -1.372   6.960   7.609  1.00  0.00     0.134 A 
ATOM     90  C   UNL     1      -1.361   4.615   7.814  1.00  0.00     0.134 A 
ATOM     91  F   UNL     1      -1.361   8.121   6.943  1.00  0.00    -0.206 F 
ATOM     92  C   UNL     1      -1.852   7.050   8.912  1.00  0.00     0.040 A 
ATOM     93  C   UNL     1      -1.977   4.691   9.052  1.00  0.00     0.040 A 
ATOM     94  F   UNL     1      -1.207   3.336   7.460  1.00  0.00    -0.206 F 
ATOM     95  C   UNL     1      -2.158   5.915   9.640  1.00  0.00     0.006 A 
ENDBRANCH  71  88
ENDBRANCH  45  46
ENDBRANCH  38  40
ENDBRANCH  37  38
ENDBRANCH  36  37
ENDBRANCH  35  36
ENDBRANCH  34  35
ENDBRANCH  33  34
ENDBRANCH  32  33
ENDBRANCH   1  32
TORSDOF 22
