REMARK SMILES N#Cc1cc([N+](=O)[O-])cnc1Oc1csc(C(=O)OCCOCCOCCOC(=O)c2ccc(-c3c4nc(c(-c5c(F)cccc5F)c5ccc([nH]5)c(-c5c(F)cccc5F)c5nc(c(-c6c(F)cccc6F)c6ccc3[nH]6)C=C5)C=C4)cc2)c1
REMARK SMILES IDX 23 1 22 2 21 3 20 4 19 5 17 6 18 7 16 8 13 9 14 10 85 11
REMARK SMILES IDX 15 12 12 13 11 14 3 15 4 16 5 17 10 18 9 19 2 20 1 21 6 22
REMARK SMILES IDX 7 23 8 24 24 25 25 26 26 27 27 28 28 29 29 30 30 31 31 32
REMARK SMILES IDX 32 33 84 34 33 35 83 36 34 37 35 38 36 39 77 40 37 41 82 42
REMARK SMILES IDX 76 43 78 44 38 45 81 46 75 47 74 48 39 50 65 51 48 52 64 53
REMARK SMILES IDX 49 54 52 55 63 56 79 57 50 58 51 59 62 61 80 62 53 63 40 64
REMARK SMILES IDX 41 65 46 66 42 67 43 68 45 69 47 70 44 71 66 72 67 73 72 74
REMARK SMILES IDX 68 75 69 76 71 77 73 78 70 79 54 80 55 81 60 82 56 83 57 84
REMARK SMILES IDX 59 85 61 86 58 87
REMARK H PARENT 78 49 52 60
REMARK Flexibility Score: inf
ROOT
ATOM      1  C   UNL     1       6.387  -2.586  -1.905  1.00  0.00     0.188 C 
ENDROOT
BRANCH   1   2
ATOM      2  O   UNL     1       7.323  -3.447  -2.533  1.00  0.00    -0.376 OA
BRANCH   2   3
ATOM      3  C   UNL     1       6.897  -4.643  -3.168  1.00  0.00     0.202 C 
BRANCH   3   4
ATOM      4  C   UNL     1       5.791  -5.555  -2.597  1.00  0.00     0.261 C 
BRANCH   4   5
ATOM      5  O   UNL     1       4.677  -4.912  -1.963  1.00  0.00    -0.459 OA
BRANCH   5   6
ATOM      6  C   UNL     1       4.632  -4.980  -0.598  1.00  0.00     0.348 C 
ATOM      7  O   UNL     1       5.434  -5.600   0.089  1.00  0.00    -0.245 OA
BRANCH   6   8
ATOM      8  C   UNL     1       3.576  -4.111  -0.102  1.00  0.00     0.116 A 
ATOM      9  C   UNL     1       1.678  -2.748   0.055  1.00  0.00     0.141 A 
ATOM     10  C   UNL     1       2.275  -2.503   1.271  1.00  0.00     0.112 A 
ATOM     11  C   UNL     1       2.410  -3.696  -0.719  1.00  0.00     0.074 A 
ATOM     12  S   UNL     1       3.739  -3.383   1.444  1.00  0.00    -0.133 S 
BRANCH   9  13
ATOM     13  O   UNL     1       0.502  -2.249  -0.387  1.00  0.00    -0.437 OA
BRANCH  13  14
ATOM     14  C   UNL     1      -0.045  -1.031  -0.073  1.00  0.00     0.237 A 
ATOM     15  C   UNL     1       0.634   0.187  -0.105  1.00  0.00     0.121 A 
ATOM     16  C   UNL     1      -0.112   1.375  -0.015  1.00  0.00     0.112 A 
ATOM     17  C   UNL     1      -1.504   1.305   0.074  1.00  0.00     0.289 A 
ATOM     18  N   UNL     1      -1.401  -1.095   0.037  1.00  0.00    -0.213 NA
ATOM     19  C   UNL     1      -2.106   0.062   0.106  1.00  0.00     0.200 A 
BRANCH  15  20
ATOM     20  C   UNL     1       2.048   0.289  -0.284  1.00  0.00     0.105 C 
ATOM     21  N   UNL     1       3.193   0.402  -0.402  1.00  0.00    -0.192 NA
ENDBRANCH  15  20
BRANCH  17  22
ATOM     22  N   UNL     1      -2.322   2.510   0.091  1.00  0.00     0.064 N 
ATOM     23  O   UNL     1      -3.552   2.372   0.082  1.00  0.00    -0.258 OA
ATOM     24  O   UNL     1      -1.732   3.599   0.105  1.00  0.00    -0.258 OA
ENDBRANCH  17  22
ENDBRANCH  13  14
ENDBRANCH   9  13
ENDBRANCH   6   8
ENDBRANCH   5   6
ENDBRANCH   4   5
ENDBRANCH   3   4
ENDBRANCH   2   3
ENDBRANCH   1   2
BRANCH   1  25
ATOM     25  C   UNL     1       5.158  -2.078  -2.687  1.00  0.00     0.188 C 
BRANCH  25  26
ATOM     26  O   UNL     1       4.897  -2.775  -3.881  1.00  0.00    -0.376 OA
BRANCH  26  27
ATOM     27  C   UNL     1       5.388  -2.258  -5.108  1.00  0.00     0.202 C 
BRANCH  27  28
ATOM     28  C   UNL     1       6.583  -1.288  -5.260  1.00  0.00     0.261 C 
BRANCH  28  29
ATOM     29  O   UNL     1       7.170  -0.724  -4.082  1.00  0.00    -0.460 OA
BRANCH  29  30
ATOM     30  C   UNL     1       6.771   0.530  -3.763  1.00  0.00     0.338 C 
ATOM     31  O   UNL     1       5.945   1.211  -4.345  1.00  0.00    -0.246 OA
BRANCH  30  32
ATOM     32  C   UNL     1       7.372   0.917  -2.472  1.00  0.00     0.060 A 
ATOM     33  C   UNL     1       6.537   1.020  -1.354  1.00  0.00     0.016 A 
ATOM     34  C   UNL     1       8.721   1.260  -2.379  1.00  0.00     0.016 A 
ATOM     35  C   UNL     1       7.030   1.514  -0.149  1.00  0.00     0.010 A 
ATOM     36  C   UNL     1       9.213   1.775  -1.173  1.00  0.00     0.010 A 
ATOM     37  C   UNL     1       8.357   1.950  -0.068  1.00  0.00    -0.014 A 
BRANCH  37  38
ATOM     38  C   UNL     1       8.768   2.784   1.090  1.00  0.00     0.031 A 
ATOM     39  C   UNL     1       8.864   4.276   0.903  1.00  0.00     0.074 A 
ATOM     40  C   UNL     1       8.983   2.243   2.302  1.00  0.00     0.049 A 
ATOM     41  N   UNL     1       9.213   5.203   1.759  1.00  0.00    -0.248 NA
ATOM     42  C   UNL     1       8.522   4.791  -0.433  1.00  0.00     0.031 C 
ATOM     43  C   UNL     1       8.880   0.822   2.626  1.00  0.00     0.029 A 
ATOM     44  N   UNL     1       9.339   2.836   3.489  1.00  0.00    -0.354 N 
ATOM     45  C   UNL     1       9.131   6.405   1.066  1.00  0.00     0.074 A 
ATOM     46  C   UNL     1       8.753   6.087  -0.293  1.00  0.00     0.031 C 
ATOM     47  C   UNL     1       9.180   0.650   3.925  1.00  0.00     0.029 A 
ATOM     48  C   UNL     1       9.525   1.942   4.515  1.00  0.00     0.049 A 
ATOM     49  H   UNL     1       9.450   3.808   3.594  1.00  0.00     0.167 HD
ATOM     50  C   UNL     1       9.332   7.665   1.524  1.00  0.00     0.037 A 
ATOM     51  C   UNL     1       9.948   2.144   5.778  1.00  0.00     0.037 A 
ATOM     52  C   UNL     1       9.717   7.982   2.874  1.00  0.00     0.049 A 
ATOM     53  C   UNL     1      10.243   3.549   6.242  1.00  0.00     0.074 A 
ATOM     54  C   UNL     1       9.958   9.225   3.433  1.00  0.00     0.029 A 
ATOM     55  N   UNL     1       9.923   7.047   3.878  1.00  0.00    -0.354 N 
ATOM     56  N   UNL     1      10.155   4.679   5.583  1.00  0.00    -0.248 NA
ATOM     57  C   UNL     1      10.681   3.704   7.636  1.00  0.00     0.031 C 
ATOM     58  C   UNL     1      10.364   9.038   4.759  1.00  0.00     0.029 A 
ATOM     59  C   UNL     1      10.301   7.685   5.048  1.00  0.00     0.049 A 
ATOM     60  H   UNL     1       9.816   6.074   3.774  1.00  0.00     0.167 HD
ATOM     61  C   UNL     1      10.486   5.679   6.491  1.00  0.00     0.074 A 
ATOM     62  C   UNL     1      10.755   5.021   7.752  1.00  0.00     0.031 C 
ATOM     63  C   UNL     1      10.559   7.021   6.302  1.00  0.00     0.037 A 
BRANCH  50  64
ATOM     64  C   UNL     1       9.153   8.792   0.546  1.00  0.00     0.057 A 
ATOM     65  C   UNL     1       7.894   9.136   0.034  1.00  0.00     0.134 A 
ATOM     66  C   UNL     1      10.248   9.562   0.132  1.00  0.00     0.134 A 
ATOM     67  F   UNL     1       6.804   8.432   0.375  1.00  0.00    -0.206 F 
ATOM     68  C   UNL     1       7.736  10.186  -0.873  1.00  0.00     0.040 A 
ATOM     69  C   UNL     1      10.097  10.635  -0.748  1.00  0.00     0.040 A 
ATOM     70  F   UNL     1      11.481   9.291   0.586  1.00  0.00    -0.206 F 
ATOM     71  C   UNL     1       8.839  10.945  -1.259  1.00  0.00     0.006 A 
ENDBRANCH  50  64
BRANCH  51  72
ATOM     72  C   UNL     1      10.143   0.991   6.697  1.00  0.00     0.057 A 
ATOM     73  C   UNL     1       9.367   0.832   7.852  1.00  0.00     0.134 A 
ATOM     74  C   UNL     1      11.153   0.048   6.469  1.00  0.00     0.134 A 
ATOM     75  F   UNL     1       8.400   1.715   8.143  1.00  0.00    -0.206 F 
ATOM     76  C   UNL     1       9.610  -0.199   8.762  1.00  0.00     0.040 A 
ATOM     77  C   UNL     1      11.383  -1.009   7.351  1.00  0.00     0.040 A 
ATOM     78  F   UNL     1      11.933   0.140   5.381  1.00  0.00    -0.206 F 
ATOM     79  C   UNL     1      10.619  -1.126   8.509  1.00  0.00     0.006 A 
ENDBRANCH  51  72
BRANCH  63  80
ATOM     80  C   UNL     1      10.880   7.870   7.503  1.00  0.00     0.057 A 
ATOM     81  C   UNL     1      12.128   7.832   8.140  1.00  0.00     0.134 A 
ATOM     82  C   UNL     1       9.916   8.740   8.032  1.00  0.00     0.134 A 
ATOM     83  F   UNL     1      13.097   7.019   7.692  1.00  0.00    -0.206 F 
ATOM     84  C   UNL     1      12.386   8.584   9.289  1.00  0.00     0.040 A 
ATOM     85  C   UNL     1      10.176   9.527   9.155  1.00  0.00     0.040 A 
ATOM     86  F   UNL     1       8.705   8.845   7.465  1.00  0.00    -0.206 F 
ATOM     87  C   UNL     1      11.409   9.437   9.797  1.00  0.00     0.006 A 
ENDBRANCH  63  80
ENDBRANCH  37  38
ENDBRANCH  30  32
ENDBRANCH  29  30
ENDBRANCH  28  29
ENDBRANCH  27  28
ENDBRANCH  26  27
ENDBRANCH  25  26
ENDBRANCH   1  25
TORSDOF 21
