REMARK SMILES C[C@@H](CCC(=O)OCCOCCOCCOC(=O)c1ccc(-c2c3nc(c(-c4c(F)cccc4F)c4ccc([nH]4)c(-c4c(F)cccc4F)c4nc(c(-c5c(F)cccc5F)c5ccc2[nH]5)C=C4)C=C3)cc1)[C@@H]1CC[C@@H]2[C@H]3CC[C@@H]4CC(=O)CC[C@]4(C)[C@@H]3CC(=O)[C@]21C
REMARK SMILES IDX 11 1 10 2 9 3 8 4 7 5 5 6 6 7 4 8 3 9 2 10 1 11 73 12 74 13
REMARK SMILES IDX 92 14 75 15 76 16 90 17 93 18 77 19 89 20 91 21 78 22 88 23
REMARK SMILES IDX 79 24 86 25 80 26 85 27 87 28 81 29 84 30 82 31 83 32 12 33
REMARK SMILES IDX 13 34 14 35 15 36 16 37 17 38 18 39 19 40 20 41 72 42 21 43
REMARK SMILES IDX 71 44 22 45 23 46 24 47 65 48 25 49 70 50 64 51 66 52 26 53
REMARK SMILES IDX 69 54 63 55 62 56 27 58 53 59 36 60 52 61 37 62 40 63 51 64
REMARK SMILES IDX 67 65 38 66 39 67 50 69 68 70 41 71 28 72 29 73 34 74 30 75
REMARK SMILES IDX 31 76 33 77 35 78 32 79 54 80 55 81 60 82 56 83 57 84 59 85
REMARK SMILES IDX 61 86 58 87 42 88 43 89 48 90 44 91 45 92 47 93 49 94 46 95
REMARK H PARENT 66 57 40 68
REMARK Flexibility Score: inf
ROOT
ATOM      1  C   UNL     1      -2.995   1.641   4.754  1.00  0.00     0.188 C 
ENDROOT
BRANCH   1   2
ATOM      2  O   UNL     1      -3.964   2.110   3.825  1.00  0.00    -0.376 OA
BRANCH   2   3
ATOM      3  C   UNL     1      -3.785   1.838   2.439  1.00  0.00     0.202 C 
BRANCH   3   4
ATOM      4  C   UNL     1      -2.707   2.652   1.719  1.00  0.00     0.261 C 
BRANCH   4   5
ATOM      5  O   UNL     1      -1.457   1.936   1.591  1.00  0.00    -0.463 OA
BRANCH   5   6
ATOM      6  C   UNL     1      -0.426   2.305   2.380  1.00  0.00     0.305 C 
ATOM      7  O   UNL     1      -0.484   3.186   3.228  1.00  0.00    -0.252 OA
BRANCH   6   8
ATOM      8  C   UNL     1       0.862   1.572   2.043  1.00  0.00     0.123 C 
BRANCH   8   9
ATOM      9  C   UNL     1       0.885   0.028   2.102  1.00  0.00     0.015 C 
BRANCH   9  10
ATOM     10  C   UNL     1       0.717  -0.878   0.822  1.00  0.00    -0.010 C 
ATOM     11  C   UNL     1       0.986  -0.048  -0.445  1.00  0.00     0.008 C 
BRANCH  10  12
ATOM     12  C   UNL     1      -0.591  -1.751   0.626  1.00  0.00     0.005 C 
ATOM     13  C   UNL     1      -1.828  -0.855   0.756  1.00  0.00     0.005 C 
ATOM     14  C   UNL     1      -0.970  -2.958   1.569  1.00  0.00     0.032 C 
ATOM     15  C   UNL     1      -3.039  -1.752   0.884  1.00  0.00     0.005 C 
ATOM     16  C   UNL     1      -2.479  -3.130   1.192  1.00  0.00     0.006 C 
ATOM     17  C   UNL     1      -0.496  -4.395   1.324  1.00  0.00     0.139 C 
ATOM     18  C   UNL     1      -0.507  -2.665   2.987  1.00  0.00     0.020 C 
ATOM     19  C   UNL     1      -3.331  -4.029   2.103  1.00  0.00    -0.003 C 
ATOM     20  C   UNL     1      -1.193  -5.495   2.199  1.00  0.00     0.080 C 
ATOM     21  O   UNL     1       0.398  -4.666   0.526  1.00  0.00    -0.299 OA
ATOM     22  C   UNL     1      -4.792  -4.093   1.613  1.00  0.00     0.004 C 
ATOM     23  C   UNL     1      -2.745  -5.460   2.146  1.00  0.00     0.006 C 
ATOM     24  C   UNL     1      -5.657  -5.112   2.350  1.00  0.00     0.005 C 
ATOM     25  C   UNL     1      -3.585  -6.437   3.112  1.00  0.00    -0.025 C 
ATOM     26  C   UNL     1      -5.010  -6.511   2.488  1.00  0.00     0.002 C 
ATOM     27  C   UNL     1      -3.719  -6.045   4.616  1.00  0.00     0.015 C 
ATOM     28  C   UNL     1      -2.889  -7.819   3.110  1.00  0.00     0.012 C 
ATOM     29  C   UNL     1      -5.931  -7.460   3.255  1.00  0.00     0.079 C 
ATOM     30  C   UNL     1      -5.075  -6.182   5.337  1.00  0.00     0.076 C 
ATOM     31  C   UNL     1      -6.151  -6.997   4.666  1.00  0.00     0.133 C 
ATOM     32  O   UNL     1      -7.197  -7.267   5.261  1.00  0.00    -0.300 OA
ENDBRANCH  10  12
ENDBRANCH   9  10
ENDBRANCH   8   9
ENDBRANCH   6   8
ENDBRANCH   5   6
ENDBRANCH   4   5
ENDBRANCH   3   4
ENDBRANCH   2   3
ENDBRANCH   1   2
BRANCH   1  33
ATOM     33  C   UNL     1      -2.467   0.216   4.585  1.00  0.00     0.188 C 
BRANCH  33  34
ATOM     34  O   UNL     1      -3.353  -0.745   4.021  1.00  0.00    -0.376 OA
BRANCH  34  35
ATOM     35  C   UNL     1      -4.620  -0.894   4.650  1.00  0.00     0.202 C 
BRANCH  35  36
ATOM     36  C   UNL     1      -4.739  -2.236   5.362  1.00  0.00     0.261 C 
BRANCH  36  37
ATOM     37  O   UNL     1      -3.785  -2.327   6.422  1.00  0.00    -0.460 OA
BRANCH  37  38
ATOM     38  C   UNL     1      -2.589  -2.857   6.096  1.00  0.00     0.338 C 
ATOM     39  O   UNL     1      -2.227  -3.349   5.048  1.00  0.00    -0.246 OA
BRANCH  38  40
ATOM     40  C   UNL     1      -1.663  -2.639   7.186  1.00  0.00     0.060 A 
ATOM     41  C   UNL     1      -0.365  -2.197   6.888  1.00  0.00     0.016 A 
ATOM     42  C   UNL     1      -2.130  -2.802   8.485  1.00  0.00     0.016 A 
ATOM     43  C   UNL     1       0.464  -1.825   7.927  1.00  0.00     0.010 A 
ATOM     44  C   UNL     1      -1.316  -2.406   9.514  1.00  0.00     0.010 A 
ATOM     45  C   UNL     1      -0.033  -1.908   9.229  1.00  0.00    -0.014 A 
BRANCH  45  46
ATOM     46  C   UNL     1       0.778  -1.532  10.383  1.00  0.00     0.031 A 
ATOM     47  C   UNL     1       1.269  -2.640  11.248  1.00  0.00     0.074 A 
ATOM     48  C   UNL     1       0.850  -0.232  10.702  1.00  0.00     0.049 A 
ATOM     49  N   UNL     1       1.728  -2.592  12.464  1.00  0.00    -0.248 NA
ATOM     50  C   UNL     1       1.159  -3.999  10.685  1.00  0.00     0.031 C 
ATOM     51  C   UNL     1       0.332   0.872   9.888  1.00  0.00     0.029 A 
ATOM     52  N   UNL     1       1.335   0.373  11.822  1.00  0.00    -0.354 N 
ATOM     53  C   UNL     1       1.933  -3.914  12.826  1.00  0.00     0.074 A 
ATOM     54  C   UNL     1       1.501  -4.743  11.724  1.00  0.00     0.031 C 
ATOM     55  C   UNL     1       0.516   2.026  10.550  1.00  0.00     0.029 A 
ATOM     56  C   UNL     1       1.122   1.728  11.841  1.00  0.00     0.049 A 
ATOM     57  H   UNL     1       1.793  -0.113  12.546  1.00  0.00     0.167 HD
ATOM     58  C   UNL     1       2.450  -4.376  13.986  1.00  0.00     0.037 A 
ATOM     59  C   UNL     1       1.375   2.609  12.823  1.00  0.00     0.037 A 
ATOM     60  C   UNL     1       2.857  -3.497  15.047  1.00  0.00     0.049 A 
ATOM     61  C   UNL     1       1.971   2.071  14.094  1.00  0.00     0.074 A 
ATOM     62  C   UNL     1       3.438  -3.808  16.259  1.00  0.00     0.029 A 
ATOM     63  N   UNL     1       2.716  -2.113  15.007  1.00  0.00    -0.354 N 
ATOM     64  N   UNL     1       2.224   0.824  14.424  1.00  0.00    -0.248 NA
ATOM     65  C   UNL     1       2.327   3.053  15.121  1.00  0.00     0.031 C 
ATOM     66  C   UNL     1       3.617  -2.614  16.967  1.00  0.00     0.029 A 
ATOM     67  C   UNL     1       3.195  -1.553  16.176  1.00  0.00     0.049 A 
ATOM     68  H   UNL     1       2.332  -1.606  14.255  1.00  0.00     0.167 HD
ATOM     69  C   UNL     1       2.800   0.871  15.684  1.00  0.00     0.074 A 
ATOM     70  C   UNL     1       2.868   2.275  16.049  1.00  0.00     0.031 C 
ATOM     71  C   UNL     1       3.239  -0.142  16.474  1.00  0.00     0.037 A 
BRANCH  58  72
ATOM     72  C   UNL     1       2.574  -5.863  14.137  1.00  0.00     0.057 A 
ATOM     73  C   UNL     1       3.443  -6.620  13.336  1.00  0.00     0.134 A 
ATOM     74  C   UNL     1       1.789  -6.558  15.065  1.00  0.00     0.134 A 
ATOM     75  F   UNL     1       4.204  -6.022  12.406  1.00  0.00    -0.206 F 
ATOM     76  C   UNL     1       3.501  -8.011  13.427  1.00  0.00     0.040 A 
ATOM     77  C   UNL     1       1.861  -7.948  15.187  1.00  0.00     0.040 A 
ATOM     78  F   UNL     1       0.928  -5.903  15.857  1.00  0.00    -0.206 F 
ATOM     79  C   UNL     1       2.711  -8.679  14.359  1.00  0.00     0.006 A 
ENDBRANCH  58  72
BRANCH  59  80
ATOM     80  C   UNL     1       1.119   4.055  12.617  1.00  0.00     0.057 A 
ATOM     81  C   UNL     1       2.184   4.951  12.470  1.00  0.00     0.134 A 
ATOM     82  C   UNL     1      -0.177   4.576  12.525  1.00  0.00     0.134 A 
ATOM     83  F   UNL     1       3.449   4.513  12.551  1.00  0.00    -0.206 F 
ATOM     84  C   UNL     1       1.972   6.315  12.262  1.00  0.00     0.040 A 
ATOM     85  C   UNL     1      -0.404   5.935  12.294  1.00  0.00     0.040 A 
ATOM     86  F   UNL     1      -1.242   3.768  12.634  1.00  0.00    -0.206 F 
ATOM     87  C   UNL     1       0.673   6.810  12.169  1.00  0.00     0.006 A 
ENDBRANCH  59  80
BRANCH  71  88
ATOM     88  C   UNL     1       3.865   0.255  17.775  1.00  0.00     0.057 A 
ATOM     89  C   UNL     1       3.102   0.736  18.846  1.00  0.00     0.134 A 
ATOM     90  C   UNL     1       5.246   0.118  17.964  1.00  0.00     0.134 A 
ATOM     91  F   UNL     1       1.777   0.901  18.718  1.00  0.00    -0.206 F 
ATOM     92  C   UNL     1       3.698   1.094  20.054  1.00  0.00     0.040 A 
ATOM     93  C   UNL     1       5.847   0.443  19.177  1.00  0.00     0.040 A 
ATOM     94  F   UNL     1       6.026  -0.348  16.977  1.00  0.00    -0.206 F 
ATOM     95  C   UNL     1       5.073   0.940  20.224  1.00  0.00     0.006 A 
ENDBRANCH  71  88
ENDBRANCH  45  46
ENDBRANCH  38  40
ENDBRANCH  37  38
ENDBRANCH  36  37
ENDBRANCH  35  36
ENDBRANCH  34  35
ENDBRANCH  33  34
ENDBRANCH   1  33
TORSDOF 20
