REMARK SMILES COCC[C@H]([NH3+])C(=O)N1CC(n2cc(C(=O)OCCOCCOCCOC(=O)c3ccc(-c4c5nc(c(-c6c(F)cccc6F)c6ccc([nH]6)c(-c6c(F)cccc6F)c6nc(c(-c7c(F)cccc7F)c7ccc4[nH]7)C=C6)C=C5)cc3)nn2)C1
REMARK SMILES IDX 20 1 19 2 18 3 17 4 15 5 16 6 14 7 12 8 13 9 84 10 83 11
REMARK SMILES IDX 11 12 7 13 8 14 9 15 10 16 85 17 5 18 4 19 3 20 2 21 1 22
REMARK SMILES IDX 6 23 21 27 22 28 23 29 24 30 25 31 26 32 27 33 28 34 29 35
REMARK SMILES IDX 30 36 82 37 31 38 81 39 32 40 33 41 34 42 75 43 35 44 80 45
REMARK SMILES IDX 74 46 76 47 36 48 79 49 73 50 72 51 37 53 63 54 46 55 62 56
REMARK SMILES IDX 47 57 50 58 61 59 77 60 48 61 49 62 60 64 78 65 51 66 38 67
REMARK SMILES IDX 39 68 44 69 40 70 41 71 43 72 45 73 42 74 64 75 65 76 70 77
REMARK SMILES IDX 66 78 67 79 69 80 71 81 68 82 52 83 53 84 58 85 54 86 55 87
REMARK SMILES IDX 57 88 59 89 56 90
REMARK H PARENT 6 24 6 25 6 26 76 52 50 63
REMARK Flexibility Score: inf
ROOT
ATOM      1  O   UNL     1       1.313 -13.844   3.344  1.00  0.00    -0.376 OA
ENDROOT
BRANCH   1   2
ATOM      2  C   UNL     1       1.235 -13.330   4.668  1.00  0.00     0.202 C 
BRANCH   2   3
ATOM      3  C   UNL     1       1.924 -12.015   5.082  1.00  0.00     0.261 C 
BRANCH   3   4
ATOM      4  O   UNL     1       1.633 -10.882   4.253  1.00  0.00    -0.458 OA
BRANCH   4   5
ATOM      5  C   UNL     1       2.671 -10.379   3.522  1.00  0.00     0.360 C 
ATOM      6  O   UNL     1       3.837 -10.750   3.639  1.00  0.00    -0.244 OA
BRANCH   5   7
ATOM      7  C   UNL     1       2.234  -9.436   2.504  1.00  0.00     0.190 A 
ATOM      8  N   UNL     1       1.140  -8.056   1.235  1.00  0.00    -0.245 N 
ATOM      9  C   UNL     1       1.040  -8.744   2.411  1.00  0.00     0.147 A 
ATOM     10  N   UNL     1       2.309  -8.304   0.626  1.00  0.00    -0.066 NA
ATOM     11  N   UNL     1       2.987  -9.151   1.388  1.00  0.00    -0.123 NA
BRANCH   8  12
ATOM     12  C   UNL     1       0.172  -7.099   0.794  1.00  0.00     0.148 C 
ATOM     13  C   UNL     1       0.322  -3.979  -0.593  1.00  0.00     0.280 C 
ATOM     14  O   UNL     1       0.028  -3.854  -1.786  1.00  0.00    -0.268 OA
ATOM     15  N   UNL     1       0.324  -5.210  -0.001  1.00  0.00    -0.333 N 
ATOM     16  C   UNL     1       0.347  -6.529  -0.621  1.00  0.00     0.149 C 
ATOM     17  C   UNL     1       0.558  -5.707   1.334  1.00  0.00     0.149 C 
BRANCH  13  18
ATOM     18  C   UNL     1       0.812  -2.747   0.208  1.00  0.00     0.273 C 
BRANCH  18  19
ATOM     19  C   UNL     1       2.273  -2.392  -0.128  1.00  0.00     0.104 C 
BRANCH  19  20
ATOM     20  C   UNL     1       3.289  -3.535  -0.045  1.00  0.00     0.166 C 
BRANCH  20  21
ATOM     21  O   UNL     1       3.997  -3.732  -1.272  1.00  0.00    -0.384 OA
ATOM     22  C   UNL     1       3.188  -4.224  -2.336  1.00  0.00     0.194 C 
ENDBRANCH  20  21
ENDBRANCH  19  20
ENDBRANCH  18  19
BRANCH  18  23
ATOM     23  N   UNL     1       0.588  -2.854   1.665  1.00  0.00    -0.347 N 
ATOM     24  H   UNL     1       1.149  -3.619   2.040  1.00  0.00     0.345 HD
ATOM     25  H   UNL     1      -0.399  -3.037   1.845  1.00  0.00     0.345 HD
ATOM     26  H   UNL     1       0.860  -1.980   2.115  1.00  0.00     0.345 HD
ENDBRANCH  18  23
ENDBRANCH  13  18
ENDBRANCH   8  12
ENDBRANCH   5   7
ENDBRANCH   4   5
ENDBRANCH   3   4
ENDBRANCH   2   3
ENDBRANCH   1   2
BRANCH   1  27
ATOM     27  C   UNL     1       1.175 -12.983   2.225  1.00  0.00     0.188 C 
BRANCH  27  28
ATOM     28  C   UNL     1      -0.078 -12.098   2.072  1.00  0.00     0.188 C 
BRANCH  28  29
ATOM     29  O   UNL     1      -0.719 -11.732   3.273  1.00  0.00    -0.376 OA
BRANCH  29  30
ATOM     30  C   UNL     1      -1.889 -12.392   3.735  1.00  0.00     0.202 C 
BRANCH  30  31
ATOM     31  C   UNL     1      -2.302 -13.820   3.370  1.00  0.00     0.261 C 
BRANCH  31  32
ATOM     32  O   UNL     1      -1.560 -14.468   2.359  1.00  0.00    -0.460 OA
BRANCH  32  33
ATOM     33  C   UNL     1      -2.061 -14.294   1.120  1.00  0.00     0.338 C 
ATOM     34  O   UNL     1      -2.862 -13.447   0.762  1.00  0.00    -0.246 OA
BRANCH  33  35
ATOM     35  C   UNL     1      -1.549 -15.357   0.256  1.00  0.00     0.060 A 
ATOM     36  C   UNL     1      -1.710 -15.187  -1.119  1.00  0.00     0.016 A 
ATOM     37  C   UNL     1      -1.206 -16.592   0.826  1.00  0.00     0.016 A 
ATOM     38  C   UNL     1      -1.733 -16.312  -1.910  1.00  0.00     0.010 A 
ATOM     39  C   UNL     1      -1.245 -17.716   0.037  1.00  0.00     0.010 A 
ATOM     40  C   UNL     1      -1.596 -17.566  -1.301  1.00  0.00    -0.014 A 
BRANCH  40  41
ATOM     41  C   UNL     1      -1.818 -18.733  -2.125  1.00  0.00     0.031 A 
ATOM     42  C   UNL     1      -0.704 -19.024  -3.040  1.00  0.00     0.074 A 
ATOM     43  C   UNL     1      -2.919 -19.497  -2.009  1.00  0.00     0.049 A 
ATOM     44  N   UNL     1      -0.699 -18.916  -4.325  1.00  0.00    -0.248 NA
ATOM     45  C   UNL     1       0.606 -19.334  -2.449  1.00  0.00     0.031 C 
ATOM     46  C   UNL     1      -3.921 -19.449  -0.939  1.00  0.00     0.029 A 
ATOM     47  N   UNL     1      -3.328 -20.548  -2.776  1.00  0.00    -0.354 N 
ATOM     48  C   UNL     1       0.552 -19.367  -4.722  1.00  0.00     0.074 A 
ATOM     49  C   UNL     1       1.368 -19.426  -3.539  1.00  0.00     0.031 C 
ATOM     50  C   UNL     1      -4.696 -20.555  -1.008  1.00  0.00     0.029 A 
ATOM     51  C   UNL     1      -4.339 -21.303  -2.202  1.00  0.00     0.049 A 
ATOM     52  H   UNL     1      -2.939 -20.752  -3.658  1.00  0.00     0.167 HD
ATOM     53  C   UNL     1       0.714 -19.949  -5.938  1.00  0.00     0.037 A 
ATOM     54  C   UNL     1      -4.826 -22.482  -2.654  1.00  0.00     0.037 A 
ATOM     55  C   UNL     1      -0.411 -19.696  -6.800  1.00  0.00     0.049 A 
ATOM     56  C   UNL     1      -4.497 -22.604  -4.091  1.00  0.00     0.074 A 
ATOM     57  C   UNL     1      -0.859 -18.666  -7.594  1.00  0.00     0.029 A 
ATOM     58  N   UNL     1      -1.458 -20.558  -6.614  1.00  0.00    -0.354 N 
ATOM     59  N   UNL     1      -5.039 -21.867  -5.019  1.00  0.00    -0.248 NA
ATOM     60  C   UNL     1      -3.308 -23.346  -4.501  1.00  0.00     0.031 C 
ATOM     61  C   UNL     1      -2.258 -18.878  -7.777  1.00  0.00     0.029 A 
ATOM     62  C   UNL     1      -2.627 -20.034  -7.095  1.00  0.00     0.049 A 
ATOM     63  H   UNL     1      -1.379 -21.442  -6.189  1.00  0.00     0.167 HD
ATOM     64  C   UNL     1      -4.042 -21.719  -5.961  1.00  0.00     0.074 A 
ATOM     65  C   UNL     1      -3.090 -22.787  -5.694  1.00  0.00     0.031 C 
ATOM     66  C   UNL     1      -3.900 -20.552  -6.649  1.00  0.00     0.037 A 
BRANCH  53  67
ATOM     67  C   UNL     1       1.618 -21.131  -6.189  1.00  0.00     0.057 A 
ATOM     68  C   UNL     1       1.840 -21.547  -7.512  1.00  0.00     0.134 A 
ATOM     69  C   UNL     1       2.007 -22.053  -5.195  1.00  0.00     0.134 A 
ATOM     70  F   UNL     1       1.487 -20.767  -8.546  1.00  0.00    -0.206 F 
ATOM     71  C   UNL     1       2.357 -22.810  -7.823  1.00  0.00     0.040 A 
ATOM     72  C   UNL     1       2.575 -23.294  -5.493  1.00  0.00     0.040 A 
ATOM     73  F   UNL     1       1.761 -21.854  -3.894  1.00  0.00    -0.206 F 
ATOM     74  C   UNL     1       2.723 -23.690  -6.812  1.00  0.00     0.006 A 
ENDBRANCH  53  67
BRANCH  54  75
ATOM     75  C   UNL     1      -5.407 -23.600  -1.885  1.00  0.00     0.057 A 
ATOM     76  C   UNL     1      -6.240 -24.548  -2.493  1.00  0.00     0.134 A 
ATOM     77  C   UNL     1      -4.942 -23.913  -0.597  1.00  0.00     0.134 A 
ATOM     78  F   UNL     1      -6.705 -24.349  -3.735  1.00  0.00    -0.206 F 
ATOM     79  C   UNL     1      -6.568 -25.756  -1.868  1.00  0.00     0.040 A 
ATOM     80  C   UNL     1      -5.267 -25.113   0.042  1.00  0.00     0.040 A 
ATOM     81  F   UNL     1      -4.085 -23.104   0.044  1.00  0.00    -0.206 F 
ATOM     82  C   UNL     1      -6.071 -26.047  -0.601  1.00  0.00     0.006 A 
ENDBRANCH  54  75
BRANCH  66  83
ATOM     83  C   UNL     1      -5.110 -19.682  -6.769  1.00  0.00     0.057 A 
ATOM     84  C   UNL     1      -5.699 -19.001  -5.696  1.00  0.00     0.134 A 
ATOM     85  C   UNL     1      -5.668 -19.487  -8.036  1.00  0.00     0.134 A 
ATOM     86  F   UNL     1      -5.184 -19.075  -4.461  1.00  0.00    -0.206 F 
ATOM     87  C   UNL     1      -6.827 -18.194  -5.874  1.00  0.00     0.040 A 
ATOM     88  C   UNL     1      -6.773 -18.659  -8.233  1.00  0.00     0.040 A 
ATOM     89  F   UNL     1      -5.127 -20.080  -9.112  1.00  0.00    -0.206 F 
ATOM     90  C   UNL     1      -7.364 -18.019  -7.147  1.00  0.00     0.006 A 
ENDBRANCH  66  83
ENDBRANCH  40  41
ENDBRANCH  33  35
ENDBRANCH  32  33
ENDBRANCH  31  32
ENDBRANCH  30  31
ENDBRANCH  29  30
ENDBRANCH  28  29
ENDBRANCH  27  28
ENDBRANCH   1  27
TORSDOF 23
