REMARK SMILES Cc1oc2c(C)c3oc(=O)c(CCC(=O)N[C@H](Cc4ccc(Cl)cc4)C(=O)OCCOCCOCCOC(=O)c4ccc(-c5c6nc(c(-c7c(F)cccc7F)c7ccc([nH]7)c(-c7c(F)cccc7F)c7nc(c(-c8c(F)cccc8F)c8ccc5[nH]8)C=C7)C=C6)cc4)c(C)c3cc2c1C
REMARK SMILES IDX 32 1 31 2 30 3 29 4 28 5 26 6 27 7 17 8 16 9 14 10 15 11
REMARK SMILES IDX 13 13 12 14 11 15 1 16 2 17 3 18 99 19 4 20 98 21 100 22
REMARK SMILES IDX 5 23 97 24 6 25 7 26 96 27 8 28 94 29 9 30 95 31 10 32 18 33
REMARK SMILES IDX 19 34 20 35 25 36 21 37 24 38 22 39 23 40 33 41 34 42 35 43
REMARK SMILES IDX 36 44 37 45 38 46 39 47 40 48 41 49 93 50 42 51 92 52 43 53
REMARK SMILES IDX 44 54 45 55 86 56 46 57 91 58 85 59 87 60 47 61 90 62 84 63
REMARK SMILES IDX 83 64 48 66 74 67 57 68 73 69 58 70 61 71 72 72 88 73 59 74
REMARK SMILES IDX 60 75 71 77 89 78 62 79 49 80 50 81 55 82 51 83 52 84 54 85
REMARK SMILES IDX 56 86 53 87 75 88 76 89 81 90 77 91 78 92 80 93 82 94 79 95
REMARK SMILES IDX 63 96 64 97 69 98 65 99 66 100 68 101 70 102 67 103
REMARK H PARENT 16 12 87 65 61 76
REMARK Flexibility Score: inf
ROOT
ATOM      1  C   UNL     1       2.392   6.205   7.390  1.00  0.00     0.188 C 
ENDROOT
BRANCH   1   2
ATOM      2  O   UNL     1       2.334   4.783   7.397  1.00  0.00    -0.376 OA
BRANCH   2   3
ATOM      3  C   UNL     1       2.181   4.144   6.127  1.00  0.00     0.202 C 
BRANCH   3   4
ATOM      4  C   UNL     1       0.830   4.409   5.414  1.00  0.00     0.261 C 
BRANCH   4   5
ATOM      5  O   UNL     1       0.941   4.984   4.070  1.00  0.00    -0.462 OA
BRANCH   5   6
ATOM      6  C   UNL     1       0.168   6.031   3.624  1.00  0.00     0.329 C 
ATOM      7  O   UNL     1      -0.399   6.801   4.392  1.00  0.00    -0.250 OA
BRANCH   6   8
ATOM      8  C   UNL     1       0.011   6.055   1.972  1.00  0.00     0.196 C 
BRANCH   8   9
ATOM      9  N   UNL     1       0.077   4.650   1.517  1.00  0.00    -0.342 N 
ATOM     10  C   UNL     1       0.949   3.627   1.528  1.00  0.00     0.221 C 
ATOM     11  O   UNL     1       0.506   2.650   0.896  1.00  0.00    -0.275 OA
ATOM     12  H   UNL     1      -0.763   4.386   1.078  1.00  0.00     0.164 HD
BRANCH  10  13
ATOM     13  C   UNL     1       2.254   3.404   2.333  1.00  0.00     0.105 C 
BRANCH  13  14
ATOM     14  C   UNL     1       3.522   4.245   2.719  1.00  0.00     0.053 C 
BRANCH  14  15
ATOM     15  C   UNL     1       3.533   5.743   3.013  1.00  0.00     0.042 A 
ATOM     16  C   UNL     1       0.768  13.593   1.970  1.00  0.00     0.088 C 
ATOM     17  C   UNL     1       1.058  12.245   2.512  1.00  0.00     0.105 A 
ATOM     18  O   UNL     1       2.300  12.053   3.049  1.00  0.00    -0.461 OA
ATOM     19  C   UNL     1       0.364  11.049   2.446  1.00  0.00    -0.002 A 
ATOM     20  C   UNL     1       2.480  10.705   3.205  1.00  0.00     0.141 A 
ATOM     21  C   UNL     1       1.295  10.061   2.923  1.00  0.00     0.025 A 
ATOM     22  C   UNL     1      -0.942  10.847   1.749  1.00  0.00     0.049 C 
ATOM     23  C   UNL     1       3.688  10.037   3.502  1.00  0.00     0.036 A 
ATOM     24  C   UNL     1       1.326   8.653   2.913  1.00  0.00     0.024 A 
ATOM     25  C   UNL     1       4.913  10.827   3.804  1.00  0.00     0.052 C 
ATOM     26  C   UNL     1       3.682   8.625   3.297  1.00  0.00     0.145 A 
ATOM     27  C   UNL     1       2.555   7.939   2.876  1.00  0.00     0.022 A 
ATOM     28  O   UNL     1       4.861   7.838   3.429  1.00  0.00    -0.422 OA
ATOM     29  C   UNL     1       2.794   6.573   2.275  1.00  0.00    -0.030 A 
ATOM     30  C   UNL     1       4.855   6.419   3.318  1.00  0.00     0.339 A 
ATOM     31  C   UNL     1       2.981   6.199   0.788  1.00  0.00     0.046 C 
ATOM     32  O   UNL     1       5.896   5.768   3.345  1.00  0.00    -0.246 OA
ENDBRANCH  14  15
ENDBRANCH  13  14
ENDBRANCH  10  13
ENDBRANCH   8   9
BRANCH   8  33
ATOM     33  C   UNL     1       0.171   7.127   0.581  1.00  0.00     0.072 C 
BRANCH  33  34
ATOM     34  C   UNL     1       0.864   8.430  -0.064  1.00  0.00    -0.045 A 
ATOM     35  C   UNL     1       0.184   9.060  -1.130  1.00  0.00     0.005 A 
ATOM     36  C   UNL     1       2.122   9.040   0.152  1.00  0.00     0.005 A 
ATOM     37  C   UNL     1       0.666  10.232  -1.784  1.00  0.00     0.021 A 
ATOM     38  C   UNL     1       2.604  10.226  -0.436  1.00  0.00     0.021 A 
ATOM     39  C   UNL     1       1.855  10.838  -1.402  1.00  0.00     0.041 A 
ATOM     40  Cl  UNL     1       2.409  12.296  -2.117  1.00  0.00    -0.084 Cl
ENDBRANCH  33  34
ENDBRANCH   8  33
ENDBRANCH   6   8
ENDBRANCH   5   6
ENDBRANCH   4   5
ENDBRANCH   3   4
ENDBRANCH   2   3
ENDBRANCH   1   2
BRANCH   1  41
ATOM     41  C   UNL     1       3.169   6.825   6.242  1.00  0.00     0.188 C 
BRANCH  41  42
ATOM     42  O   UNL     1       4.465   6.341   5.945  1.00  0.00    -0.376 OA
BRANCH  42  43
ATOM     43  C   UNL     1       5.361   6.018   6.990  1.00  0.00     0.202 C 
BRANCH  43  44
ATOM     44  C   UNL     1       5.817   7.143   7.924  1.00  0.00     0.261 C 
BRANCH  44  45
ATOM     45  O   UNL     1       4.909   8.254   8.010  1.00  0.00    -0.460 OA
BRANCH  45  46
ATOM     46  C   UNL     1       5.282   9.291   7.227  1.00  0.00     0.338 C 
ATOM     47  O   UNL     1       6.278   9.337   6.509  1.00  0.00    -0.246 OA
BRANCH  46  48
ATOM     48  C   UNL     1       4.425  10.474   7.394  1.00  0.00     0.060 A 
ATOM     49  C   UNL     1       3.136  10.573   6.854  1.00  0.00     0.016 A 
ATOM     50  C   UNL     1       5.056  11.602   7.912  1.00  0.00     0.016 A 
ATOM     51  C   UNL     1       2.497  11.814   6.788  1.00  0.00     0.010 A 
ATOM     52  C   UNL     1       4.419  12.835   7.846  1.00  0.00     0.010 A 
ATOM     53  C   UNL     1       3.140  12.952   7.277  1.00  0.00    -0.014 A 
BRANCH  53  54
ATOM     54  C   UNL     1       2.361  14.206   7.404  1.00  0.00     0.031 A 
ATOM     55  C   UNL     1       2.149  14.508   8.855  1.00  0.00     0.074 A 
ATOM     56  C   UNL     1       2.476  15.262   6.568  1.00  0.00     0.049 A 
ATOM     57  N   UNL     1       3.125  14.973   9.581  1.00  0.00    -0.248 NA
ATOM     58  C   UNL     1       1.050  13.943   9.636  1.00  0.00     0.031 C 
ATOM     59  C   UNL     1       3.673  15.534   5.764  1.00  0.00     0.029 A 
ATOM     60  N   UNL     1       1.722  16.418   6.456  1.00  0.00    -0.354 N 
ATOM     61  C   UNL     1       2.859  14.629  10.887  1.00  0.00     0.074 A 
ATOM     62  C   UNL     1       1.532  14.051  10.886  1.00  0.00     0.031 C 
ATOM     63  C   UNL     1       3.672  16.838   5.420  1.00  0.00     0.029 A 
ATOM     64  C   UNL     1       2.417  17.461   5.843  1.00  0.00     0.049 A 
ATOM     65  H   UNL     1       0.793  16.495   6.776  1.00  0.00     0.167 HD
ATOM     66  C   UNL     1       3.779  14.780  11.874  1.00  0.00     0.037 A 
ATOM     67  C   UNL     1       2.289  18.782   6.158  1.00  0.00     0.037 A 
ATOM     68  C   UNL     1       5.056  15.301  11.481  1.00  0.00     0.049 A 
ATOM     69  C   UNL     1       3.069  18.853   7.446  1.00  0.00     0.074 A 
ATOM     70  C   UNL     1       6.333  14.830  11.261  1.00  0.00     0.029 A 
ATOM     71  N   UNL     1       5.138  16.647  11.221  1.00  0.00    -0.354 N 
ATOM     72  N   UNL     1       4.367  18.906   7.576  1.00  0.00    -0.248 NA
ATOM     73  C   UNL     1       2.345  18.503   8.668  1.00  0.00     0.031 C 
ATOM     74  C   UNL     1       6.977  15.823  10.454  1.00  0.00     0.029 A 
ATOM     75  C   UNL     1       6.036  16.819  10.200  1.00  0.00     0.049 A 
ATOM     76  H   UNL     1       4.641  17.359  11.685  1.00  0.00     0.167 HD
ATOM     77  C   UNL     1       4.634  18.311   8.813  1.00  0.00     0.074 A 
ATOM     78  C   UNL     1       3.347  18.142   9.454  1.00  0.00     0.031 C 
ATOM     79  C   UNL     1       5.855  17.810   9.163  1.00  0.00     0.037 A 
BRANCH  66  80
ATOM     80  C   UNL     1       3.478  14.631  13.304  1.00  0.00     0.057 A 
ATOM     81  C   UNL     1       3.246  15.808  14.027  1.00  0.00     0.134 A 
ATOM     82  C   UNL     1       3.610  13.437  14.010  1.00  0.00     0.134 A 
ATOM     83  F   UNL     1       3.125  16.981  13.383  1.00  0.00    -0.206 F 
ATOM     84  C   UNL     1       3.193  15.812  15.416  1.00  0.00     0.040 A 
ATOM     85  C   UNL     1       3.546  13.426  15.406  1.00  0.00     0.040 A 
ATOM     86  F   UNL     1       3.847  12.283  13.369  1.00  0.00    -0.206 F 
ATOM     87  C   UNL     1       3.354  14.617  16.111  1.00  0.00     0.006 A 
ENDBRANCH  66  80
BRANCH  67  88
ATOM     88  C   UNL     1       0.939  19.410   5.987  1.00  0.00     0.057 A 
ATOM     89  C   UNL     1       0.274  19.247   4.758  1.00  0.00     0.134 A 
ATOM     90  C   UNL     1       0.267  20.198   6.934  1.00  0.00     0.134 A 
ATOM     91  F   UNL     1       0.883  18.631   3.733  1.00  0.00    -0.206 F 
ATOM     92  C   UNL     1      -1.026  19.716   4.535  1.00  0.00     0.040 A 
ATOM     93  C   UNL     1      -1.047  20.645   6.739  1.00  0.00     0.040 A 
ATOM     94  F   UNL     1       0.852  20.567   8.081  1.00  0.00    -0.206 F 
ATOM     95  C   UNL     1      -1.706  20.386   5.544  1.00  0.00     0.006 A 
ENDBRANCH  67  88
BRANCH  79  96
ATOM     96  C   UNL     1       6.984  18.154   8.255  1.00  0.00     0.057 A 
ATOM     97  C   UNL     1       7.476  19.463   8.214  1.00  0.00     0.134 A 
ATOM     98  C   UNL     1       7.630  17.196   7.463  1.00  0.00     0.134 A 
ATOM     99  F   UNL     1       6.910  20.427   8.959  1.00  0.00    -0.206 F 
ATOM    100  C   UNL     1       8.583  19.803   7.435  1.00  0.00     0.040 A 
ATOM    101  C   UNL     1       8.754  17.519   6.698  1.00  0.00     0.040 A 
ATOM    102  F   UNL     1       7.204  15.923   7.433  1.00  0.00    -0.206 F 
ATOM    103  C   UNL     1       9.235  18.826   6.685  1.00  0.00     0.006 A 
ENDBRANCH  79  96
ENDBRANCH  53  54
ENDBRANCH  46  48
ENDBRANCH  45  46
ENDBRANCH  44  45
ENDBRANCH  43  44
ENDBRANCH  42  43
ENDBRANCH  41  42
ENDBRANCH   1  41
TORSDOF 23
