REMARK SMILES CCN1C(=O)/C(=C/c2cc([N+](=O)[O-])ccc2O)S/C1=[NH+]\c1ccc(C(=O)OCCOCCOCCOC(=O)c2ccc(-c3c4nc(c(-c5c(F)cccc5F)c5ccc([nH]5)c(-c5c(F)cccc5F)c5nc(c(-c6c(F)cccc6F)c6ccc3[nH]6)C=C5)C=C4)cc2)cc1
REMARK SMILES IDX 31 1 30 2 29 3 28 4 27 5 25 6 26 7 24 8 21 9 22 10 94 11
REMARK SMILES IDX 23 12 93 13 20 14 3 15 4 16 19 17 5 18 6 19 18 20 7 21 2 23
REMARK SMILES IDX 1 24 8 25 9 26 16 27 10 28 15 29 14 30 17 31 11 33 12 34
REMARK SMILES IDX 13 35 32 36 33 37 34 38 35 39 36 40 37 41 38 42 39 43 40 44
REMARK SMILES IDX 92 45 41 46 91 47 42 48 43 49 44 50 85 51 45 52 90 53 84 54
REMARK SMILES IDX 86 55 46 56 89 57 83 58 82 59 47 61 73 62 56 63 72 64 57 65
REMARK SMILES IDX 60 66 71 67 87 68 58 69 59 70 70 72 88 73 61 74 48 75 49 76
REMARK SMILES IDX 54 77 50 78 51 79 53 80 55 81 52 82 74 83 75 84 80 85 76 86
REMARK SMILES IDX 77 87 79 88 81 89 78 90 62 91 63 92 68 93 64 94 65 95 67 96
REMARK SMILES IDX 69 97 66 98
REMARK H PARENT 20 22 17 32 86 60 60 71
REMARK Flexibility Score: inf
ROOT
ATOM      1  C   UNL     1       3.144   8.392  -6.595  1.00  0.00     0.188 C 
ENDROOT
BRANCH   1   2
ATOM      2  O   UNL     1       3.737   9.011  -7.720  1.00  0.00    -0.376 OA
BRANCH   2   3
ATOM      3  C   UNL     1       3.719   8.373  -8.987  1.00  0.00     0.202 C 
BRANCH   3   4
ATOM      4  C   UNL     1       4.003   6.873  -9.151  1.00  0.00     0.261 C 
BRANCH   4   5
ATOM      5  O   UNL     1       3.338   6.019  -8.212  1.00  0.00    -0.460 OA
BRANCH   5   6
ATOM      6  C   UNL     1       4.154   5.356  -7.356  1.00  0.00     0.338 C 
ATOM      7  O   UNL     1       5.374   5.375  -7.345  1.00  0.00    -0.246 OA
BRANCH   6   8
ATOM      8  C   UNL     1       3.360   4.711  -6.284  1.00  0.00     0.060 A 
ATOM      9  C   UNL     1       2.018   3.402  -4.199  1.00  0.00     0.125 A 
ATOM     10  C   UNL     1       3.221   4.063  -3.951  1.00  0.00     0.052 A 
ATOM     11  C   UNL     1       1.433   3.504  -5.471  1.00  0.00     0.052 A 
ATOM     12  C   UNL     1       3.895   4.710  -4.989  1.00  0.00     0.020 A 
ATOM     13  C   UNL     1       2.110   4.133  -6.521  1.00  0.00     0.020 A 
BRANCH   9  14
ATOM     14  N   UNL     1       1.453   2.613  -3.180  1.00  0.00    -0.234 N 
ATOM     15  N   UNL     1       0.918   0.459  -2.384  1.00  0.00    -0.186 N 
ATOM     16  C   UNL     1       0.771  -0.857  -2.786  1.00  0.00     0.348 C 
ATOM     17  C   UNL     1       1.441   1.323  -3.317  1.00  0.00     0.324 C 
ATOM     18  O   UNL     1       0.176  -1.740  -2.183  1.00  0.00    -0.240 OA
ATOM     19  C   UNL     1       1.396  -1.062  -4.119  1.00  0.00     0.110 C 
ATOM     20  S   UNL     1       2.047   0.416  -4.689  1.00  0.00     0.007 SA
ATOM     21  C   UNL     1       1.389  -2.240  -4.758  1.00  0.00     0.036 C 
ATOM     22  H   UNL     1       1.071   3.033  -2.376  1.00  0.00     0.313 HD
BRANCH  15  23
ATOM     23  C   UNL     1       0.417   0.899  -1.087  1.00  0.00     0.244 C 
ATOM     24  C   UNL     1       1.066   0.161   0.081  1.00  0.00     0.055 C 
ENDBRANCH  15  23
BRANCH  21  25
ATOM     25  C   UNL     1       1.958  -2.467  -6.096  1.00  0.00     0.024 A 
ATOM     26  C   UNL     1       1.084  -2.760  -7.151  1.00  0.00     0.097 A 
ATOM     27  C   UNL     1       3.335  -2.366  -6.359  1.00  0.00     0.123 A 
ATOM     28  C   UNL     1       1.590  -2.925  -8.448  1.00  0.00     0.270 A 
ATOM     29  C   UNL     1       3.837  -2.519  -7.652  1.00  0.00     0.054 A 
ATOM     30  C   UNL     1       2.963  -2.797  -8.704  1.00  0.00     0.089 A 
BRANCH  27  31
ATOM     31  O   UNL     1       4.197  -2.113  -5.326  1.00  0.00    -0.507 OA
ATOM     32  H   UNL     1       3.867  -2.009  -4.455  1.00  0.00     0.293 HD
ENDBRANCH  27  31
BRANCH  28  33
ATOM     33  N   UNL     1       0.673  -3.229  -9.553  1.00  0.00     0.062 N 
ATOM     34  O   UNL     1      -0.531  -3.351  -9.287  1.00  0.00    -0.258 OA
ATOM     35  O   UNL     1       1.157  -3.348 -10.688  1.00  0.00    -0.258 OA
ENDBRANCH  28  33
ENDBRANCH  21  25
ENDBRANCH   9  14
ENDBRANCH   6   8
ENDBRANCH   5   6
ENDBRANCH   4   5
ENDBRANCH   3   4
ENDBRANCH   2   3
ENDBRANCH   1   2
BRANCH   1  36
ATOM     36  C   UNL     1       1.676   7.919  -6.633  1.00  0.00     0.188 C 
BRANCH  36  37
ATOM     37  O   UNL     1       0.960   8.022  -7.839  1.00  0.00    -0.376 OA
BRANCH  37  38
ATOM     38  C   UNL     1       0.467   9.272  -8.287  1.00  0.00     0.202 C 
BRANCH  38  39
ATOM     39  C   UNL     1       0.400  10.571  -7.460  1.00  0.00     0.261 C 
BRANCH  39  40
ATOM     40  O   UNL     1       1.224  10.674  -6.298  1.00  0.00    -0.460 OA
BRANCH  40  41
ATOM     41  C   UNL     1       0.570  10.613  -5.110  1.00  0.00     0.338 C 
ATOM     42  O   UNL     1      -0.619  10.443  -4.922  1.00  0.00    -0.246 OA
BRANCH  41  43
ATOM     43  C   UNL     1       1.573  10.629  -4.030  1.00  0.00     0.060 A 
ATOM     44  C   UNL     1       1.793   9.460  -3.289  1.00  0.00     0.016 A 
ATOM     45  C   UNL     1       2.279  11.797  -3.746  1.00  0.00     0.016 A 
ATOM     46  C   UNL     1       2.735   9.456  -2.260  1.00  0.00     0.010 A 
ATOM     47  C   UNL     1       3.203  11.797  -2.698  1.00  0.00     0.010 A 
ATOM     48  C   UNL     1       3.428  10.631  -1.944  1.00  0.00    -0.014 A 
BRANCH  48  49
ATOM     49  C   UNL     1       4.302  10.691  -0.749  1.00  0.00     0.031 A 
ATOM     50  C   UNL     1       3.760  11.290   0.517  1.00  0.00     0.074 A 
ATOM     51  C   UNL     1       5.570  10.247  -0.798  1.00  0.00     0.049 A 
ATOM     52  N   UNL     1       4.376  11.554   1.640  1.00  0.00    -0.248 NA
ATOM     53  C   UNL     1       2.331  11.642   0.513  1.00  0.00     0.031 C 
ATOM     54  C   UNL     1       6.200   9.613  -1.955  1.00  0.00     0.029 A 
ATOM     55  N   UNL     1       6.564  10.288   0.148  1.00  0.00    -0.354 N 
ATOM     56  C   UNL     1       3.416  12.116   2.472  1.00  0.00     0.074 A 
ATOM     57  C   UNL     1       2.181  12.171   1.718  1.00  0.00     0.031 C 
ATOM     58  C   UNL     1       7.485   9.349  -1.659  1.00  0.00     0.029 A 
ATOM     59  C   UNL     1       7.776   9.832  -0.310  1.00  0.00     0.049 A 
ATOM     60  H   UNL     1       6.422  10.613   1.067  1.00  0.00     0.167 HD
ATOM     61  C   UNL     1       3.553  12.545   3.748  1.00  0.00     0.037 A 
ATOM     62  C   UNL     1       8.988   9.841   0.279  1.00  0.00     0.037 A 
ATOM     63  C   UNL     1       4.783  12.492   4.493  1.00  0.00     0.049 A 
ATOM     64  C   UNL     1       9.133  10.403   1.670  1.00  0.00     0.074 A 
ATOM     65  C   UNL     1       5.013  12.871   5.804  1.00  0.00     0.029 A 
ATOM     66  N   UNL     1       5.994  12.044   3.988  1.00  0.00    -0.354 N 
ATOM     67  N   UNL     1       8.214  10.897   2.464  1.00  0.00    -0.248 NA
ATOM     68  C   UNL     1      10.487  10.414   2.246  1.00  0.00     0.031 C 
ATOM     69  C   UNL     1       6.375  12.711   6.073  1.00  0.00     0.029 A 
ATOM     70  C   UNL     1       6.983  12.174   4.949  1.00  0.00     0.049 A 
ATOM     71  H   UNL     1       6.131  11.687   3.081  1.00  0.00     0.167 HD
ATOM     72  C   UNL     1       8.871  11.252   3.637  1.00  0.00     0.074 A 
ATOM     73  C   UNL     1      10.264  10.903   3.457  1.00  0.00     0.031 C 
ATOM     74  C   UNL     1       8.366  11.818   4.761  1.00  0.00     0.037 A 
BRANCH  61  75
ATOM     75  C   UNL     1       2.348  13.143   4.413  1.00  0.00     0.057 A 
ATOM     76  C   UNL     1       1.256  12.362   4.811  1.00  0.00     0.134 A 
ATOM     77  C   UNL     1       2.302  14.514   4.698  1.00  0.00     0.134 A 
ATOM     78  F   UNL     1       1.231  11.045   4.555  1.00  0.00    -0.206 F 
ATOM     79  C   UNL     1       0.151  12.927   5.452  1.00  0.00     0.040 A 
ATOM     80  C   UNL     1       1.216  15.085   5.362  1.00  0.00     0.040 A 
ATOM     81  F   UNL     1       3.317  15.317   4.348  1.00  0.00    -0.206 F 
ATOM     82  C   UNL     1       0.134  14.291   5.737  1.00  0.00     0.006 A 
ENDBRANCH  61  75
BRANCH  62  83
ATOM     83  C   UNL     1      10.178   9.336  -0.454  1.00  0.00     0.057 A 
ATOM     84  C   UNL     1      10.849   8.179  -0.042  1.00  0.00     0.134 A 
ATOM     85  C   UNL     1      10.694  10.019  -1.563  1.00  0.00     0.134 A 
ATOM     86  F   UNL     1      10.421   7.496   1.030  1.00  0.00    -0.206 F 
ATOM     87  C   UNL     1      12.000   7.730  -0.692  1.00  0.00     0.040 A 
ATOM     88  C   UNL     1      11.827   9.565  -2.240  1.00  0.00     0.040 A 
ATOM     89  F   UNL     1      10.101  11.137  -2.007  1.00  0.00    -0.206 F 
ATOM     90  C   UNL     1      12.489   8.421  -1.799  1.00  0.00     0.006 A 
ENDBRANCH  62  83
BRANCH  74  91
ATOM     91  C   UNL     1       9.313  12.068   5.900  1.00  0.00     0.057 A 
ATOM     92  C   UNL     1      10.274  13.085   5.853  1.00  0.00     0.134 A 
ATOM     93  C   UNL     1       9.222  11.320   7.081  1.00  0.00     0.134 A 
ATOM     94  F   UNL     1      10.422  13.831   4.748  1.00  0.00    -0.206 F 
ATOM     95  C   UNL     1      11.122  13.338   6.934  1.00  0.00     0.040 A 
ATOM     96  C   UNL     1      10.044  11.582   8.178  1.00  0.00     0.040 A 
ATOM     97  F   UNL     1       8.316  10.336   7.196  1.00  0.00    -0.206 F 
ATOM     98  C   UNL     1      11.001  12.591   8.104  1.00  0.00     0.006 A 
ENDBRANCH  74  91
ENDBRANCH  48  49
ENDBRANCH  41  43
ENDBRANCH  40  41
ENDBRANCH  39  40
ENDBRANCH  38  39
ENDBRANCH  37  38
ENDBRANCH  36  37
ENDBRANCH   1  36
TORSDOF 22
