REMARK SMILES C[C@@H](NC(=O)/C(=C/c1ccc(Cl)cc1)NC(=O)c1ccc(C(C)(C)C)cc1)C(=O)OCCOCCOCCOC(=O)c1ccc(-c2c3nc(c(-c4c(F)cccc4F)c4ccc([nH]4)c(-c4c(F)cccc4F)c4nc(c(-c5c(F)cccc5F)c5ccc2[nH]5)C=C4)C=C3)cc1
REMARK SMILES IDX 33 1 32 2 31 3 30 4 28 5 29 6 2 7 1 8 3 9 4 10 5 12 6 13
REMARK SMILES IDX 7 14 15 15 16 16 17 18 18 19 19 20 27 21 20 22 26 23 21 24
REMARK SMILES IDX 22 25 23 26 24 27 25 28 8 29 9 30 14 31 10 32 13 33 11 34
REMARK SMILES IDX 12 35 34 36 35 37 36 38 37 39 38 40 39 41 40 42 41 43 42 44
REMARK SMILES IDX 43 45 95 46 44 47 94 48 45 49 46 50 47 51 88 52 48 53 93 54
REMARK SMILES IDX 87 55 89 56 49 57 92 58 86 59 85 60 50 62 76 63 59 64 75 65
REMARK SMILES IDX 60 66 63 67 74 68 90 69 61 70 62 71 73 73 91 74 64 75 51 76
REMARK SMILES IDX 52 77 57 78 53 79 54 80 56 81 58 82 55 83 77 84 78 85 83 86
REMARK SMILES IDX 79 87 80 88 82 89 84 90 81 91 65 92 66 93 71 94 67 95 68 96
REMARK SMILES IDX 70 97 72 98 69 99
REMARK H PARENT 3 11 15 17 89 61 63 72
REMARK Flexibility Score: inf
ROOT
ATOM      1  O   UNL     1      -3.747   0.769  -0.813  1.00  0.00    -0.376 OA
ENDROOT
BRANCH   1   2
ATOM      2  C   UNL     1      -3.798  -0.099   0.301  1.00  0.00     0.202 C 
BRANCH   2   3
ATOM      3  C   UNL     1      -2.703  -0.009   1.366  1.00  0.00     0.261 C 
BRANCH   3   4
ATOM      4  O   UNL     1      -1.357  -0.513   1.200  1.00  0.00    -0.462 OA
BRANCH   4   5
ATOM      5  C   UNL     1      -0.869  -1.387   0.298  1.00  0.00     0.328 C 
ATOM      6  O   UNL     1      -1.439  -1.846  -0.680  1.00  0.00    -0.250 OA
BRANCH   5   7
ATOM      7  C   UNL     1       0.512  -1.864   0.699  1.00  0.00     0.189 C 
ATOM      8  C   UNL     1       1.413  -0.664   1.022  1.00  0.00     0.043 C 
BRANCH   7   9
ATOM      9  N   UNL     1       0.388  -2.833   1.794  1.00  0.00    -0.338 N 
ATOM     10  C   UNL     1      -0.364  -3.990   1.686  1.00  0.00     0.268 C 
ATOM     11  H   UNL     1       0.859  -2.653   2.639  1.00  0.00     0.164 HD
ATOM     12  O   UNL     1       0.185  -5.076   1.531  1.00  0.00    -0.268 OA
BRANCH  10  13
ATOM     13  C   UNL     1      -1.862  -3.889   1.924  1.00  0.00     0.107 C 
ATOM     14  C   UNL     1      -2.650  -3.834   0.827  1.00  0.00     0.040 C 
BRANCH  13  15
ATOM     15  N   UNL     1      -2.409  -3.953   3.185  1.00  0.00    -0.317 N 
ATOM     16  C   UNL     1      -1.908  -4.058   4.453  1.00  0.00     0.255 C 
ATOM     17  H   UNL     1      -3.393  -3.914   3.171  1.00  0.00     0.170 HD
ATOM     18  O   UNL     1      -2.678  -4.146   5.407  1.00  0.00    -0.269 OA
BRANCH  16  19
ATOM     19  C   UNL     1      -0.473  -4.123   4.696  1.00  0.00     0.040 A 
ATOM     20  C   UNL     1       0.109  -5.377   4.842  1.00  0.00     0.014 A 
ATOM     21  C   UNL     1       0.284  -2.959   4.780  1.00  0.00     0.014 A 
ATOM     22  C   UNL     1       1.489  -5.466   4.988  1.00  0.00     0.005 A 
ATOM     23  C   UNL     1       1.671  -3.059   4.909  1.00  0.00     0.005 A 
ATOM     24  C   UNL     1       2.304  -4.315   4.980  1.00  0.00    -0.043 A 
BRANCH  24  25
ATOM     25  C   UNL     1       3.830  -4.467   5.074  1.00  0.00    -0.013 C 
ATOM     26  C   UNL     1       4.183  -4.915   6.504  1.00  0.00     0.016 C 
ATOM     27  C   UNL     1       4.335  -5.522   4.062  1.00  0.00     0.016 C 
ATOM     28  C   UNL     1       4.598  -3.162   4.771  1.00  0.00     0.016 C 
ENDBRANCH  24  25
ENDBRANCH  16  19
ENDBRANCH  13  15
BRANCH  14  29
ATOM     29  C   UNL     1      -4.099  -3.515   0.640  1.00  0.00    -0.023 A 
ATOM     30  C   UNL     1      -4.943  -2.962   1.623  1.00  0.00     0.010 A 
ATOM     31  C   UNL     1      -4.597  -3.539  -0.681  1.00  0.00     0.010 A 
ATOM     32  C   UNL     1      -6.227  -2.486   1.312  1.00  0.00     0.021 A 
ATOM     33  C   UNL     1      -5.866  -3.028  -1.002  1.00  0.00     0.021 A 
ATOM     34  C   UNL     1      -6.678  -2.506  -0.001  1.00  0.00     0.041 A 
ATOM     35  Cl  UNL     1      -8.201  -1.813  -0.393  1.00  0.00    -0.084 Cl
ENDBRANCH  14  29
ENDBRANCH  10  13
ENDBRANCH   7   9
ENDBRANCH   5   7
ENDBRANCH   4   5
ENDBRANCH   3   4
ENDBRANCH   2   3
ENDBRANCH   1   2
BRANCH   1  36
ATOM     36  C   UNL     1      -2.729   0.446  -1.739  1.00  0.00     0.188 C 
BRANCH  36  37
ATOM     37  C   UNL     1      -1.429   1.182  -1.410  1.00  0.00     0.188 C 
BRANCH  37  38
ATOM     38  O   UNL     1      -1.480   2.326  -0.581  1.00  0.00    -0.376 OA
BRANCH  38  39
ATOM     39  C   UNL     1      -2.533   3.260  -0.750  1.00  0.00     0.202 C 
BRANCH  39  40
ATOM     40  C   UNL     1      -3.166   3.588  -2.127  1.00  0.00     0.261 C 
BRANCH  40  41
ATOM     41  O   UNL     1      -2.794   2.825  -3.288  1.00  0.00    -0.460 OA
BRANCH  41  42
ATOM     42  C   UNL     1      -1.612   3.080  -3.888  1.00  0.00     0.338 C 
ATOM     43  O   UNL     1      -0.822   3.966  -3.595  1.00  0.00    -0.246 OA
BRANCH  42  44
ATOM     44  C   UNL     1      -1.306   1.946  -4.810  1.00  0.00     0.060 A 
ATOM     45  C   UNL     1      -0.146   1.179  -4.595  1.00  0.00     0.016 A 
ATOM     46  C   UNL     1      -2.167   1.609  -5.854  1.00  0.00     0.016 A 
ATOM     47  C   UNL     1       0.154   0.083  -5.407  1.00  0.00     0.010 A 
ATOM     48  C   UNL     1      -1.833   0.550  -6.710  1.00  0.00     0.010 A 
ATOM     49  C   UNL     1      -0.661  -0.203  -6.505  1.00  0.00    -0.014 A 
BRANCH  49  50
ATOM     50  C   UNL     1      -0.183  -1.123  -7.568  1.00  0.00     0.031 A 
ATOM     51  C   UNL     1       0.491  -0.514  -8.768  1.00  0.00     0.074 A 
ATOM     52  C   UNL     1      -0.358  -2.455  -7.497  1.00  0.00     0.049 A 
ATOM     53  N   UNL     1       0.826  -1.065  -9.904  1.00  0.00    -0.248 NA
ATOM     54  C   UNL     1       0.825   0.917  -8.670  1.00  0.00     0.031 C 
ATOM     55  C   UNL     1      -0.924  -3.178  -6.361  1.00  0.00     0.029 A 
ATOM     56  N   UNL     1      -0.102  -3.435  -8.427  1.00  0.00    -0.354 N 
ATOM     57  C   UNL     1       1.373  -0.043 -10.669  1.00  0.00     0.074 A 
ATOM     58  C   UNL     1       1.331   1.161  -9.870  1.00  0.00     0.031 C 
ATOM     59  C   UNL     1      -1.018  -4.482  -6.679  1.00  0.00     0.029 A 
ATOM     60  C   UNL     1      -0.564  -4.675  -8.056  1.00  0.00     0.049 A 
ATOM     61  H   UNL     1       0.368  -3.264  -9.275  1.00  0.00     0.167 HD
ATOM     62  C   UNL     1       1.857  -0.103 -11.931  1.00  0.00     0.037 A 
ATOM     63  C   UNL     1      -0.662  -5.817  -8.769  1.00  0.00     0.037 A 
ATOM     64  C   UNL     1       1.911  -1.306 -12.716  1.00  0.00     0.049 A 
ATOM     65  C   UNL     1      -0.194  -5.837 -10.205  1.00  0.00     0.074 A 
ATOM     66  C   UNL     1       2.430  -1.479 -13.988  1.00  0.00     0.029 A 
ATOM     67  N   UNL     1       1.418  -2.535 -12.312  1.00  0.00    -0.354 N 
ATOM     68  N   UNL     1       0.351  -4.877 -10.913  1.00  0.00    -0.248 NA
ATOM     69  C   UNL     1      -0.365  -7.097 -10.945  1.00  0.00     0.031 C 
ATOM     70  C   UNL     1       2.186  -2.797 -14.380  1.00  0.00     0.029 A 
ATOM     71  C   UNL     1       1.575  -3.461 -13.328  1.00  0.00     0.049 A 
ATOM     72  H   UNL     1       1.015  -2.722 -11.433  1.00  0.00     0.167 HD
ATOM     73  C   UNL     1       0.610  -5.424 -12.165  1.00  0.00     0.074 A 
ATOM     74  C   UNL     1       0.179  -6.804 -12.117  1.00  0.00     0.031 C 
ATOM     75  C   UNL     1       1.152  -4.836 -13.260  1.00  0.00     0.037 A 
BRANCH  62  76
ATOM     76  C   UNL     1       2.323   1.172 -12.568  1.00  0.00     0.057 A 
ATOM     77  C   UNL     1       3.515   1.803 -12.196  1.00  0.00     0.134 A 
ATOM     78  C   UNL     1       1.594   1.736 -13.624  1.00  0.00     0.134 A 
ATOM     79  F   UNL     1       4.252   1.323 -11.183  1.00  0.00    -0.206 F 
ATOM     80  C   UNL     1       3.963   2.954 -12.847  1.00  0.00     0.040 A 
ATOM     81  C   UNL     1       2.044   2.870 -14.300  1.00  0.00     0.040 A 
ATOM     82  F   UNL     1       0.442   1.179 -14.030  1.00  0.00    -0.206 F 
ATOM     83  C   UNL     1       3.233   3.483 -13.910  1.00  0.00     0.006 A 
ENDBRANCH  62  76
BRANCH  63  84
ATOM     84  C   UNL     1      -1.292  -7.027  -8.174  1.00  0.00     0.057 A 
ATOM     85  C   UNL     1      -0.562  -8.203  -7.964  1.00  0.00     0.134 A 
ATOM     86  C   UNL     1      -2.657  -7.056  -7.860  1.00  0.00     0.134 A 
ATOM     87  F   UNL     1       0.743  -8.251  -8.272  1.00  0.00    -0.206 F 
ATOM     88  C   UNL     1      -1.169  -9.369  -7.492  1.00  0.00     0.040 A 
ATOM     89  C   UNL     1      -3.271  -8.205  -7.358  1.00  0.00     0.040 A 
ATOM     90  F   UNL     1      -3.419  -5.967  -8.042  1.00  0.00    -0.206 F 
ATOM     91  C   UNL     1      -2.528  -9.370  -7.184  1.00  0.00     0.006 A 
ENDBRANCH  63  84
BRANCH  75  92
ATOM     92  C   UNL     1       1.342  -5.681 -14.487  1.00  0.00     0.057 A 
ATOM     93  C   UNL     1       0.262  -6.091 -15.278  1.00  0.00     0.134 A 
ATOM     94  C   UNL     1       2.629  -6.029 -14.920  1.00  0.00     0.134 A 
ATOM     95  F   UNL     1      -0.996  -5.801 -14.914  1.00  0.00    -0.206 F 
ATOM     96  C   UNL     1       0.454  -6.829 -16.448  1.00  0.00     0.040 A 
ATOM     97  C   UNL     1       2.835  -6.740 -16.103  1.00  0.00     0.040 A 
ATOM     98  F   UNL     1       3.709  -5.657 -14.216  1.00  0.00    -0.206 F 
ATOM     99  C   UNL     1       1.744  -7.146 -16.868  1.00  0.00     0.006 A 
ENDBRANCH  75  92
ENDBRANCH  49  50
ENDBRANCH  42  44
ENDBRANCH  41  42
ENDBRANCH  40  41
ENDBRANCH  39  40
ENDBRANCH  38  39
ENDBRANCH  37  38
ENDBRANCH  36  37
ENDBRANCH   1  36
TORSDOF 23
