REMARK SMILES O=C(OCCOCCOCCOC(=O)c1ccc(N2C(=O)[C@@H]3CC=CC[C@H]3C2=O)cc1Cl)c1ccc(-c2c3nc(c(-c4c(F)cccc4F)c4ccc([nH]4)c(-c4c(F)cccc4F)c4nc(c(-c5c(F)cccc5F)c5ccc2[nH]5)C=C4)C=C3)cc1
REMARK SMILES IDX 7 1 6 2 5 3 4 4 3 5 2 6 1 7 33 8 34 9 86 10 35 11 85 12
REMARK SMILES IDX 36 13 37 14 38 15 79 16 39 17 84 18 78 19 80 20 40 21 83 22
REMARK SMILES IDX 77 23 76 24 41 26 67 27 50 28 66 29 51 30 54 31 65 32 81 33
REMARK SMILES IDX 52 34 53 35 64 37 82 38 55 39 42 40 43 41 48 42 44 43 45 44
REMARK SMILES IDX 47 45 49 46 46 47 68 48 69 49 74 50 70 51 71 52 73 53 75 54
REMARK SMILES IDX 72 55 56 56 57 57 62 58 58 59 59 60 61 61 63 62 60 63 8 64
REMARK SMILES IDX 9 65 10 66 11 67 12 68 13 69 14 70 15 71 16 72 31 73 17 74
REMARK SMILES IDX 30 75 32 76 18 77 19 78 20 79 28 80 21 81 22 82 27 83 29 84
REMARK SMILES IDX 23 85 26 86 24 87 25 88
REMARK H PARENT 80 25 54 36
REMARK Flexibility Score: inf
ROOT
ATOM      1  C   UNL     1       2.571  -0.223   2.007  1.00  0.00     0.188 C 
ENDROOT
BRANCH   1   2
ATOM      2  O   UNL     1       3.843  -0.547   1.432  1.00  0.00    -0.376 OA
BRANCH   2   3
ATOM      3  C   UNL     1       4.744   0.564   1.379  1.00  0.00     0.202 C 
BRANCH   3   4
ATOM      4  C   UNL     1       4.537   1.501   0.178  1.00  0.00     0.261 C 
BRANCH   4   5
ATOM      5  O   UNL     1       3.175   1.535  -0.279  1.00  0.00    -0.460 OA
BRANCH   5   6
ATOM      6  C   UNL     1       2.609   0.821  -1.284  1.00  0.00     0.338 C 
ATOM      7  O   UNL     1       1.450   1.081  -1.604  1.00  0.00    -0.246 OA
BRANCH   6   8
ATOM      8  C   UNL     1       3.309  -0.269  -2.037  1.00  0.00     0.060 A 
ATOM      9  C   UNL     1       4.401  -0.998  -1.567  1.00  0.00     0.016 A 
ATOM     10  C   UNL     1       2.775  -0.635  -3.285  1.00  0.00     0.016 A 
ATOM     11  C   UNL     1       5.003  -1.992  -2.329  1.00  0.00     0.010 A 
ATOM     12  C   UNL     1       3.338  -1.676  -4.036  1.00  0.00     0.010 A 
ATOM     13  C   UNL     1       4.475  -2.345  -3.566  1.00  0.00    -0.014 A 
BRANCH  13  14
ATOM     14  C   UNL     1       5.194  -3.337  -4.391  1.00  0.00     0.031 A 
ATOM     15  C   UNL     1       5.950  -2.851  -5.588  1.00  0.00     0.074 A 
ATOM     16  C   UNL     1       5.278  -4.625  -4.005  1.00  0.00     0.049 A 
ATOM     17  N   UNL     1       6.562  -3.539  -6.513  1.00  0.00    -0.248 NA
ATOM     18  C   UNL     1       6.074  -1.390  -5.740  1.00  0.00     0.031 C 
ATOM     19  C   UNL     1       4.769  -5.162  -2.744  1.00  0.00     0.029 A 
ATOM     20  N   UNL     1       5.836  -5.715  -4.621  1.00  0.00    -0.354 N 
ATOM     21  C   UNL     1       7.143  -2.600  -7.353  1.00  0.00     0.074 A 
ATOM     22  C   UNL     1       6.798  -1.292  -6.845  1.00  0.00     0.031 C 
ATOM     23  C   UNL     1       5.007  -6.483  -2.694  1.00  0.00     0.029 A 
ATOM     24  C   UNL     1       5.613  -6.895  -3.949  1.00  0.00     0.049 A 
ATOM     25  H   UNL     1       6.347  -5.660  -5.461  1.00  0.00     0.167 HD
ATOM     26  C   UNL     1       7.905  -2.824  -8.446  1.00  0.00     0.037 A 
ATOM     27  C   UNL     1       5.804  -8.169  -4.343  1.00  0.00     0.037 A 
ATOM     28  C   UNL     1       8.234  -4.139  -8.923  1.00  0.00     0.049 A 
ATOM     29  C   UNL     1       6.378  -8.390  -5.710  1.00  0.00     0.074 A 
ATOM     30  C   UNL     1       9.000  -4.500 -10.015  1.00  0.00     0.029 A 
ATOM     31  N   UNL     1       7.796  -5.314  -8.330  1.00  0.00    -0.354 N 
ATOM     32  N   UNL     1       6.865  -7.506  -6.547  1.00  0.00    -0.248 NA
ATOM     33  C   UNL     1       6.398  -9.770  -6.208  1.00  0.00     0.031 C 
ATOM     34  C   UNL     1       8.974  -5.895 -10.118  1.00  0.00     0.029 A 
ATOM     35  C   UNL     1       8.229  -6.403  -9.064  1.00  0.00     0.049 A 
ATOM     36  H   UNL     1       7.256  -5.366  -7.508  1.00  0.00     0.167 HD
ATOM     37  C   UNL     1       7.295  -8.224  -7.650  1.00  0.00     0.074 A 
ATOM     38  C   UNL     1       6.987  -9.616  -7.386  1.00  0.00     0.031 C 
ATOM     39  C   UNL     1       7.910  -7.776  -8.770  1.00  0.00     0.037 A 
BRANCH  26  40
ATOM     40  C   UNL     1       8.378  -1.631  -9.217  1.00  0.00     0.057 A 
ATOM     41  C   UNL     1       9.416  -0.810  -8.760  1.00  0.00     0.134 A 
ATOM     42  C   UNL     1       7.787  -1.308 -10.444  1.00  0.00     0.134 A 
ATOM     43  F   UNL     1      10.005  -1.051  -7.580  1.00  0.00    -0.206 F 
ATOM     44  C   UNL     1       9.844   0.298  -9.495  1.00  0.00     0.040 A 
ATOM     45  C   UNL     1       8.217  -0.213 -11.195  1.00  0.00     0.040 A 
ATOM     46  F   UNL     1       6.781  -2.050 -10.931  1.00  0.00    -0.206 F 
ATOM     47  C   UNL     1       9.248   0.595 -10.720  1.00  0.00     0.006 A 
ENDBRANCH  26  40
BRANCH  27  48
ATOM     48  C   UNL     1       5.287  -9.309  -3.539  1.00  0.00     0.057 A 
ATOM     49  C   UNL     1       6.105 -10.299  -2.995  1.00  0.00     0.134 A 
ATOM     50  C   UNL     1       3.907  -9.473  -3.379  1.00  0.00     0.134 A 
ATOM     51  F   UNL     1       7.435 -10.229  -3.140  1.00  0.00    -0.206 F 
ATOM     52  C   UNL     1       5.565 -11.412  -2.338  1.00  0.00     0.040 A 
ATOM     53  C   UNL     1       3.350 -10.561  -2.710  1.00  0.00     0.040 A 
ATOM     54  F   UNL     1       3.076  -8.563  -3.896  1.00  0.00    -0.206 F 
ATOM     55  C   UNL     1       4.184 -11.544  -2.194  1.00  0.00     0.006 A 
ENDBRANCH  27  48
BRANCH  39  56
ATOM     56  C   UNL     1       8.348  -8.814  -9.751  1.00  0.00     0.057 A 
ATOM     57  C   UNL     1       7.444  -9.447 -10.610  1.00  0.00     0.134 A 
ATOM     58  C   UNL     1       9.700  -9.162  -9.849  1.00  0.00     0.134 A 
ATOM     59  F   UNL     1       6.132  -9.172 -10.540  1.00  0.00    -0.206 F 
ATOM     60  C   UNL     1       7.871 -10.403 -11.530  1.00  0.00     0.040 A 
ATOM     61  C   UNL     1      10.143 -10.097 -10.781  1.00  0.00     0.040 A 
ATOM     62  F   UNL     1      10.611  -8.586  -9.049  1.00  0.00    -0.206 F 
ATOM     63  C   UNL     1       9.226 -10.724 -11.622  1.00  0.00     0.006 A 
ENDBRANCH  39  56
ENDBRANCH  13  14
ENDBRANCH   6   8
ENDBRANCH   5   6
ENDBRANCH   4   5
ENDBRANCH   3   4
ENDBRANCH   2   3
ENDBRANCH   1   2
BRANCH   1  64
ATOM     64  C   UNL     1       1.978  -1.413   2.766  1.00  0.00     0.188 C 
BRANCH  64  65
ATOM     65  O   UNL     1       2.647  -1.783   3.970  1.00  0.00    -0.376 OA
BRANCH  65  66
ATOM     66  C   UNL     1       4.029  -2.104   3.876  1.00  0.00     0.202 C 
BRANCH  66  67
ATOM     67  C   UNL     1       4.413  -3.433   3.209  1.00  0.00     0.261 C 
BRANCH  67  68
ATOM     68  O   UNL     1       3.815  -3.703   1.928  1.00  0.00    -0.460 OA
BRANCH  68  69
ATOM     69  C   UNL     1       2.817  -4.624   1.972  1.00  0.00     0.339 C 
ATOM     70  O   UNL     1       2.301  -5.094   2.973  1.00  0.00    -0.246 OA
BRANCH  69  71
ATOM     71  C   UNL     1       2.438  -5.070   0.619  1.00  0.00     0.078 A 
ATOM     72  C   UNL     1       1.914  -4.176  -0.325  1.00  0.00     0.019 A 
ATOM     73  C   UNL     1       2.502  -6.428   0.311  1.00  0.00     0.057 A 
ATOM     74  C   UNL     1       1.444  -4.650  -1.566  1.00  0.00     0.028 A 
ATOM     75  C   UNL     1       1.991  -6.893  -0.905  1.00  0.00     0.048 A 
ATOM     76  Cl  UNL     1       3.289  -7.584   1.329  1.00  0.00    -0.083 Cl
ATOM     77  C   UNL     1       1.456  -6.020  -1.868  1.00  0.00     0.053 A 
BRANCH  77  78
ATOM     78  N   UNL     1       1.030  -6.540  -3.123  1.00  0.00    -0.250 N 
ATOM     79  C   UNL     1       1.079  -5.850  -4.338  1.00  0.00     0.238 C 
ATOM     80  C   UNL     1       0.568  -7.838  -3.305  1.00  0.00     0.238 C 
ATOM     81  O   UNL     1       1.216  -4.668  -4.555  1.00  0.00    -0.274 OA
ATOM     82  C   UNL     1       1.062  -6.928  -5.397  1.00  0.00     0.096 C 
ATOM     83  C   UNL     1       0.171  -7.966  -4.743  1.00  0.00     0.096 C 
ATOM     84  O   UNL     1       0.385  -8.722  -2.478  1.00  0.00    -0.274 OA
ATOM     85  C   UNL     1       0.584  -6.652  -6.808  1.00  0.00     0.041 C 
ATOM     86  C   UNL     1       0.355  -9.319  -5.406  1.00  0.00     0.041 C 
ATOM     87  C   UNL     1       0.352  -7.969  -7.530  1.00  0.00    -0.030 C 
ATOM     88  C   UNL     1       0.281  -9.162  -6.906  1.00  0.00    -0.030 C 
ENDBRANCH  77  78
ENDBRANCH  69  71
ENDBRANCH  68  69
ENDBRANCH  67  68
ENDBRANCH  66  67
ENDBRANCH  65  66
ENDBRANCH  64  65
ENDBRANCH   1  64
TORSDOF 18
