REMARK SMILES Cc1c(Cl)cc2c(c1C)O[C@H](C(F)(F)F)C(C(=O)OCCOCCOCCOC(=O)c1ccc(-c3c4nc(c(-c5c(F)cccc5F)c5ccc([nH]5)c(-c5c(F)cccc5F)c5nc(c(-c6c(F)cccc6F)c6ccc3[nH]6)C=C5)C=C4)cc1)=C2
REMARK SMILES IDX 24 1 23 2 22 3 21 4 20 5 19 6 17 7 18 8 16 9 1 10 2 11 3 12
REMARK SMILES IDX 8 13 4 14 5 15 7 16 9 17 6 18 10 19 85 20 11 21 12 22 13 23
REMARK SMILES IDX 14 24 15 25 25 26 26 27 27 28 28 29 29 30 30 31 31 32 32 33
REMARK SMILES IDX 84 34 33 35 83 36 34 37 35 38 36 39 77 40 37 41 82 42 76 43
REMARK SMILES IDX 78 44 38 45 81 46 75 47 74 48 39 50 65 51 48 52 64 53 49 54
REMARK SMILES IDX 52 55 63 56 79 57 50 58 51 59 62 61 80 62 53 63 40 64 41 65
REMARK SMILES IDX 46 66 42 67 43 68 45 69 47 70 44 71 66 72 67 73 72 74 68 75
REMARK SMILES IDX 69 76 71 77 73 78 70 79 54 80 55 81 60 82 56 83 57 84 59 85
REMARK SMILES IDX 61 86 58 87
REMARK H PARENT 78 49 52 60
REMARK Flexibility Score: inf
ROOT
ATOM      1  C   UNL     1       1.463  -5.074   6.900  1.00  0.00     0.188 C 
ENDROOT
BRANCH   1   2
ATOM      2  C   UNL     1       0.257  -4.728   7.798  1.00  0.00     0.188 C 
BRANCH   2   3
ATOM      3  O   UNL     1      -0.238  -5.678   8.716  1.00  0.00    -0.376 OA
BRANCH   3   4
ATOM      4  C   UNL     1      -0.750  -6.924   8.275  1.00  0.00     0.202 C 
BRANCH   4   5
ATOM      5  C   UNL     1      -1.437  -7.139   6.916  1.00  0.00     0.261 C 
BRANCH   5   6
ATOM      6  O   UNL     1      -0.906  -6.396   5.813  1.00  0.00    -0.460 OA
BRANCH   6   7
ATOM      7  C   UNL     1      -1.721  -5.434   5.318  1.00  0.00     0.338 C 
ATOM      8  O   UNL     1      -2.848  -5.162   5.699  1.00  0.00    -0.246 OA
BRANCH   7   9
ATOM      9  C   UNL     1      -0.984  -4.626   4.326  1.00  0.00     0.087 C 
ATOM     10  C   UNL     1       0.977  -0.042   0.147  1.00  0.00     0.046 C 
ATOM     11  C   UNL     1       0.538  -0.876   1.325  1.00  0.00    -0.026 A 
ATOM     12  C   UNL     1      -0.073  -0.293   2.452  1.00  0.00     0.045 A 
ATOM     13  C   UNL     1       0.723  -2.284   1.307  1.00  0.00    -0.004 A 
ATOM     14  Cl  UNL     1      -0.291   1.415   2.614  1.00  0.00    -0.084 Cl
ATOM     15  C   UNL     1      -0.557  -1.084   3.497  1.00  0.00     0.032 A 
ATOM     16  C   UNL     1       0.237  -3.066   2.378  1.00  0.00     0.131 A 
ATOM     17  C   UNL     1       1.402  -2.996   0.161  1.00  0.00     0.049 C 
ATOM     18  C   UNL     1      -0.437  -2.472   3.445  1.00  0.00     0.019 A 
ATOM     19  O   UNL     1       0.457  -4.415   2.304  1.00  0.00    -0.475 OA
ATOM     20  C   UNL     1      -1.076  -3.296   4.455  1.00  0.00     0.027 C 
ATOM     21  C   UNL     1      -0.184  -5.309   3.254  1.00  0.00     0.316 C 
BRANCH  21  22
ATOM     22  C   UNL     1      -1.015  -6.329   2.465  1.00  0.00     0.430 C 
ATOM     23  F   UNL     1      -0.290  -6.890   1.468  1.00  0.00    -0.167 F 
ATOM     24  F   UNL     1      -1.442  -7.345   3.252  1.00  0.00    -0.167 F 
ATOM     25  F   UNL     1      -2.108  -5.764   1.905  1.00  0.00    -0.167 F 
ENDBRANCH  21  22
ENDBRANCH   7   9
ENDBRANCH   6   7
ENDBRANCH   5   6
ENDBRANCH   4   5
ENDBRANCH   3   4
ENDBRANCH   2   3
ENDBRANCH   1   2
BRANCH   1  26
ATOM     26  O   UNL     1       1.965  -6.388   6.901  1.00  0.00    -0.376 OA
BRANCH  26  27
ATOM     27  C   UNL     1       2.668  -6.880   8.031  1.00  0.00     0.202 C 
BRANCH  27  28
ATOM     28  C   UNL     1       3.310  -6.014   9.135  1.00  0.00     0.261 C 
BRANCH  28  29
ATOM     29  O   UNL     1       2.772  -4.708   9.364  1.00  0.00    -0.460 OA
BRANCH  29  30
ATOM     30  C   UNL     1       3.552  -3.673   8.954  1.00  0.00     0.338 C 
ATOM     31  O   UNL     1       4.633  -3.733   8.403  1.00  0.00    -0.246 OA
BRANCH  30  32
ATOM     32  C   UNL     1       2.785  -2.421   9.104  1.00  0.00     0.060 A 
ATOM     33  C   UNL     1       2.366  -1.743   7.950  1.00  0.00     0.016 A 
ATOM     34  C   UNL     1       2.495  -1.914  10.370  1.00  0.00     0.016 A 
ATOM     35  C   UNL     1       1.651  -0.551   8.061  1.00  0.00     0.010 A 
ATOM     36  C   UNL     1       1.806  -0.703  10.479  1.00  0.00     0.010 A 
ATOM     37  C   UNL     1       1.398  -0.007   9.326  1.00  0.00    -0.014 A 
BRANCH  37  38
ATOM     38  C   UNL     1       0.864   1.371   9.440  1.00  0.00     0.031 A 
ATOM     39  C   UNL     1       1.833   2.501   9.652  1.00  0.00     0.074 A 
ATOM     40  C   UNL     1      -0.453   1.622   9.333  1.00  0.00     0.049 A 
ATOM     41  N   UNL     1       1.597   3.776   9.821  1.00  0.00    -0.248 NA
ATOM     42  C   UNL     1       3.260   2.142   9.677  1.00  0.00     0.031 C 
ATOM     43  C   UNL     1      -1.486   0.621   9.078  1.00  0.00     0.029 A 
ATOM     44  N   UNL     1      -1.144   2.804   9.432  1.00  0.00    -0.354 N 
ATOM     45  C   UNL     1       2.843   4.371   9.967  1.00  0.00     0.074 A 
ATOM     46  C   UNL     1       3.830   3.316   9.906  1.00  0.00     0.031 C 
ATOM     47  C   UNL     1      -2.683   1.232   9.043  1.00  0.00     0.029 A 
ATOM     48  C   UNL     1      -2.504   2.660   9.308  1.00  0.00     0.049 A 
ATOM     49  H   UNL     1      -0.706   3.674   9.578  1.00  0.00     0.167 HD
ATOM     50  C   UNL     1       3.139   5.683  10.121  1.00  0.00     0.037 A 
ATOM     51  C   UNL     1      -3.490   3.573   9.414  1.00  0.00     0.037 A 
ATOM     52  C   UNL     1       2.156   6.731  10.189  1.00  0.00     0.049 A 
ATOM     53  C   UNL     1      -3.142   5.014   9.689  1.00  0.00     0.074 A 
ATOM     54  C   UNL     1       2.360   8.091  10.345  1.00  0.00     0.029 A 
ATOM     55  N   UNL     1       0.785   6.537  10.113  1.00  0.00    -0.354 N 
ATOM     56  N   UNL     1      -1.961   5.571   9.811  1.00  0.00    -0.248 NA
ATOM     57  C   UNL     1      -4.263   5.954   9.841  1.00  0.00     0.031 C 
ATOM     58  C   UNL     1       1.112   8.713  10.420  1.00  0.00     0.029 A 
ATOM     59  C   UNL     1       0.131   7.750  10.247  1.00  0.00     0.049 A 
ATOM     60  H   UNL     1       0.344   5.667   9.983  1.00  0.00     0.167 HD
ATOM     61  C   UNL     1      -2.195   6.925  10.023  1.00  0.00     0.074 A 
ATOM     62  C   UNL     1      -3.631   7.109  10.003  1.00  0.00     0.031 C 
ATOM     63  C   UNL     1      -1.300   7.925  10.214  1.00  0.00     0.037 A 
BRANCH  50  64
ATOM     64  C   UNL     1       4.586   6.061  10.239  1.00  0.00     0.057 A 
ATOM     65  C   UNL     1       5.455   6.001   9.142  1.00  0.00     0.134 A 
ATOM     66  C   UNL     1       5.101   6.552  11.446  1.00  0.00     0.134 A 
ATOM     67  F   UNL     1       5.029   5.526   7.962  1.00  0.00    -0.206 F 
ATOM     68  C   UNL     1       6.787   6.405   9.244  1.00  0.00     0.040 A 
ATOM     69  C   UNL     1       6.423   6.985  11.552  1.00  0.00     0.040 A 
ATOM     70  F   UNL     1       4.321   6.639  12.534  1.00  0.00    -0.206 F 
ATOM     71  C   UNL     1       7.271   6.909  10.450  1.00  0.00     0.006 A 
ENDBRANCH  50  64
BRANCH  51  72
ATOM     72  C   UNL     1      -4.907   3.156   9.252  1.00  0.00     0.057 A 
ATOM     73  C   UNL     1      -5.662   3.573   8.150  1.00  0.00     0.134 A 
ATOM     74  C   UNL     1      -5.541   2.333  10.192  1.00  0.00     0.134 A 
ATOM     75  F   UNL     1      -5.121   4.384   7.229  1.00  0.00    -0.206 F 
ATOM     76  C   UNL     1      -6.996   3.193   7.990  1.00  0.00     0.040 A 
ATOM     77  C   UNL     1      -6.866   1.923  10.031  1.00  0.00     0.040 A 
ATOM     78  F   UNL     1      -4.876   1.902  11.273  1.00  0.00    -0.206 F 
ATOM     79  C   UNL     1      -7.599   2.358   8.928  1.00  0.00     0.006 A 
ENDBRANCH  51  72
BRANCH  63  80
ATOM     80  C   UNL     1      -1.827   9.321  10.390  1.00  0.00     0.057 A 
ATOM     81  C   UNL     1      -2.477   9.725  11.562  1.00  0.00     0.134 A 
ATOM     82  C   UNL     1      -1.595  10.299   9.412  1.00  0.00     0.134 A 
ATOM     83  F   UNL     1      -2.736   8.838  12.535  1.00  0.00    -0.206 F 
ATOM     84  C   UNL     1      -2.886  11.046  11.752  1.00  0.00     0.040 A 
ATOM     85  C   UNL     1      -1.973  11.629   9.602  1.00  0.00     0.040 A 
ATOM     86  F   UNL     1      -0.965   9.984   8.269  1.00  0.00    -0.206 F 
ATOM     87  C   UNL     1      -2.623  12.005  10.775  1.00  0.00     0.006 A 
ENDBRANCH  63  80
ENDBRANCH  37  38
ENDBRANCH  30  32
ENDBRANCH  29  30
ENDBRANCH  28  29
ENDBRANCH  27  28
ENDBRANCH  26  27
ENDBRANCH   1  26
TORSDOF 18
