REMARK SMILES Nn1c(S[C@@H](C(=O)OCCOCCOCCOC(=O)c2ccc(-c3c4nc(c(-c5c(F)cccc5F)c5ccc([nH]5)c(-c5c(F)cccc5F)c5nc(c(-c6c(F)cccc6F)c6ccc3[nH]6)C=C5)C=C4)cc2)c2ccccc2)nc2ccc(Br)cc2c1=O
REMARK SMILES IDX 12 1 11 2 10 3 9 4 8 5 6 6 7 7 5 8 4 9 3 10 2 11 88 12 80 13
REMARK SMILES IDX 87 14 89 15 81 16 86 17 82 18 84 19 83 20 85 21 1 22 74 25
REMARK SMILES IDX 75 26 79 27 76 28 78 29 77 30 13 31 14 32 15 33 16 34 17 35
REMARK SMILES IDX 18 36 19 37 20 38 21 39 73 40 22 41 72 42 23 43 24 44 25 45
REMARK SMILES IDX 66 46 26 47 71 48 65 49 67 50 27 51 70 52 64 53 63 54 28 56
REMARK SMILES IDX 54 57 37 58 53 59 38 60 41 61 52 62 68 63 39 64 40 65 51 67
REMARK SMILES IDX 69 68 42 69 29 70 30 71 35 72 31 73 32 74 34 75 36 76 33 77
REMARK SMILES IDX 55 78 56 79 61 80 57 81 58 82 60 83 62 84 59 85 43 86 44 87
REMARK SMILES IDX 49 88 45 89 46 90 48 91 50 92 47 93
REMARK H PARENT 1 23 1 24 67 55 41 66
REMARK Flexibility Score: inf
ROOT
ATOM      1  C   UNL     1       2.317   1.760  -0.920  1.00  0.00     0.188 C 
ENDROOT
BRANCH   1   2
ATOM      2  O   UNL     1       3.389   2.446  -0.267  1.00  0.00    -0.376 OA
BRANCH   2   3
ATOM      3  C   UNL     1       4.683   2.266  -0.826  1.00  0.00     0.202 C 
BRANCH   3   4
ATOM      4  C   UNL     1       5.309   0.883  -0.596  1.00  0.00     0.261 C 
BRANCH   4   5
ATOM      5  O   UNL     1       4.391  -0.228  -0.781  1.00  0.00    -0.462 OA
BRANCH   5   6
ATOM      6  C   UNL     1       4.297  -1.084   0.271  1.00  0.00     0.324 C 
ATOM      7  O   UNL     1       4.981  -0.950   1.289  1.00  0.00    -0.251 OA
BRANCH   6   8
ATOM      8  C   UNL     1       3.281  -2.236   0.154  1.00  0.00     0.194 C 
BRANCH   8   9
ATOM      9  S   UNL     1       2.759  -2.791  -1.502  1.00  0.00    -0.066 SA
BRANCH   9  10
ATOM     10  C   UNL     1       1.204  -2.262  -2.126  1.00  0.00     0.191 A 
ATOM     11  N   UNL     1       0.338  -1.462  -1.418  1.00  0.00    -0.202 N 
ATOM     12  C   UNL     1      -0.387  -0.569  -2.151  1.00  0.00     0.280 A 
ATOM     13  N   UNL     1       0.912  -2.606  -3.361  1.00  0.00    -0.222 NA
ATOM     14  C   UNL     1      -0.997  -1.078  -3.352  1.00  0.00     0.069 A 
ATOM     15  O   UNL     1      -0.420   0.618  -1.869  1.00  0.00    -0.267 OA
ATOM     16  C   UNL     1      -0.305  -2.130  -3.935  1.00  0.00     0.079 A 
ATOM     17  C   UNL     1      -2.186  -0.533  -3.849  1.00  0.00     0.031 A 
ATOM     18  C   UNL     1      -0.846  -2.629  -5.121  1.00  0.00     0.030 A 
ATOM     19  C   UNL     1      -2.719  -1.066  -5.005  1.00  0.00     0.018 A 
ATOM     20  C   UNL     1      -2.049  -2.103  -5.652  1.00  0.00     0.018 A 
ATOM     21  Br  UNL     1      -4.342  -0.372  -5.680  1.00  0.00    -0.051 Br
BRANCH  11  22
ATOM     22  N   UNL     1       0.379  -1.197  -0.066  1.00  0.00    -0.334 N 
ATOM     23  H   UNL     1       0.880  -1.792   0.537  1.00  0.00     0.178 HD
ATOM     24  H   UNL     1      -0.094  -0.413   0.296  1.00  0.00     0.178 HD
ENDBRANCH  11  22
ENDBRANCH   9  10
ENDBRANCH   8   9
BRANCH   8  25
ATOM     25  C   UNL     1       2.339  -2.355   1.354  1.00  0.00    -0.023 A 
ATOM     26  C   UNL     1       1.664  -3.560   1.607  1.00  0.00     0.005 A 
ATOM     27  C   UNL     1       2.075  -1.257   2.209  1.00  0.00     0.005 A 
ATOM     28  C   UNL     1       0.699  -3.639   2.614  1.00  0.00     0.000 A 
ATOM     29  C   UNL     1       1.102  -1.338   3.209  1.00  0.00     0.000 A 
ATOM     30  C   UNL     1       0.404  -2.525   3.400  1.00  0.00     0.000 A 
ENDBRANCH   8  25
ENDBRANCH   6   8
ENDBRANCH   5   6
ENDBRANCH   4   5
ENDBRANCH   3   4
ENDBRANCH   2   3
ENDBRANCH   1   2
BRANCH   1  31
ATOM     31  C   UNL     1       2.475   1.445  -2.415  1.00  0.00     0.188 C 
BRANCH  31  32
ATOM     32  O   UNL     1       2.641   2.630  -3.188  1.00  0.00    -0.376 OA
BRANCH  32  33
ATOM     33  C   UNL     1       1.607   2.820  -4.150  1.00  0.00     0.202 C 
BRANCH  33  34
ATOM     34  C   UNL     1       0.575   3.849  -3.679  1.00  0.00     0.261 C 
BRANCH  34  35
ATOM     35  O   UNL     1      -0.117   3.508  -2.457  1.00  0.00    -0.460 OA
BRANCH  35  36
ATOM     36  C   UNL     1      -1.421   3.151  -2.556  1.00  0.00     0.338 C 
ATOM     37  O   UNL     1      -2.046   2.924  -3.582  1.00  0.00    -0.246 OA
BRANCH  36  38
ATOM     38  C   UNL     1      -2.017   3.034  -1.200  1.00  0.00     0.060 A 
ATOM     39  C   UNL     1      -2.225   4.149  -0.390  1.00  0.00     0.016 A 
ATOM     40  C   UNL     1      -2.441   1.784  -0.745  1.00  0.00     0.016 A 
ATOM     41  C   UNL     1      -2.832   3.983   0.866  1.00  0.00     0.010 A 
ATOM     42  C   UNL     1      -2.879   1.586   0.546  1.00  0.00     0.010 A 
ATOM     43  C   UNL     1      -3.139   2.696   1.339  1.00  0.00    -0.014 A 
BRANCH  43  44
ATOM     44  C   UNL     1      -3.916   2.438   2.561  1.00  0.00     0.031 A 
ATOM     45  C   UNL     1      -3.239   2.229   3.872  1.00  0.00     0.074 A 
ATOM     46  C   UNL     1      -5.225   2.163   2.411  1.00  0.00     0.049 A 
ATOM     47  N   UNL     1      -3.772   2.139   5.060  1.00  0.00    -0.248 NA
ATOM     48  C   UNL     1      -1.780   2.047   3.843  1.00  0.00     0.031 C 
ATOM     49  C   UNL     1      -5.933   2.095   1.126  1.00  0.00     0.029 A 
ATOM     50  N   UNL     1      -6.182   1.842   3.332  1.00  0.00    -0.354 N 
ATOM     51  C   UNL     1      -2.710   1.956   5.933  1.00  0.00     0.074 A 
ATOM     52  C   UNL     1      -1.513   1.842   5.127  1.00  0.00     0.031 C 
ATOM     53  C   UNL     1      -7.211   1.755   1.344  1.00  0.00     0.029 A 
ATOM     54  C   UNL     1      -7.424   1.653   2.780  1.00  0.00     0.049 A 
ATOM     55  H   UNL     1      -5.998   1.754   4.296  1.00  0.00     0.167 HD
ATOM     56  C   UNL     1      -2.749   1.934   7.287  1.00  0.00     0.037 A 
ATOM     57  C   UNL     1      -8.614   1.496   3.383  1.00  0.00     0.037 A 
ATOM     58  C   UNL     1      -3.982   1.997   8.034  1.00  0.00     0.049 A 
ATOM     59  C   UNL     1      -8.656   1.596   4.879  1.00  0.00     0.074 A 
ATOM     60  C   UNL     1      -4.175   2.106   9.399  1.00  0.00     0.029 A 
ATOM     61  N   UNL     1      -5.245   1.929   7.457  1.00  0.00    -0.354 N 
ATOM     62  N   UNL     1      -7.659   1.691   5.727  1.00  0.00    -0.248 NA
ATOM     63  C   UNL     1      -9.984   1.631   5.497  1.00  0.00     0.031 C 
ATOM     64  C   UNL     1      -5.553   2.068   9.648  1.00  0.00     0.029 A 
ATOM     65  C   UNL     1      -6.221   1.977   8.436  1.00  0.00     0.049 A 
ATOM     66  H   UNL     1      -5.419   1.857   6.491  1.00  0.00     0.167 HD
ATOM     67  C   UNL     1      -8.238   1.829   6.979  1.00  0.00     0.074 A 
ATOM     68  C   UNL     1      -9.674   1.826   6.771  1.00  0.00     0.031 C 
ATOM     69  C   UNL     1      -7.642   1.951   8.191  1.00  0.00     0.037 A 
BRANCH  56  70
ATOM     70  C   UNL     1      -1.439   1.895   8.022  1.00  0.00     0.057 A 
ATOM     71  C   UNL     1      -1.087   0.819   8.845  1.00  0.00     0.134 A 
ATOM     72  C   UNL     1      -0.529   2.962   7.941  1.00  0.00     0.134 A 
ATOM     73  F   UNL     1      -1.909  -0.233   8.982  1.00  0.00    -0.206 F 
ATOM     74  C   UNL     1       0.119   0.801   9.551  1.00  0.00     0.040 A 
ATOM     75  C   UNL     1       0.691   2.943   8.619  1.00  0.00     0.040 A 
ATOM     76  F   UNL     1      -0.800   4.029   7.173  1.00  0.00    -0.206 F 
ATOM     77  C   UNL     1       1.016   1.862   9.432  1.00  0.00     0.006 A 
ENDBRANCH  56  70
BRANCH  57  78
ATOM     78  C   UNL     1      -9.848   1.431   2.565  1.00  0.00     0.057 A 
ATOM     79  C   UNL     1     -10.197   0.287   1.841  1.00  0.00     0.134 A 
ATOM     80  C   UNL     1     -10.688   2.546   2.458  1.00  0.00     0.134 A 
ATOM     81  F   UNL     1      -9.415  -0.801   1.875  1.00  0.00    -0.206 F 
ATOM     82  C   UNL     1     -11.347   0.250   1.049  1.00  0.00     0.040 A 
ATOM     83  C   UNL     1     -11.850   2.517   1.687  1.00  0.00     0.040 A 
ATOM     84  F   UNL     1     -10.399   3.674   3.123  1.00  0.00    -0.206 F 
ATOM     85  C   UNL     1     -12.181   1.365   0.978  1.00  0.00     0.006 A 
ENDBRANCH  57  78
BRANCH  69  86
ATOM     86  C   UNL     1      -8.559   2.087   9.369  1.00  0.00     0.057 A 
ATOM     87  C   UNL     1      -8.675   3.307  10.046  1.00  0.00     0.134 A 
ATOM     88  C   UNL     1      -9.325   1.010   9.831  1.00  0.00     0.134 A 
ATOM     89  F   UNL     1      -7.965   4.375   9.654  1.00  0.00    -0.206 F 
ATOM     90  C   UNL     1      -9.527   3.451  11.140  1.00  0.00     0.040 A 
ATOM     91  C   UNL     1     -10.201   1.150  10.907  1.00  0.00     0.040 A 
ATOM     92  F   UNL     1      -9.270  -0.179   9.212  1.00  0.00    -0.206 F 
ATOM     93  C   UNL     1     -10.300   2.373  11.567  1.00  0.00     0.006 A 
ENDBRANCH  69  86
ENDBRANCH  43  44
ENDBRANCH  36  38
ENDBRANCH  35  36
ENDBRANCH  34  35
ENDBRANCH  33  34
ENDBRANCH  32  33
ENDBRANCH  31  32
ENDBRANCH   1  31
TORSDOF 21
