REMARK SMILES COCc1c(C(=O)OCCOCCOCCOC(=O)c2ccc(-c3c4nc(c(-c5c(F)cccc5F)c5ccc([nH]5)c(-c5c(F)cccc5F)c5nc(c(-c6c(F)cccc6F)c6ccc3[nH]6)C=C5)C=C4)cc2)sc2ccccc12
REMARK SMILES IDX 12 1 11 2 10 3 9 4 8 5 6 6 7 7 5 8 4 9 80 10 74 11 75 12
REMARK SMILES IDX 79 13 76 14 78 15 77 16 3 17 2 18 1 19 13 20 14 21 15 22
REMARK SMILES IDX 16 23 17 24 18 25 19 26 20 27 21 28 73 29 22 30 72 31 23 32
REMARK SMILES IDX 24 33 25 34 66 35 26 36 71 37 65 38 67 39 27 40 70 41 64 42
REMARK SMILES IDX 63 43 28 45 54 46 37 47 53 48 38 49 41 50 52 51 68 52 39 53
REMARK SMILES IDX 40 54 51 56 69 57 42 58 29 59 30 60 35 61 31 62 32 63 34 64
REMARK SMILES IDX 36 65 33 66 55 67 56 68 61 69 57 70 58 71 60 72 62 73 59 74
REMARK SMILES IDX 43 75 44 76 49 77 45 78 46 79 48 80 50 81 47 82
REMARK H PARENT 67 44 41 55
REMARK Flexibility Score: inf
ROOT
ATOM      1  C   UNL     1      -1.384   0.802  -0.256  1.00  0.00     0.188 C 
ENDROOT
BRANCH   1   2
ATOM      2  O   UNL     1      -1.348   2.200  -0.487  1.00  0.00    -0.376 OA
BRANCH   2   3
ATOM      3  C   UNL     1      -0.194   2.681  -1.165  1.00  0.00     0.202 C 
BRANCH   3   4
ATOM      4  C   UNL     1       0.027   2.162  -2.596  1.00  0.00     0.261 C 
BRANCH   4   5
ATOM      5  O   UNL     1      -0.012   0.730  -2.731  1.00  0.00    -0.459 OA
BRANCH   5   6
ATOM      6  C   UNL     1       1.117   0.015  -2.461  1.00  0.00     0.348 C 
ATOM      7  O   UNL     1       2.201   0.513  -2.201  1.00  0.00    -0.245 OA
BRANCH   6   8
ATOM      8  C   UNL     1       0.809  -1.409  -2.468  1.00  0.00     0.119 A 
ATOM      9  C   UNL     1       1.024  -2.375  -1.488  1.00  0.00     0.011 A 
ATOM     10  C   UNL     1       0.659  -3.703  -1.963  1.00  0.00    -0.001 A 
ATOM     11  S   UNL     1       0.092  -2.072  -3.873  1.00  0.00    -0.128 S 
ATOM     12  C   UNL     1       0.148  -3.672  -3.262  1.00  0.00     0.036 A 
ATOM     13  C   UNL     1       0.764  -4.974  -1.333  1.00  0.00     0.010 A 
ATOM     14  C   UNL     1      -0.244  -4.848  -3.935  1.00  0.00     0.019 A 
ATOM     15  C   UNL     1       0.398  -6.145  -2.004  1.00  0.00     0.001 A 
ATOM     16  C   UNL     1      -0.099  -6.080  -3.296  1.00  0.00     0.001 A 
BRANCH   9  17
ATOM     17  C   UNL     1       1.602  -2.152  -0.112  1.00  0.00     0.197 C 
BRANCH  17  18
ATOM     18  O   UNL     1       1.141  -0.953   0.500  1.00  0.00    -0.380 OA
ATOM     19  C   UNL     1       2.200  -0.105   0.922  1.00  0.00     0.195 C 
ENDBRANCH  17  18
ENDBRANCH   9  17
ENDBRANCH   6   8
ENDBRANCH   5   6
ENDBRANCH   4   5
ENDBRANCH   3   4
ENDBRANCH   2   3
ENDBRANCH   1   2
BRANCH   1  20
ATOM     20  C   UNL     1      -2.418   0.034  -1.103  1.00  0.00     0.188 C 
BRANCH  20  21
ATOM     21  O   UNL     1      -3.359   0.743  -1.895  1.00  0.00    -0.376 OA
BRANCH  21  22
ATOM     22  C   UNL     1      -3.949   1.921  -1.367  1.00  0.00     0.202 C 
BRANCH  22  23
ATOM     23  C   UNL     1      -4.656   1.869  -0.001  1.00  0.00     0.261 C 
BRANCH  23  24
ATOM     24  O   UNL     1      -3.962   1.172   1.052  1.00  0.00    -0.460 OA
BRANCH  24  25
ATOM     25  C   UNL     1      -4.509  -0.012   1.424  1.00  0.00     0.338 C 
ATOM     26  O   UNL     1      -5.528  -0.522   0.992  1.00  0.00    -0.246 OA
BRANCH  25  27
ATOM     27  C   UNL     1      -3.622  -0.727   2.367  1.00  0.00     0.060 A 
ATOM     28  C   UNL     1      -3.073  -1.951   1.961  1.00  0.00     0.016 A 
ATOM     29  C   UNL     1      -3.448  -0.281   3.679  1.00  0.00     0.016 A 
ATOM     30  C   UNL     1      -2.389  -2.752   2.873  1.00  0.00     0.010 A 
ATOM     31  C   UNL     1      -2.774  -1.097   4.600  1.00  0.00     0.010 A 
ATOM     32  C   UNL     1      -2.279  -2.356   4.212  1.00  0.00    -0.014 A 
BRANCH  32  33
ATOM     33  C   UNL     1      -1.801  -3.345   5.214  1.00  0.00     0.031 A 
ATOM     34  C   UNL     1      -2.808  -4.079   6.061  1.00  0.00     0.074 A 
ATOM     35  C   UNL     1      -0.494  -3.647   5.318  1.00  0.00     0.049 A 
ATOM     36  N   UNL     1      -2.619  -5.016   6.957  1.00  0.00    -0.248 NA
ATOM     37  C   UNL     1      -4.219  -3.707   5.871  1.00  0.00     0.031 C 
ATOM     38  C   UNL     1       0.580  -3.038   4.536  1.00  0.00     0.029 A 
ATOM     39  N   UNL     1       0.148  -4.551   6.128  1.00  0.00    -0.354 N 
ATOM     40  C   UNL     1      -3.882  -5.345   7.435  1.00  0.00     0.074 A 
ATOM     41  C   UNL     1      -4.826  -4.479   6.760  1.00  0.00     0.031 C 
ATOM     42  C   UNL     1       1.751  -3.585   4.905  1.00  0.00     0.029 A 
ATOM     43  C   UNL     1       1.511  -4.566   5.963  1.00  0.00     0.049 A 
ATOM     44  H   UNL     1      -0.324  -5.133   6.766  1.00  0.00     0.167 HD
ATOM     45  C   UNL     1      -4.230  -6.290   8.342  1.00  0.00     0.037 A 
ATOM     46  C   UNL     1       2.458  -5.283   6.600  1.00  0.00     0.037 A 
ATOM     47  C   UNL     1      -3.293  -7.151   9.019  1.00  0.00     0.049 A 
ATOM     48  C   UNL     1       2.051  -6.286   7.649  1.00  0.00     0.074 A 
ATOM     49  C   UNL     1      -3.551  -8.149   9.944  1.00  0.00     0.029 A 
ATOM     50  N   UNL     1      -1.917  -7.110   8.851  1.00  0.00    -0.354 N 
ATOM     51  N   UNL     1       0.852  -6.611   8.068  1.00  0.00    -0.248 NA
ATOM     52  C   UNL     1       3.136  -7.033   8.302  1.00  0.00     0.031 C 
ATOM     53  C   UNL     1      -2.328  -8.672  10.377  1.00  0.00     0.029 A 
ATOM     54  C   UNL     1      -1.311  -8.048   9.673  1.00  0.00     0.049 A 
ATOM     55  H   UNL     1      -1.441  -6.504   8.239  1.00  0.00     0.167 HD
ATOM     56  C   UNL     1       1.036  -7.622   9.006  1.00  0.00     0.074 A 
ATOM     57  C   UNL     1       2.461  -7.868   9.078  1.00  0.00     0.031 C 
ATOM     58  C   UNL     1       0.109  -8.287   9.739  1.00  0.00     0.037 A 
BRANCH  45  59
ATOM     59  C   UNL     1      -5.689  -6.426   8.675  1.00  0.00     0.057 A 
ATOM     60  C   UNL     1      -6.616  -6.944   7.760  1.00  0.00     0.134 A 
ATOM     61  C   UNL     1      -6.169  -6.061   9.940  1.00  0.00     0.134 A 
ATOM     62  F   UNL     1      -6.227  -7.302   6.527  1.00  0.00    -0.206 F 
ATOM     63  C   UNL     1      -7.969  -7.069   8.081  1.00  0.00     0.040 A 
ATOM     64  C   UNL     1      -7.514  -6.209  10.283  1.00  0.00     0.040 A 
ATOM     65  F   UNL     1      -5.337  -5.564  10.867  1.00  0.00    -0.206 F 
ATOM     66  C   UNL     1      -8.420  -6.707   9.349  1.00  0.00     0.006 A 
ENDBRANCH  45  59
BRANCH  46  67
ATOM     67  C   UNL     1       3.892  -5.086   6.266  1.00  0.00     0.057 A 
ATOM     68  C   UNL     1       4.640  -6.092   5.643  1.00  0.00     0.134 A 
ATOM     69  C   UNL     1       4.558  -3.899   6.595  1.00  0.00     0.134 A 
ATOM     70  F   UNL     1       4.066  -7.261   5.324  1.00  0.00    -0.206 F 
ATOM     71  C   UNL     1       6.002  -5.934   5.380  1.00  0.00     0.040 A 
ATOM     72  C   UNL     1       5.912  -3.716   6.311  1.00  0.00     0.040 A 
ATOM     73  F   UNL     1       3.898  -2.895   7.192  1.00  0.00    -0.206 F 
ATOM     74  C   UNL     1       6.640  -4.740   5.710  1.00  0.00     0.006 A 
ENDBRANCH  46  67
BRANCH  58  75
ATOM     75  C   UNL     1       0.606  -9.379  10.648  1.00  0.00     0.057 A 
ATOM     76  C   UNL     1       1.373  -9.110  11.790  1.00  0.00     0.134 A 
ATOM     77  C   UNL     1       0.312 -10.722  10.374  1.00  0.00     0.134 A 
ATOM     78  F   UNL     1       1.700  -7.848  12.108  1.00  0.00    -0.206 F 
ATOM     79  C   UNL     1       1.867 -10.136  12.598  1.00  0.00     0.040 A 
ATOM     80  C   UNL     1       0.771 -11.754  11.194  1.00  0.00     0.040 A 
ATOM     81  F   UNL     1      -0.430 -11.054   9.307  1.00  0.00    -0.206 F 
ATOM     82  C   UNL     1       1.563 -11.463  12.302  1.00  0.00     0.006 A 
ENDBRANCH  58  75
ENDBRANCH  32  33
ENDBRANCH  25  27
ENDBRANCH  24  25
ENDBRANCH  23  24
ENDBRANCH  22  23
ENDBRANCH  21  22
ENDBRANCH  20  21
ENDBRANCH   1  20
TORSDOF 19
