REMARK SMILES O=C(OCCOCCOCCOC(=O)[C@H](c1cnn(Cc2ccccc2)c1)[NH+]1CCOCC1)c1ccc(-c2c3nc(c(-c4c(F)cccc4F)c4ccc([nH]4)c(-c4c(F)cccc4F)c4nc(c(-c5c(F)cccc5F)c5ccc2[nH]5)C=C4)C=C3)cc1
REMARK SMILES IDX 8 1 7 2 6 3 5 4 4 5 3 6 2 7 1 8 34 9 35 10 87 11 36 12 86 13
REMARK SMILES IDX 37 14 38 15 39 16 80 17 40 18 85 19 79 20 81 21 41 22 84 23
REMARK SMILES IDX 78 24 77 25 42 27 68 28 51 29 67 30 52 31 55 32 66 33 82 34
REMARK SMILES IDX 53 35 54 36 65 38 83 39 56 40 43 41 44 42 49 43 45 44 46 45
REMARK SMILES IDX 48 46 50 47 47 48 69 49 70 50 75 51 71 52 72 53 74 54 76 55
REMARK SMILES IDX 73 56 57 57 58 58 63 59 59 60 60 61 62 62 64 63 61 64 9 65
REMARK SMILES IDX 10 66 11 67 12 68 13 69 14 70 15 71 28 72 29 73 33 74 30 76
REMARK SMILES IDX 32 77 31 78 16 79 17 80 27 81 18 82 19 83 20 84 21 85 22 86
REMARK SMILES IDX 26 87 23 88 25 89 24 90
REMARK H PARENT 81 26 55 37 28 75
REMARK Flexibility Score: inf
ROOT
ATOM      1  C   UNL     1       2.131  -2.587  -1.127  1.00  0.00     0.188 C 
ENDROOT
BRANCH   1   2
ATOM      2  C   UNL     1       1.123  -3.604  -0.545  1.00  0.00     0.188 C 
BRANCH   2   3
ATOM      3  O   UNL     1       1.200  -4.914  -1.058  1.00  0.00    -0.376 OA
BRANCH   3   4
ATOM      4  C   UNL     1       0.193  -5.404  -1.921  1.00  0.00     0.202 C 
BRANCH   4   5
ATOM      5  C   UNL     1      -0.416  -4.540  -3.035  1.00  0.00     0.261 C 
BRANCH   5   6
ATOM      6  O   UNL     1      -0.315  -3.119  -2.905  1.00  0.00    -0.460 OA
BRANCH   6   7
ATOM      7  C   UNL     1      -1.159  -2.205  -2.372  1.00  0.00     0.338 C 
ATOM      8  O   UNL     1      -1.050  -1.041  -2.678  1.00  0.00    -0.246 OA
BRANCH   7   9
ATOM      9  C   UNL     1      -2.090  -2.542  -1.253  1.00  0.00     0.060 A 
ATOM     10  C   UNL     1      -2.790  -3.735  -1.100  1.00  0.00     0.016 A 
ATOM     11  C   UNL     1      -2.294  -1.499  -0.324  1.00  0.00     0.016 A 
ATOM     12  C   UNL     1      -3.792  -3.823  -0.143  1.00  0.00     0.010 A 
ATOM     13  C   UNL     1      -3.285  -1.588   0.641  1.00  0.00     0.010 A 
ATOM     14  C   UNL     1      -4.093  -2.716   0.657  1.00  0.00    -0.014 A 
BRANCH  14  15
ATOM     15  C   UNL     1      -5.342  -2.757   1.405  1.00  0.00     0.031 A 
ATOM     16  C   UNL     1      -5.456  -3.808   2.447  1.00  0.00     0.074 A 
ATOM     17  C   UNL     1      -6.351  -1.903   1.139  1.00  0.00     0.049 A 
ATOM     18  N   UNL     1      -6.245  -4.833   2.465  1.00  0.00    -0.248 NA
ATOM     19  C   UNL     1      -4.509  -3.757   3.569  1.00  0.00     0.031 C 
ATOM     20  C   UNL     1      -6.331  -0.678   0.333  1.00  0.00     0.029 A 
ATOM     21  N   UNL     1      -7.629  -1.938   1.607  1.00  0.00    -0.354 N 
ATOM     22  C   UNL     1      -6.021  -5.470   3.683  1.00  0.00     0.074 A 
ATOM     23  C   UNL     1      -4.867  -4.835   4.269  1.00  0.00     0.031 C 
ATOM     24  C   UNL     1      -7.470   0.019   0.548  1.00  0.00     0.029 A 
ATOM     25  C   UNL     1      -8.355  -0.779   1.377  1.00  0.00     0.049 A 
ATOM     26  H   UNL     1      -8.006  -2.720   2.071  1.00  0.00     0.167 HD
ATOM     27  C   UNL     1      -6.910  -6.355   4.212  1.00  0.00     0.037 A 
ATOM     28  C   UNL     1      -9.576  -0.481   1.881  1.00  0.00     0.037 A 
ATOM     29  C   UNL     1      -7.799  -6.883   3.214  1.00  0.00     0.049 A 
ATOM     30  C   UNL     1     -10.219  -1.754   2.289  1.00  0.00     0.074 A 
ATOM     31  C   UNL     1      -7.629  -7.632   2.065  1.00  0.00     0.029 A 
ATOM     32  N   UNL     1      -9.072  -6.378   3.135  1.00  0.00    -0.354 N 
ATOM     33  N   UNL     1     -10.626  -2.664   1.450  1.00  0.00    -0.248 NA
ATOM     34  C   UNL     1     -10.004  -2.212   3.653  1.00  0.00     0.031 C 
ATOM     35  C   UNL     1      -8.591  -7.120   1.146  1.00  0.00     0.029 A 
ATOM     36  C   UNL     1      -9.317  -6.130   1.808  1.00  0.00     0.049 A 
ATOM     37  H   UNL     1      -9.691  -6.223   3.885  1.00  0.00     0.167 HD
ATOM     38  C   UNL     1     -10.320  -3.872   2.060  1.00  0.00     0.074 A 
ATOM     39  C   UNL     1     -10.018  -3.532   3.448  1.00  0.00     0.031 C 
ATOM     40  C   UNL     1     -10.070  -4.996   1.326  1.00  0.00     0.037 A 
BRANCH  27  41
ATOM     41  C   UNL     1      -7.165  -6.507   5.688  1.00  0.00     0.057 A 
ATOM     42  C   UNL     1      -7.932  -7.585   6.163  1.00  0.00     0.134 A 
ATOM     43  C   UNL     1      -6.920  -5.484   6.627  1.00  0.00     0.134 A 
ATOM     44  F   UNL     1      -8.257  -8.608   5.357  1.00  0.00    -0.206 F 
ATOM     45  C   UNL     1      -8.457  -7.617   7.462  1.00  0.00     0.040 A 
ATOM     46  C   UNL     1      -7.398  -5.528   7.939  1.00  0.00     0.040 A 
ATOM     47  F   UNL     1      -6.293  -4.349   6.294  1.00  0.00    -0.206 F 
ATOM     48  C   UNL     1      -8.194  -6.584   8.353  1.00  0.00     0.006 A 
ENDBRANCH  27  41
BRANCH  28  49
ATOM     49  C   UNL     1     -10.062   0.839   2.337  1.00  0.00     0.057 A 
ATOM     50  C   UNL     1     -11.426   1.087   2.534  1.00  0.00     0.134 A 
ATOM     51  C   UNL     1      -9.176   1.802   2.855  1.00  0.00     0.134 A 
ATOM     52  F   UNL     1     -12.345   0.205   2.116  1.00  0.00    -0.206 F 
ATOM     53  C   UNL     1     -11.883   2.219   3.223  1.00  0.00     0.040 A 
ATOM     54  C   UNL     1      -9.619   2.938   3.538  1.00  0.00     0.040 A 
ATOM     55  F   UNL     1      -7.848   1.626   2.794  1.00  0.00    -0.206 F 
ATOM     56  C   UNL     1     -10.978   3.143   3.737  1.00  0.00     0.006 A 
ENDBRANCH  28  49
BRANCH  40  57
ATOM     57  C   UNL     1     -10.355  -4.950  -0.150  1.00  0.00     0.057 A 
ATOM     58  C   UNL     1      -9.682  -4.106  -1.048  1.00  0.00     0.134 A 
ATOM     59  C   UNL     1     -11.222  -5.898  -0.705  1.00  0.00     0.134 A 
ATOM     60  F   UNL     1      -8.754  -3.240  -0.621  1.00  0.00    -0.206 F 
ATOM     61  C   UNL     1      -9.897  -4.174  -2.428  1.00  0.00     0.040 A 
ATOM     62  C   UNL     1     -11.420  -5.999  -2.084  1.00  0.00     0.040 A 
ATOM     63  F   UNL     1     -11.853  -6.780   0.086  1.00  0.00    -0.206 F 
ATOM     64  C   UNL     1     -10.764  -5.128  -2.951  1.00  0.00     0.006 A 
ENDBRANCH  40  57
ENDBRANCH  14  15
ENDBRANCH   7   9
ENDBRANCH   6   7
ENDBRANCH   5   6
ENDBRANCH   4   5
ENDBRANCH   3   4
ENDBRANCH   2   3
ENDBRANCH   1   2
BRANCH   1  65
ATOM     65  O   UNL     1       2.975  -2.914  -2.224  1.00  0.00    -0.376 OA
BRANCH  65  66
ATOM     66  C   UNL     1       3.482  -4.229  -2.387  1.00  0.00     0.202 C 
BRANCH  66  67
ATOM     67  C   UNL     1       4.267  -4.871  -1.240  1.00  0.00     0.261 C 
BRANCH  67  68
ATOM     68  O   UNL     1       3.643  -4.735   0.046  1.00  0.00    -0.459 OA
BRANCH  68  69
ATOM     69  C   UNL     1       4.313  -3.976   0.950  1.00  0.00     0.370 C 
ATOM     70  O   UNL     1       5.401  -3.468   0.708  1.00  0.00    -0.245 OA
BRANCH  69  71
ATOM     71  C   UNL     1       3.558  -3.893   2.307  1.00  0.00     0.329 C 
BRANCH  71  72
ATOM     72  N   UNL     1       3.744  -5.058   3.204  1.00  0.00    -0.315 N 
ATOM     73  C   UNL     1       5.107  -5.616   3.249  1.00  0.00     0.292 C 
ATOM     74  C   UNL     1       2.773  -6.154   3.005  1.00  0.00     0.292 C 
ATOM     75  H   UNL     1       3.563  -4.631   4.112  1.00  0.00     0.349 HD
ATOM     76  C   UNL     1       5.428  -6.640   2.143  1.00  0.00     0.221 C 
ATOM     77  C   UNL     1       3.134  -7.193   1.930  1.00  0.00     0.221 C 
ATOM     78  O   UNL     1       4.463  -7.696   2.102  1.00  0.00    -0.370 OA
ENDBRANCH  71  72
BRANCH  71  79
ATOM     79  C   UNL     1       3.929  -2.613   3.027  1.00  0.00     0.059 A 
ATOM     80  C   UNL     1       5.196  -1.982   3.018  1.00  0.00     0.145 A 
ATOM     81  C   UNL     1       3.138  -1.728   3.750  1.00  0.00     0.119 A 
ATOM     82  N   UNL     1       5.169  -0.762   3.537  1.00  0.00    -0.181 NA
ATOM     83  N   UNL     1       3.953  -0.681   4.102  1.00  0.00    -0.268 N 
BRANCH  83  84
ATOM     84  C   UNL     1       3.658   0.468   4.955  1.00  0.00     0.179 C 
BRANCH  84  85
ATOM     85  C   UNL     1       4.402   0.395   6.276  1.00  0.00    -0.027 A 
ATOM     86  C   UNL     1       3.720   0.562   7.487  1.00  0.00     0.005 A 
ATOM     87  C   UNL     1       5.792   0.178   6.322  1.00  0.00     0.005 A 
ATOM     88  C   UNL     1       4.401   0.451   8.703  1.00  0.00     0.000 A 
ATOM     89  C   UNL     1       6.465   0.040   7.532  1.00  0.00     0.000 A 
ATOM     90  C   UNL     1       5.768   0.171   8.726  1.00  0.00     0.000 A 
ENDBRANCH  84  85
ENDBRANCH  83  84
ENDBRANCH  71  79
ENDBRANCH  69  71
ENDBRANCH  68  69
ENDBRANCH  67  68
ENDBRANCH  66  67
ENDBRANCH  65  66
ENDBRANCH   1  65
TORSDOF 21
