REMARK SMILES CC[C@H](C)[C@@H](C)NC(=O)c1ccncc1/C=C/C(=O)OCCOCCOCCOC(=O)c1ccc(-c2c3nc(c(-c4c(F)cccc4F)c4ccc([nH]4)c(-c4c(F)cccc4F)c4nc(c(-c5c(F)cccc5F)c5ccc2[nH]5)C=C4)C=C3)cc1
REMARK SMILES IDX 23 1 22 2 21 3 20 4 18 5 19 6 17 7 16 8 15 9 10 10 11 11
REMARK SMILES IDX 12 12 14 13 13 14 8 15 7 16 9 18 5 19 6 20 3 21 4 22 2 23
REMARK SMILES IDX 1 24 24 25 25 26 26 27 27 28 28 29 29 30 30 31 31 32 32 33
REMARK SMILES IDX 33 34 85 35 34 36 84 37 35 38 36 39 37 40 78 41 38 42 83 43
REMARK SMILES IDX 77 44 79 45 39 46 82 47 76 48 75 49 40 51 66 52 49 53 65 54
REMARK SMILES IDX 50 55 53 56 64 57 80 58 51 59 52 60 63 62 81 63 54 64 41 65
REMARK SMILES IDX 42 66 47 67 43 68 44 69 46 70 48 71 45 72 67 73 68 74 73 75
REMARK SMILES IDX 69 76 70 77 72 78 74 79 71 80 55 81 56 82 61 83 57 84 58 85
REMARK SMILES IDX 60 86 62 87 59 88
REMARK H PARENT 7 17 79 50 53 61
REMARK Flexibility Score: inf
ROOT
ATOM      1  O   UNL     1      -1.802   9.946  -2.538  1.00  0.00    -0.376 OA
ENDROOT
BRANCH   1   2
ATOM      2  C   UNL     1      -0.636  10.455  -1.903  1.00  0.00     0.202 C 
BRANCH   2   3
ATOM      3  C   UNL     1      -0.582  10.569  -0.375  1.00  0.00     0.261 C 
BRANCH   3   4
ATOM      4  O   UNL     1      -0.907   9.356   0.323  1.00  0.00    -0.460 OA
BRANCH   4   5
ATOM      5  C   UNL     1      -1.930   9.458   1.203  1.00  0.00     0.330 C 
ATOM      6  O   UNL     1      -2.574  10.467   1.453  1.00  0.00    -0.247 OA
BRANCH   5   7
ATOM      7  C   UNL     1      -2.317   8.161   1.795  1.00  0.00     0.094 C 
ATOM      8  C   UNL     1      -1.644   6.999   1.745  1.00  0.00     0.018 C 
BRANCH   8   9
ATOM      9  C   UNL     1      -2.167   5.789   2.414  1.00  0.00     0.006 A 
ATOM     10  C   UNL     1      -1.388   4.902   3.175  1.00  0.00     0.050 A 
ATOM     11  C   UNL     1      -2.014   3.911   3.941  1.00  0.00     0.034 A 
ATOM     12  C   UNL     1      -3.374   3.722   3.798  1.00  0.00     0.112 A 
ATOM     13  C   UNL     1      -3.524   5.472   2.319  1.00  0.00     0.119 A 
ATOM     14  N   UNL     1      -4.137   4.457   2.972  1.00  0.00    -0.264 NA
BRANCH  10  15
ATOM     15  C   UNL     1       0.090   5.019   3.221  1.00  0.00     0.252 C 
ATOM     16  N   UNL     1       0.890   3.923   2.983  1.00  0.00    -0.349 N 
ATOM     17  H   UNL     1       1.853   4.125   2.948  1.00  0.00     0.164 HD
ATOM     18  O   UNL     1       0.614   6.107   3.438  1.00  0.00    -0.269 OA
BRANCH  16  19
ATOM     19  C   UNL     1       0.562   2.506   2.774  1.00  0.00     0.082 C 
ATOM     20  C   UNL     1       1.084   1.743   3.999  1.00  0.00     0.031 C 
BRANCH  19  21
ATOM     21  C   UNL     1       1.139   1.946   1.442  1.00  0.00     0.008 C 
ATOM     22  C   UNL     1       0.626   0.516   1.190  1.00  0.00     0.010 C 
BRANCH  21  23
ATOM     23  C   UNL     1       0.777   2.857   0.245  1.00  0.00     0.002 C 
ATOM     24  C   UNL     1       1.318   2.361  -1.091  1.00  0.00     0.004 C 
ENDBRANCH  21  23
ENDBRANCH  19  21
ENDBRANCH  16  19
ENDBRANCH  10  15
ENDBRANCH   8   9
ENDBRANCH   5   7
ENDBRANCH   4   5
ENDBRANCH   3   4
ENDBRANCH   2   3
ENDBRANCH   1   2
BRANCH   1  25
ATOM     25  C   UNL     1      -2.355   8.714  -2.102  1.00  0.00     0.188 C 
BRANCH  25  26
ATOM     26  C   UNL     1      -1.462   7.462  -1.974  1.00  0.00     0.188 C 
BRANCH  26  27
ATOM     27  O   UNL     1      -0.081   7.646  -2.155  1.00  0.00    -0.376 OA
BRANCH  27  28
ATOM     28  C   UNL     1       0.516   7.538  -3.436  1.00  0.00     0.202 C 
BRANCH  28  29
ATOM     29  C   UNL     1      -0.221   7.417  -4.784  1.00  0.00     0.261 C 
BRANCH  29  30
ATOM     30  O   UNL     1      -1.647   7.446  -4.785  1.00  0.00    -0.460 OA
BRANCH  30  31
ATOM     31  C   UNL     1      -2.255   6.244  -4.933  1.00  0.00     0.338 C 
ATOM     32  O   UNL     1      -1.731   5.148  -5.000  1.00  0.00    -0.246 OA
BRANCH  31  33
ATOM     33  C   UNL     1      -3.711   6.447  -4.836  1.00  0.00     0.060 A 
ATOM     34  C   UNL     1      -4.394   5.877  -3.755  1.00  0.00     0.016 A 
ATOM     35  C   UNL     1      -4.396   7.158  -5.822  1.00  0.00     0.016 A 
ATOM     36  C   UNL     1      -5.780   5.999  -3.669  1.00  0.00     0.010 A 
ATOM     37  C   UNL     1      -5.787   7.262  -5.745  1.00  0.00     0.010 A 
ATOM     38  C   UNL     1      -6.486   6.662  -4.683  1.00  0.00    -0.014 A 
BRANCH  38  39
ATOM     39  C   UNL     1      -7.965   6.585  -4.720  1.00  0.00     0.031 A 
ATOM     40  C   UNL     1      -8.610   5.535  -5.580  1.00  0.00     0.074 A 
ATOM     41  C   UNL     1      -8.723   7.425  -3.993  1.00  0.00     0.049 A 
ATOM     42  N   UNL     1      -9.878   5.320  -5.818  1.00  0.00    -0.248 NA
ATOM     43  C   UNL     1      -7.700   4.602  -6.265  1.00  0.00     0.031 C 
ATOM     44  C   UNL     1      -8.216   8.460  -3.095  1.00  0.00     0.029 A 
ATOM     45  N   UNL     1     -10.088   7.544  -3.912  1.00  0.00    -0.354 N 
ATOM     46  C   UNL     1      -9.919   4.226  -6.672  1.00  0.00     0.074 A 
ATOM     47  C   UNL     1      -8.550   3.842  -6.940  1.00  0.00     0.031 C 
ATOM     48  C   UNL     1      -9.259   9.128  -2.571  1.00  0.00     0.029 A 
ATOM     49  C   UNL     1     -10.501   8.585  -3.118  1.00  0.00     0.049 A 
ATOM     50  H   UNL     1     -10.710   6.941  -4.379  1.00  0.00     0.167 HD
ATOM     51  C   UNL     1     -11.001   3.590  -7.180  1.00  0.00     0.037 A 
ATOM     52  C   UNL     1     -11.740   9.059  -2.885  1.00  0.00     0.037 A 
ATOM     53  C   UNL     1     -12.362   3.981  -6.931  1.00  0.00     0.049 A 
ATOM     54  C   UNL     1     -12.925   8.385  -3.527  1.00  0.00     0.074 A 
ATOM     55  C   UNL     1     -13.527   3.409  -7.412  1.00  0.00     0.029 A 
ATOM     56  N   UNL     1     -12.741   5.050  -6.133  1.00  0.00    -0.354 N 
ATOM     57  N   UNL     1     -12.956   7.343  -4.322  1.00  0.00    -0.248 NA
ATOM     58  C   UNL     1     -14.251   8.952  -3.235  1.00  0.00     0.031 C 
ATOM     59  C   UNL     1     -14.610   4.156  -6.936  1.00  0.00     0.029 A 
ATOM     60  C   UNL     1     -14.121   5.163  -6.120  1.00  0.00     0.049 A 
ATOM     61  H   UNL     1     -12.120   5.640  -5.647  1.00  0.00     0.167 HD
ATOM     62  C   UNL     1     -14.298   7.114  -4.602  1.00  0.00     0.074 A 
ATOM     63  C   UNL     1     -15.052   8.117  -3.880  1.00  0.00     0.031 C 
ATOM     64  C   UNL     1     -14.857   6.160  -5.386  1.00  0.00     0.037 A 
BRANCH  51  65
ATOM     65  C   UNL     1     -10.749   2.411  -8.071  1.00  0.00     0.057 A 
ATOM     66  C   UNL     1     -10.298   1.187  -7.560  1.00  0.00     0.134 A 
ATOM     67  C   UNL     1     -10.990   2.488  -9.448  1.00  0.00     0.134 A 
ATOM     68  F   UNL     1     -10.033   1.053  -6.251  1.00  0.00    -0.206 F 
ATOM     69  C   UNL     1     -10.078   0.087  -8.390  1.00  0.00     0.040 A 
ATOM     70  C   UNL     1     -10.796   1.388 -10.285  1.00  0.00     0.040 A 
ATOM     71  F   UNL     1     -11.424   3.631 -10.001  1.00  0.00    -0.206 F 
ATOM     72  C   UNL     1     -10.334   0.184  -9.756  1.00  0.00     0.006 A 
ENDBRANCH  51  65
BRANCH  52  73
ATOM     73  C   UNL     1     -11.932  10.257  -2.028  1.00  0.00     0.057 A 
ATOM     74  C   UNL     1     -12.561  10.169  -0.781  1.00  0.00     0.134 A 
ATOM     75  C   UNL     1     -11.527  11.527  -2.458  1.00  0.00     0.134 A 
ATOM     76  F   UNL     1     -12.996   8.984  -0.327  1.00  0.00    -0.206 F 
ATOM     77  C   UNL     1     -12.802  11.302  -0.002  1.00  0.00     0.040 A 
ATOM     78  C   UNL     1     -11.737  12.664  -1.677  1.00  0.00     0.040 A 
ATOM     79  F   UNL     1     -10.920  11.679  -3.644  1.00  0.00    -0.206 F 
ATOM     80  C   UNL     1     -12.385  12.555  -0.449  1.00  0.00     0.006 A 
ENDBRANCH  52  73
BRANCH  64  81
ATOM     81  C   UNL     1     -16.355   6.127  -5.472  1.00  0.00     0.057 A 
ATOM     82  C   UNL     1     -17.077   7.087  -6.191  1.00  0.00     0.134 A 
ATOM     83  C   UNL     1     -17.080   5.093  -4.865  1.00  0.00     0.134 A 
ATOM     84  F   UNL     1     -16.444   8.109  -6.787  1.00  0.00    -0.206 F 
ATOM     85  C   UNL     1     -18.469   7.033  -6.285  1.00  0.00     0.040 A 
ATOM     86  C   UNL     1     -18.469   5.013  -4.973  1.00  0.00     0.040 A 
ATOM     87  F   UNL     1     -16.448   4.135  -4.170  1.00  0.00    -0.206 F 
ATOM     88  C   UNL     1     -19.168   5.989  -5.680  1.00  0.00     0.006 A 
ENDBRANCH  64  81
ENDBRANCH  38  39
ENDBRANCH  31  33
ENDBRANCH  30  31
ENDBRANCH  29  30
ENDBRANCH  28  29
ENDBRANCH  27  28
ENDBRANCH  26  27
ENDBRANCH  25  26
ENDBRANCH   1  25
TORSDOF 22
