REMARK SMILES CC(C)[C@H](NC(=O)[C@H](Cc1ccccc1)n1c(=O)[nH]c2ccccc2c1=O)C(=O)OCCOCCOCCOC(=O)c1ccc(-c2c3nc(c(-c4c(F)cccc4F)c4ccc([nH]4)c(-c4c(F)cccc4F)c4nc(c(-c5c(F)cccc5F)c5ccc2[nH]5)C=C4)C=C3)cc1
REMARK SMILES IDX 34 1 33 2 32 3 31 4 30 5 28 6 29 7 4 8 2 9 1 10 3 11 5 12
REMARK SMILES IDX 6 13 7 15 8 16 16 17 17 18 26 19 18 20 19 21 25 22 27 23
REMARK SMILES IDX 20 24 24 26 21 27 23 28 22 29 9 30 10 31 11 32 15 33 12 34
REMARK SMILES IDX 14 35 13 36 35 37 36 38 37 39 38 40 39 41 40 42 41 43 42 44
REMARK SMILES IDX 43 45 95 46 44 47 94 48 45 49 46 50 47 51 88 52 48 53 93 54
REMARK SMILES IDX 87 55 89 56 49 57 92 58 86 59 85 60 50 62 76 63 59 64 75 65
REMARK SMILES IDX 60 66 63 67 74 68 90 69 61 70 62 71 73 73 91 74 64 75 51 76
REMARK SMILES IDX 52 77 57 78 53 79 54 80 56 81 58 82 55 83 77 84 78 85 83 86
REMARK SMILES IDX 79 87 80 88 82 89 84 90 81 91 65 92 66 93 71 94 67 95 68 96
REMARK SMILES IDX 70 97 72 98 69 99
REMARK H PARENT 5 14 19 25 89 61 63 72
REMARK Flexibility Score: inf
ROOT
ATOM      1  C   UNL     1       0.937  -1.102   8.297  1.00  0.00     0.188 C 
ENDROOT
BRANCH   1   2
ATOM      2  O   UNL     1       1.984  -2.066   8.370  1.00  0.00    -0.376 OA
BRANCH   2   3
ATOM      3  C   UNL     1       2.600  -2.488   7.159  1.00  0.00     0.202 C 
BRANCH   3   4
ATOM      4  C   UNL     1       1.686  -3.225   6.181  1.00  0.00     0.261 C 
BRANCH   4   5
ATOM      5  O   UNL     1       0.634  -2.374   5.682  1.00  0.00    -0.462 OA
BRANCH   5   6
ATOM      6  C   UNL     1      -0.606  -2.917   5.556  1.00  0.00     0.328 C 
ATOM      7  O   UNL     1      -0.869  -4.087   5.803  1.00  0.00    -0.250 OA
BRANCH   6   8
ATOM      8  C   UNL     1      -1.679  -1.858   5.162  1.00  0.00     0.194 C 
BRANCH   8   9
ATOM      9  C   UNL     1      -2.833  -2.414   4.297  1.00  0.00     0.017 C 
ATOM     10  C   UNL     1      -3.818  -3.229   5.151  1.00  0.00     0.010 C 
ATOM     11  C   UNL     1      -3.649  -1.344   3.561  1.00  0.00     0.010 C 
ENDBRANCH   8   9
BRANCH   8  12
ATOM     12  N   UNL     1      -1.205  -0.527   4.769  1.00  0.00    -0.341 N 
ATOM     13  C   UNL     1      -0.381   0.015   3.840  1.00  0.00     0.244 C 
ATOM     14  H   UNL     1      -1.596   0.170   5.343  1.00  0.00     0.164 HD
ATOM     15  O   UNL     1      -0.169   1.212   4.082  1.00  0.00    -0.273 OA
BRANCH  13  16
ATOM     16  C   UNL     1       0.478  -0.767   2.814  1.00  0.00     0.189 C 
BRANCH  16  17
ATOM     17  N   UNL     1      -0.147  -1.961   2.202  1.00  0.00    -0.247 N 
ATOM     18  C   UNL     1      -1.155  -1.815   1.271  1.00  0.00     0.329 A 
ATOM     19  C   UNL     1       0.367  -3.216   2.527  1.00  0.00     0.264 A 
ATOM     20  O   UNL     1      -1.691  -0.754   0.975  1.00  0.00    -0.248 OA
ATOM     21  N   UNL     1      -1.644  -2.948   0.684  1.00  0.00    -0.307 N 
ATOM     22  C   UNL     1      -0.467  -4.381   2.189  1.00  0.00     0.064 A 
ATOM     23  O   UNL     1       1.448  -3.410   3.072  1.00  0.00    -0.268 OA
ATOM     24  C   UNL     1      -1.411  -4.222   1.187  1.00  0.00     0.055 A 
ATOM     25  H   UNL     1      -2.186  -2.858  -0.133  1.00  0.00     0.171 HD
ATOM     26  C   UNL     1      -0.391  -5.579   2.902  1.00  0.00     0.016 A 
ATOM     27  C   UNL     1      -2.219  -5.287   0.799  1.00  0.00     0.027 A 
ATOM     28  C   UNL     1      -1.256  -6.624   2.576  1.00  0.00     0.001 A 
ATOM     29  C   UNL     1      -2.147  -6.489   1.507  1.00  0.00     0.002 A 
ENDBRANCH  16  17
BRANCH  16  30
ATOM     30  C   UNL     1       1.286   0.151   1.830  1.00  0.00     0.071 C 
BRANCH  30  31
ATOM     31  C   UNL     1       0.559   1.230   1.048  1.00  0.00    -0.045 A 
ATOM     32  C   UNL     1       0.065   0.986  -0.238  1.00  0.00     0.004 A 
ATOM     33  C   UNL     1       0.320   2.492   1.615  1.00  0.00     0.004 A 
ATOM     34  C   UNL     1      -0.778   1.909  -0.864  1.00  0.00     0.000 A 
ATOM     35  C   UNL     1      -0.520   3.417   0.992  1.00  0.00     0.000 A 
ATOM     36  C   UNL     1      -1.094   3.112  -0.237  1.00  0.00     0.000 A 
ENDBRANCH  30  31
ENDBRANCH  16  30
ENDBRANCH  13  16
ENDBRANCH   8  12
ENDBRANCH   6   8
ENDBRANCH   5   6
ENDBRANCH   4   5
ENDBRANCH   3   4
ENDBRANCH   2   3
ENDBRANCH   1   2
BRANCH   1  37
ATOM     37  C   UNL     1       1.056   0.046   7.282  1.00  0.00     0.188 C 
BRANCH  37  38
ATOM     38  O   UNL     1       2.397   0.408   7.001  1.00  0.00    -0.376 OA
BRANCH  38  39
ATOM     39  C   UNL     1       2.668   1.796   7.115  1.00  0.00     0.202 C 
BRANCH  39  40
ATOM     40  C   UNL     1       2.994   2.148   8.568  1.00  0.00     0.261 C 
BRANCH  40  41
ATOM     41  O   UNL     1       1.944   1.825   9.501  1.00  0.00    -0.460 OA
BRANCH  41  42
ATOM     42  C   UNL     1       0.807   2.554   9.431  1.00  0.00     0.338 C 
ATOM     43  O   UNL     1       0.587   3.506   8.703  1.00  0.00    -0.246 OA
BRANCH  42  44
ATOM     44  C   UNL     1      -0.220   1.859  10.241  1.00  0.00     0.060 A 
ATOM     45  C   UNL     1      -1.436   1.494   9.643  1.00  0.00     0.016 A 
ATOM     46  C   UNL     1       0.037   1.517  11.570  1.00  0.00     0.016 A 
ATOM     47  C   UNL     1      -2.393   0.781  10.373  1.00  0.00     0.010 A 
ATOM     48  C   UNL     1      -0.930   0.827  12.305  1.00  0.00     0.010 A 
ATOM     49  C   UNL     1      -2.154   0.462  11.717  1.00  0.00    -0.014 A 
BRANCH  49  50
ATOM     50  C   UNL     1      -3.215  -0.126  12.573  1.00  0.00     0.031 A 
ATOM     51  C   UNL     1      -4.038   0.792  13.431  1.00  0.00     0.074 A 
ATOM     52  C   UNL     1      -3.405  -1.456  12.644  1.00  0.00     0.049 A 
ATOM     53  N   UNL     1      -4.891   0.503  14.379  1.00  0.00    -0.248 NA
ATOM     54  C   UNL     1      -3.869   2.233  13.188  1.00  0.00     0.031 C 
ATOM     55  C   UNL     1      -2.708  -2.458  11.841  1.00  0.00     0.029 A 
ATOM     56  N   UNL     1      -4.229  -2.193  13.462  1.00  0.00    -0.354 N 
ATOM     57  C   UNL     1      -5.349   1.724  14.858  1.00  0.00     0.074 A 
ATOM     58  C   UNL     1      -4.670   2.756  14.104  1.00  0.00     0.031 C 
ATOM     59  C   UNL     1      -3.110  -3.682  12.228  1.00  0.00     0.029 A 
ATOM     60  C   UNL     1      -4.057  -3.550  13.336  1.00  0.00     0.049 A 
ATOM     61  H   UNL     1      -4.880  -1.787  14.079  1.00  0.00     0.167 HD
ATOM     62  C   UNL     1      -6.251   1.963  15.838  1.00  0.00     0.037 A 
ATOM     63  C   UNL     1      -4.567  -4.567  14.060  1.00  0.00     0.037 A 
ATOM     64  C   UNL     1      -6.921   0.940  16.596  1.00  0.00     0.049 A 
ATOM     65  C   UNL     1      -5.493  -4.272  15.215  1.00  0.00     0.074 A 
ATOM     66  C   UNL     1      -7.876   1.089  17.587  1.00  0.00     0.029 A 
ATOM     67  N   UNL     1      -6.696  -0.420  16.457  1.00  0.00    -0.354 N 
ATOM     68  N   UNL     1      -5.944  -3.118  15.642  1.00  0.00    -0.248 NA
ATOM     69  C   UNL     1      -5.969  -5.425  15.997  1.00  0.00     0.031 C 
ATOM     70  C   UNL     1      -8.188  -0.179  18.087  1.00  0.00     0.029 A 
ATOM     71  C   UNL     1      -7.466  -1.120  17.371  1.00  0.00     0.049 A 
ATOM     72  H   UNL     1      -6.081  -0.828  15.806  1.00  0.00     0.167 HD
ATOM     73  C   UNL     1      -6.768  -3.406  16.725  1.00  0.00     0.074 A 
ATOM     74  C   UNL     1      -6.769  -4.844  16.881  1.00  0.00     0.031 C 
ATOM     75  C   UNL     1      -7.462  -2.553  17.518  1.00  0.00     0.037 A 
BRANCH  62  76
ATOM     76  C   UNL     1      -6.541   3.395  16.173  1.00  0.00     0.057 A 
ATOM     77  C   UNL     1      -7.294   4.216  15.325  1.00  0.00     0.134 A 
ATOM     78  C   UNL     1      -6.090   3.948  17.379  1.00  0.00     0.134 A 
ATOM     79  F   UNL     1      -7.742   3.750  14.149  1.00  0.00    -0.206 F 
ATOM     80  C   UNL     1      -7.573   5.543  15.655  1.00  0.00     0.040 A 
ATOM     81  C   UNL     1      -6.384   5.266  17.731  1.00  0.00     0.040 A 
ATOM     82  F   UNL     1      -5.367   3.213  18.237  1.00  0.00    -0.206 F 
ATOM     83  C   UNL     1      -7.123   6.069  16.865  1.00  0.00     0.006 A 
ENDBRANCH  62  76
BRANCH  63  84
ATOM     84  C   UNL     1      -4.182  -5.969  13.757  1.00  0.00     0.057 A 
ATOM     85  C   UNL     1      -5.112  -6.883  13.246  1.00  0.00     0.134 A 
ATOM     86  C   UNL     1      -2.888  -6.441  14.011  1.00  0.00     0.134 A 
ATOM     87  F   UNL     1      -6.376  -6.500  13.014  1.00  0.00    -0.206 F 
ATOM     88  C   UNL     1      -4.774  -8.217  13.013  1.00  0.00     0.040 A 
ATOM     89  C   UNL     1      -2.529  -7.766  13.758  1.00  0.00     0.040 A 
ATOM     90  F   UNL     1      -1.953  -5.620  14.510  1.00  0.00    -0.206 F 
ATOM     91  C   UNL     1      -3.477  -8.661  13.264  1.00  0.00     0.006 A 
ENDBRANCH  63  84
BRANCH  75  92
ATOM     92  C   UNL     1      -8.298  -3.145  18.616  1.00  0.00     0.057 A 
ATOM     93  C   UNL     1      -7.723  -3.678  19.776  1.00  0.00     0.134 A 
ATOM     94  C   UNL     1      -9.697  -3.125  18.538  1.00  0.00     0.134 A 
ATOM     95  F   UNL     1      -6.390  -3.738  19.908  1.00  0.00    -0.206 F 
ATOM     96  C   UNL     1      -8.509  -4.180  20.816  1.00  0.00     0.040 A 
ATOM     97  C   UNL     1     -10.494  -3.601  19.581  1.00  0.00     0.040 A 
ATOM     98  F   UNL     1     -10.313  -2.621  17.458  1.00  0.00    -0.206 F 
ATOM     99  C   UNL     1      -9.899  -4.134  20.723  1.00  0.00     0.006 A 
ENDBRANCH  75  92
ENDBRANCH  49  50
ENDBRANCH  42  44
ENDBRANCH  41  42
ENDBRANCH  40  41
ENDBRANCH  39  40
ENDBRANCH  38  39
ENDBRANCH  37  38
ENDBRANCH   1  37
TORSDOF 23
