REMARK SMILES COc1cc(/C=C/C(=O)OCCOCCOCCOC(=O)c2ccc(-c3c4nc(c(-c5c(F)cccc5F)c5ccc([nH]5)c(-c5c(F)cccc5F)c5nc(c(-c6c(F)cccc6F)c6ccc3[nH]6)C=C5)C=C4)cc2)cc(OC)c1O
REMARK SMILES IDX 14 1 13 2 12 3 11 4 10 5 8 6 9 7 7 8 6 9 5 10 3 11 4 12
REMARK SMILES IDX 80 13 77 14 76 15 2 16 1 17 81 18 78 20 79 21 15 22 16 23
REMARK SMILES IDX 17 24 18 25 19 26 20 27 21 28 22 29 23 30 75 31 24 32 74 33
REMARK SMILES IDX 25 34 26 35 27 36 68 37 28 38 73 39 67 40 69 41 29 42 72 43
REMARK SMILES IDX 66 44 65 45 30 47 56 48 39 49 55 50 40 51 43 52 54 53 70 54
REMARK SMILES IDX 41 55 42 56 53 58 71 59 44 60 31 61 32 62 37 63 33 64 34 65
REMARK SMILES IDX 36 66 38 67 35 68 57 69 58 70 63 71 59 72 60 73 62 74 64 75
REMARK SMILES IDX 61 76 45 77 46 78 51 79 47 80 48 81 50 82 52 83 49 84
REMARK H PARENT 81 19 69 46 43 57
REMARK Flexibility Score: inf
ROOT
ATOM      1  C   UNL     1      -2.357  -8.212  -1.213  1.00  0.00     0.188 C 
ENDROOT
BRANCH   1   2
ATOM      2  O   UNL     1      -2.446  -9.463  -1.885  1.00  0.00    -0.376 OA
BRANCH   2   3
ATOM      3  C   UNL     1      -1.348 -10.365  -1.848  1.00  0.00     0.202 C 
BRANCH   3   4
ATOM      4  C   UNL     1       0.065  -9.882  -2.219  1.00  0.00     0.261 C 
BRANCH   4   5
ATOM      5  O   UNL     1       0.476  -8.641  -1.620  1.00  0.00    -0.460 OA
BRANCH   5   6
ATOM      6  C   UNL     1       0.679  -7.619  -2.487  1.00  0.00     0.330 C 
ATOM      7  O   UNL     1       0.564  -7.668  -3.703  1.00  0.00    -0.247 OA
BRANCH   6   8
ATOM      8  C   UNL     1       0.955  -6.332  -1.811  1.00  0.00     0.094 C 
ATOM      9  C   UNL     1       1.374  -6.158  -0.547  1.00  0.00     0.016 C 
BRANCH   9  10
ATOM     10  C   UNL     1       1.640  -4.825   0.028  1.00  0.00    -0.018 A 
ATOM     11  C   UNL     1       1.153  -2.442   0.266  1.00  0.00     0.165 A 
ATOM     12  C   UNL     1       0.868  -3.698  -0.287  1.00  0.00     0.058 A 
ATOM     13  C   UNL     1       2.203  -2.312   1.188  1.00  0.00     0.200 A 
ATOM     14  C   UNL     1       2.983  -3.426   1.525  1.00  0.00     0.165 A 
ATOM     15  C   UNL     1       2.679  -4.673   0.953  1.00  0.00     0.058 A 
BRANCH  11  16
ATOM     16  O   UNL     1       0.282  -1.450  -0.107  1.00  0.00    -0.493 OA
ATOM     17  C   UNL     1       0.832  -0.153  -0.328  1.00  0.00     0.278 C 
ENDBRANCH  11  16
BRANCH  13  18
ATOM     18  O   UNL     1       2.405  -1.117   1.823  1.00  0.00    -0.502 OA
ATOM     19  H   UNL     1       1.883  -0.372   1.597  1.00  0.00     0.293 HD
ENDBRANCH  13  18
BRANCH  14  20
ATOM     20  O   UNL     1       4.019  -3.494   2.419  1.00  0.00    -0.493 OA
ATOM     21  C   UNL     1       4.588  -2.279   2.886  1.00  0.00     0.278 C 
ENDBRANCH  14  20
ENDBRANCH   9  10
ENDBRANCH   6   8
ENDBRANCH   5   6
ENDBRANCH   4   5
ENDBRANCH   3   4
ENDBRANCH   2   3
ENDBRANCH   1   2
BRANCH   1  22
ATOM     22  C   UNL     1      -1.802  -8.143   0.226  1.00  0.00     0.188 C 
BRANCH  22  23
ATOM     23  O   UNL     1      -1.346  -9.376   0.729  1.00  0.00    -0.376 OA
BRANCH  23  24
ATOM     24  C   UNL     1      -2.165 -10.118   1.616  1.00  0.00     0.202 C 
BRANCH  24  25
ATOM     25  C   UNL     1      -3.706 -10.147   1.556  1.00  0.00     0.261 C 
BRANCH  25  26
ATOM     26  O   UNL     1      -4.377  -9.085   0.870  1.00  0.00    -0.460 OA
BRANCH  26  27
ATOM     27  C   UNL     1      -4.813  -8.048   1.615  1.00  0.00     0.338 C 
ATOM     28  O   UNL     1      -4.643  -7.869   2.816  1.00  0.00    -0.246 OA
BRANCH  27  29
ATOM     29  C   UNL     1      -5.418  -7.060   0.707  1.00  0.00     0.060 A 
ATOM     30  C   UNL     1      -4.750  -5.852   0.467  1.00  0.00     0.016 A 
ATOM     31  C   UNL     1      -6.639  -7.331   0.085  1.00  0.00     0.016 A 
ATOM     32  C   UNL     1      -5.303  -4.911  -0.404  1.00  0.00     0.010 A 
ATOM     33  C   UNL     1      -7.200  -6.379  -0.770  1.00  0.00     0.010 A 
ATOM     34  C   UNL     1      -6.541  -5.160  -1.011  1.00  0.00    -0.014 A 
BRANCH  34  35
ATOM     35  C   UNL     1      -7.207  -4.111  -1.819  1.00  0.00     0.031 A 
ATOM     36  C   UNL     1      -8.280  -3.272  -1.187  1.00  0.00     0.074 A 
ATOM     37  C   UNL     1      -6.872  -3.919  -3.107  1.00  0.00     0.049 A 
ATOM     38  N   UNL     1      -9.050  -2.362  -1.727  1.00  0.00    -0.248 NA
ATOM     39  C   UNL     1      -8.517  -3.490   0.248  1.00  0.00     0.031 C 
ATOM     40  C   UNL     1      -5.823  -4.641  -3.824  1.00  0.00     0.029 A 
ATOM     41  N   UNL     1      -7.398  -3.066  -4.045  1.00  0.00    -0.354 N 
ATOM     42  C   UNL     1      -9.866  -1.904  -0.702  1.00  0.00     0.074 A 
ATOM     43  C   UNL     1      -9.516  -2.654   0.485  1.00  0.00     0.031 C 
ATOM     44  C   UNL     1      -5.793  -4.211  -5.097  1.00  0.00     0.029 A 
ATOM     45  C   UNL     1      -6.845  -3.216  -5.293  1.00  0.00     0.049 A 
ATOM     46  H   UNL     1      -8.103  -2.409  -3.843  1.00  0.00     0.167 HD
ATOM     47  C   UNL     1     -10.819  -0.942  -0.747  1.00  0.00     0.037 A 
ATOM     48  C   UNL     1      -7.175  -2.640  -6.466  1.00  0.00     0.037 A 
ATOM     49  C   UNL     1     -11.174  -0.207  -1.933  1.00  0.00     0.049 A 
ATOM     50  C   UNL     1      -8.307  -1.647  -6.513  1.00  0.00     0.074 A 
ATOM     51  C   UNL     1     -12.106   0.806  -2.073  1.00  0.00     0.029 A 
ATOM     52  N   UNL     1     -10.626  -0.422  -3.189  1.00  0.00    -0.354 N 
ATOM     53  N   UNL     1      -9.050  -1.192  -5.533  1.00  0.00    -0.248 NA
ATOM     54  C   UNL     1      -8.651  -1.095  -7.832  1.00  0.00     0.031 C 
ATOM     55  C   UNL     1     -12.164   1.163  -3.424  1.00  0.00     0.029 A 
ATOM     56  C   UNL     1     -11.229   0.411  -4.117  1.00  0.00     0.049 A 
ATOM     57  H   UNL     1      -9.914  -1.071  -3.391  1.00  0.00     0.167 HD
ATOM     58  C   UNL     1      -9.934  -0.289  -6.112  1.00  0.00     0.074 A 
ATOM     59  C   UNL     1      -9.623  -0.247  -7.525  1.00  0.00     0.031 C 
ATOM     60  C   UNL     1     -10.916   0.440  -5.524  1.00  0.00     0.037 A 
BRANCH  47  61
ATOM     61  C   UNL     1     -11.566  -0.654   0.522  1.00  0.00     0.057 A 
ATOM     62  C   UNL     1     -10.962  -0.013   1.611  1.00  0.00     0.134 A 
ATOM     63  C   UNL     1     -12.916  -1.007   0.649  1.00  0.00     0.134 A 
ATOM     64  F   UNL     1      -9.668   0.339   1.561  1.00  0.00    -0.206 F 
ATOM     65  C   UNL     1     -11.665   0.243   2.790  1.00  0.00     0.040 A 
ATOM     66  C   UNL     1     -13.637  -0.732   1.812  1.00  0.00     0.040 A 
ATOM     67  F   UNL     1     -13.558  -1.619  -0.358  1.00  0.00    -0.206 F 
ATOM     68  C   UNL     1     -13.009  -0.112   2.890  1.00  0.00     0.006 A 
ENDBRANCH  47  61
BRANCH  48  69
ATOM     69  C   UNL     1      -6.441  -3.005  -7.704  1.00  0.00     0.057 A 
ATOM     70  C   UNL     1      -5.604  -2.087  -8.348  1.00  0.00     0.134 A 
ATOM     71  C   UNL     1      -6.569  -4.275  -8.281  1.00  0.00     0.134 A 
ATOM     72  F   UNL     1      -5.462  -0.846  -7.859  1.00  0.00    -0.206 F 
ATOM     73  C   UNL     1      -4.928  -2.413  -9.525  1.00  0.00     0.040 A 
ATOM     74  C   UNL     1      -5.880  -4.623  -9.444  1.00  0.00     0.040 A 
ATOM     75  F   UNL     1      -7.361  -5.199  -7.717  1.00  0.00    -0.206 F 
ATOM     76  C   UNL     1      -5.061  -3.688 -10.072  1.00  0.00     0.006 A 
ENDBRANCH  48  69
BRANCH  60  77
ATOM     77  C   UNL     1     -11.717   1.357  -6.403  1.00  0.00     0.057 A 
ATOM     78  C   UNL     1     -12.658   0.867  -7.318  1.00  0.00     0.134 A 
ATOM     79  C   UNL     1     -11.581   2.748  -6.300  1.00  0.00     0.134 A 
ATOM     80  F   UNL     1     -12.829  -0.455  -7.475  1.00  0.00    -0.206 F 
ATOM     81  C   UNL     1     -13.422   1.726  -8.110  1.00  0.00     0.040 A 
ATOM     82  C   UNL     1     -12.358   3.617  -7.067  1.00  0.00     0.040 A 
ATOM     83  F   UNL     1     -10.704   3.285  -5.439  1.00  0.00    -0.206 F 
ATOM     84  C   UNL     1     -13.279   3.106  -7.980  1.00  0.00     0.006 A 
ENDBRANCH  60  77
ENDBRANCH  34  35
ENDBRANCH  27  29
ENDBRANCH  26  27
ENDBRANCH  25  26
ENDBRANCH  24  25
ENDBRANCH  23  24
ENDBRANCH  22  23
ENDBRANCH   1  22
TORSDOF 21
