REMARK SMILES CCn1cc(Br)cc1C(=O)N[C@@H]1C=C[C@@H](C(=O)OCCOCCOCCOC(=O)c2ccc(-c3c4nc(c(-c5c(F)cccc5F)c5ccc([nH]5)c(-c5c(F)cccc5F)c5nc(c(-c6c(F)cccc6F)c6ccc3[nH]6)C=C5)C=C4)cc2)C1
REMARK SMILES IDX 22 1 21 2 20 3 19 4 18 5 16 6 17 7 15 8 12 9 13 10 84 11
REMARK SMILES IDX 14 12 11 13 9 14 10 15 8 17 3 18 4 19 5 20 7 21 6 22 2 23
REMARK SMILES IDX 1 24 23 25 24 26 25 27 26 28 27 29 28 30 29 31 30 32 31 33
REMARK SMILES IDX 83 34 32 35 82 36 33 37 34 38 35 39 76 40 36 41 81 42 75 43
REMARK SMILES IDX 77 44 37 45 80 46 74 47 73 48 38 50 64 51 47 52 63 53 48 54
REMARK SMILES IDX 51 55 62 56 78 57 49 58 50 59 61 61 79 62 52 63 39 64 40 65
REMARK SMILES IDX 45 66 41 67 42 68 44 69 46 70 43 71 65 72 66 73 71 74 67 75
REMARK SMILES IDX 68 76 70 77 72 78 69 79 53 80 54 81 59 82 55 83 56 84 58 85
REMARK SMILES IDX 60 86 57 87
REMARK H PARENT 11 16 77 49 51 60
REMARK Flexibility Score: inf
ROOT
ATOM      1  C   UNL     1       3.773   1.778   4.824  1.00  0.00     0.188 C 
ENDROOT
BRANCH   1   2
ATOM      2  O   UNL     1       5.015   1.481   5.439  1.00  0.00    -0.376 OA
BRANCH   2   3
ATOM      3  C   UNL     1       5.994   0.872   4.605  1.00  0.00     0.202 C 
BRANCH   3   4
ATOM      4  C   UNL     1       5.593  -0.363   3.759  1.00  0.00     0.261 C 
BRANCH   4   5
ATOM      5  O   UNL     1       4.357  -0.207   3.022  1.00  0.00    -0.463 OA
BRANCH   5   6
ATOM      6  C   UNL     1       3.372  -1.107   3.275  1.00  0.00     0.312 C 
ATOM      7  O   UNL     1       3.578  -2.186   3.820  1.00  0.00    -0.252 OA
BRANCH   6   8
ATOM      8  C   UNL     1       1.955  -0.528   3.032  1.00  0.00     0.124 C 
ATOM      9  C   UNL     1       1.038  -0.814   0.808  1.00  0.00     0.106 C 
ATOM     10  C   UNL     1       0.496  -1.826   1.755  1.00  0.00    -0.006 C 
ATOM     11  C   UNL     1       1.632   0.244   1.736  1.00  0.00     0.048 C 
ATOM     12  C   UNL     1       1.003  -1.678   2.975  1.00  0.00    -0.014 C 
BRANCH   9  13
ATOM     13  N   UNL     1       0.033  -0.421  -0.138  1.00  0.00    -0.345 N 
ATOM     14  C   UNL     1      -0.552  -1.224  -1.101  1.00  0.00     0.268 C 
ATOM     15  O   UNL     1      -1.415  -0.720  -1.819  1.00  0.00    -0.268 OA
ATOM     16  H   UNL     1      -0.272   0.514  -0.096  1.00  0.00     0.164 HD
BRANCH  14  17
ATOM     17  C   UNL     1      -0.248  -2.651  -1.128  1.00  0.00     0.108 A 
ATOM     18  N   UNL     1       0.966  -3.330  -1.167  1.00  0.00    -0.343 N 
ATOM     19  C   UNL     1       0.750  -4.652  -0.822  1.00  0.00     0.102 A 
ATOM     20  C   UNL     1      -0.599  -4.861  -0.783  1.00  0.00     0.036 A 
ATOM     21  C   UNL     1      -1.233  -3.639  -1.045  1.00  0.00     0.049 A 
ATOM     22  Br  UNL     1      -1.476  -6.458  -0.366  1.00  0.00    -0.049 Br
BRANCH  18  23
ATOM     23  C   UNL     1       2.327  -2.861  -1.385  1.00  0.00     0.119 C 
ATOM     24  C   UNL     1       2.542  -1.630  -2.253  1.00  0.00     0.027 C 
ENDBRANCH  18  23
ENDBRANCH  14  17
ENDBRANCH   9  13
ENDBRANCH   6   8
ENDBRANCH   5   6
ENDBRANCH   4   5
ENDBRANCH   3   4
ENDBRANCH   2   3
ENDBRANCH   1   2
BRANCH   1  25
ATOM     25  C   UNL     1       3.827   2.643   3.560  1.00  0.00     0.188 C 
BRANCH  25  26
ATOM     26  O   UNL     1       4.586   2.238   2.435  1.00  0.00    -0.376 OA
BRANCH  26  27
ATOM     27  C   UNL     1       5.671   2.997   1.891  1.00  0.00     0.202 C 
BRANCH  27  28
ATOM     28  C   UNL     1       6.037   4.455   2.226  1.00  0.00     0.261 C 
BRANCH  28  29
ATOM     29  O   UNL     1       5.097   5.202   2.960  1.00  0.00    -0.460 OA
BRANCH  29  30
ATOM     30  C   UNL     1       3.863   5.312   2.442  1.00  0.00     0.338 C 
ATOM     31  O   UNL     1       3.516   5.095   1.287  1.00  0.00    -0.246 OA
BRANCH  30  32
ATOM     32  C   UNL     1       2.994   5.718   3.558  1.00  0.00     0.060 A 
ATOM     33  C   UNL     1       1.732   6.199   3.236  1.00  0.00     0.016 A 
ATOM     34  C   UNL     1       3.542   5.852   4.852  1.00  0.00     0.016 A 
ATOM     35  C   UNL     1       1.228   7.181   4.047  1.00  0.00     0.010 A 
ATOM     36  C   UNL     1       3.046   6.827   5.657  1.00  0.00     0.010 A 
ATOM     37  C   UNL     1       2.006   7.580   5.137  1.00  0.00    -0.014 A 
BRANCH  37  38
ATOM     38  C   UNL     1       1.807   8.896   5.679  1.00  0.00     0.031 A 
ATOM     39  C   UNL     1       0.753   8.910   6.699  1.00  0.00     0.074 A 
ATOM     40  C   UNL     1       2.618   9.908   5.314  1.00  0.00     0.049 A 
ATOM     41  N   UNL     1      -0.446   9.370   6.579  1.00  0.00    -0.248 NA
ATOM     42  C   UNL     1       0.972   8.085   7.900  1.00  0.00     0.031 C 
ATOM     43  C   UNL     1       3.843   9.861   4.503  1.00  0.00     0.029 A 
ATOM     44  N   UNL     1       2.553  11.213   5.686  1.00  0.00    -0.354 N 
ATOM     45  C   UNL     1      -1.039   9.108   7.804  1.00  0.00     0.074 A 
ATOM     46  C   UNL     1      -0.249   8.088   8.433  1.00  0.00     0.031 C 
ATOM     47  C   UNL     1       4.515  11.029   4.635  1.00  0.00     0.029 A 
ATOM     48  C   UNL     1       3.712  11.942   5.425  1.00  0.00     0.049 A 
ATOM     49  H   UNL     1       1.754  11.610   6.103  1.00  0.00     0.167 HD
ATOM     50  C   UNL     1      -1.900  10.002   8.356  1.00  0.00     0.037 A 
ATOM     51  C   UNL     1       3.978  13.170   5.938  1.00  0.00     0.037 A 
ATOM     52  C   UNL     1      -2.418  10.906   7.357  1.00  0.00     0.049 A 
ATOM     53  C   UNL     1       2.675  13.737   6.388  1.00  0.00     0.074 A 
ATOM     54  C   UNL     1      -3.147  10.748   6.195  1.00  0.00     0.029 A 
ATOM     55  N   UNL     1      -1.849  12.155   7.278  1.00  0.00    -0.354 N 
ATOM     56  N   UNL     1       1.710  14.061   5.570  1.00  0.00    -0.248 NA
ATOM     57  C   UNL     1       2.264  13.456   7.758  1.00  0.00     0.031 C 
ATOM     58  C   UNL     1      -2.615  11.708   5.285  1.00  0.00     0.029 A 
ATOM     59  C   UNL     1      -1.637  12.445   5.955  1.00  0.00     0.049 A 
ATOM     60  H   UNL     1      -1.632  12.740   8.040  1.00  0.00     0.167 HD
ATOM     61  C   UNL     1       0.548  13.626   6.197  1.00  0.00     0.074 A 
ATOM     62  C   UNL     1       0.949  13.312   7.567  1.00  0.00     0.031 C 
ATOM     63  C   UNL     1      -0.556  13.275   5.473  1.00  0.00     0.037 A 
BRANCH  50  64
ATOM     64  C   UNL     1      -1.927  10.307   9.832  1.00  0.00     0.057 A 
ATOM     65  C   UNL     1      -2.953  11.124  10.330  1.00  0.00     0.134 A 
ATOM     66  C   UNL     1      -0.865  10.068  10.734  1.00  0.00     0.134 A 
ATOM     67  F   UNL     1      -4.009  11.440   9.566  1.00  0.00    -0.206 F 
ATOM     68  C   UNL     1      -2.893  11.711  11.598  1.00  0.00     0.040 A 
ATOM     69  C   UNL     1      -0.823  10.601  12.022  1.00  0.00     0.040 A 
ATOM     70  F   UNL     1       0.241   9.393  10.402  1.00  0.00    -0.206 F 
ATOM     71  C   UNL     1      -1.823  11.455  12.447  1.00  0.00     0.006 A 
ENDBRANCH  50  64
BRANCH  51  72
ATOM     72  C   UNL     1       5.278  13.701   6.411  1.00  0.00     0.057 A 
ATOM     73  C   UNL     1       5.458  15.070   6.661  1.00  0.00     0.134 A 
ATOM     74  C   UNL     1       6.288  12.851   6.896  1.00  0.00     0.134 A 
ATOM     75  F   UNL     1       4.529  15.958   6.281  1.00  0.00    -0.206 F 
ATOM     76  C   UNL     1       6.567  15.560   7.367  1.00  0.00     0.040 A 
ATOM     77  C   UNL     1       7.400  13.327   7.598  1.00  0.00     0.040 A 
ATOM     78  F   UNL     1       6.184  11.518   6.787  1.00  0.00    -0.206 F 
ATOM     79  C   UNL     1       7.537  14.686   7.848  1.00  0.00     0.006 A 
ENDBRANCH  51  72
BRANCH  63  80
ATOM     80  C   UNL     1      -0.546  13.575   3.996  1.00  0.00     0.057 A 
ATOM     81  C   UNL     1       0.302  12.941   3.074  1.00  0.00     0.134 A 
ATOM     82  C   UNL     1      -1.544  14.401   3.470  1.00  0.00     0.134 A 
ATOM     83  F   UNL     1       1.226  12.060   3.477  1.00  0.00    -0.206 F 
ATOM     84  C   UNL     1       0.180  13.143   1.694  1.00  0.00     0.040 A 
ATOM     85  C   UNL     1      -1.697  14.587   2.094  1.00  0.00     0.040 A 
ATOM     86  F   UNL     1      -2.426  14.995   4.288  1.00  0.00    -0.206 F 
ATOM     87  C   UNL     1      -0.830  13.963   1.201  1.00  0.00     0.006 A 
ENDBRANCH  63  80
ENDBRANCH  37  38
ENDBRANCH  30  32
ENDBRANCH  29  30
ENDBRANCH  28  29
ENDBRANCH  27  28
ENDBRANCH  26  27
ENDBRANCH  25  26
ENDBRANCH   1  25
TORSDOF 20
