REMARK SMILES Cc1coc2cc3c(cc12)[C@@H](C)[C@H](CCC(=O)N[C@@H](Cc1c[nH]c2ccccc12)C(=O)OCCOCCOCCOC(=O)c1ccc(-c2c4nc(c(-c5c(F)cccc5F)c5ccc([nH]5)c(-c5c(F)cccc5F)c5nc(c(-c6c(F)cccc6F)c6ccc2[nH]6)C=C5)C=C4)cc1)C(=O)O3
REMARK SMILES IDX 36 1 35 2 34 3 33 4 32 5 30 6 31 7 19 8 18 9 16 10 17 11
REMARK SMILES IDX 15 13 14 14 13 15 1 16 2 17 3 18 10 19 4 20 5 21 9 22 6 23
REMARK SMILES IDX 8 24 7 25 11 26 100 27 12 28 98 29 99 30 20 31 21 32 22 33
REMARK SMILES IDX 29 34 23 35 24 36 28 37 25 39 27 40 26 41 37 42 38 43 39 44
REMARK SMILES IDX 40 45 41 46 42 47 43 48 44 49 45 50 97 51 46 52 96 53 47 54
REMARK SMILES IDX 48 55 49 56 90 57 50 58 95 59 89 60 91 61 51 62 94 63 88 64
REMARK SMILES IDX 87 65 52 67 78 68 61 69 77 70 62 71 65 72 76 73 92 74 63 75
REMARK SMILES IDX 64 76 75 78 93 79 66 80 53 81 54 82 59 83 55 84 56 85 58 86
REMARK SMILES IDX 60 87 57 88 79 89 80 90 85 91 81 92 82 93 84 94 86 95 83 96
REMARK SMILES IDX 67 97 68 98 73 99 69 100 70 101 72 102 74 103 71 104
REMARK H PARENT 18 12 23 38 91 66 65 77
REMARK Flexibility Score: inf
ROOT
ATOM      1  C   UNL     1       1.050 -10.341   1.228  1.00  0.00     0.188 C 
ENDROOT
BRANCH   1   2
ATOM      2  O   UNL     1       1.215 -11.396   2.169  1.00  0.00    -0.376 OA
BRANCH   2   3
ATOM      3  C   UNL     1       0.407 -11.271   3.355  1.00  0.00     0.202 C 
BRANCH   3   4
ATOM      4  C   UNL     1       0.480  -9.970   4.194  1.00  0.00     0.261 C 
BRANCH   4   5
ATOM      5  O   UNL     1       0.477  -8.775   3.391  1.00  0.00    -0.462 OA
BRANCH   5   6
ATOM      6  C   UNL     1       1.716  -8.359   3.026  1.00  0.00     0.329 C 
ATOM      7  O   UNL     1       2.725  -8.790   3.577  1.00  0.00    -0.250 OA
BRANCH   6   8
ATOM      8  C   UNL     1       1.758  -7.274   1.883  1.00  0.00     0.196 C 
BRANCH   8   9
ATOM      9  N   UNL     1       1.328  -7.339   0.402  1.00  0.00    -0.342 N 
ATOM     10  C   UNL     1       1.844  -7.121  -0.867  1.00  0.00     0.220 C 
ATOM     11  O   UNL     1       1.008  -7.154  -1.784  1.00  0.00    -0.275 OA
ATOM     12  H   UNL     1       0.389  -7.626   0.338  1.00  0.00     0.164 HD
BRANCH  10  13
ATOM     13  C   UNL     1       3.324  -6.813  -1.279  1.00  0.00     0.101 C 
BRANCH  13  14
ATOM     14  C   UNL     1       3.779  -5.358  -1.808  1.00  0.00     0.026 C 
BRANCH  14  15
ATOM     15  C   UNL     1       4.032  -4.328  -0.666  1.00  0.00     0.107 C 
ATOM     16  C   UNL     1      -0.101   1.239  -0.448  1.00  0.00     0.048 C 
ATOM     17  C   UNL     1      -0.489  -0.097  -0.953  1.00  0.00    -0.005 A 
ATOM     18  C   UNL     1      -1.762  -0.601  -1.118  1.00  0.00     0.199 A 
ATOM     19  C   UNL     1       0.388  -1.180  -1.220  1.00  0.00     0.024 A 
ATOM     20  O   UNL     1      -1.731  -1.942  -1.321  1.00  0.00    -0.464 OA
ATOM     21  C   UNL     1      -0.426  -2.308  -1.280  1.00  0.00     0.137 A 
ATOM     22  C   UNL     1       1.783  -1.321  -1.234  1.00  0.00     0.020 A 
ATOM     23  C   UNL     1       0.024  -3.608  -1.159  1.00  0.00     0.095 A 
ATOM     24  C   UNL     1       2.271  -2.603  -1.033  1.00  0.00    -0.001 A 
ATOM     25  C   UNL     1       1.372  -3.658  -0.862  1.00  0.00     0.138 A 
ATOM     26  C   UNL     1       3.666  -2.833  -0.550  1.00  0.00     0.034 C 
ATOM     27  O   UNL     1       1.763  -4.700  -0.001  1.00  0.00    -0.426 OA
ATOM     28  C   UNL     1       3.545  -2.402   0.955  1.00  0.00     0.014 C 
ATOM     29  C   UNL     1       3.101  -4.838   0.317  1.00  0.00     0.314 C 
ATOM     30  O   UNL     1       3.534  -5.440   1.263  1.00  0.00    -0.251 OA
ENDBRANCH  14  15
ENDBRANCH  13  14
ENDBRANCH  10  13
ENDBRANCH   8   9
BRANCH   8  31
ATOM     31  C   UNL     1       1.235  -6.025   2.640  1.00  0.00     0.074 C 
BRANCH  31  32
ATOM     32  C   UNL     1      -0.233  -5.709   2.710  1.00  0.00    -0.020 A 
ATOM     33  C   UNL     1      -0.662  -4.515   3.269  1.00  0.00     0.087 A 
ATOM     34  C   UNL     1      -1.418  -6.434   2.353  1.00  0.00     0.003 A 
ATOM     35  N   UNL     1      -2.022  -4.519   3.325  1.00  0.00    -0.361 N 
ATOM     36  C   UNL     1      -2.509  -5.694   2.812  1.00  0.00     0.046 A 
ATOM     37  C   UNL     1      -1.717  -7.660   1.726  1.00  0.00     0.010 A 
ATOM     38  H   UNL     1      -2.574  -3.787   3.683  1.00  0.00     0.166 HD
ATOM     39  C   UNL     1      -3.831  -6.151   2.730  1.00  0.00     0.026 A 
ATOM     40  C   UNL     1      -3.022  -8.136   1.620  1.00  0.00     0.001 A 
ATOM     41  C   UNL     1      -4.067  -7.392   2.135  1.00  0.00     0.002 A 
ENDBRANCH  31  32
ENDBRANCH   8  31
ENDBRANCH   6   8
ENDBRANCH   5   6
ENDBRANCH   4   5
ENDBRANCH   3   4
ENDBRANCH   2   3
ENDBRANCH   1   2
BRANCH   1  42
ATOM     42  C   UNL     1       0.768 -10.533  -0.254  1.00  0.00     0.188 C 
BRANCH  42  43
ATOM     43  O   UNL     1      -0.370 -11.325  -0.517  1.00  0.00    -0.376 OA
BRANCH  43  44
ATOM     44  C   UNL     1      -0.224 -12.678  -0.089  1.00  0.00     0.202 C 
BRANCH  44  45
ATOM     45  C   UNL     1       1.083 -13.363  -0.549  1.00  0.00     0.261 C 
BRANCH  45  46
ATOM     46  O   UNL     1       2.241 -12.912   0.224  1.00  0.00    -0.460 OA
BRANCH  46  47
ATOM     47  C   UNL     1       3.352 -12.533  -0.467  1.00  0.00     0.338 C 
ATOM     48  O   UNL     1       3.575 -12.816  -1.636  1.00  0.00    -0.246 OA
BRANCH  47  49
ATOM     49  C   UNL     1       4.099 -11.431   0.245  1.00  0.00     0.060 A 
ATOM     50  C   UNL     1       4.386 -11.350   1.616  1.00  0.00     0.016 A 
ATOM     51  C   UNL     1       4.469 -10.345  -0.537  1.00  0.00     0.016 A 
ATOM     52  C   UNL     1       4.945 -10.157   2.204  1.00  0.00     0.010 A 
ATOM     53  C   UNL     1       5.028  -9.199   0.055  1.00  0.00     0.010 A 
ATOM     54  C   UNL     1       5.210  -9.008   1.445  1.00  0.00    -0.014 A 
BRANCH  54  55
ATOM     55  C   UNL     1       5.919  -7.725   1.889  1.00  0.00     0.031 A 
ATOM     56  C   UNL     1       7.305  -7.720   1.371  1.00  0.00     0.074 A 
ATOM     57  C   UNL     1       5.669  -6.586   2.624  1.00  0.00     0.049 A 
ATOM     58  N   UNL     1       8.309  -8.133   2.071  1.00  0.00    -0.248 NA
ATOM     59  C   UNL     1       7.626  -7.392  -0.020  1.00  0.00     0.031 C 
ATOM     60  C   UNL     1       4.541  -6.219   3.484  1.00  0.00     0.029 A 
ATOM     61  N   UNL     1       6.418  -5.394   2.689  1.00  0.00    -0.354 N 
ATOM     62  C   UNL     1       9.417  -7.934   1.282  1.00  0.00     0.074 A 
ATOM     63  C   UNL     1       8.918  -7.726  -0.055  1.00  0.00     0.031 C 
ATOM     64  C   UNL     1       4.540  -4.890   3.768  1.00  0.00     0.029 A 
ATOM     65  C   UNL     1       5.741  -4.267   3.208  1.00  0.00     0.049 A 
ATOM     66  H   UNL     1       7.355  -5.349   2.391  1.00  0.00     0.167 HD
ATOM     67  C   UNL     1      10.633  -7.695   1.838  1.00  0.00     0.037 A 
ATOM     68  C   UNL     1       6.192  -3.061   3.691  1.00  0.00     0.037 A 
ATOM     69  C   UNL     1      10.635  -7.930   3.268  1.00  0.00     0.049 A 
ATOM     70  C   UNL     1       7.532  -3.312   4.218  1.00  0.00     0.074 A 
ATOM     71  C   UNL     1      10.281  -8.987   4.090  1.00  0.00     0.029 A 
ATOM     72  N   UNL     1      10.701  -6.842   4.104  1.00  0.00    -0.354 N 
ATOM     73  N   UNL     1       7.731  -3.951   5.329  1.00  0.00    -0.248 NA
ATOM     74  C   UNL     1       8.667  -3.197   3.321  1.00  0.00     0.031 C 
ATOM     75  C   UNL     1       9.691  -8.396   5.248  1.00  0.00     0.029 A 
ATOM     76  C   UNL     1       9.758  -7.017   5.087  1.00  0.00     0.049 A 
ATOM     77  H   UNL     1      11.313  -6.076   4.015  1.00  0.00     0.167 HD
ATOM     78  C   UNL     1       8.838  -4.728   5.054  1.00  0.00     0.074 A 
ATOM     79  C   UNL     1       9.441  -4.139   3.860  1.00  0.00     0.031 C 
ATOM     80  C   UNL     1       8.977  -5.947   5.643  1.00  0.00     0.037 A 
BRANCH  67  81
ATOM     81  C   UNL     1      11.723  -6.948   1.128  1.00  0.00     0.057 A 
ATOM     82  C   UNL     1      13.037  -7.035   1.607  1.00  0.00     0.134 A 
ATOM     83  C   UNL     1      11.512  -5.994   0.110  1.00  0.00     0.134 A 
ATOM     84  F   UNL     1      13.348  -7.862   2.616  1.00  0.00    -0.206 F 
ATOM     85  C   UNL     1      14.067  -6.229   1.109  1.00  0.00     0.040 A 
ATOM     86  C   UNL     1      12.544  -5.236  -0.443  1.00  0.00     0.040 A 
ATOM     87  F   UNL     1      10.288  -5.676  -0.333  1.00  0.00    -0.206 F 
ATOM     88  C   UNL     1      13.825  -5.337   0.071  1.00  0.00     0.006 A 
ENDBRANCH  67  81
BRANCH  68  89
ATOM     89  C   UNL     1       5.906  -1.677   3.190  1.00  0.00     0.057 A 
ATOM     90  C   UNL     1       5.527  -0.633   4.045  1.00  0.00     0.134 A 
ATOM     91  C   UNL     1       6.134  -1.304   1.852  1.00  0.00     0.134 A 
ATOM     92  F   UNL     1       5.413  -0.845   5.363  1.00  0.00    -0.206 F 
ATOM     93  C   UNL     1       5.275   0.670   3.573  1.00  0.00     0.040 A 
ATOM     94  C   UNL     1       5.842  -0.022   1.356  1.00  0.00     0.040 A 
ATOM     95  F   UNL     1       6.568  -2.216   0.967  1.00  0.00    -0.206 F 
ATOM     96  C   UNL     1       5.392   0.969   2.218  1.00  0.00     0.006 A 
ENDBRANCH  68  89
BRANCH  80  97
ATOM     97  C   UNL     1       7.979  -6.261   6.723  1.00  0.00     0.057 A 
ATOM     98  C   UNL     1       6.728  -6.829   6.439  1.00  0.00     0.134 A 
ATOM     99  C   UNL     1       8.274  -6.034   8.064  1.00  0.00     0.134 A 
ATOM    100  F   UNL     1       6.430  -7.208   5.195  1.00  0.00    -0.206 F 
ATOM    101  C   UNL     1       5.782  -7.099   7.432  1.00  0.00     0.040 A 
ATOM    102  C   UNL     1       7.359  -6.348   9.078  1.00  0.00     0.040 A 
ATOM    103  F   UNL     1       9.471  -5.544   8.418  1.00  0.00    -0.206 F 
ATOM    104  C   UNL     1       6.102  -6.865   8.763  1.00  0.00     0.006 A 
ENDBRANCH  80  97
ENDBRANCH  54  55
ENDBRANCH  47  49
ENDBRANCH  46  47
ENDBRANCH  45  46
ENDBRANCH  44  45
ENDBRANCH  43  44
ENDBRANCH  42  43
ENDBRANCH   1  42
TORSDOF 23
