REMARK SMILES CC(C)(C)C(=O)Nc1nc2c(s1)C[C@H]1[C@](C)(CO)[C@H](O)CC[C@]1(C)[C@@H]2CC(=O)OCCOCCOCCOC(=O)c1ccc(-c2c3nc(c(-c4c(F)cccc4F)c4ccc([nH]4)c(-c4c(F)cccc4F)c4nc(c(-c5c(F)cccc5F)c5ccc2[nH]5)C=C4)C=C3)cc1
REMARK SMILES IDX 33 1 32 2 31 3 30 4 29 5 27 6 28 7 26 8 25 9 8 10 9 11 12 12
REMARK SMILES IDX 10 13 11 14 13 15 23 16 14 17 22 18 24 19 15 20 21 21 19 22
REMARK SMILES IDX 16 23 7 24 5 25 6 26 2 28 1 29 3 30 4 31 17 32 18 33 20 35
REMARK SMILES IDX 34 37 35 38 36 39 37 40 38 41 39 42 40 43 41 44 42 45 94 46
REMARK SMILES IDX 43 47 93 48 44 49 45 50 46 51 87 52 47 53 92 54 86 55 88 56
REMARK SMILES IDX 48 57 91 58 85 59 84 60 49 62 75 63 58 64 74 65 59 66 62 67
REMARK SMILES IDX 73 68 89 69 60 70 61 71 72 73 90 74 63 75 50 76 51 77 56 78
REMARK SMILES IDX 52 79 53 80 55 81 57 82 54 83 76 84 77 85 82 86 78 87 79 88
REMARK SMILES IDX 81 89 83 90 80 91 64 92 65 93 70 94 66 95 67 96 69 97 71 98
REMARK SMILES IDX 68 99
REMARK H PARENT 7 27 18 34 20 36 88 61 62 72
REMARK Flexibility Score: inf
ROOT
ATOM      1  C   UNL     1      -6.879  -1.074   1.844  1.00  0.00     0.188 C 
ENDROOT
BRANCH   1   2
ATOM      2  O   UNL     1      -8.250  -1.367   1.991  1.00  0.00    -0.376 OA
BRANCH   2   3
ATOM      3  C   UNL     1      -8.616  -2.445   2.836  1.00  0.00     0.202 C 
BRANCH   3   4
ATOM      4  C   UNL     1      -8.036  -3.846   2.572  1.00  0.00     0.261 C 
BRANCH   4   5
ATOM      5  O   UNL     1      -6.592  -3.949   2.557  1.00  0.00    -0.463 OA
BRANCH   5   6
ATOM      6  C   UNL     1      -5.997  -4.722   1.614  1.00  0.00     0.306 C 
ATOM      7  O   UNL     1      -6.575  -5.084   0.594  1.00  0.00    -0.252 OA
BRANCH   6   8
ATOM      8  C   UNL     1      -4.595  -5.264   1.996  1.00  0.00     0.133 C 
BRANCH   8   9
ATOM      9  C   UNL     1      -3.534  -4.341   2.647  1.00  0.00     0.057 C 
ATOM     10  C   UNL     1      -0.243  -4.580   1.222  1.00  0.00     0.189 A 
ATOM     11  N   UNL     1      -1.534  -4.384   1.170  1.00  0.00    -0.224 NA
ATOM     12  S   UNL     1       0.328  -5.442   2.584  1.00  0.00    -0.101 S 
ATOM     13  C   UNL     1      -2.107  -4.768   2.372  1.00  0.00     0.061 A 
ATOM     14  C   UNL     1      -1.182  -5.117   3.349  1.00  0.00     0.030 A 
ATOM     15  C   UNL     1      -1.335  -5.059   4.852  1.00  0.00     0.053 C 
ATOM     16  C   UNL     1      -3.560  -3.857   4.167  1.00  0.00    -0.020 C 
ATOM     17  C   UNL     1      -2.725  -4.529   5.288  1.00  0.00     0.012 C 
ATOM     18  C   UNL     1      -4.995  -4.071   4.740  1.00  0.00     0.010 C 
ATOM     19  C   UNL     1      -2.841  -2.451   3.987  1.00  0.00     0.012 C 
ATOM     20  C   UNL     1      -2.991  -3.637   6.702  1.00  0.00     0.020 C 
ATOM     21  C   UNL     1      -5.354  -4.410   6.209  1.00  0.00     0.033 C 
ATOM     22  C   UNL     1      -4.274  -4.279   7.279  1.00  0.00     0.123 C 
ATOM     23  C   UNL     1      -3.453  -2.118   6.621  1.00  0.00     0.017 C 
BRANCH  10  24
ATOM     24  N   UNL     1       0.705  -4.145   0.349  1.00  0.00    -0.302 N 
ATOM     25  C   UNL     1       0.782  -2.908  -0.228  1.00  0.00     0.231 C 
ATOM     26  O   UNL     1       1.401  -2.833  -1.298  1.00  0.00    -0.274 OA
ATOM     27  H   UNL     1       1.410  -4.788   0.108  1.00  0.00     0.172 HD
BRANCH  25  28
ATOM     28  C   UNL     1       0.301  -1.611   0.499  1.00  0.00     0.041 C 
ATOM     29  C   UNL     1       1.002  -0.397  -0.169  1.00  0.00     0.021 C 
ATOM     30  C   UNL     1       0.756  -1.599   1.970  1.00  0.00     0.021 C 
ATOM     31  C   UNL     1      -1.202  -1.349   0.384  1.00  0.00     0.021 C 
ENDBRANCH  25  28
ENDBRANCH  10  24
BRANCH  20  32
ATOM     32  C   UNL     1      -1.804  -3.608   7.691  1.00  0.00     0.165 C 
BRANCH  32  33
ATOM     33  O   UNL     1      -2.204  -3.967   9.014  1.00  0.00    -0.396 OA
ATOM     34  H   UNL     1      -2.863  -3.333   9.336  1.00  0.00     0.210 HD
ENDBRANCH  32  33
ENDBRANCH  20  32
BRANCH  22  35
ATOM     35  O   UNL     1      -3.994  -5.562   7.829  1.00  0.00    -0.392 OA
ATOM     36  H   UNL     1      -3.667  -6.149   7.130  1.00  0.00     0.210 HD
ENDBRANCH  22  35
ENDBRANCH   8   9
ENDBRANCH   6   8
ENDBRANCH   5   6
ENDBRANCH   4   5
ENDBRANCH   3   4
ENDBRANCH   2   3
ENDBRANCH   1   2
BRANCH   1  37
ATOM     37  C   UNL     1      -5.950  -1.111   3.056  1.00  0.00     0.188 C 
BRANCH  37  38
ATOM     38  O   UNL     1      -6.417  -1.366   4.367  1.00  0.00    -0.376 OA
BRANCH  38  39
ATOM     39  C   UNL     1      -7.001  -0.392   5.209  1.00  0.00     0.202 C 
BRANCH  39  40
ATOM     40  C   UNL     1      -6.036   0.622   5.808  1.00  0.00     0.261 C 
BRANCH  40  41
ATOM     41  O   UNL     1      -5.667   1.519   4.781  1.00  0.00    -0.460 OA
BRANCH  41  42
ATOM     42  C   UNL     1      -4.440   1.359   4.242  1.00  0.00     0.338 C 
ATOM     43  O   UNL     1      -3.504   0.723   4.670  1.00  0.00    -0.246 OA
BRANCH  42  44
ATOM     44  C   UNL     1      -4.457   2.142   2.994  1.00  0.00     0.060 A 
ATOM     45  C   UNL     1      -3.217   2.481   2.467  1.00  0.00     0.016 A 
ATOM     46  C   UNL     1      -5.647   2.788   2.620  1.00  0.00     0.016 A 
ATOM     47  C   UNL     1      -3.115   3.719   1.890  1.00  0.00     0.010 A 
ATOM     48  C   UNL     1      -5.539   4.043   2.103  1.00  0.00     0.010 A 
ATOM     49  C   UNL     1      -4.258   4.524   1.868  1.00  0.00    -0.014 A 
BRANCH  49  50
ATOM     50  C   UNL     1      -4.091   5.925   1.602  1.00  0.00     0.031 A 
ATOM     51  C   UNL     1      -4.121   6.229   0.169  1.00  0.00     0.074 A 
ATOM     52  C   UNL     1      -4.025   6.832   2.590  1.00  0.00     0.049 A 
ATOM     53  N   UNL     1      -3.112   6.454  -0.600  1.00  0.00    -0.248 NA
ATOM     54  C   UNL     1      -5.398   6.034  -0.534  1.00  0.00     0.031 C 
ATOM     55  C   UNL     1      -4.331   6.665   4.013  1.00  0.00     0.029 A 
ATOM     56  N   UNL     1      -3.748   8.154   2.486  1.00  0.00    -0.354 N 
ATOM     57  C   UNL     1      -3.667   6.662  -1.852  1.00  0.00     0.074 A 
ATOM     58  C   UNL     1      -5.005   6.136  -1.802  1.00  0.00     0.031 C 
ATOM     59  C   UNL     1      -4.432   7.887   4.588  1.00  0.00     0.029 A 
ATOM     60  C   UNL     1      -4.071   8.899   3.608  1.00  0.00     0.049 A 
ATOM     61  H   UNL     1      -3.350   8.553   1.679  1.00  0.00     0.167 HD
ATOM     62  C   UNL     1      -3.108   7.542  -2.721  1.00  0.00     0.037 A 
ATOM     63  C   UNL     1      -4.120  10.252   3.653  1.00  0.00     0.037 A 
ATOM     64  C   UNL     1      -1.764   7.886  -2.330  1.00  0.00     0.049 A 
ATOM     65  C   UNL     1      -3.350  10.764   2.486  1.00  0.00     0.074 A 
ATOM     66  C   UNL     1      -0.592   7.182  -2.139  1.00  0.00     0.029 A 
ATOM     67  N   UNL     1      -1.589   9.094  -1.699  1.00  0.00    -0.354 N 
ATOM     68  N   UNL     1      -2.057  10.652   2.355  1.00  0.00    -0.248 NA
ATOM     69  C   UNL     1      -4.075  11.016   1.248  1.00  0.00     0.031 C 
ATOM     70  C   UNL     1       0.060   7.825  -1.046  1.00  0.00     0.029 A 
ATOM     71  C   UNL     1      -0.725   8.910  -0.652  1.00  0.00     0.049 A 
ATOM     72  H   UNL     1      -2.012   9.945  -1.955  1.00  0.00     0.167 HD
ATOM     73  C   UNL     1      -1.852  10.397   1.005  1.00  0.00     0.074 A 
ATOM     74  C   UNL     1      -3.115  10.741   0.360  1.00  0.00     0.031 C 
ATOM     75  C   UNL     1      -0.782   9.659   0.585  1.00  0.00     0.037 A 
BRANCH  62  76
ATOM     76  C   UNL     1      -3.917   8.393  -3.663  1.00  0.00     0.057 A 
ATOM     77  C   UNL     1      -3.251   9.100  -4.673  1.00  0.00     0.134 A 
ATOM     78  C   UNL     1      -5.265   8.761  -3.456  1.00  0.00     0.134 A 
ATOM     79  F   UNL     1      -1.958   8.860  -4.941  1.00  0.00    -0.206 F 
ATOM     80  C   UNL     1      -3.863  10.136  -5.386  1.00  0.00     0.040 A 
ATOM     81  C   UNL     1      -5.904   9.749  -4.205  1.00  0.00     0.040 A 
ATOM     82  F   UNL     1      -6.006   8.271  -2.456  1.00  0.00    -0.206 F 
ATOM     83  C   UNL     1      -5.194  10.463  -5.153  1.00  0.00     0.006 A 
ENDBRANCH  62  76
BRANCH  63  84
ATOM     84  C   UNL     1      -5.064  11.107   4.408  1.00  0.00     0.057 A 
ATOM     85  C   UNL     1      -4.819  12.477   4.570  1.00  0.00     0.134 A 
ATOM     86  C   UNL     1      -6.357  10.667   4.743  1.00  0.00     0.134 A 
ATOM     87  F   UNL     1      -3.629  12.999   4.239  1.00  0.00    -0.206 F 
ATOM     88  C   UNL     1      -5.810  13.364   5.011  1.00  0.00     0.040 A 
ATOM     89  C   UNL     1      -7.353  11.539   5.192  1.00  0.00     0.040 A 
ATOM     90  F   UNL     1      -6.727   9.392   4.558  1.00  0.00    -0.206 F 
ATOM     91  C   UNL     1      -7.086  12.897   5.312  1.00  0.00     0.006 A 
ENDBRANCH  63  84
BRANCH  75  92
ATOM     92  C   UNL     1       0.321   9.409   1.577  1.00  0.00     0.057 A 
ATOM     93  C   UNL     1       0.169   8.659   2.753  1.00  0.00     0.134 A 
ATOM     94  C   UNL     1       1.617   9.830   1.258  1.00  0.00     0.134 A 
ATOM     95  F   UNL     1      -1.014   8.129   3.090  1.00  0.00    -0.206 F 
ATOM     96  C   UNL     1       1.251   8.383   3.596  1.00  0.00     0.040 A 
ATOM     97  C   UNL     1       2.711   9.531   2.072  1.00  0.00     0.040 A 
ATOM     98  F   UNL     1       1.847  10.504   0.120  1.00  0.00    -0.206 F 
ATOM     99  C   UNL     1       2.529   8.814   3.252  1.00  0.00     0.006 A 
ENDBRANCH  75  92
ENDBRANCH  49  50
ENDBRANCH  42  44
ENDBRANCH  41  42
ENDBRANCH  40  41
ENDBRANCH  39  40
ENDBRANCH  38  39
ENDBRANCH  37  38
ENDBRANCH   1  37
TORSDOF 23
