REMARK SMILES O=C(OCCOCCOCCOC(=O)[C@H]1CC[C@@H]2CCCC[C@H]2[NH2+]1)c1ccc(-c2c3nc(c(-c4c(F)cccc4F)c4ccc([nH]4)c(-c4c(F)cccc4F)c4nc(c(-c5c(F)cccc5F)c5ccc2[nH]5)C=C4)C=C3)cc1
REMARK SMILES IDX 7 1 6 2 5 3 4 4 3 5 2 6 1 7 25 8 26 9 78 10 27 11 77 12
REMARK SMILES IDX 28 13 29 14 30 15 71 16 31 17 76 18 70 19 72 20 32 21 75 22
REMARK SMILES IDX 69 23 68 24 33 26 59 27 42 28 58 29 43 30 46 31 57 32 73 33
REMARK SMILES IDX 44 34 45 35 56 37 74 38 47 39 34 40 35 41 40 42 36 43 37 44
REMARK SMILES IDX 39 45 41 46 38 47 60 48 61 49 66 50 62 51 63 52 65 53 67 54
REMARK SMILES IDX 64 55 48 56 49 57 54 58 50 59 51 60 53 61 55 62 52 63 8 64
REMARK SMILES IDX 9 65 10 66 11 67 12 68 13 69 14 70 15 71 16 72 24 73 17 74
REMARK SMILES IDX 23 75 18 78 22 79 19 80 21 81 20 82
REMARK H PARENT 72 25 46 36 24 76 24 77
REMARK Flexibility Score: inf
ROOT
ATOM      1  C   UNL     1       4.115   5.802   2.232  1.00  0.00     0.188 C 
ENDROOT
BRANCH   1   2
ATOM      2  O   UNL     1       3.332   6.766   1.518  1.00  0.00    -0.376 OA
BRANCH   2   3
ATOM      3  C   UNL     1       2.985   7.912   2.300  1.00  0.00     0.202 C 
BRANCH   3   4
ATOM      4  C   UNL     1       1.768   7.717   3.218  1.00  0.00     0.261 C 
BRANCH   4   5
ATOM      5  O   UNL     1       1.573   6.346   3.609  1.00  0.00    -0.460 OA
BRANCH   5   6
ATOM      6  C   UNL     1       0.774   5.414   3.027  1.00  0.00     0.338 C 
ATOM      7  O   UNL     1       0.686   4.301   3.541  1.00  0.00    -0.246 OA
BRANCH   6   8
ATOM      8  C   UNL     1      -0.067   5.700   1.827  1.00  0.00     0.060 A 
ATOM      9  C   UNL     1       0.266   6.614   0.830  1.00  0.00     0.016 A 
ATOM     10  C   UNL     1      -1.260   4.976   1.680  1.00  0.00     0.016 A 
ATOM     11  C   UNL     1      -0.636   6.955  -0.169  1.00  0.00     0.010 A 
ATOM     12  C   UNL     1      -2.134   5.246   0.619  1.00  0.00     0.010 A 
ATOM     13  C   UNL     1      -1.858   6.296  -0.269  1.00  0.00    -0.014 A 
BRANCH  13  14
ATOM     14  C   UNL     1      -2.894   6.835  -1.181  1.00  0.00     0.031 A 
ATOM     15  C   UNL     1      -4.131   7.444  -0.581  1.00  0.00     0.074 A 
ATOM     16  C   UNL     1      -2.691   6.919  -2.508  1.00  0.00     0.049 A 
ATOM     17  N   UNL     1      -5.195   7.919  -1.175  1.00  0.00    -0.248 NA
ATOM     18  C   UNL     1      -4.157   7.564   0.886  1.00  0.00     0.031 C 
ATOM     19  C   UNL     1      -1.464   6.545  -3.210  1.00  0.00     0.029 A 
ATOM     20  N   UNL     1      -3.518   7.367  -3.507  1.00  0.00    -0.354 N 
ATOM     21  C   UNL     1      -6.012   8.391  -0.156  1.00  0.00     0.074 A 
ATOM     22  C   UNL     1      -5.349   8.100   1.095  1.00  0.00     0.031 C 
ATOM     23  C   UNL     1      -1.631   6.753  -4.525  1.00  0.00     0.029 A 
ATOM     24  C   UNL     1      -2.988   7.206  -4.762  1.00  0.00     0.049 A 
ATOM     25  H   UNL     1      -4.403   7.764  -3.340  1.00  0.00     0.167 HD
ATOM     26  C   UNL     1      -7.194   9.041  -0.255  1.00  0.00     0.037 A 
ATOM     27  C   UNL     1      -3.541   7.361  -5.975  1.00  0.00     0.037 A 
ATOM     28  C   UNL     1      -7.839   9.353  -1.500  1.00  0.00     0.049 A 
ATOM     29  C   UNL     1      -4.932   7.892  -6.067  1.00  0.00     0.074 A 
ATOM     30  C   UNL     1      -9.042  10.000  -1.716  1.00  0.00     0.029 A 
ATOM     31  N   UNL     1      -7.322   9.040  -2.750  1.00  0.00    -0.354 N 
ATOM     32  N   UNL     1      -5.734   8.258  -5.099  1.00  0.00    -0.248 NA
ATOM     33  C   UNL     1      -5.481   8.062  -7.417  1.00  0.00     0.031 C 
ATOM     34  C   UNL     1      -9.270  10.046  -3.097  1.00  0.00     0.029 A 
ATOM     35  C   UNL     1      -8.190   9.464  -3.741  1.00  0.00     0.049 A 
ATOM     36  H   UNL     1      -6.465   8.583  -2.908  1.00  0.00     0.167 HD
ATOM     37  C   UNL     1      -6.868   8.752  -5.720  1.00  0.00     0.074 A 
ATOM     38  C   UNL     1      -6.658   8.610  -7.149  1.00  0.00     0.031 C 
ATOM     39  C   UNL     1      -7.967   9.307  -5.155  1.00  0.00     0.037 A 
BRANCH  26  40
ATOM     40  C   UNL     1      -7.860   9.421   1.034  1.00  0.00     0.057 A 
ATOM     41  C   UNL     1      -7.376  10.457   1.844  1.00  0.00     0.134 A 
ATOM     42  C   UNL     1      -8.972   8.706   1.493  1.00  0.00     0.134 A 
ATOM     43  F   UNL     1      -6.293  11.159   1.475  1.00  0.00    -0.206 F 
ATOM     44  C   UNL     1      -7.956  10.748   3.080  1.00  0.00     0.040 A 
ATOM     45  C   UNL     1      -9.575   9.002   2.716  1.00  0.00     0.040 A 
ATOM     46  F   UNL     1      -9.479   7.697   0.769  1.00  0.00    -0.206 F 
ATOM     47  C   UNL     1      -9.061  10.020   3.518  1.00  0.00     0.006 A 
ENDBRANCH  26  40
BRANCH  27  48
ATOM     48  C   UNL     1      -2.796   6.950  -7.186  1.00  0.00     0.057 A 
ATOM     49  C   UNL     1      -2.088   7.867  -7.966  1.00  0.00     0.134 A 
ATOM     50  C   UNL     1      -2.777   5.606  -7.579  1.00  0.00     0.134 A 
ATOM     51  F   UNL     1      -2.083   9.167  -7.641  1.00  0.00    -0.206 F 
ATOM     52  C   UNL     1      -1.385   7.461  -9.102  1.00  0.00     0.040 A 
ATOM     53  C   UNL     1      -2.075   5.187  -8.710  1.00  0.00     0.040 A 
ATOM     54  F   UNL     1      -3.439   4.684  -6.866  1.00  0.00    -0.206 F 
ATOM     55  C   UNL     1      -1.375   6.117  -9.475  1.00  0.00     0.006 A 
ENDBRANCH  27  48
BRANCH  39  56
ATOM     56  C   UNL     1      -8.984   9.862  -6.099  1.00  0.00     0.057 A 
ATOM     57  C   UNL     1      -9.850   9.038  -6.826  1.00  0.00     0.134 A 
ATOM     58  C   UNL     1      -9.078  11.245  -6.294  1.00  0.00     0.134 A 
ATOM     59  F   UNL     1      -9.787   7.704  -6.699  1.00  0.00    -0.206 F 
ATOM     60  C   UNL     1     -10.759   9.572  -7.739  1.00  0.00     0.040 A 
ATOM     61  C   UNL     1      -9.998  11.792  -7.186  1.00  0.00     0.040 A 
ATOM     62  F   UNL     1      -8.271  12.084  -5.626  1.00  0.00    -0.206 F 
ATOM     63  C   UNL     1     -10.836  10.953  -7.918  1.00  0.00     0.006 A 
ENDBRANCH  39  56
ENDBRANCH  13  14
ENDBRANCH   6   8
ENDBRANCH   5   6
ENDBRANCH   4   5
ENDBRANCH   3   4
ENDBRANCH   2   3
ENDBRANCH   1   2
BRANCH   1  64
ATOM     64  C   UNL     1       5.039   5.027   1.290  1.00  0.00     0.188 C 
BRANCH  64  65
ATOM     65  O   UNL     1       6.130   5.772   0.748  1.00  0.00    -0.376 OA
BRANCH  65  66
ATOM     66  C   UNL     1       5.805   6.913  -0.040  1.00  0.00     0.202 C 
BRANCH  66  67
ATOM     67  C   UNL     1       5.257   6.649  -1.448  1.00  0.00     0.261 C 
BRANCH  67  68
ATOM     68  O   UNL     1       4.114   5.777  -1.510  1.00  0.00    -0.459 OA
BRANCH  68  69
ATOM     69  C   UNL     1       4.348   4.569  -2.094  1.00  0.00     0.364 C 
ATOM     70  O   UNL     1       5.451   4.179  -2.475  1.00  0.00    -0.245 OA
BRANCH  69  71
ATOM     71  C   UNL     1       3.081   3.746  -2.358  1.00  0.00     0.293 C 
ATOM     72  C   UNL     1       2.154   3.547  -1.158  1.00  0.00     0.078 C 
ATOM     73  N   UNL     1       2.332   4.314  -3.505  1.00  0.00    -0.332 N 
ATOM     74  C   UNL     1       0.987   2.621  -1.536  1.00  0.00     0.016 C 
ATOM     75  C   UNL     1       1.306   3.354  -3.937  1.00  0.00     0.186 C 
ATOM     76  H   UNL     1       2.975   4.495  -4.276  1.00  0.00     0.347 HD
ATOM     77  H   UNL     1       1.887   5.187  -3.224  1.00  0.00     0.347 HD
ATOM     78  C   UNL     1       0.283   3.117  -2.808  1.00  0.00     0.048 C 
ATOM     79  C   UNL     1       0.634   3.862  -5.212  1.00  0.00     0.065 C 
ATOM     80  C   UNL     1      -0.814   2.152  -3.278  1.00  0.00     0.010 C 
ATOM     81  C   UNL     1      -0.495   2.940  -5.660  1.00  0.00     0.006 C 
ATOM     82  C   UNL     1      -1.499   2.670  -4.543  1.00  0.00     0.001 C 
ENDBRANCH  69  71
ENDBRANCH  68  69
ENDBRANCH  67  68
ENDBRANCH  66  67
ENDBRANCH  65  66
ENDBRANCH  64  65
ENDBRANCH   1  64
TORSDOF 17
