REMARK SMILES COc1cc(Cl)c(C)cc1N1C(=O)C[C@H](Nc2cc(C(=O)OCCOCCOCCOC(=O)c3ccc(-c4c5nc(c(-c6c(F)cccc6F)c6ccc([nH]6)c(-c6c(F)cccc6F)c6nc(c(-c7c(F)cccc7F)c7ccc4[nH]7)C=C6)C=C5)cc3)ccc2C)C1=O
REMARK SMILES IDX 26 1 25 2 24 3 23 4 22 5 20 6 21 7 19 8 17 9 18 10 90 11
REMARK SMILES IDX 89 12 91 13 88 14 16 15 15 17 11 18 12 19 92 20 13 21 14 22
REMARK SMILES IDX 93 23 10 24 3 25 4 26 5 27 9 28 6 29 7 30 8 31 2 32 1 33
REMARK SMILES IDX 27 34 28 35 29 36 30 37 31 38 32 39 33 40 34 41 35 42 87 43
REMARK SMILES IDX 36 44 86 45 37 46 38 47 39 48 80 49 40 50 85 51 79 52 81 53
REMARK SMILES IDX 41 54 84 55 78 56 77 57 42 59 68 60 51 61 67 62 52 63 55 64
REMARK SMILES IDX 66 65 82 66 53 67 54 68 65 70 83 71 56 72 43 73 44 74 49 75
REMARK SMILES IDX 45 76 46 77 48 78 50 79 47 80 69 81 70 82 75 83 71 84 72 85
REMARK SMILES IDX 74 86 76 87 73 88 57 89 58 90 63 91 59 92 60 93 62 94 64 95
REMARK SMILES IDX 61 96
REMARK H PARENT 16 16 81 58 55 69
REMARK Flexibility Score: inf
ROOT
ATOM      1  C   UNL     1       3.370   7.413  -6.135  1.00  0.00     0.188 C 
ENDROOT
BRANCH   1   2
ATOM      2  O   UNL     1       2.501   6.510  -5.412  1.00  0.00    -0.376 OA
BRANCH   2   3
ATOM      3  C   UNL     1       2.082   6.648  -4.050  1.00  0.00     0.202 C 
BRANCH   3   4
ATOM      4  C   UNL     1       2.374   5.544  -2.775  1.00  0.00     0.261 C 
BRANCH   4   5
ATOM      5  O   UNL     1       3.752   4.762  -2.270  1.00  0.00    -0.460 OA
BRANCH   5   6
ATOM      6  C   UNL     1       4.463   3.584  -2.591  1.00  0.00     0.338 C 
ATOM      7  O   UNL     1       4.135   2.624  -3.286  1.00  0.00    -0.246 OA
BRANCH   6   8
ATOM      8  C   UNL     1       5.841   3.288  -2.160  1.00  0.00     0.062 A 
ATOM      9  C   UNL     1       6.745   1.835  -0.484  1.00  0.00     0.038 A 
ATOM     10  C   UNL     1       5.944   2.935  -0.836  1.00  0.00     0.041 A 
ATOM     11  C   UNL     1       7.648   1.257  -1.405  1.00  0.00    -0.028 A 
ATOM     12  C   UNL     1       7.634   1.698  -2.728  1.00  0.00     0.006 A 
ATOM     13  C   UNL     1       8.619   0.172  -1.033  1.00  0.00     0.046 C 
ATOM     14  C   UNL     1       6.697   2.656  -3.110  1.00  0.00     0.016 A 
BRANCH   9  15
ATOM     15  N   UNL     1       6.356   1.131   0.684  1.00  0.00    -0.373 N 
ATOM     16  H   UNL     1       6.832   1.169   1.545  1.00  0.00     0.161 HD
BRANCH  15  17
ATOM     17  C   UNL     1       5.125   0.325   0.431  1.00  0.00     0.179 C 
ATOM     18  N   UNL     1       3.405   0.104   2.013  1.00  0.00    -0.245 N 
ATOM     19  C   UNL     1       4.173  -1.017   2.158  1.00  0.00     0.236 C 
ATOM     20  C   UNL     1       3.894   0.965   1.067  1.00  0.00     0.256 C 
ATOM     21  O   UNL     1       4.016  -1.925   2.963  1.00  0.00    -0.274 OA
ATOM     22  C   UNL     1       5.230  -1.034   1.095  1.00  0.00     0.136 C 
ATOM     23  O   UNL     1       3.509   2.108   0.853  1.00  0.00    -0.272 OA
BRANCH  18  24
ATOM     24  C   UNL     1       2.316   0.439   2.841  1.00  0.00     0.094 A 
ATOM     25  C   UNL     1       1.064   0.787   2.308  1.00  0.00     0.144 A 
ATOM     26  C   UNL     1       0.047   1.244   3.148  1.00  0.00     0.069 A 
ATOM     27  C   UNL     1       0.267   1.351   4.523  1.00  0.00     0.047 A 
ATOM     28  C   UNL     1       2.518   0.525   4.226  1.00  0.00     0.035 A 
ATOM     29  Cl  UNL     1      -1.036   1.913   5.508  1.00  0.00    -0.084 Cl
ATOM     30  C   UNL     1       1.511   1.011   5.077  1.00  0.00    -0.030 A 
ATOM     31  C   UNL     1       1.801   1.175   6.543  1.00  0.00     0.046 C 
BRANCH  25  32
ATOM     32  O   UNL     1       0.752   0.721   0.974  1.00  0.00    -0.495 OA
ATOM     33  C   UNL     1       0.828  -0.606   0.450  1.00  0.00     0.278 C 
ENDBRANCH  25  32
ENDBRANCH  18  24
ENDBRANCH  15  17
ENDBRANCH   9  15
ENDBRANCH   6   8
ENDBRANCH   5   6
ENDBRANCH   4   5
ENDBRANCH   3   4
ENDBRANCH   2   3
ENDBRANCH   1   2
BRANCH   1  34
ATOM     34  C   UNL     1       3.942   8.704  -5.544  1.00  0.00     0.188 C 
BRANCH  34  35
ATOM     35  O   UNL     1       4.264   8.522  -4.180  1.00  0.00    -0.376 OA
BRANCH  35  36
ATOM     36  C   UNL     1       4.858   9.638  -3.536  1.00  0.00     0.202 C 
BRANCH  36  37
ATOM     37  C   UNL     1       6.365   9.781  -3.835  1.00  0.00     0.261 C 
BRANCH  37  38
ATOM     38  O   UNL     1       7.062   8.532  -3.602  1.00  0.00    -0.460 OA
BRANCH  38  39
ATOM     39  C   UNL     1       7.551   7.850  -4.702  1.00  0.00     0.338 C 
ATOM     40  O   UNL     1       8.163   8.342  -5.605  1.00  0.00    -0.246 OA
BRANCH  39  41
ATOM     41  C   UNL     1       6.963   6.452  -4.724  1.00  0.00     0.060 A 
ATOM     42  C   UNL     1       6.949   5.574  -5.818  1.00  0.00     0.016 A 
ATOM     43  C   UNL     1       6.025   6.208  -3.789  1.00  0.00     0.016 A 
ATOM     44  C   UNL     1       5.872   4.591  -6.009  1.00  0.00     0.010 A 
ATOM     45  C   UNL     1       4.895   5.538  -4.257  1.00  0.00     0.010 A 
ATOM     46  C   UNL     1       4.700   4.574  -5.244  1.00  0.00    -0.014 A 
BRANCH  46  47
ATOM     47  C   UNL     1       3.269   3.867  -5.582  1.00  0.00     0.031 A 
ATOM     48  C   UNL     1       2.155   2.930  -4.752  1.00  0.00     0.074 A 
ATOM     49  C   UNL     1       2.851   4.075  -6.856  1.00  0.00     0.049 A 
ATOM     50  N   UNL     1       1.365   2.044  -5.350  1.00  0.00    -0.248 NA
ATOM     51  C   UNL     1       1.845   2.800  -3.290  1.00  0.00     0.031 C 
ATOM     52  C   UNL     1       1.559   3.758  -7.461  1.00  0.00     0.029 A 
ATOM     53  N   UNL     1       3.620   4.506  -7.945  1.00  0.00    -0.354 N 
ATOM     54  C   UNL     1       0.488   1.493  -4.412  1.00  0.00     0.074 A 
ATOM     55  C   UNL     1       1.026   1.775  -3.151  1.00  0.00     0.031 C 
ATOM     56  C   UNL     1       1.731   3.625  -8.783  1.00  0.00     0.029 A 
ATOM     57  C   UNL     1       3.141   3.803  -9.064  1.00  0.00     0.049 A 
ATOM     58  H   UNL     1       4.348   5.168  -7.929  1.00  0.00     0.167 HD
ATOM     59  C   UNL     1      -0.708   0.897  -4.660  1.00  0.00     0.037 A 
ATOM     60  C   UNL     1       3.968   2.960  -9.740  1.00  0.00     0.037 A 
ATOM     61  C   UNL     1      -0.800   0.535  -6.046  1.00  0.00     0.049 A 
ATOM     62  C   UNL     1       3.513   1.515  -9.690  1.00  0.00     0.074 A 
ATOM     63  C   UNL     1      -1.399   1.072  -7.163  1.00  0.00     0.029 A 
ATOM     64  N   UNL     1       0.128  -0.384  -6.494  1.00  0.00    -0.354 N 
ATOM     65  N   UNL     1       2.363   1.107  -9.221  1.00  0.00    -0.248 NA
ATOM     66  C   UNL     1       4.376   0.397 -10.080  1.00  0.00     0.031 C 
ATOM     67  C   UNL     1      -0.666   0.591  -8.296  1.00  0.00     0.029 A 
ATOM     68  C   UNL     1       0.317  -0.280  -7.853  1.00  0.00     0.049 A 
ATOM     69  H   UNL     1       0.594  -1.030  -5.915  1.00  0.00     0.167 HD
ATOM     70  C   UNL     1       2.397  -0.256  -9.088  1.00  0.00     0.074 A 
ATOM     71  C   UNL     1       3.657  -0.662  -9.676  1.00  0.00     0.031 C 
ATOM     72  C   UNL     1       1.444  -0.982  -8.440  1.00  0.00     0.037 A 
BRANCH  59  73
ATOM     73  C   UNL     1      -1.750   0.636  -3.575  1.00  0.00     0.057 A 
ATOM     74  C   UNL     1      -2.743  -0.341  -3.734  1.00  0.00     0.134 A 
ATOM     75  C   UNL     1      -1.857   1.366  -2.362  1.00  0.00     0.134 A 
ATOM     76  F   UNL     1      -2.823  -1.064  -4.860  1.00  0.00    -0.206 F 
ATOM     77  C   UNL     1      -3.708  -0.615  -2.742  1.00  0.00     0.040 A 
ATOM     78  C   UNL     1      -2.753   1.046  -1.331  1.00  0.00     0.040 A 
ATOM     79  F   UNL     1      -1.127   2.467  -2.127  1.00  0.00    -0.206 F 
ATOM     80  C   UNL     1      -3.693   0.051  -1.522  1.00  0.00     0.006 A 
ENDBRANCH  59  73
BRANCH  60  81
ATOM     81  C   UNL     1       5.375   3.466  -9.809  1.00  0.00     0.057 A 
ATOM     82  C   UNL     1       5.585   4.755 -10.348  1.00  0.00     0.134 A 
ATOM     83  C   UNL     1       6.445   2.909  -9.104  1.00  0.00     0.134 A 
ATOM     84  F   UNL     1       4.606   5.366 -11.037  1.00  0.00    -0.206 F 
ATOM     85  C   UNL     1       6.743   5.495 -10.096  1.00  0.00     0.040 A 
ATOM     86  C   UNL     1       7.628   3.631  -8.874  1.00  0.00     0.040 A 
ATOM     87  F   UNL     1       6.324   1.724  -8.490  1.00  0.00    -0.206 F 
ATOM     88  C   UNL     1       7.763   4.939  -9.337  1.00  0.00     0.006 A 
ENDBRANCH  60  81
BRANCH  72  89
ATOM     89  C   UNL     1       1.555  -2.467  -8.311  1.00  0.00     0.057 A 
ATOM     90  C   UNL     1       1.567  -3.277  -9.451  1.00  0.00     0.134 A 
ATOM     91  C   UNL     1       1.508  -3.126  -7.071  1.00  0.00     0.134 A 
ATOM     92  F   UNL     1       1.623  -2.731 -10.675  1.00  0.00    -0.206 F 
ATOM     93  C   UNL     1       1.503  -4.670  -9.365  1.00  0.00     0.040 A 
ATOM     94  C   UNL     1       1.405  -4.515  -6.971  1.00  0.00     0.040 A 
ATOM     95  F   UNL     1       1.552  -2.441  -5.917  1.00  0.00    -0.206 F 
ATOM     96  C   UNL     1       1.397  -5.292  -8.124  1.00  0.00     0.006 A 
ENDBRANCH  72  89
ENDBRANCH  46  47
ENDBRANCH  39  41
ENDBRANCH  38  39
ENDBRANCH  37  38
ENDBRANCH  36  37
ENDBRANCH  35  36
ENDBRANCH  34  35
ENDBRANCH   1  34
TORSDOF 21
