REMARK SMILES C[C@@H](C(=O)OCCOCCOCCOC(=O)c1ccc(-c2c3nc(c(-c4c(F)cccc4F)c4ccc([nH]4)c(-c4c(F)cccc4F)c4nc(c(-c5c(F)cccc5F)c5ccc2[nH]5)C=C4)C=C3)cc1)c1ccc(-c2cccc(OC(=O)NCCCc3ccccc3)c2)c(F)c1
REMARK SMILES IDX 6 1 5 2 3 3 4 4 2 5 1 6 71 7 72 8 96 9 73 10 94 11 74 12
REMARK SMILES IDX 95 13 75 14 76 15 93 16 77 17 79 18 78 19 80 20 81 21 82 22
REMARK SMILES IDX 83 23 84 25 85 26 86 27 87 28 88 29 92 30 89 31 91 32 90 33
REMARK SMILES IDX 7 34 8 35 9 36 10 37 11 38 12 39 13 40 14 41 15 42 16 43
REMARK SMILES IDX 17 44 18 45 70 46 19 47 69 48 20 49 21 50 22 51 63 52 23 53
REMARK SMILES IDX 68 54 62 55 64 56 24 57 67 58 61 59 60 60 25 62 51 63 34 64
REMARK SMILES IDX 50 65 35 66 38 67 49 68 65 69 36 70 37 71 48 73 66 74 39 75
REMARK SMILES IDX 26 76 27 77 32 78 28 79 29 80 31 81 33 82 30 83 52 84 53 85
REMARK SMILES IDX 58 86 54 87 55 88 57 89 59 90 56 91 40 92 41 93 46 94 42 95
REMARK SMILES IDX 43 96 45 97 47 98 44 99
REMARK H PARENT 83 24 64 61 38 72
REMARK Flexibility Score: inf
ROOT
ATOM      1  C   UNL     1       2.673  -4.015   1.205  1.00  0.00     0.261 C 
ENDROOT
BRANCH   1   2
ATOM      2  O   UNL     1       2.336  -2.798   0.423  1.00  0.00    -0.463 OA
BRANCH   2   3
ATOM      3  C   UNL     1       1.334  -2.867  -0.517  1.00  0.00     0.313 C 
ATOM      4  O   UNL     1       0.890  -3.958  -0.875  1.00  0.00    -0.252 OA
BRANCH   3   5
ATOM      5  C   UNL     1       0.629  -1.482  -0.917  1.00  0.00     0.126 C 
ATOM      6  C   UNL     1       1.234  -0.141  -0.463  1.00  0.00     0.025 C 
BRANCH   5   7
ATOM      7  C   UNL     1      -0.923  -1.423  -0.764  1.00  0.00    -0.031 A 
ATOM      8  C   UNL     1      -1.631  -0.194  -0.701  1.00  0.00     0.005 A 
ATOM      9  C   UNL     1      -1.700  -2.581  -0.775  1.00  0.00     0.044 A 
ATOM     10  C   UNL     1      -3.023  -0.127  -0.767  1.00  0.00     0.012 A 
ATOM     11  C   UNL     1      -3.078  -2.506  -0.891  1.00  0.00     0.131 A 
ATOM     12  C   UNL     1      -3.757  -1.276  -1.018  1.00  0.00     0.018 A 
ATOM     13  F   UNL     1      -3.747  -3.670  -0.787  1.00  0.00    -0.206 F 
BRANCH  12  14
ATOM     14  C   UNL     1      -5.206  -1.190  -1.020  1.00  0.00    -0.012 A 
ATOM     15  C   UNL     1      -6.105  -0.423  -1.739  1.00  0.00     0.009 A 
ATOM     16  C   UNL     1      -5.718  -1.855   0.028  1.00  0.00     0.056 A 
ATOM     17  C   UNL     1      -7.473  -0.381  -1.342  1.00  0.00     0.004 A 
ATOM     18  C   UNL     1      -6.883  -1.501   0.624  1.00  0.00     0.133 A 
ATOM     19  C   UNL     1      -7.896  -0.926  -0.108  1.00  0.00     0.047 A 
BRANCH  18  20
ATOM     20  O   UNL     1      -6.856  -2.358   1.996  1.00  0.00    -0.410 OA
BRANCH  20  21
ATOM     21  C   UNL     1      -6.872  -3.437   3.704  1.00  0.00     0.412 C 
ATOM     22  O   UNL     1      -5.862  -3.738   4.436  1.00  0.00    -0.224 OA
ATOM     23  N   UNL     1      -7.903  -4.174   4.327  1.00  0.00    -0.321 N 
ATOM     24  H   UNL     1      -7.602  -5.015   4.740  1.00  0.00     0.167 HD
BRANCH  23  25
ATOM     25  C   UNL     1      -9.293  -3.925   4.466  1.00  0.00     0.120 C 
BRANCH  25  26
ATOM     26  C   UNL     1     -10.111  -5.196   4.440  1.00  0.00     0.026 C 
BRANCH  26  27
ATOM     27  C   UNL     1      -9.753  -6.052   5.620  1.00  0.00     0.037 C 
BRANCH  27  28
ATOM     28  C   UNL     1     -10.037  -5.351   6.928  1.00  0.00    -0.048 A 
ATOM     29  C   UNL     1     -10.330  -3.979   7.063  1.00  0.00     0.004 A 
ATOM     30  C   UNL     1      -9.883  -6.080   8.089  1.00  0.00     0.004 A 
ATOM     31  C   UNL     1     -10.066  -3.284   8.226  1.00  0.00     0.000 A 
ATOM     32  C   UNL     1      -9.894  -5.418   9.312  1.00  0.00     0.000 A 
ATOM     33  C   UNL     1      -9.897  -4.021   9.375  1.00  0.00     0.000 A 
ENDBRANCH  27  28
ENDBRANCH  26  27
ENDBRANCH  25  26
ENDBRANCH  23  25
ENDBRANCH  20  21
ENDBRANCH  18  20
ENDBRANCH  12  14
ENDBRANCH   5   7
ENDBRANCH   3   5
ENDBRANCH   2   3
ENDBRANCH   1   2
BRANCH   1  34
ATOM     34  C   UNL     1       2.039  -4.234   2.636  1.00  0.00     0.202 C 
BRANCH  34  35
ATOM     35  O   UNL     1       0.711  -3.835   2.895  1.00  0.00    -0.376 OA
BRANCH  35  36
ATOM     36  C   UNL     1       0.296  -2.714   2.158  1.00  0.00     0.188 C 
BRANCH  36  37
ATOM     37  C   UNL     1       1.048  -1.379   2.305  1.00  0.00     0.188 C 
BRANCH  37  38
ATOM     38  O   UNL     1       2.421  -1.061   2.336  1.00  0.00    -0.376 OA
BRANCH  38  39
ATOM     39  C   UNL     1       3.089  -1.448   3.534  1.00  0.00     0.202 C 
BRANCH  39  40
ATOM     40  C   UNL     1       2.352  -1.464   4.963  1.00  0.00     0.261 C 
BRANCH  40  41
ATOM     41  O   UNL     1       0.875  -1.517   5.153  1.00  0.00    -0.460 OA
BRANCH  41  42
ATOM     42  C   UNL     1       0.117  -0.401   4.832  1.00  0.00     0.338 C 
ATOM     43  O   UNL     1       0.574   0.699   4.558  1.00  0.00    -0.246 OA
BRANCH  42  44
ATOM     44  C   UNL     1      -1.312  -0.736   4.490  1.00  0.00     0.060 A 
ATOM     45  C   UNL     1      -1.926  -0.476   3.229  1.00  0.00     0.016 A 
ATOM     46  C   UNL     1      -2.099  -1.104   5.561  1.00  0.00     0.016 A 
ATOM     47  C   UNL     1      -3.309  -0.468   3.089  1.00  0.00     0.010 A 
ATOM     48  C   UNL     1      -3.480  -1.067   5.429  1.00  0.00     0.010 A 
ATOM     49  C   UNL     1      -4.082  -0.709   4.214  1.00  0.00    -0.014 A 
BRANCH  49  50
ATOM     50  C   UNL     1      -5.530  -0.624   4.130  1.00  0.00     0.031 A 
ATOM     51  C   UNL     1      -6.335   0.343   4.890  1.00  0.00     0.074 A 
ATOM     52  C   UNL     1      -6.146  -1.592   3.454  1.00  0.00     0.049 A 
ATOM     53  N   UNL     1      -7.634   0.438   4.934  1.00  0.00    -0.248 NA
ATOM     54  C   UNL     1      -5.606   1.311   5.714  1.00  0.00     0.031 C 
ATOM     55  C   UNL     1      -5.251  -3.063   2.515  1.00  0.00     0.029 A 
ATOM     56  N   UNL     1      -7.962  -1.899   3.266  1.00  0.00    -0.354 N 
ATOM     57  C   UNL     1      -7.892   1.471   5.801  1.00  0.00     0.074 A 
ATOM     58  C   UNL     1      -6.612   1.951   6.291  1.00  0.00     0.031 C 
ATOM     59  C   UNL     1      -6.416  -4.101   1.839  1.00  0.00     0.029 A 
ATOM     60  C   UNL     1      -8.225  -3.390   2.152  1.00  0.00     0.049 A 
ATOM     61  H   UNL     1      -8.676  -1.366   3.684  1.00  0.00     0.167 HD
ATOM     62  C   UNL     1      -9.099   1.967   6.135  1.00  0.00     0.037 A 
ATOM     63  C   UNL     1      -9.338  -3.671   1.471  1.00  0.00     0.037 A 
ATOM     64  C   UNL     1     -10.362   1.450   5.681  1.00  0.00     0.049 A 
ATOM     65  C   UNL     1     -10.588  -2.913   1.840  1.00  0.00     0.074 A 
ATOM     66  C   UNL     1     -11.611   1.941   6.005  1.00  0.00     0.029 A 
ATOM     67  N   UNL     1     -10.559   0.336   4.866  1.00  0.00    -0.354 N 
ATOM     68  N   UNL     1     -10.686  -1.793   2.528  1.00  0.00    -0.248 NA
ATOM     69  C   UNL     1     -11.856  -3.605   1.628  1.00  0.00     0.031 C 
ATOM     70  C   UNL     1     -12.561   1.086   5.463  1.00  0.00     0.029 A 
ATOM     71  C   UNL     1     -11.921   0.132   4.680  1.00  0.00     0.049 A 
ATOM     72  H   UNL     1      -9.843  -0.220   4.482  1.00  0.00     0.167 HD
ATOM     73  C   UNL     1     -11.999  -1.719   2.959  1.00  0.00     0.074 A 
ATOM     74  C   UNL     1     -12.689  -2.826   2.307  1.00  0.00     0.031 C 
ATOM     75  C   UNL     1     -12.562  -0.888   3.876  1.00  0.00     0.037 A 
BRANCH  62  76
ATOM     76  C   UNL     1      -9.091   3.113   7.088  1.00  0.00     0.057 A 
ATOM     77  C   UNL     1      -8.503   4.341   6.760  1.00  0.00     0.134 A 
ATOM     78  C   UNL     1      -9.668   2.977   8.355  1.00  0.00     0.134 A 
ATOM     79  F   UNL     1      -7.958   4.536   5.548  1.00  0.00    -0.206 F 
ATOM     80  C   UNL     1      -8.405   5.363   7.697  1.00  0.00     0.040 A 
ATOM     81  C   UNL     1      -9.652   4.022   9.269  1.00  0.00     0.040 A 
ATOM     82  F   UNL     1     -10.271   1.833   8.715  1.00  0.00    -0.206 F 
ATOM     83  C   UNL     1      -8.995   5.209   8.950  1.00  0.00     0.006 A 
ENDBRANCH  62  76
BRANCH  63  84
ATOM     84  C   UNL     1      -9.254  -4.878   0.673  1.00  0.00     0.057 A 
ATOM     85  C   UNL     1      -9.814  -4.867  -0.589  1.00  0.00     0.134 A 
ATOM     86  C   UNL     1      -8.626  -6.056   1.126  1.00  0.00     0.134 A 
ATOM     87  F   UNL     1     -10.364  -3.744  -1.074  1.00  0.00    -0.206 F 
ATOM     88  C   UNL     1      -9.833  -6.022  -1.349  1.00  0.00     0.040 A 
ATOM     89  C   UNL     1      -8.559  -7.188   0.343  1.00  0.00     0.040 A 
ATOM     90  F   UNL     1      -8.038  -6.136   2.330  1.00  0.00    -0.206 F 
ATOM     91  C   UNL     1      -9.199  -7.180  -0.887  1.00  0.00     0.006 A 
ENDBRANCH  63  84
BRANCH  75  92
ATOM     92  C   UNL     1     -14.059  -0.928   3.925  1.00  0.00     0.057 A 
ATOM     93  C   UNL     1     -14.794  -2.001   4.432  1.00  0.00     0.134 A 
ATOM     94  C   UNL     1     -14.764   0.158   3.384  1.00  0.00     0.134 A 
ATOM     95  F   UNL     1     -14.174  -3.054   4.988  1.00  0.00    -0.206 F 
ATOM     96  C   UNL     1     -16.178  -2.047   4.282  1.00  0.00     0.040 A 
ATOM     97  C   UNL     1     -16.149   0.163   3.314  1.00  0.00     0.040 A 
ATOM     98  F   UNL     1     -14.111   1.238   2.927  1.00  0.00    -0.206 F 
ATOM     99  C   UNL     1     -16.858  -0.960   3.730  1.00  0.00     0.006 A 
ENDBRANCH  75  92
ENDBRANCH  49  50
ENDBRANCH  42  44
ENDBRANCH  41  42
ENDBRANCH  40  41
ENDBRANCH  39  40
ENDBRANCH  38  39
ENDBRANCH  37  38
ENDBRANCH  36  37
ENDBRANCH  35  36
ENDBRANCH  34  35
ENDBRANCH   1  34
TORSDOF 25
