REMARK SMILES COC[C@@H](NS(=O)(=O)c1ccc(C(=O)OCCOCCOCCOC(=O)c2ccc(-c3c4nc(c(-c5c(F)cccc5F)c5ccc([nH]5)c(-c5c(F)cccc5F)c5nc(c(-c6c(F)cccc6F)c6ccc3[nH]6)C=C5)C=C4)cc2)cc1F)C(C)C
REMARK SMILES IDX 18 1 17 2 16 3 15 4 13 5 14 6 12 7 9 8 10 9 82 10 11 11
REMARK SMILES IDX 81 12 83 13 6 14 7 15 8 16 5 17 4 19 3 20 2 21 1 22 84 23
REMARK SMILES IDX 85 24 86 25 19 26 20 27 21 28 22 29 23 30 24 31 25 32 26 33
REMARK SMILES IDX 27 34 28 35 80 36 29 37 79 38 30 39 31 40 32 41 73 42 33 43
REMARK SMILES IDX 78 44 72 45 74 46 34 47 77 48 71 49 70 50 35 52 61 53 44 54
REMARK SMILES IDX 60 55 45 56 48 57 59 58 75 59 46 60 47 61 58 63 76 64 49 65
REMARK SMILES IDX 36 66 37 67 42 68 38 69 39 70 41 71 43 72 40 73 62 74 63 75
REMARK SMILES IDX 68 76 64 77 65 78 67 79 69 80 66 81 50 82 51 83 56 84 52 85
REMARK SMILES IDX 53 86 55 87 57 88 54 89
REMARK H PARENT 5 18 74 51 48 62
REMARK Flexibility Score: inf
ROOT
ATOM      1  O   UNL     1       2.467  10.849   2.278  1.00  0.00    -0.376 OA
ENDROOT
BRANCH   1   2
ATOM      2  C   UNL     1       3.670  10.879   3.036  1.00  0.00     0.202 C 
BRANCH   2   3
ATOM      3  C   UNL     1       3.807   9.967   4.262  1.00  0.00     0.261 C 
BRANCH   3   4
ATOM      4  O   UNL     1       3.409   8.601   4.053  1.00  0.00    -0.460 OA
BRANCH   4   5
ATOM      5  C   UNL     1       2.352   8.186   4.796  1.00  0.00     0.338 C 
ATOM      6  O   UNL     1       1.723   8.845   5.608  1.00  0.00    -0.246 OA
BRANCH   5   7
ATOM      7  C   UNL     1       1.934   6.821   4.393  1.00  0.00     0.063 A 
ATOM      8  C   UNL     1       1.017   4.314   3.566  1.00  0.00     0.118 A 
ATOM      9  C   UNL     1       0.098   5.281   3.989  1.00  0.00     0.026 A 
ATOM     10  C   UNL     1       2.382   4.586   3.595  1.00  0.00     0.144 A 
ATOM     11  C   UNL     1       0.560   6.532   4.404  1.00  0.00     0.017 A 
ATOM     12  C   UNL     1       2.849   5.840   3.999  1.00  0.00     0.056 A 
ATOM     13  F   UNL     1       3.278   3.672   3.198  1.00  0.00    -0.205 F 
BRANCH   8  14
ATOM     14  S   UNL     1       0.446   2.784   2.888  1.00  0.00     0.243 S 
ATOM     15  O   UNL     1      -0.975   2.903   2.658  1.00  0.00    -0.207 OA
ATOM     16  O   UNL     1       0.997   1.729   3.712  1.00  0.00    -0.207 OA
BRANCH  14  17
ATOM     17  N   UNL     1       1.230   2.685   1.397  1.00  0.00    -0.205 NA
ATOM     18  H   UNL     1       1.986   3.369   1.424  1.00  0.00     0.141 HD
BRANCH  17  19
ATOM     19  C   UNL     1       0.497   2.916   0.112  1.00  0.00     0.098 C 
BRANCH  19  20
ATOM     20  C   UNL     1       0.914   1.812  -0.901  1.00  0.00     0.180 C 
BRANCH  20  21
ATOM     21  O   UNL     1       0.231   0.575  -0.688  1.00  0.00    -0.383 OA
ATOM     22  C   UNL     1       0.916  -0.352   0.136  1.00  0.00     0.194 C 
ENDBRANCH  20  21
ENDBRANCH  19  20
BRANCH  19  23
ATOM     23  C   UNL     1       0.849   4.341  -0.414  1.00  0.00     0.003 C 
ATOM     24  C   UNL     1       0.303   4.631  -1.818  1.00  0.00     0.009 C 
ATOM     25  C   UNL     1       0.327   5.426   0.530  1.00  0.00     0.009 C 
ENDBRANCH  19  23
ENDBRANCH  17  19
ENDBRANCH  14  17
ENDBRANCH   8  14
ENDBRANCH   5   7
ENDBRANCH   4   5
ENDBRANCH   3   4
ENDBRANCH   2   3
ENDBRANCH   1   2
BRANCH   1  26
ATOM     26  C   UNL     1       2.020   9.626   1.699  1.00  0.00     0.188 C 
BRANCH  26  27
ATOM     27  C   UNL     1       3.021   8.681   1.001  1.00  0.00     0.188 C 
BRANCH  27  28
ATOM     28  O   UNL     1       4.345   9.166   1.000  1.00  0.00    -0.376 OA
BRANCH  28  29
ATOM     29  C   UNL     1       4.914   9.603  -0.221  1.00  0.00     0.202 C 
BRANCH  29  30
ATOM     30  C   UNL     1       4.187  10.604  -1.138  1.00  0.00     0.261 C 
BRANCH  30  31
ATOM     31  O   UNL     1       2.755  10.560  -1.153  1.00  0.00    -0.460 OA
BRANCH  31  32
ATOM     32  C   UNL     1       2.179   9.828  -2.131  1.00  0.00     0.338 C 
ATOM     33  O   UNL     1       2.734   9.112  -2.945  1.00  0.00    -0.246 OA
BRANCH  32  34
ATOM     34  C   UNL     1       0.716   9.899  -1.961  1.00  0.00     0.060 A 
ATOM     35  C   UNL     1       0.055   8.745  -1.538  1.00  0.00     0.016 A 
ATOM     36  C   UNL     1      -0.005  11.058  -2.246  1.00  0.00     0.016 A 
ATOM     37  C   UNL     1      -1.333   8.734  -1.397  1.00  0.00     0.010 A 
ATOM     38  C   UNL     1      -1.401  11.043  -2.133  1.00  0.00     0.010 A 
ATOM     39  C   UNL     1      -2.073   9.876  -1.725  1.00  0.00    -0.014 A 
BRANCH  39  40
ATOM     40  C   UNL     1      -3.553   9.799  -1.792  1.00  0.00     0.031 A 
ATOM     41  C   UNL     1      -4.204   9.503  -3.115  1.00  0.00     0.074 A 
ATOM     42  C   UNL     1      -4.311   9.959  -0.691  1.00  0.00     0.049 A 
ATOM     43  N   UNL     1      -5.474   9.458  -3.423  1.00  0.00    -0.248 NA
ATOM     44  C   UNL     1      -3.299   9.211  -4.239  1.00  0.00     0.031 C 
ATOM     45  C   UNL     1      -3.803  10.182   0.660  1.00  0.00     0.029 A 
ATOM     46  N   UNL     1      -5.676   9.962  -0.544  1.00  0.00    -0.354 N 
ATOM     47  C   UNL     1      -5.521   9.136  -4.773  1.00  0.00     0.074 A 
ATOM     48  C   UNL     1      -4.155   9.014  -5.231  1.00  0.00     0.031 C 
ATOM     49  C   UNL     1      -4.845  10.311   1.501  1.00  0.00     0.029 A 
ATOM     50  C   UNL     1      -6.091  10.217   0.741  1.00  0.00     0.049 A 
ATOM     51  H   UNL     1      -6.299   9.796  -1.288  1.00  0.00     0.167 HD
ATOM     52  C   UNL     1      -6.607   8.955  -5.559  1.00  0.00     0.037 A 
ATOM     53  C   UNL     1      -7.333  10.382   1.239  1.00  0.00     0.037 A 
ATOM     54  C   UNL     1      -7.967   9.080  -5.109  1.00  0.00     0.049 A 
ATOM     55  C   UNL     1      -8.523  10.273   0.322  1.00  0.00     0.074 A 
ATOM     56  C   UNL     1      -9.133   8.924  -5.839  1.00  0.00     0.029 A 
ATOM     57  N   UNL     1      -8.343   9.392  -3.812  1.00  0.00    -0.354 N 
ATOM     58  N   UNL     1      -8.558   9.984  -0.957  1.00  0.00    -0.248 NA
ATOM     59  C   UNL     1      -9.847  10.523   0.913  1.00  0.00     0.031 C 
ATOM     60  C   UNL     1     -10.214   9.182  -4.993  1.00  0.00     0.029 A 
ATOM     61  C   UNL     1      -9.723   9.454  -3.726  1.00  0.00     0.049 A 
ATOM     62  H   UNL     1      -7.722   9.547  -3.064  1.00  0.00     0.167 HD
ATOM     63  C   UNL     1      -9.901   9.991  -1.314  1.00  0.00     0.074 A 
ATOM     64  C   UNL     1     -10.652  10.307  -0.118  1.00  0.00     0.031 C 
ATOM     65  C   UNL     1     -10.460   9.756  -2.526  1.00  0.00     0.037 A 
BRANCH  52  66
ATOM     66  C   UNL     1      -6.375   8.618  -7.000  1.00  0.00     0.057 A 
ATOM     67  C   UNL     1      -6.619   9.565  -8.002  1.00  0.00     0.134 A 
ATOM     68  C   UNL     1      -5.977   7.336  -7.399  1.00  0.00     0.134 A 
ATOM     69  F   UNL     1      -7.004  10.810  -7.684  1.00  0.00    -0.206 F 
ATOM     70  C   UNL     1      -6.490   9.244  -9.354  1.00  0.00     0.040 A 
ATOM     71  C   UNL     1      -5.826   7.009  -8.747  1.00  0.00     0.040 A 
ATOM     72  F   UNL     1      -5.713   6.391  -6.484  1.00  0.00    -0.206 F 
ATOM     73  C   UNL     1      -6.093   7.962  -9.729  1.00  0.00     0.006 A 
ENDBRANCH  52  66
BRANCH  53  74
ATOM     74  C   UNL     1      -7.522  10.692   2.679  1.00  0.00     0.057 A 
ATOM     75  C   UNL     1      -7.151  11.932   3.213  1.00  0.00     0.134 A 
ATOM     76  C   UNL     1      -8.098   9.761   3.550  1.00  0.00     0.134 A 
ATOM     77  F   UNL     1      -6.600  12.870   2.429  1.00  0.00    -0.206 F 
ATOM     78  C   UNL     1      -7.333  12.230   4.564  1.00  0.00     0.040 A 
ATOM     79  C   UNL     1      -8.306  10.053   4.899  1.00  0.00     0.040 A 
ATOM     80  F   UNL     1      -8.500   8.566   3.092  1.00  0.00    -0.206 F 
ATOM     81  C   UNL     1      -7.917  11.290   5.411  1.00  0.00     0.006 A 
ENDBRANCH  53  74
BRANCH  65  82
ATOM     82  C   UNL     1     -11.955   9.798  -2.628  1.00  0.00     0.057 A 
ATOM     83  C   UNL     1     -12.689   8.619  -2.815  1.00  0.00     0.134 A 
ATOM     84  C   UNL     1     -12.659  11.007  -2.633  1.00  0.00     0.134 A 
ATOM     85  F   UNL     1     -12.072   7.428  -2.833  1.00  0.00    -0.206 F 
ATOM     86  C   UNL     1     -14.069   8.643  -3.019  1.00  0.00     0.040 A 
ATOM     87  C   UNL     1     -14.043  11.043  -2.814  1.00  0.00     0.040 A 
ATOM     88  F   UNL     1     -12.015  12.170  -2.451  1.00  0.00    -0.206 F 
ATOM     89  C   UNL     1     -14.750   9.859  -3.018  1.00  0.00     0.006 A 
ENDBRANCH  65  82
ENDBRANCH  39  40
ENDBRANCH  32  34
ENDBRANCH  31  32
ENDBRANCH  30  31
ENDBRANCH  29  30
ENDBRANCH  28  29
ENDBRANCH  27  28
ENDBRANCH  26  27
ENDBRANCH   1  26
TORSDOF 23
