REMARK SMILES C[C@H](C(=O)OCCOCCOCCOC(=O)c1ccc(-c2c3nc(c(-c4c(F)cccc4F)c4ccc([nH]4)c(-c4c(F)cccc4F)c4nc(c(-c5c(F)cccc5F)c5ccc2[nH]5)C=C4)C=C3)cc1)N1C(=O)C[C@@H](N2C(=O)/C(=C/c3ccccc3)SC2=S)C1=O
REMARK SMILES IDX 9 1 8 2 7 3 6 4 5 5 3 6 4 7 2 8 1 9 71 10 72 11 90 12 73 13
REMARK SMILES IDX 74 14 75 15 91 16 76 17 77 18 88 19 78 20 79 21 87 22 89 23
REMARK SMILES IDX 80 24 81 25 82 26 86 27 83 28 85 29 84 30 10 31 11 32 12 33
REMARK SMILES IDX 13 34 14 35 15 36 16 37 17 38 18 39 70 40 19 41 69 42 20 43
REMARK SMILES IDX 21 44 22 45 63 46 23 47 68 48 62 49 64 50 24 51 67 52 61 53
REMARK SMILES IDX 60 54 25 56 51 57 34 58 50 59 35 60 38 61 49 62 65 63 36 64
REMARK SMILES IDX 37 65 48 67 66 68 39 69 26 70 27 71 32 72 28 73 29 74 31 75
REMARK SMILES IDX 33 76 30 77 52 78 53 79 58 80 54 81 55 82 57 83 59 84 56 85
REMARK SMILES IDX 40 86 41 87 46 88 42 89 43 90 45 91 47 92 44 93
REMARK H PARENT 64 55 38 66
REMARK Flexibility Score: inf
ROOT
ATOM      1  C   UNL     1       2.410   1.763   0.281  1.00  0.00     0.188 C 
ENDROOT
BRANCH   1   2
ATOM      2  O   UNL     1       2.782   1.391  -1.046  1.00  0.00    -0.376 OA
BRANCH   2   3
ATOM      3  C   UNL     1       1.794   1.369  -2.062  1.00  0.00     0.202 C 
BRANCH   3   4
ATOM      4  C   UNL     1       0.963   0.083  -2.146  1.00  0.00     0.261 C 
BRANCH   4   5
ATOM      5  O   UNL     1       0.352  -0.349  -0.913  1.00  0.00    -0.462 OA
BRANCH   5   6
ATOM      6  C   UNL     1       1.062  -1.250  -0.185  1.00  0.00     0.329 C 
ATOM      7  O   UNL     1       2.196  -1.625  -0.468  1.00  0.00    -0.250 OA
BRANCH   6   8
ATOM      8  C   UNL     1       0.353  -1.717   1.099  1.00  0.00     0.200 C 
ATOM      9  C   UNL     1       1.101  -1.222   2.334  1.00  0.00     0.044 C 
BRANCH   8  10
ATOM     10  N   UNL     1      -1.092  -1.481   1.163  1.00  0.00    -0.267 N 
ATOM     11  C   UNL     1      -1.723  -0.316   1.487  1.00  0.00     0.232 C 
ATOM     12  C   UNL     1      -1.983  -2.481   0.900  1.00  0.00     0.253 C 
ATOM     13  O   UNL     1      -1.221   0.679   1.987  1.00  0.00    -0.274 OA
ATOM     14  C   UNL     1      -3.194  -0.433   1.199  1.00  0.00     0.136 C 
ATOM     15  C   UNL     1      -3.388  -1.919   0.958  1.00  0.00     0.191 C 
ATOM     16  O   UNL     1      -1.718  -3.647   0.638  1.00  0.00    -0.272 OA
BRANCH  15  17
ATOM     17  N   UNL     1      -4.055  -2.309  -0.288  1.00  0.00    -0.280 N 
ATOM     18  C   UNL     1      -3.519  -1.877  -1.490  1.00  0.00     0.266 C 
ATOM     19  C   UNL     1      -5.103  -3.203  -0.374  1.00  0.00     0.149 C 
ATOM     20  O   UNL     1      -2.569  -1.115  -1.610  1.00  0.00    -0.268 OA
ATOM     21  C   UNL     1      -4.228  -2.493  -2.632  1.00  0.00     0.081 C 
ATOM     22  S   UNL     1      -5.486  -3.511  -2.063  1.00  0.00    -0.054 SA
ATOM     23  S   UNL     1      -5.964  -3.903   0.870  1.00  0.00    -0.052 S 
ATOM     24  C   UNL     1      -3.852  -2.245  -3.893  1.00  0.00     0.029 C 
BRANCH  24  25
ATOM     25  C   UNL     1      -4.511  -2.756  -5.095  1.00  0.00    -0.024 A 
ATOM     26  C   UNL     1      -3.796  -3.539  -6.006  1.00  0.00     0.008 A 
ATOM     27  C   UNL     1      -5.845  -2.428  -5.365  1.00  0.00     0.008 A 
ATOM     28  C   UNL     1      -4.420  -4.011  -7.163  1.00  0.00     0.001 A 
ATOM     29  C   UNL     1      -6.467  -2.903  -6.519  1.00  0.00     0.001 A 
ATOM     30  C   UNL     1      -5.755  -3.695  -7.416  1.00  0.00     0.000 A 
ENDBRANCH  24  25
ENDBRANCH  15  17
ENDBRANCH   8  10
ENDBRANCH   6   8
ENDBRANCH   5   6
ENDBRANCH   4   5
ENDBRANCH   3   4
ENDBRANCH   2   3
ENDBRANCH   1   2
BRANCH   1  31
ATOM     31  C   UNL     1       1.008   2.321   0.561  1.00  0.00     0.188 C 
BRANCH  31  32
ATOM     32  O   UNL     1       0.717   3.452  -0.255  1.00  0.00    -0.376 OA
BRANCH  32  33
ATOM     33  C   UNL     1       0.290   4.602   0.462  1.00  0.00     0.202 C 
BRANCH  33  34
ATOM     34  C   UNL     1       1.492   5.482   0.808  1.00  0.00     0.261 C 
BRANCH  34  35
ATOM     35  O   UNL     1       2.504   4.811   1.582  1.00  0.00    -0.460 OA
BRANCH  35  36
ATOM     36  C   UNL     1       2.188   4.498   2.855  1.00  0.00     0.338 C 
ATOM     37  O   UNL     1       1.139   4.746   3.435  1.00  0.00    -0.246 OA
BRANCH  36  38
ATOM     38  C   UNL     1       3.274   3.670   3.416  1.00  0.00     0.060 A 
ATOM     39  C   UNL     1       2.960   2.443   4.015  1.00  0.00     0.016 A 
ATOM     40  C   UNL     1       4.598   4.115   3.373  1.00  0.00     0.016 A 
ATOM     41  C   UNL     1       3.970   1.677   4.606  1.00  0.00     0.010 A 
ATOM     42  C   UNL     1       5.603   3.353   3.974  1.00  0.00     0.010 A 
ATOM     43  C   UNL     1       5.292   2.145   4.621  1.00  0.00    -0.014 A 
BRANCH  43  44
ATOM     44  C   UNL     1       6.327   1.474   5.449  1.00  0.00     0.031 A 
ATOM     45  C   UNL     1       6.644   2.041   6.807  1.00  0.00     0.074 A 
ATOM     46  C   UNL     1       6.996   0.394   5.005  1.00  0.00     0.049 A 
ATOM     47  N   UNL     1       7.571   1.690   7.661  1.00  0.00    -0.248 NA
ATOM     48  C   UNL     1       5.802   3.161   7.257  1.00  0.00     0.031 C 
ATOM     49  C   UNL     1       6.771  -0.276   3.728  1.00  0.00     0.029 A 
ATOM     50  N   UNL     1       8.020  -0.315   5.584  1.00  0.00    -0.354 N 
ATOM     51  C   UNL     1       7.428   2.546   8.746  1.00  0.00     0.074 A 
ATOM     52  C   UNL     1       6.344   3.452   8.430  1.00  0.00     0.031 C 
ATOM     53  C   UNL     1       7.647  -1.290   3.609  1.00  0.00     0.029 A 
ATOM     54  C   UNL     1       8.514  -1.318   4.787  1.00  0.00     0.049 A 
ATOM     55  H   UNL     1       8.367  -0.123   6.485  1.00  0.00     0.167 HD
ATOM     56  C   UNL     1       8.129   2.574   9.904  1.00  0.00     0.037 A 
ATOM     57  C   UNL     1       9.564  -2.143   4.973  1.00  0.00     0.037 A 
ATOM     58  C   UNL     1       9.214   1.684  10.222  1.00  0.00     0.049 A 
ATOM     59  C   UNL     1      10.381  -2.044   6.237  1.00  0.00     0.074 A 
ATOM     60  C   UNL     1       9.979   1.633  11.375  1.00  0.00     0.029 A 
ATOM     61  N   UNL     1       9.694   0.694   9.380  1.00  0.00    -0.354 N 
ATOM     62  N   UNL     1      10.224  -1.245   7.264  1.00  0.00    -0.248 NA
ATOM     63  C   UNL     1      11.523  -2.963   6.364  1.00  0.00     0.031 C 
ATOM     64  C   UNL     1      10.951   0.641  11.212  1.00  0.00     0.029 A 
ATOM     65  C   UNL     1      10.759   0.041   9.978  1.00  0.00     0.049 A 
ATOM     66  H   UNL     1       9.332   0.485   8.488  1.00  0.00     0.167 HD
ATOM     67  C   UNL     1      11.225  -1.584   8.169  1.00  0.00     0.074 A 
ATOM     68  C   UNL     1      11.977  -2.668   7.574  1.00  0.00     0.031 C 
ATOM     69  C   UNL     1      11.495  -1.046   9.383  1.00  0.00     0.037 A 
BRANCH  56  70
ATOM     70  C   UNL     1       7.753   3.623  10.908  1.00  0.00     0.057 A 
ATOM     71  C   UNL     1       6.565   3.546  11.647  1.00  0.00     0.134 A 
ATOM     72  C   UNL     1       8.601   4.710  11.157  1.00  0.00     0.134 A 
ATOM     73  F   UNL     1       5.703   2.538  11.445  1.00  0.00    -0.206 F 
ATOM     74  C   UNL     1       6.223   4.525  12.581  1.00  0.00     0.040 A 
ATOM     75  C   UNL     1       8.281   5.682  12.106  1.00  0.00     0.040 A 
ATOM     76  F   UNL     1       9.755   4.841  10.486  1.00  0.00    -0.206 F 
ATOM     77  C   UNL     1       7.085   5.594  12.816  1.00  0.00     0.006 A 
ENDBRANCH  56  70
BRANCH  57  78
ATOM     78  C   UNL     1       9.930  -3.131   3.925  1.00  0.00     0.057 A 
ATOM     79  C   UNL     1       9.773  -4.506   4.137  1.00  0.00     0.134 A 
ATOM     80  C   UNL     1      10.481  -2.726   2.704  1.00  0.00     0.134 A 
ATOM     81  F   UNL     1       9.280  -4.958   5.300  1.00  0.00    -0.206 F 
ATOM     82  C   UNL     1      10.166  -5.443   3.179  1.00  0.00     0.040 A 
ATOM     83  C   UNL     1      10.854  -3.650   1.727  1.00  0.00     0.040 A 
ATOM     84  F   UNL     1      10.664  -1.423   2.443  1.00  0.00    -0.206 F 
ATOM     85  C   UNL     1      10.704  -5.014   1.967  1.00  0.00     0.006 A 
ENDBRANCH  57  78
BRANCH  69  86
ATOM     86  C   UNL     1      12.623  -1.644  10.173  1.00  0.00     0.057 A 
ATOM     87  C   UNL     1      13.964  -1.436   9.827  1.00  0.00     0.134 A 
ATOM     88  C   UNL     1      12.364  -2.399  11.325  1.00  0.00     0.134 A 
ATOM     89  F   UNL     1      14.282  -0.732   8.730  1.00  0.00    -0.206 F 
ATOM     90  C   UNL     1      15.006  -1.974  10.585  1.00  0.00     0.040 A 
ATOM     91  C   UNL     1      13.397  -2.921  12.105  1.00  0.00     0.040 A 
ATOM     92  F   UNL     1      11.102  -2.628  11.720  1.00  0.00    -0.206 F 
ATOM     93  C   UNL     1      14.723  -2.713  11.733  1.00  0.00     0.006 A 
ENDBRANCH  69  86
ENDBRANCH  43  44
ENDBRANCH  36  38
ENDBRANCH  35  36
ENDBRANCH  34  35
ENDBRANCH  33  34
ENDBRANCH  32  33
ENDBRANCH  31  32
ENDBRANCH   1  31
TORSDOF 20
