REMARK SMILES Cc1cccc2c1N=CN1C2=[NH+]NC(=O)[C@@H]1CC(=O)OCCOCCOCCOC(=O)c1ccc(-c2c3nc(c(-c4c(F)cccc4F)c4ccc([nH]4)c(-c4c(F)cccc4F)c4nc(c(-c5c(F)cccc5F)c5ccc2[nH]5)C=C4)C=C3)cc1
REMARK SMILES IDX 25 1 24 2 23 3 22 4 21 5 20 6 18 7 19 8 17 9 16 10 1 11 2 12
REMARK SMILES IDX 3 13 7 14 4 15 6 16 8 17 5 18 11 19 9 20 10 21 12 22 13 23
REMARK SMILES IDX 14 25 15 27 26 28 27 29 28 30 29 31 30 32 31 33 32 34 33 35
REMARK SMILES IDX 85 36 34 37 84 38 35 39 36 40 37 41 78 42 38 43 83 44 77 45
REMARK SMILES IDX 79 46 39 47 82 48 76 49 75 50 40 52 66 53 49 54 65 55 50 56
REMARK SMILES IDX 53 57 64 58 80 59 51 60 52 61 63 63 81 64 54 65 41 66 42 67
REMARK SMILES IDX 47 68 43 69 44 70 46 71 48 72 45 73 67 74 68 75 73 76 69 77
REMARK SMILES IDX 70 78 72 79 74 80 71 81 55 82 56 83 61 84 57 85 58 86 60 87
REMARK SMILES IDX 62 88 59 89
REMARK H PARENT 12 24 13 26 79 51 53 62
REMARK Flexibility Score: inf
ROOT
ATOM      1  C   UNL     1      -3.502   5.695   4.760  1.00  0.00     0.188 C 
ENDROOT
BRANCH   1   2
ATOM      2  C   UNL     1      -3.760   6.560   3.523  1.00  0.00     0.188 C 
BRANCH   2   3
ATOM      3  O   UNL     1      -4.820   6.129   2.682  1.00  0.00    -0.376 OA
BRANCH   3   4
ATOM      4  C   UNL     1      -4.688   4.812   2.146  1.00  0.00     0.202 C 
BRANCH   4   5
ATOM      5  C   UNL     1      -3.428   4.543   1.296  1.00  0.00     0.261 C 
BRANCH   5   6
ATOM      6  O   UNL     1      -2.181   4.604   2.043  1.00  0.00    -0.463 OA
BRANCH   6   7
ATOM      7  C   UNL     1      -1.171   5.298   1.466  1.00  0.00     0.310 C 
ATOM      8  O   UNL     1      -1.209   5.734   0.318  1.00  0.00    -0.252 OA
BRANCH   7   9
ATOM      9  C   UNL     1      -0.051   5.704   2.398  1.00  0.00     0.183 C 
BRANCH   9  10
ATOM     10  C   UNL     1       0.835   4.715   3.156  1.00  0.00     0.286 C 
ATOM     11  C   UNL     1       0.946  -0.441  -0.622  1.00  0.00     0.047 C 
ATOM     12  C   UNL     1       0.868  -0.285   0.869  1.00  0.00    -0.024 A 
ATOM     13  C   UNL     1       0.401  -1.347   1.667  1.00  0.00     0.006 A 
ATOM     14  C   UNL     1       1.222   0.931   1.469  1.00  0.00     0.085 A 
ATOM     15  C   UNL     1       0.341  -1.236   3.057  1.00  0.00     0.001 A 
ATOM     16  C   UNL     1       1.176   1.005   2.871  1.00  0.00     0.092 A 
ATOM     17  N   UNL     1       1.476   2.069   0.657  1.00  0.00    -0.215 NA
ATOM     18  C   UNL     1       0.763  -0.068   3.668  1.00  0.00     0.019 A 
ATOM     19  C   UNL     1       1.251   2.349   3.474  1.00  0.00     0.309 C 
ATOM     20  C   UNL     1       1.335   3.217   1.241  1.00  0.00     0.317 C 
ATOM     21  N   UNL     1       1.074   3.400   2.579  1.00  0.00    -0.202 N 
ATOM     22  N   UNL     1       1.375   2.428   4.766  1.00  0.00    -0.169 N 
ATOM     23  N   UNL     1       1.075   3.623   5.329  1.00  0.00    -0.193 N 
ATOM     24  H   UNL     1       1.672   1.660   5.307  1.00  0.00     0.340 HD
ATOM     25  C   UNL     1       0.425   4.599   4.615  1.00  0.00     0.300 C 
ATOM     26  H   UNL     1       1.328   3.795   6.265  1.00  0.00     0.216 HD
ATOM     27  O   UNL     1      -0.339   5.385   5.158  1.00  0.00    -0.267 OA
ENDBRANCH   9  10
ENDBRANCH   7   9
ENDBRANCH   6   7
ENDBRANCH   5   6
ENDBRANCH   4   5
ENDBRANCH   3   4
ENDBRANCH   2   3
ENDBRANCH   1   2
BRANCH   1  28
ATOM     28  O   UNL     1      -3.071   4.356   4.513  1.00  0.00    -0.376 OA
BRANCH  28  29
ATOM     29  C   UNL     1      -3.622   3.373   5.391  1.00  0.00     0.202 C 
BRANCH  29  30
ATOM     30  C   UNL     1      -3.209   3.446   6.871  1.00  0.00     0.261 C 
BRANCH  30  31
ATOM     31  O   UNL     1      -3.233   4.787   7.379  1.00  0.00    -0.460 OA
BRANCH  31  32
ATOM     32  C   UNL     1      -2.022   5.308   7.730  1.00  0.00     0.338 C 
ATOM     33  O   UNL     1      -0.981   4.717   7.899  1.00  0.00    -0.246 OA
BRANCH  32  34
ATOM     34  C   UNL     1      -2.170   6.787   7.754  1.00  0.00     0.060 A 
ATOM     35  C   UNL     1      -1.332   7.576   6.953  1.00  0.00     0.016 A 
ATOM     36  C   UNL     1      -3.154   7.392   8.533  1.00  0.00     0.016 A 
ATOM     37  C   UNL     1      -1.469   8.959   6.913  1.00  0.00     0.010 A 
ATOM     38  C   UNL     1      -3.259   8.784   8.541  1.00  0.00     0.010 A 
ATOM     39  C   UNL     1      -2.401   9.570   7.751  1.00  0.00    -0.014 A 
BRANCH  39  40
ATOM     40  C   UNL     1      -2.311  11.024   7.995  1.00  0.00     0.031 A 
ATOM     41  C   UNL     1      -1.485  11.486   9.161  1.00  0.00     0.074 A 
ATOM     42  C   UNL     1      -2.947  11.911   7.213  1.00  0.00     0.049 A 
ATOM     43  N   UNL     1      -1.317  12.692   9.636  1.00  0.00    -0.248 NA
ATOM     44  C   UNL     1      -0.756  10.438   9.894  1.00  0.00     0.031 C 
ATOM     45  C   UNL     1      -3.732  11.591   6.024  1.00  0.00     0.029 A 
ATOM     46  N   UNL     1      -3.040  13.274   7.327  1.00  0.00    -0.354 N 
ATOM     47  C   UNL     1      -0.465  12.548  10.723  1.00  0.00     0.074 A 
ATOM     48  C   UNL     1      -0.183  11.136  10.861  1.00  0.00     0.031 C 
ATOM     49  C   UNL     1      -4.248  12.730   5.528  1.00  0.00     0.029 A 
ATOM     50  C   UNL     1      -3.854  13.848   6.383  1.00  0.00     0.049 A 
ATOM     51  H   UNL     1      -2.568  13.792   8.019  1.00  0.00     0.167 HD
ATOM     52  C   UNL     1       0.043  13.507  11.532  1.00  0.00     0.037 A 
ATOM     53  C   UNL     1      -4.251  15.128   6.250  1.00  0.00     0.037 A 
ATOM     54  C   UNL     1      -0.268  14.906  11.417  1.00  0.00     0.049 A 
ATOM     55  C   UNL     1      -3.769  16.161   7.238  1.00  0.00     0.074 A 
ATOM     56  C   UNL     1       0.191  15.959  12.188  1.00  0.00     0.029 A 
ATOM     57  N   UNL     1      -1.138  15.445  10.480  1.00  0.00    -0.354 N 
ATOM     58  N   UNL     1      -2.942  16.027   8.248  1.00  0.00    -0.248 NA
ATOM     59  C   UNL     1      -4.283  17.527   7.065  1.00  0.00     0.031 C 
ATOM     60  C   UNL     1      -0.448  17.127  11.756  1.00  0.00     0.029 A 
ATOM     61  C   UNL     1      -1.255  16.812  10.675  1.00  0.00     0.049 A 
ATOM     62  H   UNL     1      -1.603  14.932   9.781  1.00  0.00     0.167 HD
ATOM     63  C   UNL     1      -2.811  17.294   8.806  1.00  0.00     0.074 A 
ATOM     64  C   UNL     1      -3.631  18.185   8.012  1.00  0.00     0.031 C 
ATOM     65  C   UNL     1      -2.077  17.687   9.878  1.00  0.00     0.037 A 
BRANCH  52  66
ATOM     66  C   UNL     1       0.955  13.052  12.634  1.00  0.00     0.057 A 
ATOM     67  C   UNL     1       0.549  13.123  13.972  1.00  0.00     0.134 A 
ATOM     68  C   UNL     1       2.230  12.530  12.372  1.00  0.00     0.134 A 
ATOM     69  F   UNL     1      -0.658  13.613  14.293  1.00  0.00    -0.206 F 
ATOM     70  C   UNL     1       1.374  12.687  15.009  1.00  0.00     0.040 A 
ATOM     71  C   UNL     1       3.051  12.061  13.399  1.00  0.00     0.040 A 
ATOM     72  F   UNL     1       2.672  12.416  11.111  1.00  0.00    -0.206 F 
ATOM     73  C   UNL     1       2.625  12.143  14.722  1.00  0.00     0.006 A 
ENDBRANCH  52  66
BRANCH  53  74
ATOM     74  C   UNL     1      -5.168  15.521   5.150  1.00  0.00     0.057 A 
ATOM     75  C   UNL     1      -6.505  15.107   5.126  1.00  0.00     0.134 A 
ATOM     76  C   UNL     1      -4.739  16.371   4.123  1.00  0.00     0.134 A 
ATOM     77  F   UNL     1      -6.981  14.296   6.082  1.00  0.00    -0.206 F 
ATOM     78  C   UNL     1      -7.381  15.523   4.122  1.00  0.00     0.040 A 
ATOM     79  C   UNL     1      -5.611  16.818   3.130  1.00  0.00     0.040 A 
ATOM     80  F   UNL     1      -3.476  16.824   4.107  1.00  0.00    -0.206 F 
ATOM     81  C   UNL     1      -6.937  16.390   3.126  1.00  0.00     0.006 A 
ENDBRANCH  53  74
BRANCH  65  82
ATOM     82  C   UNL     1      -2.099  19.150  10.227  1.00  0.00     0.057 A 
ATOM     83  C   UNL     1      -0.956  19.942  10.051  1.00  0.00     0.134 A 
ATOM     84  C   UNL     1      -3.239  19.774  10.750  1.00  0.00     0.134 A 
ATOM     85  F   UNL     1       0.175  19.408   9.566  1.00  0.00    -0.206 F 
ATOM     86  C   UNL     1      -0.948  21.298  10.378  1.00  0.00     0.040 A 
ATOM     87  C   UNL     1      -3.253  21.138  11.050  1.00  0.00     0.040 A 
ATOM     88  F   UNL     1      -4.372  19.079  10.934  1.00  0.00    -0.206 F 
ATOM     89  C   UNL     1      -2.102  21.903  10.869  1.00  0.00     0.006 A 
ENDBRANCH  65  82
ENDBRANCH  39  40
ENDBRANCH  32  34
ENDBRANCH  31  32
ENDBRANCH  30  31
ENDBRANCH  29  30
ENDBRANCH  28  29
ENDBRANCH   1  28
TORSDOF 18
