REMARK SMILES O=C(C[C@H]1SC[C@@H](C(=O)OCCOCCOCCOC(=O)c2ccc(-c3c4nc(c(-c5c(F)cccc5F)c5ccc([nH]5)c(-c5c(F)cccc5F)c5nc(c(-c6c(F)cccc6F)c6ccc3[nH]6)C=C5)C=C4)cc2)NC1=O)Nc1cccc(Cl)c1
REMARK SMILES IDX 14 1 13 2 12 3 11 4 10 5 8 6 9 7 7 8 4 9 5 10 77 11 6 12
REMARK SMILES IDX 76 13 78 14 3 16 2 17 1 18 79 19 80 21 81 22 86 23 82 24
REMARK SMILES IDX 84 25 83 26 85 27 15 28 16 29 17 30 18 31 19 32 20 33 21 34
REMARK SMILES IDX 22 35 23 36 75 37 24 38 74 39 25 40 26 41 27 42 68 43 28 44
REMARK SMILES IDX 73 45 67 46 69 47 29 48 72 49 66 50 65 51 30 53 56 54 39 55
REMARK SMILES IDX 55 56 40 57 43 58 54 59 70 60 41 61 42 62 53 64 71 65 44 66
REMARK SMILES IDX 31 67 32 68 37 69 33 70 34 71 36 72 38 73 35 74 57 75 58 76
REMARK SMILES IDX 63 77 59 78 60 79 62 80 64 81 61 82 45 83 46 84 51 85 47 86
REMARK SMILES IDX 48 87 50 88 52 89 49 90
REMARK H PARENT 76 15 79 20 69 52 43 63
REMARK Flexibility Score: inf
ROOT
ATOM      1  C   UNL     1       6.887  -2.402   2.647  1.00  0.00     0.188 C 
ENDROOT
BRANCH   1   2
ATOM      2  O   UNL     1       8.132  -3.087   2.733  1.00  0.00    -0.376 OA
BRANCH   2   3
ATOM      3  C   UNL     1       9.008  -3.029   1.605  1.00  0.00     0.202 C 
BRANCH   3   4
ATOM      4  C   UNL     1       8.395  -3.277   0.220  1.00  0.00     0.261 C 
BRANCH   4   5
ATOM      5  O   UNL     1       7.534  -2.206  -0.239  1.00  0.00    -0.462 OA
BRANCH   5   6
ATOM      6  C   UNL     1       6.482  -2.613  -0.988  1.00  0.00     0.329 C 
ATOM      7  O   UNL     1       6.268  -3.788  -1.288  1.00  0.00    -0.250 OA
BRANCH   6   8
ATOM      8  C   UNL     1       5.522  -1.506  -1.471  1.00  0.00     0.202 C 
ATOM      9  C   UNL     1       3.295  -0.307   0.372  1.00  0.00     0.145 C 
ATOM     10  S   UNL     1       4.613   0.886  -0.061  1.00  0.00    -0.145 SA
ATOM     11  C   UNL     1       3.497  -1.752  -0.052  1.00  0.00     0.234 C 
ATOM     12  C   UNL     1       5.785  -0.054  -1.103  1.00  0.00     0.107 C 
ATOM     13  N   UNL     1       4.195  -2.018  -1.184  1.00  0.00    -0.341 N 
ATOM     14  O   UNL     1       2.887  -2.698   0.439  1.00  0.00    -0.274 OA
ATOM     15  H   UNL     1       3.772  -2.597  -1.858  1.00  0.00     0.164 HD
BRANCH   9  16
ATOM     16  C   UNL     1       2.957  -0.075   1.848  1.00  0.00     0.124 C 
BRANCH  16  17
ATOM     17  C   UNL     1       2.182  -1.188   2.517  1.00  0.00     0.226 C 
ATOM     18  O   UNL     1       2.763  -2.060   3.156  1.00  0.00    -0.275 OA
ATOM     19  N   UNL     1       0.815  -1.034   2.417  1.00  0.00    -0.326 N 
ATOM     20  H   UNL     1       0.455  -0.276   1.902  1.00  0.00     0.169 HD
BRANCH  19  21
ATOM     21  C   UNL     1      -0.077  -1.926   3.027  1.00  0.00     0.042 A 
ATOM     22  C   UNL     1      -0.228  -3.232   2.557  1.00  0.00     0.026 A 
ATOM     23  C   UNL     1      -0.879  -1.440   4.057  1.00  0.00     0.046 A 
ATOM     24  C   UNL     1      -1.238  -4.035   3.088  1.00  0.00     0.004 A 
ATOM     25  C   UNL     1      -1.845  -2.263   4.618  1.00  0.00     0.043 A 
ATOM     26  C   UNL     1      -2.051  -3.543   4.114  1.00  0.00     0.020 A 
ATOM     27  Cl  UNL     1      -2.808  -1.681   5.916  1.00  0.00    -0.084 Cl
ENDBRANCH  19  21
ENDBRANCH  16  17
ENDBRANCH   9  16
ENDBRANCH   6   8
ENDBRANCH   5   6
ENDBRANCH   4   5
ENDBRANCH   3   4
ENDBRANCH   2   3
ENDBRANCH   1   2
BRANCH   1  28
ATOM     28  C   UNL     1       6.933  -0.890   2.380  1.00  0.00     0.188 C 
BRANCH  28  29
ATOM     29  O   UNL     1       8.200  -0.413   1.966  1.00  0.00    -0.376 OA
BRANCH  29  30
ATOM     30  C   UNL     1       8.822   0.559   2.799  1.00  0.00     0.202 C 
BRANCH  30  31
ATOM     31  C   UNL     1       9.126   0.161   4.256  1.00  0.00     0.261 C 
BRANCH  31  32
ATOM     32  O   UNL     1       7.997  -0.317   5.014  1.00  0.00    -0.460 OA
BRANCH  32  33
ATOM     33  C   UNL     1       7.172   0.613   5.536  1.00  0.00     0.338 C 
ATOM     34  O   UNL     1       7.292   1.832   5.456  1.00  0.00    -0.246 OA
BRANCH  33  35
ATOM     35  C   UNL     1       5.961  -0.063   6.046  1.00  0.00     0.060 A 
ATOM     36  C   UNL     1       4.765   0.143   5.355  1.00  0.00     0.016 A 
ATOM     37  C   UNL     1       5.980  -0.874   7.185  1.00  0.00     0.016 A 
ATOM     38  C   UNL     1       3.592  -0.477   5.785  1.00  0.00     0.010 A 
ATOM     39  C   UNL     1       4.788  -1.474   7.633  1.00  0.00     0.010 A 
ATOM     40  C   UNL     1       3.584  -1.280   6.934  1.00  0.00    -0.014 A 
BRANCH  40  41
ATOM     41  C   UNL     1       2.269  -1.756   7.446  1.00  0.00     0.031 A 
ATOM     42  C   UNL     1       1.433  -0.804   8.256  1.00  0.00     0.074 A 
ATOM     43  C   UNL     1       1.749  -2.946   7.081  1.00  0.00     0.049 A 
ATOM     44  N   UNL     1       0.217  -0.947   8.717  1.00  0.00    -0.248 NA
ATOM     45  C   UNL     1       2.038   0.506   8.546  1.00  0.00     0.031 C 
ATOM     46  C   UNL     1       2.377  -3.881   6.155  1.00  0.00     0.029 A 
ATOM     47  N   UNL     1       0.550  -3.546   7.402  1.00  0.00    -0.354 N 
ATOM     48  C   UNL     1      -0.087   0.248   9.354  1.00  0.00     0.074 A 
ATOM     49  C   UNL     1       1.062   1.115   9.204  1.00  0.00     0.031 C 
ATOM     50  C   UNL     1       1.545  -4.918   5.950  1.00  0.00     0.029 A 
ATOM     51  C   UNL     1       0.341  -4.750   6.764  1.00  0.00     0.049 A 
ATOM     52  H   UNL     1      -0.098  -3.150   8.029  1.00  0.00     0.167 HD
ATOM     53  C   UNL     1      -1.213   0.588  10.024  1.00  0.00     0.037 A 
ATOM     54  C   UNL     1      -0.705  -5.606   6.821  1.00  0.00     0.037 A 
ATOM     55  C   UNL     1      -2.345  -0.279  10.209  1.00  0.00     0.049 A 
ATOM     56  C   UNL     1      -1.888  -5.249   7.694  1.00  0.00     0.074 A 
ATOM     57  C   UNL     1      -3.488  -0.054  10.955  1.00  0.00     0.029 A 
ATOM     58  N   UNL     1      -2.474  -1.540   9.648  1.00  0.00    -0.354 N 
ATOM     59  N   UNL     1      -2.150  -4.129   8.325  1.00  0.00    -0.248 NA
ATOM     60  C   UNL     1      -2.927  -6.277   7.859  1.00  0.00     0.031 C 
ATOM     61  C   UNL     1      -4.282  -1.204  10.896  1.00  0.00     0.029 A 
ATOM     62  C   UNL     1      -3.660  -2.123  10.066  1.00  0.00     0.049 A 
ATOM     63  H   UNL     1      -1.820  -1.960   9.043  1.00  0.00     0.167 HD
ATOM     64  C   UNL     1      -3.403  -4.297   8.906  1.00  0.00     0.074 A 
ATOM     65  C   UNL     1      -3.856  -5.621   8.540  1.00  0.00     0.031 C 
ATOM     66  C   UNL     1      -4.112  -3.436   9.679  1.00  0.00     0.037 A 
BRANCH  53  67
ATOM     67  C   UNL     1      -1.218   1.925  10.700  1.00  0.00     0.057 A 
ATOM     68  C   UNL     1      -1.389   3.122   9.994  1.00  0.00     0.134 A 
ATOM     69  C   UNL     1      -1.038   2.009  12.087  1.00  0.00     0.134 A 
ATOM     70  F   UNL     1      -1.539   3.111   8.661  1.00  0.00    -0.206 F 
ATOM     71  C   UNL     1      -1.363   4.358  10.644  1.00  0.00     0.040 A 
ATOM     72  C   UNL     1      -1.030   3.235  12.749  1.00  0.00     0.040 A 
ATOM     73  F   UNL     1      -0.863   0.897  12.818  1.00  0.00    -0.206 F 
ATOM     74  C   UNL     1      -1.187   4.416  12.027  1.00  0.00     0.006 A 
ENDBRANCH  53  67
BRANCH  54  75
ATOM     75  C   UNL     1      -0.722  -6.868   6.013  1.00  0.00     0.057 A 
ATOM     76  C   UNL     1      -1.748  -7.143   5.094  1.00  0.00     0.134 A 
ATOM     77  C   UNL     1       0.256  -7.859   6.159  1.00  0.00     0.134 A 
ATOM     78  F   UNL     1      -2.782  -6.303   4.954  1.00  0.00    -0.206 F 
ATOM     79  C   UNL     1      -1.787  -8.316   4.338  1.00  0.00     0.040 A 
ATOM     80  C   UNL     1       0.242  -9.033   5.396  1.00  0.00     0.040 A 
ATOM     81  F   UNL     1       1.245  -7.712   7.052  1.00  0.00    -0.206 F 
ATOM     82  C   UNL     1      -0.780  -9.263   4.480  1.00  0.00     0.006 A 
ENDBRANCH  54  75
BRANCH  66  83
ATOM     83  C   UNL     1      -5.460  -3.886  10.173  1.00  0.00     0.057 A 
ATOM     84  C   UNL     1      -5.597  -4.909  11.121  1.00  0.00     0.134 A 
ATOM     85  C   UNL     1      -6.633  -3.253   9.739  1.00  0.00     0.134 A 
ATOM     86  F   UNL     1      -4.517  -5.561  11.579  1.00  0.00    -0.206 F 
ATOM     87  C   UNL     1      -6.849  -5.307  11.595  1.00  0.00     0.040 A 
ATOM     88  C   UNL     1      -7.888  -3.620  10.231  1.00  0.00     0.040 A 
ATOM     89  F   UNL     1      -6.581  -2.254   8.846  1.00  0.00    -0.206 F 
ATOM     90  C   UNL     1      -7.999  -4.656  11.156  1.00  0.00     0.006 A 
ENDBRANCH  66  83
ENDBRANCH  40  41
ENDBRANCH  33  35
ENDBRANCH  32  33
ENDBRANCH  31  32
ENDBRANCH  30  31
ENDBRANCH  29  30
ENDBRANCH  28  29
ENDBRANCH   1  28
TORSDOF 20
