REMARK SMILES Cc1cscc1C(=O)N[C@H](C(=O)OCCOCCOCCOC(=O)c1ccc(-c2c3nc(c(-c4c(F)cccc4F)c4ccc([nH]4)c(-c4c(F)cccc4F)c4nc(c(-c5c(F)cccc5F)c5ccc2[nH]5)C=C4)C=C3)cc1)c1ccccc1
REMARK SMILES IDX 17 1 16 2 15 3 14 4 13 5 11 6 12 7 10 8 9 9 7 10 8 11 6 13
REMARK SMILES IDX 1 14 2 15 3 16 4 17 5 18 79 19 80 20 84 21 81 22 83 23 82 24
REMARK SMILES IDX 18 25 19 26 20 27 21 28 22 29 23 30 24 31 25 32 26 33 78 34
REMARK SMILES IDX 27 35 77 36 28 37 29 38 30 39 71 40 31 41 76 42 70 43 72 44
REMARK SMILES IDX 32 45 75 46 69 47 68 48 33 50 59 51 42 52 58 53 43 54 46 55
REMARK SMILES IDX 57 56 73 57 44 58 45 59 56 61 74 62 47 63 34 64 35 65 40 66
REMARK SMILES IDX 36 67 37 68 39 69 41 70 38 71 60 72 61 73 66 74 62 75 63 76
REMARK SMILES IDX 65 77 67 78 64 79 48 80 49 81 54 82 50 83 51 84 53 85 55 86
REMARK SMILES IDX 52 87
REMARK H PARENT 9 12 72 49 46 60
REMARK Flexibility Score: inf
ROOT
ATOM      1  C   UNL     1       1.019   3.036   1.868  1.00  0.00     0.188 C 
ENDROOT
BRANCH   1   2
ATOM      2  O   UNL     1      -0.281   3.105   1.327  1.00  0.00    -0.376 OA
BRANCH   2   3
ATOM      3  C   UNL     1      -0.370   3.269  -0.075  1.00  0.00     0.202 C 
BRANCH   3   4
ATOM      4  C   UNL     1       0.407   2.341  -1.035  1.00  0.00     0.261 C 
BRANCH   4   5
ATOM      5  O   UNL     1       1.637   1.740  -0.555  1.00  0.00    -0.461 OA
BRANCH   5   6
ATOM      6  C   UNL     1       2.768   1.995  -1.261  1.00  0.00     0.333 C 
ATOM      7  O   UNL     1       2.752   2.768  -2.218  1.00  0.00    -0.249 OA
BRANCH   6   8
ATOM      8  C   UNL     1       4.011   1.107  -0.929  1.00  0.00     0.223 C 
BRANCH   8   9
ATOM      9  N   UNL     1       5.113   1.534  -1.790  1.00  0.00    -0.335 N 
ATOM     10  C   UNL     1       5.751   2.729  -1.988  1.00  0.00     0.253 C 
ATOM     11  O   UNL     1       6.780   2.643  -2.667  1.00  0.00    -0.269 OA
ATOM     12  H   UNL     1       5.473   0.806  -2.347  1.00  0.00     0.165 HD
BRANCH  10  13
ATOM     13  C   UNL     1       5.260   4.063  -1.568  1.00  0.00     0.053 A 
ATOM     14  C   UNL     1       4.460   4.085   1.005  1.00  0.00     0.046 C 
ATOM     15  C   UNL     1       4.712   4.665  -0.345  1.00  0.00    -0.028 A 
ATOM     16  C   UNL     1       4.460   6.019  -0.524  1.00  0.00     0.069 A 
ATOM     17  S   UNL     1       4.876   6.601  -2.058  1.00  0.00    -0.151 S 
ATOM     18  C   UNL     1       5.401   5.060  -2.531  1.00  0.00     0.079 A 
ENDBRANCH  10  13
ENDBRANCH   8   9
BRANCH   8  19
ATOM     19  C   UNL     1       4.579   0.750   0.463  1.00  0.00    -0.014 A 
ATOM     20  C   UNL     1       4.061  -0.300   1.242  1.00  0.00     0.006 A 
ATOM     21  C   UNL     1       5.769   1.339   0.953  1.00  0.00     0.006 A 
ATOM     22  C   UNL     1       4.645  -0.659   2.474  1.00  0.00     0.000 A 
ATOM     23  C   UNL     1       6.340   1.005   2.185  1.00  0.00     0.000 A 
ATOM     24  C   UNL     1       5.773   0.004   2.952  1.00  0.00     0.000 A 
ENDBRANCH   8  19
ENDBRANCH   6   8
ENDBRANCH   5   6
ENDBRANCH   4   5
ENDBRANCH   3   4
ENDBRANCH   2   3
ENDBRANCH   1   2
BRANCH   1  25
ATOM     25  C   UNL     1       1.444   1.597   2.182  1.00  0.00     0.188 C 
BRANCH  25  26
ATOM     26  O   UNL     1       0.510   0.529   2.142  1.00  0.00    -0.376 OA
BRANCH  26  27
ATOM     27  C   UNL     1      -0.772   0.734   2.713  1.00  0.00     0.202 C 
BRANCH  27  28
ATOM     28  C   UNL     1      -0.878   1.182   4.180  1.00  0.00     0.261 C 
BRANCH  28  29
ATOM     29  O   UNL     1       0.124   2.106   4.641  1.00  0.00    -0.460 OA
BRANCH  29  30
ATOM     30  C   UNL     1       1.132   1.560   5.357  1.00  0.00     0.338 C 
ATOM     31  O   UNL     1       1.265   0.371   5.664  1.00  0.00    -0.246 OA
BRANCH  30  32
ATOM     32  C   UNL     1       2.193   2.554   5.603  1.00  0.00     0.060 A 
ATOM     33  C   UNL     1       3.476   2.314   5.087  1.00  0.00     0.016 A 
ATOM     34  C   UNL     1       1.963   3.666   6.413  1.00  0.00     0.016 A 
ATOM     35  C   UNL     1       4.537   3.163   5.396  1.00  0.00     0.010 A 
ATOM     36  C   UNL     1       3.037   4.499   6.752  1.00  0.00     0.010 A 
ATOM     37  C   UNL     1       4.334   4.232   6.274  1.00  0.00    -0.014 A 
BRANCH  37  38
ATOM     38  C   UNL     1       5.505   4.941   6.848  1.00  0.00     0.031 A 
ATOM     39  C   UNL     1       5.973   4.557   8.226  1.00  0.00     0.074 A 
ATOM     40  C   UNL     1       6.171   5.882   6.156  1.00  0.00     0.049 A 
ATOM     41  N   UNL     1       6.901   5.100   8.972  1.00  0.00    -0.248 NA
ATOM     42  C   UNL     1       5.303   3.401   8.843  1.00  0.00     0.031 C 
ATOM     43  C   UNL     1       5.880   6.290   4.784  1.00  0.00     0.029 A 
ATOM     44  N   UNL     1       7.231   6.672   6.527  1.00  0.00    -0.354 N 
ATOM     45  C   UNL     1       6.913   4.366  10.152  1.00  0.00     0.074 A 
ATOM     46  C   UNL     1       5.890   3.350  10.030  1.00  0.00     0.031 C 
ATOM     47  C   UNL     1       6.732   7.270   4.433  1.00  0.00     0.029 A 
ATOM     48  C   UNL     1       7.595   7.588   5.571  1.00  0.00     0.049 A 
ATOM     49  H   UNL     1       7.687   6.589   7.396  1.00  0.00     0.167 HD
ATOM     50  C   UNL     1       7.705   4.522  11.239  1.00  0.00     0.037 A 
ATOM     51  C   UNL     1       8.495   8.590   5.623  1.00  0.00     0.037 A 
ATOM     52  C   UNL     1       8.727   5.528  11.363  1.00  0.00     0.049 A 
ATOM     53  C   UNL     1       9.293   8.811   6.883  1.00  0.00     0.074 A 
ATOM     54  C   UNL     1       9.581   5.762  12.426  1.00  0.00     0.029 A 
ATOM     55  N   UNL     1       9.030   6.469  10.391  1.00  0.00    -0.354 N 
ATOM     56  N   UNL     1       9.291   8.122   7.999  1.00  0.00    -0.248 NA
ATOM     57  C   UNL     1      10.217   9.956   6.891  1.00  0.00     0.031 C 
ATOM     58  C   UNL     1      10.364   6.880  12.120  1.00  0.00     0.029 A 
ATOM     59  C   UNL     1      10.039   7.305  10.842  1.00  0.00     0.049 A 
ATOM     60  H   UNL     1       8.593   6.534   9.512  1.00  0.00     0.167 HD
ATOM     61  C   UNL     1      10.232   8.728   8.825  1.00  0.00     0.074 A 
ATOM     62  C   UNL     1      10.793   9.834   8.079  1.00  0.00     0.031 C 
ATOM     63  C   UNL     1      10.600   8.396  10.088  1.00  0.00     0.037 A 
BRANCH  50  64
ATOM     64  C   UNL     1       7.465   3.607  12.404  1.00  0.00     0.057 A 
ATOM     65  C   UNL     1       7.812   2.251  12.371  1.00  0.00     0.134 A 
ATOM     66  C   UNL     1       6.900   4.101  13.588  1.00  0.00     0.134 A 
ATOM     67  F   UNL     1       8.342   1.711  11.262  1.00  0.00    -0.206 F 
ATOM     68  C   UNL     1       7.585   1.413  13.464  1.00  0.00     0.040 A 
ATOM     69  C   UNL     1       6.693   3.280  14.696  1.00  0.00     0.040 A 
ATOM     70  F   UNL     1       6.548   5.391  13.688  1.00  0.00    -0.206 F 
ATOM     71  C   UNL     1       7.030   1.929  14.634  1.00  0.00     0.006 A 
ENDBRANCH  50  64
BRANCH  51  72
ATOM     72  C   UNL     1       8.671   9.497   4.460  1.00  0.00     0.057 A 
ATOM     73  C   UNL     1       9.865   9.518   3.729  1.00  0.00     0.134 A 
ATOM     74  C   UNL     1       7.666  10.394   4.077  1.00  0.00     0.134 A 
ATOM     75  F   UNL     1      10.876   8.704   4.066  1.00  0.00    -0.206 F 
ATOM     76  C   UNL     1      10.061  10.411   2.674  1.00  0.00     0.040 A 
ATOM     77  C   UNL     1       7.838  11.273   3.006  1.00  0.00     0.040 A 
ATOM     78  F   UNL     1       6.499  10.427   4.738  1.00  0.00    -0.206 F 
ATOM     79  C   UNL     1       9.042  11.288   2.307  1.00  0.00     0.006 A 
ENDBRANCH  51  72
BRANCH  63  80
ATOM     80  C   UNL     1      11.691   9.206  10.729  1.00  0.00     0.057 A 
ATOM     81  C   UNL     1      11.487  10.524  11.156  1.00  0.00     0.134 A 
ATOM     82  C   UNL     1      12.952   8.640  10.964  1.00  0.00     0.134 A 
ATOM     83  F   UNL     1      10.308  11.130  10.953  1.00  0.00    -0.206 F 
ATOM     84  C   UNL     1      12.504  11.258  11.772  1.00  0.00     0.040 A 
ATOM     85  C   UNL     1      13.967   9.353  11.603  1.00  0.00     0.040 A 
ATOM     86  F   UNL     1      13.212   7.378  10.591  1.00  0.00    -0.206 F 
ATOM     87  C   UNL     1      13.746  10.669  12.003  1.00  0.00     0.006 A 
ENDBRANCH  63  80
ENDBRANCH  37  38
ENDBRANCH  30  32
ENDBRANCH  29  30
ENDBRANCH  28  29
ENDBRANCH  27  28
ENDBRANCH  26  27
ENDBRANCH  25  26
ENDBRANCH   1  25
TORSDOF 20
