REMARK SMILES O=C(OCCOCCOCCOC(=O)c1ccc(-c2c3nc(c(-c4c(F)cccc4F)c4ccc([nH]4)c(-c4c(F)cccc4F)c4nc(c(-c5c(F)cccc5F)c5ccc2[nH]5)C=C4)C=C3)cc1)c1ccc(-c2ccc(=O)[nH]c2)cc1
REMARK SMILES IDX 8 1 7 2 6 3 5 4 4 5 3 6 2 7 1 8 69 9 70 10 81 11 71 12 80 13
REMARK SMILES IDX 72 14 73 15 74 16 79 17 75 18 78 19 76 20 77 22 9 23 10 24
REMARK SMILES IDX 11 25 12 26 13 27 14 28 15 29 16 30 68 31 17 32 67 33 18 34
REMARK SMILES IDX 19 35 20 36 61 37 21 38 66 39 60 40 62 41 22 42 65 43 59 44
REMARK SMILES IDX 58 45 23 47 49 48 32 49 48 50 33 51 36 52 47 53 63 54 34 55
REMARK SMILES IDX 35 56 46 58 64 59 37 60 24 61 25 62 30 63 26 64 27 65 29 66
REMARK SMILES IDX 31 67 28 68 50 69 51 70 56 71 52 72 53 73 55 74 57 75 54 76
REMARK SMILES IDX 38 77 39 78 44 79 40 80 41 81 43 82 45 83 42 84
REMARK H PARENT 78 21 62 46 36 57
REMARK Flexibility Score: inf
ROOT
ATOM      1  C   UNL     1       2.076  -1.012   3.052  1.00  0.00     0.188 C 
ENDROOT
BRANCH   1   2
ATOM      2  C   UNL     1       2.650   0.042   2.101  1.00  0.00     0.188 C 
BRANCH   2   3
ATOM      3  O   UNL     1       3.852  -0.456   1.502  1.00  0.00    -0.376 OA
BRANCH   3   4
ATOM      4  C   UNL     1       4.765   0.555   1.079  1.00  0.00     0.202 C 
BRANCH   4   5
ATOM      5  C   UNL     1       4.440   1.206  -0.271  1.00  0.00     0.261 C 
BRANCH   5   6
ATOM      6  O   UNL     1       3.055   1.089  -0.635  1.00  0.00    -0.460 OA
BRANCH   6   7
ATOM      7  C   UNL     1       2.532   0.203  -1.518  1.00  0.00     0.338 C 
ATOM      8  O   UNL     1       1.359   0.301  -1.868  1.00  0.00    -0.246 OA
BRANCH   7   9
ATOM      9  C   UNL     1       3.356  -0.875  -2.124  1.00  0.00     0.060 A 
ATOM     10  C   UNL     1       4.164  -1.727  -1.372  1.00  0.00     0.016 A 
ATOM     11  C   UNL     1       3.209  -1.127  -3.494  1.00  0.00     0.016 A 
ATOM     12  C   UNL     1       4.880  -2.757  -1.981  1.00  0.00     0.009 A 
ATOM     13  C   UNL     1       3.900  -2.185  -4.103  1.00  0.00     0.009 A 
ATOM     14  C   UNL     1       4.752  -3.005  -3.352  1.00  0.00    -0.017 A 
BRANCH  14  15
ATOM     15  C   UNL     1       5.511  -4.112  -3.969  1.00  0.00    -0.002 A 
ATOM     16  C   UNL     1       6.339  -3.946  -5.155  1.00  0.00     0.016 A 
ATOM     17  C   UNL     1       5.473  -5.331  -3.396  1.00  0.00     0.094 A 
ATOM     18  C   UNL     1       7.076  -4.956  -5.641  1.00  0.00     0.072 A 
ATOM     19  N   UNL     1       6.206  -6.379  -3.893  1.00  0.00    -0.328 N 
ATOM     20  C   UNL     1       7.044  -6.282  -4.974  1.00  0.00     0.247 A 
ATOM     21  H   UNL     1       6.125  -7.253  -3.446  1.00  0.00     0.169 HD
ATOM     22  O   UNL     1       7.736  -7.209  -5.375  1.00  0.00    -0.270 OA
ENDBRANCH  14  15
ENDBRANCH   7   9
ENDBRANCH   6   7
ENDBRANCH   5   6
ENDBRANCH   4   5
ENDBRANCH   3   4
ENDBRANCH   2   3
ENDBRANCH   1   2
BRANCH   1  23
ATOM     23  O   UNL     1       2.754  -1.123   4.305  1.00  0.00    -0.376 OA
BRANCH  23  24
ATOM     24  C   UNL     1       4.146  -1.424   4.265  1.00  0.00     0.202 C 
BRANCH  24  25
ATOM     25  C   UNL     1       4.519  -2.881   3.970  1.00  0.00     0.261 C 
BRANCH  25  26
ATOM     26  O   UNL     1       4.094  -3.374   2.686  1.00  0.00    -0.460 OA
BRANCH  26  27
ATOM     27  C   UNL     1       3.127  -4.322   2.742  1.00  0.00     0.338 C 
ATOM     28  O   UNL     1       2.521  -4.713   3.725  1.00  0.00    -0.246 OA
BRANCH  27  29
ATOM     29  C   UNL     1       2.908  -4.929   1.420  1.00  0.00     0.060 A 
ATOM     30  C   UNL     1       1.783  -4.580   0.666  1.00  0.00     0.016 A 
ATOM     31  C   UNL     1       3.693  -6.024   1.056  1.00  0.00     0.016 A 
ATOM     32  C   UNL     1       1.407  -5.367  -0.431  1.00  0.00     0.010 A 
ATOM     33  C   UNL     1       3.322  -6.801  -0.044  1.00  0.00     0.010 A 
ATOM     34  C   UNL     1       2.152  -6.507  -0.769  1.00  0.00    -0.014 A 
BRANCH  34  35
ATOM     35  C   UNL     1       1.687  -7.488  -1.786  1.00  0.00     0.031 A 
ATOM     36  C   UNL     1       1.205  -8.842  -1.337  1.00  0.00     0.074 A 
ATOM     37  C   UNL     1       1.777  -7.228  -3.102  1.00  0.00     0.049 A 
ATOM     38  N   UNL     1       1.001  -9.928  -2.039  1.00  0.00    -0.248 NA
ATOM     39  C   UNL     1       0.922  -8.988   0.098  1.00  0.00     0.031 C 
ATOM     40  C   UNL     1       2.161  -5.948  -3.688  1.00  0.00     0.029 A 
ATOM     41  N   UNL     1       1.613  -8.060  -4.183  1.00  0.00    -0.354 N 
ATOM     42  C   UNL     1       0.577 -10.890  -1.131  1.00  0.00     0.074 A 
ATOM     43  C   UNL     1       0.583 -10.267   0.176  1.00  0.00     0.031 C 
ATOM     44  C   UNL     1       2.296  -6.101  -5.016  1.00  0.00     0.029 A 
ATOM     45  C   UNL     1       2.019  -7.492  -5.366  1.00  0.00     0.049 A 
ATOM     46  H   UNL     1       1.242  -8.969  -4.117  1.00  0.00     0.167 HD
ATOM     47  C   UNL     1       0.207 -12.173  -1.365  1.00  0.00     0.037 A 
ATOM     48  C   UNL     1       2.201  -8.040  -6.583  1.00  0.00     0.037 A 
ATOM     49  C   UNL     1       0.188 -12.793  -2.665  1.00  0.00     0.049 A 
ATOM     50  C   UNL     1       1.896  -9.492  -6.811  1.00  0.00     0.074 A 
ATOM     51  C   UNL     1      -0.225 -14.070  -3.006  1.00  0.00     0.029 A 
ATOM     52  N   UNL     1       0.611 -12.184  -3.836  1.00  0.00    -0.354 N 
ATOM     53  N   UNL     1       1.477 -10.391  -5.955  1.00  0.00    -0.248 NA
ATOM     54  C   UNL     1       2.079 -10.003  -8.178  1.00  0.00     0.031 C 
ATOM     55  C   UNL     1      -0.006 -14.250  -4.377  1.00  0.00     0.029 A 
ATOM     56  C   UNL     1       0.498 -13.069  -4.896  1.00  0.00     0.049 A 
ATOM     57  H   UNL     1       0.942 -11.260  -3.904  1.00  0.00     0.167 HD
ATOM     58  C   UNL     1       1.308 -11.561  -6.684  1.00  0.00     0.074 A 
ATOM     59  C   UNL     1       1.683 -11.262  -8.051  1.00  0.00     0.031 C 
ATOM     60  C   UNL     1       0.864 -12.768  -6.257  1.00  0.00     0.037 A 
BRANCH  47  61
ATOM     61  C   UNL     1      -0.185 -13.002  -0.178  1.00  0.00     0.057 A 
ATOM     62  C   UNL     1      -1.389 -12.793   0.508  1.00  0.00     0.134 A 
ATOM     63  C   UNL     1       0.644 -14.037   0.272  1.00  0.00     0.134 A 
ATOM     64  F   UNL     1      -2.224 -11.812   0.133  1.00  0.00    -0.206 F 
ATOM     65  C   UNL     1      -1.738 -13.563   1.619  1.00  0.00     0.040 A 
ATOM     66  C   UNL     1       0.294 -14.830   1.366  1.00  0.00     0.040 A 
ATOM     67  F   UNL     1       1.806 -14.297  -0.345  1.00  0.00    -0.206 F 
ATOM     68  C   UNL     1      -0.897 -14.588   2.049  1.00  0.00     0.006 A 
ENDBRANCH  47  61
BRANCH  48  69
ATOM     69  C   UNL     1       2.753  -7.206  -7.675  1.00  0.00     0.057 A 
ATOM     70  C   UNL     1       1.942  -6.706  -8.697  1.00  0.00     0.134 A 
ATOM     71  C   UNL     1       4.113  -6.880  -7.706  1.00  0.00     0.134 A 
ATOM     72  F   UNL     1       0.637  -7.011  -8.733  1.00  0.00    -0.206 F 
ATOM     73  C   UNL     1       2.466  -5.905  -9.713  1.00  0.00     0.040 A 
ATOM     74  C   UNL     1       4.648  -6.067  -8.704  1.00  0.00     0.040 A 
ATOM     75  F   UNL     1       4.935  -7.347  -6.758  1.00  0.00    -0.206 F 
ATOM     76  C   UNL     1       3.822  -5.576  -9.713  1.00  0.00     0.006 A 
ENDBRANCH  48  69
BRANCH  60  77
ATOM     77  C   UNL     1       0.698 -13.850  -7.284  1.00  0.00     0.057 A 
ATOM     78  C   UNL     1       1.791 -14.539  -7.821  1.00  0.00     0.134 A 
ATOM     79  C   UNL     1      -0.582 -14.239  -7.700  1.00  0.00     0.134 A 
ATOM     80  F   UNL     1       3.043 -14.205  -7.474  1.00  0.00    -0.206 F 
ATOM     81  C   UNL     1       1.617 -15.573  -8.744  1.00  0.00     0.040 A 
ATOM     82  C   UNL     1      -0.769 -15.285  -8.605  1.00  0.00     0.040 A 
ATOM     83  F   UNL     1      -1.672 -13.622  -7.219  1.00  0.00    -0.206 F 
ATOM     84  C   UNL     1       0.333 -15.953  -9.132  1.00  0.00     0.006 A 
ENDBRANCH  60  77
ENDBRANCH  34  35
ENDBRANCH  27  29
ENDBRANCH  26  27
ENDBRANCH  25  26
ENDBRANCH  24  25
ENDBRANCH  23  24
ENDBRANCH   1  23
TORSDOF 18
