REMARK SMILES CC1(C)S[C@H](c2ccc(-c3ccccc3)o2)[NH2+][C@H]1C(=O)OCCOCCOCCOC(=O)c1ccc(-c2c3nc(c(-c4c(F)cccc4F)c4ccc([nH]4)c(-c4c(F)cccc4F)c4nc(c(-c5c(F)cccc5F)c5ccc2[nH]5)C=C4)C=C3)cc1
REMARK SMILES IDX 25 1 24 2 23 3 22 4 21 5 19 6 20 7 18 8 1 9 2 10 3 11 4 12
REMARK SMILES IDX 5 13 17 14 6 17 7 18 16 19 8 20 9 21 10 22 11 23 15 24 12 25
REMARK SMILES IDX 14 26 13 27 26 28 27 29 28 30 29 31 30 32 31 33 32 34 33 35
REMARK SMILES IDX 34 36 86 37 35 38 85 39 36 40 37 41 38 42 79 43 39 44 84 45
REMARK SMILES IDX 78 46 80 47 40 48 83 49 77 50 76 51 41 53 67 54 50 55 66 56
REMARK SMILES IDX 51 57 54 58 65 59 81 60 52 61 53 62 64 64 82 65 55 66 42 67
REMARK SMILES IDX 43 68 48 69 44 70 45 71 47 72 49 73 46 74 68 75 69 76 74 77
REMARK SMILES IDX 70 78 71 79 73 80 75 81 72 82 56 83 57 84 62 85 58 86 59 87
REMARK SMILES IDX 61 88 63 89 60 90
REMARK H PARENT 17 15 17 16 80 52 54 63
REMARK Flexibility Score: inf
ROOT
ATOM      1  C   UNL     1       2.476   3.913  -1.001  1.00  0.00     0.188 C 
ENDROOT
BRANCH   1   2
ATOM      2  O   UNL     1       2.084   5.160  -0.439  1.00  0.00    -0.376 OA
BRANCH   2   3
ATOM      3  C   UNL     1       1.584   5.227   0.889  1.00  0.00     0.202 C 
BRANCH   3   4
ATOM      4  C   UNL     1       0.237   4.552   1.201  1.00  0.00     0.261 C 
BRANCH   4   5
ATOM      5  O   UNL     1       0.143   3.118   1.018  1.00  0.00    -0.459 OA
BRANCH   5   6
ATOM      6  C   UNL     1      -0.487   2.705  -0.117  1.00  0.00     0.366 C 
ATOM      7  O   UNL     1      -0.882   3.484  -0.981  1.00  0.00    -0.245 OA
BRANCH   6   8
ATOM      8  C   UNL     1      -0.770   1.179  -0.209  1.00  0.00     0.310 C 
ATOM      9  C   UNL     1       0.774   0.291   1.758  1.00  0.00     0.030 C 
ATOM     10  C   UNL     1       0.176   0.081   0.364  1.00  0.00     0.079 C 
ATOM     11  C   UNL     1       1.233  -0.396  -0.646  1.00  0.00     0.030 C 
ATOM     12  S   UNL     1      -0.948  -1.375   0.563  1.00  0.00    -0.078 SA
ATOM     13  C   UNL     1      -2.448  -0.462   0.126  1.00  0.00     0.311 C 
ATOM     14  N   UNL     1      -2.140   0.951   0.326  1.00  0.00    -0.316 N 
ATOM     15  H   UNL     1      -2.171   1.179   1.320  1.00  0.00     0.348 HD
ATOM     16  H   UNL     1      -2.821   1.542  -0.152  1.00  0.00     0.348 HD
BRANCH  13  17
ATOM     17  C   UNL     1      -2.933  -0.861  -1.238  1.00  0.00     0.172 A 
ATOM     18  C   UNL     1      -3.339  -2.094  -1.721  1.00  0.00     0.054 A 
ATOM     19  O   UNL     1      -3.086   0.087  -2.223  1.00  0.00    -0.454 OA
ATOM     20  C   UNL     1      -3.796  -1.889  -3.038  1.00  0.00     0.051 A 
ATOM     21  C   UNL     1      -3.634  -0.547  -3.304  1.00  0.00     0.134 A 
BRANCH  21  22
ATOM     22  C   UNL     1      -3.997   0.259  -4.458  1.00  0.00     0.017 A 
ATOM     23  C   UNL     1      -3.030   0.892  -5.245  1.00  0.00     0.012 A 
ATOM     24  C   UNL     1      -5.341   0.312  -4.858  1.00  0.00     0.012 A 
ATOM     25  C   UNL     1      -3.400   1.542  -6.428  1.00  0.00     0.001 A 
ATOM     26  C   UNL     1      -5.711   0.971  -6.031  1.00  0.00     0.001 A 
ATOM     27  C   UNL     1      -4.739   1.577  -6.822  1.00  0.00     0.000 A 
ENDBRANCH  21  22
ENDBRANCH  13  17
ENDBRANCH   6   8
ENDBRANCH   5   6
ENDBRANCH   4   5
ENDBRANCH   3   4
ENDBRANCH   2   3
ENDBRANCH   1   2
BRANCH   1  28
ATOM     28  C   UNL     1       2.899   2.772  -0.071  1.00  0.00     0.188 C 
BRANCH  28  29
ATOM     29  O   UNL     1       3.411   3.205   1.164  1.00  0.00    -0.376 OA
BRANCH  29  30
ATOM     30  C   UNL     1       4.775   3.015   1.462  1.00  0.00     0.202 C 
BRANCH  30  31
ATOM     31  C   UNL     1       5.854   3.432   0.452  1.00  0.00     0.261 C 
BRANCH  31  32
ATOM     32  O   UNL     1       5.565   3.250  -0.942  1.00  0.00    -0.460 OA
BRANCH  32  33
ATOM     33  C   UNL     1       5.697   2.008  -1.453  1.00  0.00     0.338 C 
ATOM     34  O   UNL     1       5.990   0.987  -0.841  1.00  0.00    -0.246 OA
BRANCH  33  35
ATOM     35  C   UNL     1       5.228   2.044  -2.853  1.00  0.00     0.060 A 
ATOM     36  C   UNL     1       4.130   1.261  -3.235  1.00  0.00     0.016 A 
ATOM     37  C   UNL     1       5.875   2.853  -3.789  1.00  0.00     0.016 A 
ATOM     38  C   UNL     1       3.690   1.266  -4.561  1.00  0.00     0.010 A 
ATOM     39  C   UNL     1       5.446   2.843  -5.119  1.00  0.00     0.010 A 
ATOM     40  C   UNL     1       4.370   2.029  -5.518  1.00  0.00    -0.014 A 
BRANCH  40  41
ATOM     41  C   UNL     1       4.080   1.861  -6.964  1.00  0.00     0.031 A 
ATOM     42  C   UNL     1       5.029   1.042  -7.795  1.00  0.00     0.074 A 
ATOM     43  C   UNL     1       3.004   2.431  -7.535  1.00  0.00     0.049 A 
ATOM     44  N   UNL     1       5.067   0.868  -9.091  1.00  0.00    -0.248 NA
ATOM     45  C   UNL     1       6.085   0.327  -7.060  1.00  0.00     0.031 C 
ATOM     46  C   UNL     1       1.980   3.200  -6.833  1.00  0.00     0.029 A 
ATOM     47  N   UNL     1       2.610   2.463  -8.850  1.00  0.00    -0.354 N 
ATOM     48  C   UNL     1       6.160   0.044  -9.328  1.00  0.00     0.074 A 
ATOM     49  C   UNL     1       6.773  -0.229  -8.046  1.00  0.00     0.031 C 
ATOM     50  C   UNL     1       1.082   3.648  -7.729  1.00  0.00     0.029 A 
ATOM     51  C   UNL     1       1.495   3.236  -9.069  1.00  0.00     0.049 A 
ATOM     52  H   UNL     1       3.080   1.979  -9.567  1.00  0.00     0.167 HD
ATOM     53  C   UNL     1       6.611  -0.444 -10.508  1.00  0.00     0.037 A 
ATOM     54  C   UNL     1       0.902   3.599 -10.224  1.00  0.00     0.037 A 
ATOM     55  C   UNL     1       5.996  -0.173 -11.780  1.00  0.00     0.049 A 
ATOM     56  C   UNL     1       1.472   3.115 -11.533  1.00  0.00     0.074 A 
ATOM     57  C   UNL     1       6.367  -0.631 -13.032  1.00  0.00     0.029 A 
ATOM     58  N   UNL     1       4.883   0.635 -11.963  1.00  0.00    -0.354 N 
ATOM     59  N   UNL     1       2.502   2.333 -11.751  1.00  0.00    -0.248 NA
ATOM     60  C   UNL     1       0.796   3.568 -12.758  1.00  0.00     0.031 C 
ATOM     61  C   UNL     1       5.514  -0.054 -13.979  1.00  0.00     0.029 A 
ATOM     62  C   UNL     1       4.571   0.711 -13.310  1.00  0.00     0.049 A 
ATOM     63  H   UNL     1       4.388   1.087 -11.242  1.00  0.00     0.167 HD
ATOM     64  C   UNL     1       2.577   2.173 -13.130  1.00  0.00     0.074 A 
ATOM     65  C   UNL     1       1.482   2.932 -13.698  1.00  0.00     0.031 C 
ATOM     66  C   UNL     1       3.470   1.461 -13.861  1.00  0.00     0.037 A 
BRANCH  53  67
ATOM     67  C   UNL     1       7.851  -1.289 -10.480  1.00  0.00     0.057 A 
ATOM     68  C   UNL     1       7.862  -2.580  -9.934  1.00  0.00     0.134 A 
ATOM     69  C   UNL     1       9.048  -0.813 -11.031  1.00  0.00     0.134 A 
ATOM     70  F   UNL     1       6.755  -3.091  -9.376  1.00  0.00    -0.206 F 
ATOM     71  C   UNL     1       9.024  -3.355  -9.914  1.00  0.00     0.040 A 
ATOM     72  C   UNL     1      10.208  -1.590 -11.044  1.00  0.00     0.040 A 
ATOM     73  F   UNL     1       9.108   0.412 -11.574  1.00  0.00    -0.206 F 
ATOM     74  C   UNL     1      10.199  -2.862 -10.478  1.00  0.00     0.006 A 
ENDBRANCH  53  67
BRANCH  54  75
ATOM     75  C   UNL     1      -0.284   4.495 -10.204  1.00  0.00     0.057 A 
ATOM     76  C   UNL     1      -1.545   4.038 -10.602  1.00  0.00     0.134 A 
ATOM     77  C   UNL     1      -0.179   5.836  -9.813  1.00  0.00     0.134 A 
ATOM     78  F   UNL     1      -1.706   2.772 -11.013  1.00  0.00    -0.206 F 
ATOM     79  C   UNL     1      -2.655   4.885 -10.632  1.00  0.00     0.040 A 
ATOM     80  C   UNL     1      -1.286   6.686  -9.809  1.00  0.00     0.040 A 
ATOM     81  F   UNL     1       1.002   6.338  -9.423  1.00  0.00    -0.206 F 
ATOM     82  C   UNL     1      -2.527   6.213 -10.228  1.00  0.00     0.006 A 
ENDBRANCH  54  75
BRANCH  66  83
ATOM     83  C   UNL     1       3.276   1.423 -15.351  1.00  0.00     0.057 A 
ATOM     84  C   UNL     1       3.523   2.536 -16.163  1.00  0.00     0.134 A 
ATOM     85  C   UNL     1       2.882   0.236 -15.985  1.00  0.00     0.134 A 
ATOM     86  F   UNL     1       3.892   3.706 -15.620  1.00  0.00    -0.206 F 
ATOM     87  C   UNL     1       3.364   2.478 -17.549  1.00  0.00     0.040 A 
ATOM     88  C   UNL     1       2.750   0.157 -17.372  1.00  0.00     0.040 A 
ATOM     89  F   UNL     1       2.641  -0.872 -15.268  1.00  0.00    -0.206 F 
ATOM     90  C   UNL     1       2.984   1.282 -18.158  1.00  0.00     0.006 A 
ENDBRANCH  66  83
ENDBRANCH  40  41
ENDBRANCH  33  35
ENDBRANCH  32  33
ENDBRANCH  31  32
ENDBRANCH  30  31
ENDBRANCH  29  30
ENDBRANCH  28  29
ENDBRANCH   1  28
TORSDOF 19
