REMARK SMILES O=C(OCCOCCOCCOC(=O)c1ccc(NC(=O)[C@@H]2COCCO2)cc1O)c1ccc(-c2c3nc(c(-c4c(F)cccc4F)c4ccc([nH]4)c(-c4c(F)cccc4F)c4nc(c(-c5c(F)cccc5F)c5ccc2[nH]5)C=C4)C=C3)cc1
REMARK SMILES IDX 7 1 6 2 5 3 4 4 3 5 2 6 1 7 31 8 32 9 84 10 33 11 83 12
REMARK SMILES IDX 34 13 35 14 36 15 77 16 37 17 82 18 76 19 78 20 38 21 81 22
REMARK SMILES IDX 75 23 74 24 39 26 65 27 48 28 64 29 49 30 52 31 63 32 79 33
REMARK SMILES IDX 50 34 51 35 62 37 80 38 53 39 40 40 41 41 46 42 42 43 43 44
REMARK SMILES IDX 45 45 47 46 44 47 66 48 67 49 72 50 68 51 69 52 71 53 73 54
REMARK SMILES IDX 70 55 54 56 55 57 60 58 56 59 57 60 59 61 61 62 58 63 8 64
REMARK SMILES IDX 9 65 10 66 11 67 12 68 13 69 14 70 15 71 16 72 29 73 17 74
REMARK SMILES IDX 28 75 18 76 30 77 19 79 20 80 21 82 22 83 23 84 27 85 24 86
REMARK SMILES IDX 26 87 25 88
REMARK H PARENT 78 25 52 36 30 78 19 81
REMARK Flexibility Score: inf
ROOT
ATOM      1  C   UNL     1       2.602  -0.386  -2.260  1.00  0.00     0.188 C 
ENDROOT
BRANCH   1   2
ATOM      2  O   UNL     1       3.864  -0.024  -1.684  1.00  0.00    -0.376 OA
BRANCH   2   3
ATOM      3  C   UNL     1       4.627  -1.142  -1.223  1.00  0.00     0.202 C 
BRANCH   3   4
ATOM      4  C   UNL     1       4.319  -1.553   0.223  1.00  0.00     0.261 C 
BRANCH   4   5
ATOM      5  O   UNL     1       2.918  -1.428   0.527  1.00  0.00    -0.460 OA
BRANCH   5   6
ATOM      6  C   UNL     1       2.282  -0.393   1.133  1.00  0.00     0.338 C 
ATOM      7  O   UNL     1       1.066  -0.462   1.300  1.00  0.00    -0.246 OA
BRANCH   6   8
ATOM      8  C   UNL     1       2.994   0.803   1.678  1.00  0.00     0.060 A 
ATOM      9  C   UNL     1       4.160   1.349   1.141  1.00  0.00     0.016 A 
ATOM     10  C   UNL     1       2.421   1.441   2.792  1.00  0.00     0.016 A 
ATOM     11  C   UNL     1       4.836   2.377   1.791  1.00  0.00     0.010 A 
ATOM     12  C   UNL     1       3.057   2.525   3.409  1.00  0.00     0.010 A 
ATOM     13  C   UNL     1       4.306   2.953   2.947  1.00  0.00    -0.014 A 
BRANCH  13  14
ATOM     14  C   UNL     1       5.154   3.889   3.718  1.00  0.00     0.031 A 
ATOM     15  C   UNL     1       5.773   3.412   5.002  1.00  0.00     0.074 A 
ATOM     16  C   UNL     1       5.485   5.086   3.200  1.00  0.00     0.049 A 
ATOM     17  N   UNL     1       6.593   4.034   5.809  1.00  0.00    -0.248 NA
ATOM     18  C   UNL     1       5.438   2.042   5.426  1.00  0.00     0.031 C 
ATOM     19  C   UNL     1       5.018   5.604   1.913  1.00  0.00     0.029 A 
ATOM     20  N   UNL     1       6.331   6.058   3.665  1.00  0.00    -0.354 N 
ATOM     21  C   UNL     1       6.847   3.143   6.845  1.00  0.00     0.074 A 
ATOM     22  C   UNL     1       6.092   1.942   6.572  1.00  0.00     0.031 C 
ATOM     23  C   UNL     1       5.627   6.776   1.668  1.00  0.00     0.029 A 
ATOM     24  C   UNL     1       6.482   7.115   2.801  1.00  0.00     0.049 A 
ATOM     25  H   UNL     1       6.788   6.005   4.535  1.00  0.00     0.167 HD
ATOM     26  C   UNL     1       7.642   3.311   7.927  1.00  0.00     0.037 A 
ATOM     27  C   UNL     1       7.227   8.231   2.915  1.00  0.00     0.037 A 
ATOM     28  C   UNL     1       8.404   4.501   8.184  1.00  0.00     0.049 A 
ATOM     29  C   UNL     1       8.064   8.416   4.151  1.00  0.00     0.074 A 
ATOM     30  C   UNL     1       9.192   4.808   9.278  1.00  0.00     0.029 A 
ATOM     31  N   UNL     1       8.477   5.582   7.318  1.00  0.00    -0.354 N 
ATOM     32  N   UNL     1       8.249   7.590   5.154  1.00  0.00    -0.248 NA
ATOM     33  C   UNL     1       8.786   9.689   4.278  1.00  0.00     0.031 C 
ATOM     34  C   UNL     1       9.726   6.088   9.083  1.00  0.00     0.029 A 
ATOM     35  C   UNL     1       9.294   6.562   7.853  1.00  0.00     0.049 A 
ATOM     36  H   UNL     1       8.016   5.643   6.450  1.00  0.00     0.167 HD
ATOM     37  C   UNL     1       9.119   8.235   6.022  1.00  0.00     0.074 A 
ATOM     38  C   UNL     1       9.440   9.513   5.418  1.00  0.00     0.031 C 
ATOM     39  C   UNL     1       9.604   7.815   7.216  1.00  0.00     0.037 A 
BRANCH  26  40
ATOM     40  C   UNL     1       7.668   2.193   8.925  1.00  0.00     0.057 A 
ATOM     41  C   UNL     1       8.360   0.999   8.685  1.00  0.00     0.134 A 
ATOM     42  C   UNL     1       6.951   2.298  10.123  1.00  0.00     0.134 A 
ATOM     43  F   UNL     1       9.041   0.826   7.542  1.00  0.00    -0.206 F 
ATOM     44  C   UNL     1       8.314  -0.063   9.591  1.00  0.00     0.040 A 
ATOM     45  C   UNL     1       6.914   1.251  11.044  1.00  0.00     0.040 A 
ATOM     46  F   UNL     1       6.262   3.413  10.408  1.00  0.00    -0.206 F 
ATOM     47  C   UNL     1       7.590   0.063  10.775  1.00  0.00     0.006 A 
ENDBRANCH  26  40
BRANCH  27  48
ATOM     48  C   UNL     1       7.213   9.256   1.840  1.00  0.00     0.057 A 
ATOM     49  C   UNL     1       8.348   9.506   1.061  1.00  0.00     0.134 A 
ATOM     50  C   UNL     1       6.069  10.017   1.571  1.00  0.00     0.134 A 
ATOM     51  F   UNL     1       9.481   8.822   1.278  1.00  0.00    -0.206 F 
ATOM     52  C   UNL     1       8.351  10.485   0.064  1.00  0.00     0.040 A 
ATOM     53  C   UNL     1       6.050  10.983   0.564  1.00  0.00     0.040 A 
ATOM     54  F   UNL     1       4.942   9.818   2.271  1.00  0.00    -0.206 F 
ATOM     55  C   UNL     1       7.197  11.224  -0.189  1.00  0.00     0.006 A 
ENDBRANCH  27  48
BRANCH  39  56
ATOM     56  C   UNL     1      10.551   8.734   7.923  1.00  0.00     0.057 A 
ATOM     57  C   UNL     1      10.098   9.870   8.604  1.00  0.00     0.134 A 
ATOM     58  C   UNL     1      11.922   8.455   7.958  1.00  0.00     0.134 A 
ATOM     59  F   UNL     1       8.796  10.194   8.595  1.00  0.00    -0.206 F 
ATOM     60  C   UNL     1      10.981  10.709   9.284  1.00  0.00     0.040 A 
ATOM     61  C   UNL     1      12.812   9.276   8.650  1.00  0.00     0.040 A 
ATOM     62  F   UNL     1      12.414   7.377   7.329  1.00  0.00    -0.206 F 
ATOM     63  C   UNL     1      12.342  10.409   9.312  1.00  0.00     0.006 A 
ENDBRANCH  39  56
ENDBRANCH  13  14
ENDBRANCH   6   8
ENDBRANCH   5   6
ENDBRANCH   4   5
ENDBRANCH   3   4
ENDBRANCH   2   3
ENDBRANCH   1   2
BRANCH   1  64
ATOM     64  C   UNL     1       2.249   0.546  -3.420  1.00  0.00     0.188 C 
BRANCH  64  65
ATOM     65  O   UNL     1       3.020   0.328  -4.603  1.00  0.00    -0.376 OA
BRANCH  65  66
ATOM     66  C   UNL     1       4.394   0.715  -4.547  1.00  0.00     0.202 C 
BRANCH  66  67
ATOM     67  C   UNL     1       4.649   2.219  -4.687  1.00  0.00     0.261 C 
BRANCH  67  68
ATOM     68  O   UNL     1       4.110   2.979  -3.592  1.00  0.00    -0.460 OA
BRANCH  68  69
ATOM     69  C   UNL     1       3.389   4.069  -3.959  1.00  0.00     0.341 C 
ATOM     70  O   UNL     1       3.147   4.459  -5.088  1.00  0.00    -0.246 OA
BRANCH  69  71
ATOM     71  C   UNL     1       2.815   4.717  -2.771  1.00  0.00     0.101 A 
ATOM     72  C   UNL     1       1.525   4.364  -2.374  1.00  0.00     0.022 A 
ATOM     73  C   UNL     1       3.454   5.789  -2.158  1.00  0.00     0.132 A 
ATOM     74  C   UNL     1       0.885   5.072  -1.348  1.00  0.00     0.027 A 
ATOM     75  C   UNL     1       2.806   6.499  -1.141  1.00  0.00     0.073 A 
ATOM     76  C   UNL     1       1.514   6.140  -0.714  1.00  0.00     0.044 A 
BRANCH  73  77
ATOM     77  O   UNL     1       4.703   6.160  -2.566  1.00  0.00    -0.507 OA
ATOM     78  H   UNL     1       5.135   5.683  -3.247  1.00  0.00     0.293 HD
ENDBRANCH  73  77
BRANCH  76  79
ATOM     79  N   UNL     1       0.947   6.946   0.288  1.00  0.00    -0.324 N 
ATOM     80  C   UNL     1      -0.148   6.889   1.098  1.00  0.00     0.255 C 
ATOM     81  H   UNL     1       1.476   7.761   0.446  1.00  0.00     0.170 HD
ATOM     82  O   UNL     1      -0.364   7.907   1.774  1.00  0.00    -0.272 OA
BRANCH  80  83
ATOM     83  C   UNL     1      -1.043   5.661   1.299  1.00  0.00     0.233 C 
ATOM     84  C   UNL     1      -0.233   4.484   1.860  1.00  0.00     0.202 C 
ATOM     85  O   UNL     1      -1.817   5.300   0.153  1.00  0.00    -0.364 OA
ATOM     86  O   UNL     1      -1.079   3.349   2.110  1.00  0.00    -0.376 OA
ATOM     87  C   UNL     1      -2.642   4.159   0.439  1.00  0.00     0.189 C 
ATOM     88  C   UNL     1      -1.786   2.986   0.915  1.00  0.00     0.188 C 
ENDBRANCH  80  83
ENDBRANCH  76  79
ENDBRANCH  69  71
ENDBRANCH  68  69
ENDBRANCH  67  68
ENDBRANCH  66  67
ENDBRANCH  65  66
ENDBRANCH  64  65
ENDBRANCH   1  64
TORSDOF 20
