REMARK SMILES CC[C@](C)(NC(=O)N1Cc2ccccc2C1)C(=O)OCCOCCOCCOC(=O)c1ccc(-c2c3nc(c(-c4c(F)cccc4F)c4ccc([nH]4)c(-c4c(F)cccc4F)c4nc(c(-c5c(F)cccc5F)c5ccc2[nH]5)C=C4)C=C3)cc1
REMARK SMILES IDX 24 1 23 2 22 3 21 4 20 5 19 6 17 7 18 8 3 9 4 10 2 11 1 12
REMARK SMILES IDX 5 13 6 14 7 16 8 17 9 18 16 19 10 20 15 21 11 22 14 23 12 24
REMARK SMILES IDX 13 25 25 26 26 27 27 28 28 29 29 30 30 31 31 32 32 33 84 34
REMARK SMILES IDX 33 35 83 36 34 37 35 38 36 39 77 40 37 41 82 42 76 43 78 44
REMARK SMILES IDX 38 45 81 46 75 47 74 48 39 50 65 51 48 52 64 53 49 54 52 55
REMARK SMILES IDX 63 56 79 57 50 58 51 59 62 61 80 62 53 63 40 64 41 65 46 66
REMARK SMILES IDX 42 67 43 68 45 69 47 70 44 71 66 72 67 73 72 74 68 75 69 76
REMARK SMILES IDX 71 77 73 78 70 79 54 80 55 81 60 82 56 83 57 84 59 85 61 86
REMARK SMILES IDX 58 87
REMARK H PARENT 5 15 78 49 52 60
REMARK Flexibility Score: inf
ROOT
ATOM      1  C   UNL     1       2.266   4.120   1.636  1.00  0.00     0.188 C 
ENDROOT
BRANCH   1   2
ATOM      2  C   UNL     1       2.813   2.764   1.129  1.00  0.00     0.188 C 
BRANCH   2   3
ATOM      3  O   UNL     1       4.225   2.624   1.179  1.00  0.00    -0.376 OA
BRANCH   3   4
ATOM      4  C   UNL     1       4.858   1.540   0.482  1.00  0.00     0.202 C 
BRANCH   4   5
ATOM      5  C   UNL     1       4.521   1.036  -0.952  1.00  0.00     0.261 C 
BRANCH   5   6
ATOM      6  O   UNL     1       3.414   1.641  -1.597  1.00  0.00    -0.462 OA
BRANCH   6   7
ATOM      7  C   UNL     1       2.210   1.064  -1.433  1.00  0.00     0.331 C 
ATOM      8  O   UNL     1       2.047  -0.093  -1.061  1.00  0.00    -0.249 OA
BRANCH   7   9
ATOM      9  C   UNL     1       1.061   2.079  -1.695  1.00  0.00     0.136 C 
ATOM     10  C   UNL     1       0.084   1.890  -0.473  1.00  0.00     0.047 C 
BRANCH   9  11
ATOM     11  C   UNL     1       0.268   1.698  -2.973  1.00  0.00     0.037 C 
ATOM     12  C   UNL     1       0.029   0.202  -3.195  1.00  0.00     0.007 C 
ENDBRANCH   9  11
BRANCH   9  13
ATOM     13  N   UNL     1       1.392   3.586  -1.768  1.00  0.00    -0.322 N 
ATOM     14  C   UNL     1       2.388   4.466  -2.089  1.00  0.00     0.318 C 
ATOM     15  H   UNL     1       0.601   4.097  -1.479  1.00  0.00     0.166 HD
ATOM     16  O   UNL     1       2.032   5.611  -2.381  1.00  0.00    -0.249 OA
ATOM     17  N   UNL     1       3.715   4.160  -1.951  1.00  0.00    -0.316 N 
ATOM     18  C   UNL     1       4.493   4.842  -0.905  1.00  0.00     0.157 C 
ATOM     19  C   UNL     1       4.597   4.125  -3.122  1.00  0.00     0.157 C 
ATOM     20  C   UNL     1       5.912   4.512  -1.200  1.00  0.00    -0.023 A 
ATOM     21  C   UNL     1       5.984   4.078  -2.520  1.00  0.00    -0.023 A 
ATOM     22  C   UNL     1       6.996   4.498  -0.329  1.00  0.00     0.006 A 
ATOM     23  C   UNL     1       7.198   3.658  -3.023  1.00  0.00     0.006 A 
ATOM     24  C   UNL     1       8.209   4.032  -0.819  1.00  0.00     0.000 A 
ATOM     25  C   UNL     1       8.310   3.627  -2.160  1.00  0.00     0.000 A 
ENDBRANCH   9  13
ENDBRANCH   7   9
ENDBRANCH   6   7
ENDBRANCH   5   6
ENDBRANCH   4   5
ENDBRANCH   3   4
ENDBRANCH   2   3
ENDBRANCH   1   2
BRANCH   1  26
ATOM     26  O   UNL     1       2.628   5.276   0.889  1.00  0.00    -0.376 OA
BRANCH  26  27
ATOM     27  C   UNL     1       2.882   6.494   1.601  1.00  0.00     0.202 C 
BRANCH  27  28
ATOM     28  C   UNL     1       4.172   6.513   2.458  1.00  0.00     0.261 C 
BRANCH  28  29
ATOM     29  O   UNL     1       4.178   5.546   3.524  1.00  0.00    -0.460 OA
BRANCH  29  30
ATOM     30  C   UNL     1       3.202   5.716   4.441  1.00  0.00     0.338 C 
ATOM     31  O   UNL     1       2.519   6.722   4.612  1.00  0.00    -0.246 OA
BRANCH  30  32
ATOM     32  C   UNL     1       2.828   4.395   4.975  1.00  0.00     0.060 A 
ATOM     33  C   UNL     1       1.524   3.945   4.692  1.00  0.00     0.016 A 
ATOM     34  C   UNL     1       3.720   3.598   5.691  1.00  0.00     0.016 A 
ATOM     35  C   UNL     1       1.089   2.721   5.164  1.00  0.00     0.010 A 
ATOM     36  C   UNL     1       3.249   2.412   6.258  1.00  0.00     0.010 A 
ATOM     37  C   UNL     1       1.912   2.020   6.048  1.00  0.00    -0.014 A 
BRANCH  37  38
ATOM     38  C   UNL     1       1.200   1.202   7.052  1.00  0.00     0.031 A 
ATOM     39  C   UNL     1       0.714   1.927   8.281  1.00  0.00     0.074 A 
ATOM     40  C   UNL     1       0.849  -0.068   6.807  1.00  0.00     0.049 A 
ATOM     41  N   UNL     1       0.020   1.483   9.294  1.00  0.00    -0.248 NA
ATOM     42  C   UNL     1       1.037   3.365   8.366  1.00  0.00     0.031 C 
ATOM     43  C   UNL     1       1.158  -0.817   5.591  1.00  0.00     0.029 A 
ATOM     44  N   UNL     1       0.126  -0.942   7.574  1.00  0.00    -0.354 N 
ATOM     45  C   UNL     1      -0.160   2.578  10.132  1.00  0.00     0.074 A 
ATOM     46  C   UNL     1       0.503   3.705   9.524  1.00  0.00     0.031 C 
ATOM     47  C   UNL     1       0.632  -2.050   5.699  1.00  0.00     0.029 A 
ATOM     48  C   UNL     1      -0.017  -2.180   7.003  1.00  0.00     0.049 A 
ATOM     49  H   UNL     1      -0.255  -0.704   8.450  1.00  0.00     0.167 HD
ATOM     50  C   UNL     1      -0.822   2.639  11.308  1.00  0.00     0.037 A 
ATOM     51  C   UNL     1      -0.589  -3.292   7.502  1.00  0.00     0.037 A 
ATOM     52  C   UNL     1      -1.477   1.510  11.904  1.00  0.00     0.049 A 
ATOM     53  C   UNL     1      -1.226  -3.228   8.867  1.00  0.00     0.074 A 
ATOM     54  C   UNL     1      -2.156   1.440  13.105  1.00  0.00     0.029 A 
ATOM     55  N   UNL     1      -1.525   0.245  11.335  1.00  0.00    -0.354 N 
ATOM     56  N   UNL     1      -1.365  -2.202   9.673  1.00  0.00    -0.248 NA
ATOM     57  C   UNL     1      -1.789  -4.480   9.389  1.00  0.00     0.031 C 
ATOM     58  C   UNL     1      -2.565   0.116  13.292  1.00  0.00     0.029 A 
ATOM     59  C   UNL     1      -2.203  -0.621  12.174  1.00  0.00     0.049 A 
ATOM     60  H   UNL     1      -1.136   0.000  10.465  1.00  0.00     0.167 HD
ATOM     61  C   UNL     1      -2.065  -2.673  10.777  1.00  0.00     0.074 A 
ATOM     62  C   UNL     1      -2.329  -4.076  10.529  1.00  0.00     0.031 C 
ATOM     63  C   UNL     1      -2.461  -2.010  11.893  1.00  0.00     0.037 A 
BRANCH  50  64
ATOM     64  C   UNL     1      -0.798   3.946  12.046  1.00  0.00     0.057 A 
ATOM     65  C   UNL     1      -1.496   5.077  11.598  1.00  0.00     0.134 A 
ATOM     66  C   UNL     1      -0.050   4.074  13.222  1.00  0.00     0.134 A 
ATOM     67  F   UNL     1      -2.206   5.032  10.461  1.00  0.00    -0.206 F 
ATOM     68  C   UNL     1      -1.431   6.292  12.284  1.00  0.00     0.040 A 
ATOM     69  C   UNL     1      -0.002   5.274  13.932  1.00  0.00     0.040 A 
ATOM     70  F   UNL     1       0.651   3.034  13.700  1.00  0.00    -0.206 F 
ATOM     71  C   UNL     1      -0.689   6.390  13.459  1.00  0.00     0.006 A 
ENDBRANCH  50  64
BRANCH  51  72
ATOM     72  C   UNL     1      -0.562  -4.559   6.729  1.00  0.00     0.057 A 
ATOM     73  C   UNL     1      -1.737  -5.148   6.248  1.00  0.00     0.134 A 
ATOM     74  C   UNL     1       0.642  -5.231   6.481  1.00  0.00     0.134 A 
ATOM     75  F   UNL     1      -2.924  -4.566   6.471  1.00  0.00    -0.206 F 
ATOM     76  C   UNL     1      -1.719  -6.368   5.569  1.00  0.00     0.040 A 
ATOM     77  C   UNL     1       0.678  -6.436   5.778  1.00  0.00     0.040 A 
ATOM     78  F   UNL     1       1.804  -4.722   6.915  1.00  0.00    -0.206 F 
ATOM     79  C   UNL     1      -0.507  -7.013   5.329  1.00  0.00     0.006 A 
ENDBRANCH  51  72
BRANCH  63  80
ATOM     80  C   UNL     1      -3.275  -2.779  12.894  1.00  0.00     0.057 A 
ATOM     81  C   UNL     1      -2.724  -3.799  13.680  1.00  0.00     0.134 A 
ATOM     82  C   UNL     1      -4.627  -2.469  13.091  1.00  0.00     0.134 A 
ATOM     83  F   UNL     1      -1.437  -4.150  13.536  1.00  0.00    -0.206 F 
ATOM     84  C   UNL     1      -3.500  -4.510  14.597  1.00  0.00     0.040 A 
ATOM     85  C   UNL     1      -5.403  -3.148  14.030  1.00  0.00     0.040 A 
ATOM     86  F   UNL     1      -5.213  -1.491  12.383  1.00  0.00    -0.206 F 
ATOM     87  C   UNL     1      -4.842  -4.180  14.777  1.00  0.00     0.006 A 
ENDBRANCH  63  80
ENDBRANCH  37  38
ENDBRANCH  30  32
ENDBRANCH  29  30
ENDBRANCH  28  29
ENDBRANCH  27  28
ENDBRANCH  26  27
ENDBRANCH   1  26
TORSDOF 19
