REMARK SMILES CC(C)CSc1cc2c(cc1Cl)C=C(C(=O)OCCOCCOCCOC(=O)c1ccc(-c3c4nc(c(-c5c(F)cccc5F)c5ccc([nH]5)c(-c5c(F)cccc5F)c5nc(c(-c6c(F)cccc6F)c6ccc3[nH]6)C=C5)C=C4)cc1)[C@@H](C(F)(F)F)O2
REMARK SMILES IDX 21 1 20 2 19 3 18 4 17 5 15 6 16 7 14 8 6 9 7 10 11 11 8 12
REMARK SMILES IDX 10 13 12 14 9 15 88 16 13 17 83 18 5 19 4 20 2 21 1 22 3 23
REMARK SMILES IDX 84 24 85 25 86 26 87 27 22 28 23 29 24 30 25 31 26 32 27 33
REMARK SMILES IDX 28 34 29 35 30 36 82 37 31 38 81 39 32 40 33 41 34 42 75 43
REMARK SMILES IDX 35 44 80 45 74 46 76 47 36 48 79 49 73 50 72 51 37 53 63 54
REMARK SMILES IDX 46 55 62 56 47 57 50 58 61 59 77 60 48 61 49 62 60 64 78 65
REMARK SMILES IDX 51 66 38 67 39 68 44 69 40 70 41 71 43 72 45 73 42 74 64 75
REMARK SMILES IDX 65 76 70 77 66 78 67 79 69 80 71 81 68 82 52 83 53 84 58 85
REMARK SMILES IDX 54 86 55 87 57 88 59 89 56 90
REMARK H PARENT 76 52 50 63
REMARK Flexibility Score: inf
ROOT
ATOM      1  C   UNL     1      -0.776   7.460   4.772  1.00  0.00     0.188 C 
ENDROOT
BRANCH   1   2
ATOM      2  O   UNL     1      -0.222   8.659   5.281  1.00  0.00    -0.376 OA
BRANCH   2   3
ATOM      3  C   UNL     1      -0.061   9.783   4.431  1.00  0.00     0.202 C 
BRANCH   3   4
ATOM      4  C   UNL     1       0.650   9.630   3.081  1.00  0.00     0.261 C 
BRANCH   4   5
ATOM      5  O   UNL     1       0.124   8.573   2.265  1.00  0.00    -0.460 OA
BRANCH   5   6
ATOM      6  C   UNL     1       1.008   7.607   1.923  1.00  0.00     0.338 C 
ATOM      7  O   UNL     1       2.196   7.564   2.194  1.00  0.00    -0.246 OA
BRANCH   6   8
ATOM      8  C   UNL     1       0.282   6.486   1.300  1.00  0.00     0.087 C 
ATOM      9  C   UNL     1      -1.348   1.892   0.021  1.00  0.00     0.030 A 
ATOM     10  C   UNL     1      -1.363   3.165  -0.590  1.00  0.00     0.063 A 
ATOM     11  C   UNL     1      -0.919   1.820   1.355  1.00  0.00     0.055 A 
ATOM     12  C   UNL     1      -0.863   4.295   0.061  1.00  0.00     0.129 A 
ATOM     13  C   UNL     1      -0.341   2.938   1.975  1.00  0.00     0.033 A 
ATOM     14  Cl  UNL     1      -1.107   0.432   2.364  1.00  0.00    -0.083 Cl
ATOM     15  C   UNL     1      -0.279   4.165   1.315  1.00  0.00     0.019 A 
ATOM     16  O   UNL     1      -0.931   5.480  -0.617  1.00  0.00    -0.475 OA
ATOM     17  C   UNL     1       0.429   5.293   1.892  1.00  0.00     0.027 C 
ATOM     18  C   UNL     1      -0.598   6.709   0.100  1.00  0.00     0.316 C 
BRANCH   9  19
ATOM     19  S   UNL     1      -1.927   0.573  -1.046  1.00  0.00    -0.124 SA
BRANCH  19  20
ATOM     20  C   UNL     1      -0.957  -0.932  -0.636  1.00  0.00     0.078 C 
BRANCH  20  21
ATOM     21  C   UNL     1       0.540  -1.011  -0.999  1.00  0.00    -0.007 C 
ATOM     22  C   UNL     1       1.435   0.052  -0.368  1.00  0.00     0.008 C 
ATOM     23  C   UNL     1       1.060  -2.397  -0.582  1.00  0.00     0.008 C 
ENDBRANCH  20  21
ENDBRANCH  19  20
ENDBRANCH   9  19
BRANCH  18  24
ATOM     24  C   UNL     1      -0.000   7.684  -0.927  1.00  0.00     0.430 C 
ATOM     25  F   UNL     1      -0.835   7.855  -1.981  1.00  0.00    -0.167 F 
ATOM     26  F   UNL     1       0.211   8.914  -0.403  1.00  0.00    -0.167 F 
ATOM     27  F   UNL     1       1.182   7.241  -1.411  1.00  0.00    -0.167 F 
ENDBRANCH  18  24
ENDBRANCH   6   8
ENDBRANCH   5   6
ENDBRANCH   4   5
ENDBRANCH   3   4
ENDBRANCH   2   3
ENDBRANCH   1   2
BRANCH   1  28
ATOM     28  C   UNL     1      -2.089   7.469   3.960  1.00  0.00     0.188 C 
BRANCH  28  29
ATOM     29  O   UNL     1      -2.748   8.690   3.735  1.00  0.00    -0.376 OA
BRANCH  29  30
ATOM     30  C   UNL     1      -3.501   9.331   4.750  1.00  0.00     0.202 C 
BRANCH  30  31
ATOM     31  C   UNL     1      -3.910   8.720   6.103  1.00  0.00     0.261 C 
BRANCH  31  32
ATOM     32  O   UNL     1      -3.173   7.593   6.573  1.00  0.00    -0.460 OA
BRANCH  32  33
ATOM     33  C   UNL     1      -3.821   6.404   6.508  1.00  0.00     0.338 C 
ATOM     34  O   UNL     1      -4.935   6.190   6.061  1.00  0.00    -0.246 OA
BRANCH  33  35
ATOM     35  C   UNL     1      -2.870   5.341   6.881  1.00  0.00     0.060 A 
ATOM     36  C   UNL     1      -2.221   5.367   8.117  1.00  0.00     0.016 A 
ATOM     37  C   UNL     1      -2.619   4.313   5.963  1.00  0.00     0.016 A 
ATOM     38  C   UNL     1      -1.340   4.337   8.447  1.00  0.00     0.010 A 
ATOM     39  C   UNL     1      -1.728   3.291   6.289  1.00  0.00     0.010 A 
ATOM     40  C   UNL     1      -1.103   3.283   7.545  1.00  0.00    -0.014 A 
BRANCH  40  41
ATOM     41  C   UNL     1      -0.372   2.079   8.005  1.00  0.00     0.031 A 
ATOM     42  C   UNL     1       1.069   1.841   7.680  1.00  0.00     0.074 A 
ATOM     43  C   UNL     1      -1.058   1.180   8.734  1.00  0.00     0.049 A 
ATOM     44  N   UNL     1       1.859   0.888   8.109  1.00  0.00    -0.248 NA
ATOM     45  C   UNL     1       1.704   2.780   6.746  1.00  0.00     0.031 C 
ATOM     46  C   UNL     1      -2.480   1.282   9.070  1.00  0.00     0.029 A 
ATOM     47  N   UNL     1      -0.656   0.013   9.328  1.00  0.00    -0.354 N 
ATOM     48  C   UNL     1       3.095   1.124   7.523  1.00  0.00     0.074 A 
ATOM     49  C   UNL     1       2.933   2.282   6.664  1.00  0.00     0.031 C 
ATOM     50  C   UNL     1      -2.827   0.231   9.828  1.00  0.00     0.029 A 
ATOM     51  C   UNL     1      -1.657  -0.619  10.021  1.00  0.00     0.049 A 
ATOM     52  H   UNL     1       0.262  -0.338   9.263  1.00  0.00     0.167 HD
ATOM     53  C   UNL     1       4.255   0.446   7.703  1.00  0.00     0.037 A 
ATOM     54  C   UNL     1      -1.634  -1.753  10.743  1.00  0.00     0.037 A 
ATOM     55  C   UNL     1       4.400  -0.723   8.539  1.00  0.00     0.049 A 
ATOM     56  C   UNL     1      -0.341  -2.498  10.898  1.00  0.00     0.074 A 
ATOM     57  C   UNL     1       5.547  -1.444   8.826  1.00  0.00     0.029 A 
ATOM     58  N   UNL     1       3.360  -1.356   9.204  1.00  0.00    -0.354 N 
ATOM     59  N   UNL     1       0.846  -2.205  10.427  1.00  0.00    -0.248 NA
ATOM     60  C   UNL     1      -0.386  -3.727  11.701  1.00  0.00     0.031 C 
ATOM     61  C   UNL     1       5.193  -2.541   9.622  1.00  0.00     0.029 A 
ATOM     62  C   UNL     1       3.833  -2.476   9.873  1.00  0.00     0.049 A 
ATOM     63  H   UNL     1       2.423  -1.054   9.203  1.00  0.00     0.167 HD
ATOM     64  C   UNL     1       1.694  -3.201  10.892  1.00  0.00     0.074 A 
ATOM     65  C   UNL     1       0.889  -4.088  11.706  1.00  0.00     0.031 C 
ATOM     66  C   UNL     1       3.020  -3.367  10.663  1.00  0.00     0.037 A 
BRANCH  53  67
ATOM     67  C   UNL     1       5.473   0.955   6.985  1.00  0.00     0.057 A 
ATOM     68  C   UNL     1       6.059   0.220   5.947  1.00  0.00     0.134 A 
ATOM     69  C   UNL     1       6.104   2.147   7.366  1.00  0.00     0.134 A 
ATOM     70  F   UNL     1       5.514  -0.937   5.539  1.00  0.00    -0.206 F 
ATOM     71  C   UNL     1       7.226   0.651   5.314  1.00  0.00     0.040 A 
ATOM     72  C   UNL     1       7.258   2.601   6.725  1.00  0.00     0.040 A 
ATOM     73  F   UNL     1       5.594   2.901   8.352  1.00  0.00    -0.206 F 
ATOM     74  C   UNL     1       7.827   1.848   5.699  1.00  0.00     0.006 A 
ENDBRANCH  53  67
BRANCH  54  75
ATOM     75  C   UNL     1      -2.869  -2.234  11.405  1.00  0.00     0.057 A 
ATOM     76  C   UNL     1      -3.936  -2.757  10.665  1.00  0.00     0.134 A 
ATOM     77  C   UNL     1      -3.003  -2.196  12.797  1.00  0.00     0.134 A 
ATOM     78  F   UNL     1      -3.870  -2.810   9.326  1.00  0.00    -0.206 F 
ATOM     79  C   UNL     1      -5.092  -3.228  11.287  1.00  0.00     0.040 A 
ATOM     80  C   UNL     1      -4.142  -2.687  13.434  1.00  0.00     0.040 A 
ATOM     81  F   UNL     1      -2.006  -1.719  13.558  1.00  0.00    -0.206 F 
ATOM     82  C   UNL     1      -5.193  -3.202  12.677  1.00  0.00     0.006 A 
ENDBRANCH  54  75
BRANCH  66  83
ATOM     83  C   UNL     1       3.670  -4.554  11.317  1.00  0.00     0.057 A 
ATOM     84  C   UNL     1       4.554  -4.388  12.390  1.00  0.00     0.134 A 
ATOM     85  C   UNL     1       3.396  -5.865  10.903  1.00  0.00     0.134 A 
ATOM     86  F   UNL     1       4.865  -3.161  12.834  1.00  0.00    -0.206 F 
ATOM     87  C   UNL     1       5.132  -5.482  13.035  1.00  0.00     0.040 A 
ATOM     88  C   UNL     1       3.945  -6.968  11.560  1.00  0.00     0.040 A 
ATOM     89  F   UNL     1       2.543  -6.095   9.893  1.00  0.00    -0.206 F 
ATOM     90  C   UNL     1       4.818  -6.777  12.629  1.00  0.00     0.006 A 
ENDBRANCH  66  83
ENDBRANCH  40  41
ENDBRANCH  33  35
ENDBRANCH  32  33
ENDBRANCH  31  32
ENDBRANCH  30  31
ENDBRANCH  29  30
ENDBRANCH  28  29
ENDBRANCH   1  28
TORSDOF 21
