REMARK SMILES Cc1c(C(=O)OCCOCCOCCOC(=O)c2ccc(-c3c4nc(c(-c5c(F)cccc5F)c5ccc([nH]5)c(-c5c(F)cccc5F)c5nc(c(-c6c(F)cccc6F)c6ccc3[nH]6)C=C5)C=C4)cc2)oc2c1/C(=N/NC(=O)C(c1ccccc1)c1ccccc1)CCC2
REMARK SMILES IDX 10 1 9 2 8 3 7 4 6 5 4 6 5 7 3 8 1 9 2 10 74 11 72 12 73 13
REMARK SMILES IDX 75 14 95 15 76 16 93 17 94 18 77 19 78 20 79 22 80 23 81 24
REMARK SMILES IDX 82 25 86 26 83 27 85 28 84 29 87 30 88 31 92 32 89 33 91 34
REMARK SMILES IDX 90 35 11 36 12 37 13 38 14 39 15 40 16 41 17 42 18 43 19 44
REMARK SMILES IDX 71 45 20 46 70 47 21 48 22 49 23 50 64 51 24 52 69 53 63 54
REMARK SMILES IDX 65 55 25 56 68 57 62 58 61 59 26 61 52 62 35 63 51 64 36 65
REMARK SMILES IDX 39 66 50 67 66 68 37 69 38 70 49 72 67 73 40 74 27 75 28 76
REMARK SMILES IDX 33 77 29 78 30 79 32 80 34 81 31 82 53 83 54 84 59 85 55 86
REMARK SMILES IDX 56 87 58 88 60 89 57 90 41 91 42 92 47 93 43 94 44 95 46 96
REMARK SMILES IDX 48 97 45 98
REMARK H PARENT 77 21 65 60 39 71
REMARK Flexibility Score: inf
ROOT
ATOM      1  C   UNL     1      -3.045  -0.546   1.700  1.00  0.00     0.188 C 
ENDROOT
BRANCH   1   2
ATOM      2  O   UNL     1      -3.551  -1.465   2.662  1.00  0.00    -0.376 OA
BRANCH   2   3
ATOM      3  C   UNL     1      -3.726  -1.115   4.027  1.00  0.00     0.202 C 
BRANCH   3   4
ATOM      4  C   UNL     1      -2.568  -0.575   4.879  1.00  0.00     0.261 C 
BRANCH   4   5
ATOM      5  O   UNL     1      -1.756   0.389   4.232  1.00  0.00    -0.457 OA
BRANCH   5   6
ATOM      6  C   UNL     1      -0.613  -0.066   3.636  1.00  0.00     0.374 C 
ATOM      7  O   UNL     1      -0.173  -1.189   3.704  1.00  0.00    -0.242 OA
BRANCH   6   8
ATOM      8  C   UNL     1      -0.129   1.010   2.801  1.00  0.00     0.215 A 
ATOM      9  C   UNL     1       1.005  -0.099   0.752  1.00  0.00     0.049 C 
ATOM     10  C   UNL     1       0.553   1.044   1.584  1.00  0.00     0.012 A 
ATOM     11  C   UNL     1       0.709   2.429   1.288  1.00  0.00     0.043 A 
ATOM     12  O   UNL     1      -0.479   2.271   3.186  1.00  0.00    -0.453 OA
ATOM     13  C   UNL     1      -0.014   3.102   2.253  1.00  0.00     0.114 A 
ATOM     14  C   UNL     1       1.460   3.198   0.297  1.00  0.00     0.072 C 
ATOM     15  C   UNL     1      -0.258   4.547   2.440  1.00  0.00     0.076 C 
ATOM     16  N   UNL     1       1.942   2.532  -0.708  1.00  0.00    -0.177 NA
ATOM     17  C   UNL     1       1.587   4.624   0.773  1.00  0.00     0.059 C 
ATOM     18  C   UNL     1       0.276   5.272   1.215  1.00  0.00     0.014 C 
BRANCH  16  19
ATOM     19  N   UNL     1       2.756   2.799  -1.776  1.00  0.00    -0.246 N 
ATOM     20  C   UNL     1       3.538   3.805  -2.308  1.00  0.00     0.252 C 
ATOM     21  H   UNL     1       2.798   2.009  -2.361  1.00  0.00     0.193 HD
ATOM     22  O   UNL     1       4.166   3.528  -3.344  1.00  0.00    -0.272 OA
BRANCH  20  23
ATOM     23  C   UNL     1       3.672   5.219  -1.709  1.00  0.00     0.140 C 
BRANCH  23  24
ATOM     24  C   UNL     1       2.309   5.969  -1.968  1.00  0.00    -0.031 A 
ATOM     25  C   UNL     1       2.023   7.253  -1.480  1.00  0.00     0.005 A 
ATOM     26  C   UNL     1       1.242   5.314  -2.644  1.00  0.00     0.005 A 
ATOM     27  C   UNL     1       0.708   7.759  -1.503  1.00  0.00     0.000 A 
ATOM     28  C   UNL     1      -0.064   5.808  -2.657  1.00  0.00     0.000 A 
ATOM     29  C   UNL     1      -0.338   7.023  -2.058  1.00  0.00     0.000 A 
ENDBRANCH  23  24
BRANCH  23  30
ATOM     30  C   UNL     1       4.348   5.069  -0.295  1.00  0.00    -0.031 A 
ATOM     31  C   UNL     1       4.956   3.833   0.057  1.00  0.00     0.005 A 
ATOM     32  C   UNL     1       4.329   6.044   0.715  1.00  0.00     0.005 A 
ATOM     33  C   UNL     1       5.251   3.489   1.377  1.00  0.00     0.000 A 
ATOM     34  C   UNL     1       4.656   5.709   2.046  1.00  0.00     0.000 A 
ATOM     35  C   UNL     1       5.059   4.418   2.384  1.00  0.00     0.000 A 
ENDBRANCH  23  30
ENDBRANCH  20  23
ENDBRANCH  16  19
ENDBRANCH   6   8
ENDBRANCH   5   6
ENDBRANCH   4   5
ENDBRANCH   3   4
ENDBRANCH   2   3
ENDBRANCH   1   2
BRANCH   1  36
ATOM     36  C   UNL     1      -3.423   0.953   1.698  1.00  0.00     0.188 C 
BRANCH  36  37
ATOM     37  O   UNL     1      -4.133   1.383   2.833  1.00  0.00    -0.376 OA
BRANCH  37  38
ATOM     38  C   UNL     1      -5.532   1.589   2.773  1.00  0.00     0.202 C 
BRANCH  38  39
ATOM     39  C   UNL     1      -6.480   0.823   1.846  1.00  0.00     0.261 C 
BRANCH  39  40
ATOM     40  O   UNL     1      -5.911  -0.141   0.980  1.00  0.00    -0.460 OA
BRANCH  40  41
ATOM     41  C   UNL     1      -5.760   0.274  -0.296  1.00  0.00     0.338 C 
ATOM     42  O   UNL     1      -5.766   1.424  -0.702  1.00  0.00    -0.246 OA
BRANCH  41  43
ATOM     43  C   UNL     1      -5.680  -0.898  -1.174  1.00  0.00     0.060 A 
ATOM     44  C   UNL     1      -5.248  -0.690  -2.485  1.00  0.00     0.016 A 
ATOM     45  C   UNL     1      -6.253  -2.112  -0.766  1.00  0.00     0.016 A 
ATOM     46  C   UNL     1      -5.558  -1.640  -3.435  1.00  0.00     0.010 A 
ATOM     47  C   UNL     1      -6.564  -3.058  -1.717  1.00  0.00     0.010 A 
ATOM     48  C   UNL     1      -6.290  -2.771  -3.051  1.00  0.00    -0.014 A 
BRANCH  48  49
ATOM     49  C   UNL     1      -6.768  -3.646  -4.102  1.00  0.00     0.031 A 
ATOM     50  C   UNL     1      -5.710  -4.403  -4.801  1.00  0.00     0.074 A 
ATOM     51  C   UNL     1      -8.076  -3.787  -4.385  1.00  0.00     0.049 A 
ATOM     52  N   UNL     1      -5.342  -4.287  -6.032  1.00  0.00    -0.248 NA
ATOM     53  C   UNL     1      -4.886  -5.318  -4.000  1.00  0.00     0.031 C 
ATOM     54  C   UNL     1      -9.222  -3.292  -3.615  1.00  0.00     0.029 A 
ATOM     55  N   UNL     1      -8.658  -4.487  -5.399  1.00  0.00    -0.354 N 
ATOM     56  C   UNL     1      -4.362  -5.253  -6.219  1.00  0.00     0.074 A 
ATOM     57  C   UNL     1      -4.021  -5.757  -4.914  1.00  0.00     0.031 C 
ATOM     58  C   UNL     1     -10.351  -3.877  -4.073  1.00  0.00     0.029 A 
ATOM     59  C   UNL     1     -10.023  -4.667  -5.248  1.00  0.00     0.049 A 
ATOM     60  H   UNL     1      -8.153  -4.834  -6.169  1.00  0.00     0.167 HD
ATOM     61  C   UNL     1      -4.087  -5.740  -7.457  1.00  0.00     0.037 A 
ATOM     62  C   UNL     1     -10.822  -5.447  -6.012  1.00  0.00     0.037 A 
ATOM     63  C   UNL     1      -4.586  -4.877  -8.494  1.00  0.00     0.049 A 
ATOM     64  C   UNL     1     -10.152  -5.643  -7.316  1.00  0.00     0.074 A 
ATOM     65  C   UNL     1      -4.295  -3.610  -8.953  1.00  0.00     0.029 A 
ATOM     66  N   UNL     1      -5.806  -5.216  -9.019  1.00  0.00    -0.354 N 
ATOM     67  N   UNL     1      -9.978  -4.695  -8.193  1.00  0.00    -0.248 NA
ATOM     68  C   UNL     1      -9.348  -6.839  -7.528  1.00  0.00     0.031 C 
ATOM     69  C   UNL     1      -5.522  -3.095  -9.466  1.00  0.00     0.029 A 
ATOM     70  C   UNL     1      -6.504  -4.074  -9.311  1.00  0.00     0.049 A 
ATOM     71  H   UNL     1      -6.129  -6.134  -9.163  1.00  0.00     0.167 HD
ATOM     72  C   UNL     1      -8.764  -4.990  -8.790  1.00  0.00     0.074 A 
ATOM     73  C   UNL     1      -8.517  -6.390  -8.473  1.00  0.00     0.031 C 
ATOM     74  C   UNL     1      -7.946  -3.990  -9.231  1.00  0.00     0.037 A 
BRANCH  61  75
ATOM     75  C   UNL     1      -3.764  -7.189  -7.721  1.00  0.00     0.057 A 
ATOM     76  C   UNL     1      -3.316  -7.573  -8.996  1.00  0.00     0.134 A 
ATOM     77  C   UNL     1      -4.174  -8.246  -6.881  1.00  0.00     0.134 A 
ATOM     78  F   UNL     1      -2.931  -6.654  -9.895  1.00  0.00    -0.206 F 
ATOM     79  C   UNL     1      -3.331  -8.906  -9.423  1.00  0.00     0.040 A 
ATOM     80  C   UNL     1      -4.143  -9.584  -7.279  1.00  0.00     0.040 A 
ATOM     81  F   UNL     1      -4.725  -8.034  -5.680  1.00  0.00    -0.206 F 
ATOM     82  C   UNL     1      -3.749  -9.916  -8.565  1.00  0.00     0.006 A 
ENDBRANCH  61  75
BRANCH  62  83
ATOM     83  C   UNL     1     -12.012  -6.218  -5.599  1.00  0.00     0.057 A 
ATOM     84  C   UNL     1     -12.946  -6.681  -6.534  1.00  0.00     0.134 A 
ATOM     85  C   UNL     1     -12.118  -6.747  -4.301  1.00  0.00     0.134 A 
ATOM     86  F   UNL     1     -12.899  -6.264  -7.808  1.00  0.00    -0.206 F 
ATOM     87  C   UNL     1     -13.917  -7.635  -6.203  1.00  0.00     0.040 A 
ATOM     88  C   UNL     1     -13.086  -7.694  -3.955  1.00  0.00     0.040 A 
ATOM     89  F   UNL     1     -11.229  -6.429  -3.348  1.00  0.00    -0.206 F 
ATOM     90  C   UNL     1     -13.982  -8.152  -4.913  1.00  0.00     0.006 A 
ENDBRANCH  62  83
BRANCH  74  91
ATOM     91  C   UNL     1      -8.570  -2.638  -9.417  1.00  0.00     0.057 A 
ATOM     92  C   UNL     1      -9.045  -1.841  -8.366  1.00  0.00     0.134 A 
ATOM     93  C   UNL     1      -8.609  -2.085 -10.701  1.00  0.00     0.134 A 
ATOM     94  F   UNL     1      -8.964  -2.252  -7.094  1.00  0.00    -0.206 F 
ATOM     95  C   UNL     1      -9.582  -0.570  -8.591  1.00  0.00     0.040 A 
ATOM     96  C   UNL     1      -9.112  -0.804 -10.935  1.00  0.00     0.040 A 
ATOM     97  F   UNL     1      -8.121  -2.771 -11.747  1.00  0.00    -0.206 F 
ATOM     98  C   UNL     1      -9.613  -0.046  -9.880  1.00  0.00     0.006 A 
ENDBRANCH  74  91
ENDBRANCH  48  49
ENDBRANCH  41  43
ENDBRANCH  40  41
ENDBRANCH  39  40
ENDBRANCH  38  39
ENDBRANCH  37  38
ENDBRANCH  36  37
ENDBRANCH   1  36
TORSDOF 21
