REMARK SMILES CC1(C)[C@H](C(=O)Nc2ccc(C(F)(F)F)nc2)[C@@H]1C(=O)OCCOCCOCCOC(=O)c1ccc(-c2c3nc(c(-c4c(F)cccc4F)c4ccc([nH]4)c(-c4c(F)cccc4F)c4nc(c(-c5c(F)cccc5F)c5ccc2[nH]5)C=C4)C=C3)cc1
REMARK SMILES IDX 25 1 24 2 23 3 22 4 21 5 19 6 20 7 18 8 1 9 2 10 3 11 4 12
REMARK SMILES IDX 5 13 6 14 7 15 8 17 9 18 17 19 10 20 16 21 11 22 12 23 13 24
REMARK SMILES IDX 14 25 15 26 26 27 27 28 28 29 29 30 30 31 31 32 32 33 33 34
REMARK SMILES IDX 34 35 86 36 35 37 85 38 36 39 37 40 38 41 79 42 39 43 84 44
REMARK SMILES IDX 78 45 80 46 40 47 83 48 77 49 76 50 41 52 67 53 50 54 66 55
REMARK SMILES IDX 51 56 54 57 65 58 81 59 52 60 53 61 64 63 82 64 55 65 42 66
REMARK SMILES IDX 43 67 48 68 44 69 45 70 47 71 49 72 46 73 68 74 69 75 74 76
REMARK SMILES IDX 70 77 71 78 73 79 75 80 72 81 56 82 57 83 62 84 58 85 59 86
REMARK SMILES IDX 61 87 63 88 60 89
REMARK H PARENT 7 16 80 51 54 62
REMARK Flexibility Score: inf
ROOT
ATOM      1  C   UNL     1      -2.260   0.433   3.843  1.00  0.00     0.188 C 
ENDROOT
BRANCH   1   2
ATOM      2  O   UNL     1      -2.548   1.687   4.435  1.00  0.00    -0.376 OA
BRANCH   2   3
ATOM      3  C   UNL     1      -3.085   2.732   3.643  1.00  0.00     0.202 C 
BRANCH   3   4
ATOM      4  C   UNL     1      -2.508   3.047   2.261  1.00  0.00     0.261 C 
BRANCH   4   5
ATOM      5  O   UNL     1      -2.244   1.949   1.374  1.00  0.00    -0.463 OA
BRANCH   5   6
ATOM      6  C   UNL     1      -0.938   1.600   1.226  1.00  0.00     0.310 C 
ATOM      7  O   UNL     1       0.007   2.084   1.848  1.00  0.00    -0.252 OA
BRANCH   6   8
ATOM      8  C   UNL     1      -0.794   0.394   0.392  1.00  0.00     0.118 C 
ATOM      9  C   UNL     1       0.736  -1.548  -0.363  1.00  0.00     0.013 C 
ATOM     10  C   UNL     1       0.442  -0.057  -0.381  1.00  0.00    -0.009 C 
ATOM     11  C   UNL     1       1.716   0.739  -0.346  1.00  0.00     0.013 C 
ATOM     12  C   UNL     1      -0.840   0.374  -1.104  1.00  0.00     0.100 C 
BRANCH  12  13
ATOM     13  C   UNL     1      -1.058   1.481  -2.094  1.00  0.00     0.228 C 
ATOM     14  O   UNL     1      -1.207   1.143  -3.268  1.00  0.00    -0.274 OA
ATOM     15  N   UNL     1      -1.473   2.740  -1.722  1.00  0.00    -0.324 N 
ATOM     16  H   UNL     1      -2.379   2.997  -2.009  1.00  0.00     0.169 HD
BRANCH  15  17
ATOM     17  C   UNL     1      -0.769   3.702  -0.988  1.00  0.00     0.059 A 
ATOM     18  C   UNL     1       0.605   3.665  -0.846  1.00  0.00     0.030 A 
ATOM     19  C   UNL     1      -1.448   4.700  -0.307  1.00  0.00     0.137 A 
ATOM     20  C   UNL     1       1.207   4.371   0.193  1.00  0.00     0.035 A 
ATOM     21  N   UNL     1      -0.897   5.413   0.706  1.00  0.00    -0.250 NA
ATOM     22  C   UNL     1       0.404   5.138   1.032  1.00  0.00     0.144 A 
BRANCH  22  23
ATOM     23  C   UNL     1       0.933   5.524   2.411  1.00  0.00     0.433 C 
ATOM     24  F   UNL     1       1.259   6.843   2.514  1.00  0.00    -0.165 F 
ATOM     25  F   UNL     1       0.039   5.279   3.415  1.00  0.00    -0.165 F 
ATOM     26  F   UNL     1       2.065   4.841   2.766  1.00  0.00    -0.165 F 
ENDBRANCH  22  23
ENDBRANCH  15  17
ENDBRANCH  12  13
ENDBRANCH   6   8
ENDBRANCH   5   6
ENDBRANCH   4   5
ENDBRANCH   3   4
ENDBRANCH   2   3
ENDBRANCH   1   2
BRANCH   1  27
ATOM     27  C   UNL     1      -3.335  -0.286   3.000  1.00  0.00     0.188 C 
BRANCH  27  28
ATOM     28  O   UNL     1      -4.487   0.474   2.735  1.00  0.00    -0.376 OA
BRANCH  28  29
ATOM     29  C   UNL     1      -5.601   0.365   3.603  1.00  0.00     0.202 C 
BRANCH  29  30
ATOM     30  C   UNL     1      -5.554  -0.157   5.059  1.00  0.00     0.261 C 
BRANCH  30  31
ATOM     31  O   UNL     1      -4.315  -0.651   5.585  1.00  0.00    -0.460 OA
BRANCH  31  32
ATOM     32  C   UNL     1      -4.148  -1.996   5.587  1.00  0.00     0.338 C 
ATOM     33  O   UNL     1      -4.924  -2.832   5.160  1.00  0.00    -0.246 OA
BRANCH  32  34
ATOM     34  C   UNL     1      -2.759  -2.311   5.993  1.00  0.00     0.060 A 
ATOM     35  C   UNL     1      -1.914  -2.935   5.062  1.00  0.00     0.016 A 
ATOM     36  C   UNL     1      -2.290  -2.001   7.271  1.00  0.00     0.016 A 
ATOM     37  C   UNL     1      -0.611  -3.286   5.420  1.00  0.00     0.010 A 
ATOM     38  C   UNL     1      -0.992  -2.381   7.637  1.00  0.00     0.010 A 
ATOM     39  C   UNL     1      -0.160  -3.059   6.726  1.00  0.00    -0.014 A 
BRANCH  39  40
ATOM     40  C   UNL     1       1.077  -3.734   7.198  1.00  0.00     0.031 A 
ATOM     41  C   UNL     1       0.935  -5.039   7.938  1.00  0.00     0.074 A 
ATOM     42  C   UNL     1       2.302  -3.237   6.950  1.00  0.00     0.049 A 
ATOM     43  N   UNL     1       1.855  -5.805   8.465  1.00  0.00    -0.248 NA
ATOM     44  C   UNL     1      -0.438  -5.545   8.106  1.00  0.00     0.031 C 
ATOM     45  C   UNL     1       2.585  -2.010   6.209  1.00  0.00     0.029 A 
ATOM     46  N   UNL     1       3.542  -3.710   7.306  1.00  0.00    -0.354 N 
ATOM     47  C   UNL     1       1.175  -6.877   9.030  1.00  0.00     0.074 A 
ATOM     48  C   UNL     1      -0.236  -6.646   8.812  1.00  0.00     0.031 C 
ATOM     49  C   UNL     1       3.917  -1.820   6.177  1.00  0.00     0.029 A 
ATOM     50  C   UNL     1       4.577  -2.895   6.918  1.00  0.00     0.049 A 
ATOM     51  H   UNL     1       3.675  -4.555   7.795  1.00  0.00     0.167 HD
ATOM     52  C   UNL     1       1.677  -7.961   9.666  1.00  0.00     0.037 A 
ATOM     53  C   UNL     1       5.901  -2.997   7.151  1.00  0.00     0.037 A 
ATOM     54  C   UNL     1       3.079  -8.191   9.891  1.00  0.00     0.049 A 
ATOM     55  C   UNL     1       6.432  -4.176   7.929  1.00  0.00     0.074 A 
ATOM     56  C   UNL     1       3.687  -9.267  10.515  1.00  0.00     0.029 A 
ATOM     57  N   UNL     1       4.093  -7.326   9.509  1.00  0.00    -0.354 N 
ATOM     58  N   UNL     1       5.783  -5.197   8.435  1.00  0.00    -0.248 NA
ATOM     59  C   UNL     1       7.884  -4.217   8.162  1.00  0.00     0.031 C 
ATOM     60  C   UNL     1       5.063  -9.025  10.561  1.00  0.00     0.029 A 
ATOM     61  C   UNL     1       5.320  -7.831   9.907  1.00  0.00     0.049 A 
ATOM     62  H   UNL     1       3.960  -6.478   9.027  1.00  0.00     0.167 HD
ATOM     63  C   UNL     1       6.748  -6.018   9.010  1.00  0.00     0.074 A 
ATOM     64  C   UNL     1       8.028  -5.380   8.782  1.00  0.00     0.031 C 
ATOM     65  C   UNL     1       6.590  -7.195   9.663  1.00  0.00     0.037 A 
BRANCH  52  66
ATOM     66  C   UNL     1       0.695  -8.969  10.192  1.00  0.00     0.057 A 
ATOM     67  C   UNL     1      -0.046  -9.798   9.340  1.00  0.00     0.134 A 
ATOM     68  C   UNL     1       0.509  -9.128  11.571  1.00  0.00     0.134 A 
ATOM     69  F   UNL     1       0.072  -9.686   8.008  1.00  0.00    -0.206 F 
ATOM     70  C   UNL     1      -0.956 -10.732   9.840  1.00  0.00     0.040 A 
ATOM     71  C   UNL     1      -0.376 -10.078  12.083  1.00  0.00     0.040 A 
ATOM     72  F   UNL     1       1.189  -8.369  12.443  1.00  0.00    -0.206 F 
ATOM     73  C   UNL     1      -1.117 -10.879  11.216  1.00  0.00     0.006 A 
ENDBRANCH  52  66
BRANCH  53  74
ATOM     74  C   UNL     1       6.830  -1.949   6.654  1.00  0.00     0.057 A 
ATOM     75  C   UNL     1       7.772  -2.224   5.654  1.00  0.00     0.134 A 
ATOM     76  C   UNL     1       6.826  -0.656   7.193  1.00  0.00     0.134 A 
ATOM     77  F   UNL     1       7.847  -3.451   5.118  1.00  0.00    -0.206 F 
ATOM     78  C   UNL     1       8.687  -1.261   5.224  1.00  0.00     0.040 A 
ATOM     79  C   UNL     1       7.715   0.325   6.752  1.00  0.00     0.040 A 
ATOM     80  F   UNL     1       5.954  -0.328   8.158  1.00  0.00    -0.206 F 
ATOM     81  C   UNL     1       8.655   0.021   5.769  1.00  0.00     0.006 A 
ENDBRANCH  53  74
BRANCH  65  82
ATOM     82  C   UNL     1       7.830  -7.904  10.132  1.00  0.00     0.057 A 
ATOM     83  C   UNL     1       8.609  -7.426  11.192  1.00  0.00     0.134 A 
ATOM     84  C   UNL     1       8.226  -9.109   9.534  1.00  0.00     0.134 A 
ATOM     85  F   UNL     1       8.293  -6.274  11.803  1.00  0.00    -0.206 F 
ATOM     86  C   UNL     1       9.753  -8.103  11.622  1.00  0.00     0.040 A 
ATOM     87  C   UNL     1       9.348  -9.812   9.975  1.00  0.00     0.040 A 
ATOM     88  F   UNL     1       7.519  -9.633   8.521  1.00  0.00    -0.206 F 
ATOM     89  C   UNL     1      10.121  -9.304  11.017  1.00  0.00     0.006 A 
ENDBRANCH  65  82
ENDBRANCH  39  40
ENDBRANCH  32  34
ENDBRANCH  31  32
ENDBRANCH  30  31
ENDBRANCH  29  30
ENDBRANCH  28  29
ENDBRANCH  27  28
ENDBRANCH   1  27
TORSDOF 20
