REMARK SMILES C[C@H](C(=O)OCCOCCOCCOC(=O)c1ccc(-c2c3nc(c(-c4c(F)cccc4F)c4ccc([nH]4)c(-c4c(F)cccc4F)c4nc(c(-c5c(F)cccc5F)c5ccc2[nH]5)C=C4)C=C3)cc1)c1ccc2c(c1)[nH]c1ccc(Cl)cc12
REMARK SMILES IDX 10 1 9 2 8 3 7 4 6 5 5 6 3 7 4 8 2 9 1 10 71 11 72 12 76 13
REMARK SMILES IDX 73 14 75 15 74 16 77 17 84 18 78 19 83 21 79 22 81 23 80 24
REMARK SMILES IDX 82 25 11 26 12 27 13 28 14 29 15 30 16 31 17 32 18 33 70 34
REMARK SMILES IDX 19 35 69 36 20 37 21 38 22 39 63 40 23 41 68 42 62 43 64 44
REMARK SMILES IDX 24 45 67 46 61 47 60 48 25 50 51 51 34 52 50 53 35 54 38 55
REMARK SMILES IDX 49 56 65 57 36 58 37 59 48 61 66 62 39 63 26 64 27 65 32 66
REMARK SMILES IDX 28 67 29 68 31 69 33 70 30 71 52 72 53 73 58 74 54 75 55 76
REMARK SMILES IDX 57 77 59 78 56 79 40 80 41 81 46 82 42 83 43 84 45 85 47 86
REMARK SMILES IDX 44 87
REMARK H PARENT 77 20 64 49 38 60
REMARK Flexibility Score: inf
ROOT
ATOM      1  C   UNL     1      -0.851   0.509  -1.562  1.00  0.00     0.188 C 
ENDROOT
BRANCH   1   2
ATOM      2  C   UNL     1       0.402   1.398  -1.532  1.00  0.00     0.188 C 
BRANCH   2   3
ATOM      3  O   UNL     1       1.551   1.035  -2.296  1.00  0.00    -0.376 OA
BRANCH   3   4
ATOM      4  C   UNL     1       1.776  -0.339  -2.580  1.00  0.00     0.202 C 
BRANCH   4   5
ATOM      5  C   UNL     1       2.104  -1.230  -1.378  1.00  0.00     0.261 C 
BRANCH   5   6
ATOM      6  O   UNL     1       1.166  -1.107  -0.285  1.00  0.00    -0.463 OA
BRANCH   6   7
ATOM      7  C   UNL     1       1.695  -0.844   0.933  1.00  0.00     0.313 C 
ATOM      8  O   UNL     1       2.905  -0.816   1.150  1.00  0.00    -0.252 OA
BRANCH   7   9
ATOM      9  C   UNL     1       0.695  -0.529   2.047  1.00  0.00     0.126 C 
ATOM     10  C   UNL     1       1.020   0.877   2.578  1.00  0.00     0.025 C 
BRANCH   9  11
ATOM     11  C   UNL     1      -0.809  -0.770   1.843  1.00  0.00    -0.032 A 
ATOM     12  C   UNL     1      -1.743   0.279   1.764  1.00  0.00     0.005 A 
ATOM     13  C   UNL     1      -1.300  -2.090   1.899  1.00  0.00     0.031 A 
ATOM     14  C   UNL     1      -3.132   0.051   1.725  1.00  0.00     0.011 A 
ATOM     15  C   UNL     1      -2.691  -2.293   1.965  1.00  0.00     0.047 A 
ATOM     16  C   UNL     1      -3.619  -1.261   1.856  1.00  0.00     0.007 A 
ATOM     17  N   UNL     1      -3.409  -3.446   2.193  1.00  0.00    -0.355 N 
ATOM     18  C   UNL     1      -4.929  -1.834   1.971  1.00  0.00     0.009 A 
ATOM     19  C   UNL     1      -4.755  -3.178   2.300  1.00  0.00     0.047 A 
ATOM     20  H   UNL     1      -3.012  -4.343   2.269  1.00  0.00     0.167 HD
ATOM     21  C   UNL     1      -6.245  -1.324   1.897  1.00  0.00     0.031 A 
ATOM     22  C   UNL     1      -5.818  -4.015   2.666  1.00  0.00     0.028 A 
ATOM     23  C   UNL     1      -7.317  -2.163   2.221  1.00  0.00     0.041 A 
ATOM     24  C   UNL     1      -7.107  -3.476   2.632  1.00  0.00     0.022 A 
ATOM     25  Cl  UNL     1      -8.928  -1.556   2.126  1.00  0.00    -0.084 Cl
ENDBRANCH   9  11
ENDBRANCH   7   9
ENDBRANCH   6   7
ENDBRANCH   5   6
ENDBRANCH   4   5
ENDBRANCH   3   4
ENDBRANCH   2   3
ENDBRANCH   1   2
BRANCH   1  26
ATOM     26  O   UNL     1      -1.050  -0.088  -2.832  1.00  0.00    -0.376 OA
BRANCH  26  27
ATOM     27  C   UNL     1      -2.385  -0.039  -3.302  1.00  0.00     0.202 C 
BRANCH  27  28
ATOM     28  C   UNL     1      -2.614   1.265  -4.068  1.00  0.00     0.261 C 
BRANCH  28  29
ATOM     29  O   UNL     1      -2.310   2.459  -3.318  1.00  0.00    -0.460 OA
BRANCH  29  30
ATOM     30  C   UNL     1      -3.169   2.784  -2.325  1.00  0.00     0.338 C 
ATOM     31  O   UNL     1      -4.180   2.187  -2.006  1.00  0.00    -0.246 OA
BRANCH  30  32
ATOM     32  C   UNL     1      -2.586   3.901  -1.550  1.00  0.00     0.060 A 
ATOM     33  C   UNL     1      -2.362   3.727  -0.179  1.00  0.00     0.016 A 
ATOM     34  C   UNL     1      -2.298   5.123  -2.158  1.00  0.00     0.016 A 
ATOM     35  C   UNL     1      -1.872   4.781   0.597  1.00  0.00     0.010 A 
ATOM     36  C   UNL     1      -1.829   6.186  -1.377  1.00  0.00     0.010 A 
ATOM     37  C   UNL     1      -1.640   6.031   0.009  1.00  0.00    -0.014 A 
BRANCH  37  38
ATOM     38  C   UNL     1      -1.381   7.224   0.855  1.00  0.00     0.031 A 
ATOM     39  C   UNL     1      -2.522   8.163   1.142  1.00  0.00     0.074 A 
ATOM     40  C   UNL     1      -0.162   7.480   1.365  1.00  0.00     0.049 A 
ATOM     41  N   UNL     1      -2.515   9.325   1.744  1.00  0.00    -0.248 NA
ATOM     42  C   UNL     1      -3.851   7.729   0.683  1.00  0.00     0.031 C 
ATOM     43  C   UNL     1       1.016   6.630   1.216  1.00  0.00     0.029 A 
ATOM     44  N   UNL     1       0.285   8.551   2.102  1.00  0.00    -0.354 N 
ATOM     45  C   UNL     1      -3.832   9.768   1.721  1.00  0.00     0.074 A 
ATOM     46  C   UNL     1      -4.606   8.761   1.027  1.00  0.00     0.031 C 
ATOM     47  C   UNL     1       2.059   7.222   1.824  1.00  0.00     0.029 A 
ATOM     48  C   UNL     1       1.632   8.511   2.367  1.00  0.00     0.049 A 
ATOM     49  H   UNL     1      -0.304   9.277   2.410  1.00  0.00     0.167 HD
ATOM     50  C   UNL     1      -4.353  10.908   2.235  1.00  0.00     0.037 A 
ATOM     51  C   UNL     1       2.434   9.426   2.948  1.00  0.00     0.037 A 
ATOM     52  C   UNL     1      -3.586  11.911   2.925  1.00  0.00     0.049 A 
ATOM     53  C   UNL     1       1.850  10.727   3.436  1.00  0.00     0.074 A 
ATOM     54  C   UNL     1      -4.025  13.100   3.481  1.00  0.00     0.029 A 
ATOM     55  N   UNL     1      -2.220  11.845   3.150  1.00  0.00    -0.354 N 
ATOM     56  N   UNL     1       0.605  11.140   3.408  1.00  0.00    -0.248 NA
ATOM     57  C   UNL     1       2.784  11.693   4.035  1.00  0.00     0.031 C 
ATOM     58  C   UNL     1      -2.916  13.776   4.001  1.00  0.00     0.029 A 
ATOM     59  C   UNL     1      -1.795  12.981   3.817  1.00  0.00     0.049 A 
ATOM     60  H   UNL     1      -1.637  11.100   2.875  1.00  0.00     0.167 HD
ATOM     61  C   UNL     1       0.604  12.394   4.009  1.00  0.00     0.074 A 
ATOM     62  C   UNL     1       1.968  12.671   4.403  1.00  0.00     0.031 C 
ATOM     63  C   UNL     1      -0.435  13.241   4.216  1.00  0.00     0.037 A 
BRANCH  50  64
ATOM     64  C   UNL     1      -5.822  11.144   2.038  1.00  0.00     0.057 A 
ATOM     65  C   UNL     1      -6.791  10.402   2.726  1.00  0.00     0.134 A 
ATOM     66  C   UNL     1      -6.271  12.144   1.166  1.00  0.00     0.134 A 
ATOM     67  F   UNL     1      -6.427   9.419   3.563  1.00  0.00    -0.206 F 
ATOM     68  C   UNL     1      -8.155  10.631   2.535  1.00  0.00     0.040 A 
ATOM     69  C   UNL     1      -7.631  12.400   0.988  1.00  0.00     0.040 A 
ATOM     70  F   UNL     1      -5.396  12.893   0.479  1.00  0.00    -0.206 F 
ATOM     71  C   UNL     1      -8.578  11.637   1.669  1.00  0.00     0.006 A 
ENDBRANCH  50  64
BRANCH  51  72
ATOM     72  C   UNL     1       3.893   9.168   3.074  1.00  0.00     0.057 A 
ATOM     73  C   UNL     1       4.495   8.985   4.324  1.00  0.00     0.134 A 
ATOM     74  C   UNL     1       4.726   9.138   1.948  1.00  0.00     0.134 A 
ATOM     75  F   UNL     1       3.756   9.034   5.442  1.00  0.00    -0.206 F 
ATOM     76  C   UNL     1       5.873   8.799   4.453  1.00  0.00     0.040 A 
ATOM     77  C   UNL     1       6.101   8.924   2.060  1.00  0.00     0.040 A 
ATOM     78  F   UNL     1       4.214   9.312   0.721  1.00  0.00    -0.206 F 
ATOM     79  C   UNL     1       6.679   8.762   3.317  1.00  0.00     0.006 A 
ENDBRANCH  51  72
BRANCH  63  80
ATOM     80  C   UNL     1      -0.151  14.525   4.941  1.00  0.00     0.057 A 
ATOM     81  C   UNL     1       0.551  15.578   4.341  1.00  0.00     0.134 A 
ATOM     82  C   UNL     1      -0.629  14.728   6.243  1.00  0.00     0.134 A 
ATOM     83  F   UNL     1       1.046  15.446   3.101  1.00  0.00    -0.206 F 
ATOM     84  C   UNL     1       0.788  16.777   5.018  1.00  0.00     0.040 A 
ATOM     85  C   UNL     1      -0.423  15.931   6.919  1.00  0.00     0.040 A 
ATOM     86  F   UNL     1      -1.319  13.765   6.873  1.00  0.00    -0.206 F 
ATOM     87  C   UNL     1       0.293  16.958   6.308  1.00  0.00     0.006 A 
ENDBRANCH  63  80
ENDBRANCH  37  38
ENDBRANCH  30  32
ENDBRANCH  29  30
ENDBRANCH  28  29
ENDBRANCH  27  28
ENDBRANCH  26  27
ENDBRANCH   1  26
TORSDOF 18
