REMARK SMILES C[C@](NC(=O)CSCc1cccs1)(C(=O)OCCOCCOCCOC(=O)c1ccc(-c2c3nc(c(-c4c(F)cccc4F)c4ccc([nH]4)c(-c4c(F)cccc4F)c4nc(c(-c5c(F)cccc5F)c5ccc2[nH]5)C=C4)C=C3)cc1)C(F)(F)F
REMARK SMILES IDX 19 1 18 2 17 3 16 4 14 5 15 6 2 7 1 8 82 9 83 10 84 11 85 12
REMARK SMILES IDX 3 13 4 14 5 16 6 17 7 18 8 19 9 20 10 21 13 22 11 23 12 24
REMARK SMILES IDX 20 25 21 26 22 27 23 28 24 29 25 30 26 31 27 32 28 33 29 34
REMARK SMILES IDX 81 35 30 36 80 37 31 38 32 39 33 40 74 41 34 42 79 43 73 44
REMARK SMILES IDX 75 45 35 46 78 47 72 48 71 49 36 51 62 52 45 53 61 54 46 55
REMARK SMILES IDX 49 56 60 57 76 58 47 59 48 60 59 62 77 63 50 64 37 65 38 66
REMARK SMILES IDX 43 67 39 68 40 69 42 70 44 71 41 72 63 73 64 74 69 75 65 76
REMARK SMILES IDX 66 77 68 78 70 79 67 80 51 81 52 82 57 83 53 84 54 85 56 86
REMARK SMILES IDX 58 87 55 88
REMARK H PARENT 3 15 75 50 49 61
REMARK Flexibility Score: inf
ROOT
ATOM      1  O   UNL     1      -3.582   1.496  -0.919  1.00  0.00    -0.376 OA
ENDROOT
BRANCH   1   2
ATOM      2  C   UNL     1      -3.839   0.104  -1.053  1.00  0.00     0.202 C 
BRANCH   2   3
ATOM      3  C   UNL     1      -2.859  -0.780  -1.851  1.00  0.00     0.261 C 
BRANCH   3   4
ATOM      4  O   UNL     1      -1.451  -0.597  -1.570  1.00  0.00    -0.461 OA
BRANCH   4   5
ATOM      5  C   UNL     1      -0.643  -0.292  -2.626  1.00  0.00     0.341 C 
ATOM      6  O   UNL     1      -1.061  -0.163  -3.772  1.00  0.00    -0.249 OA
BRANCH   5   7
ATOM      7  C   UNL     1       0.848  -0.102  -2.261  1.00  0.00     0.231 C 
ATOM      8  C   UNL     1       1.690  -0.887  -3.272  1.00  0.00     0.058 C 
BRANCH   7   9
ATOM      9  C   UNL     1       1.100   1.404  -2.520  1.00  0.00     0.422 C 
ATOM     10  F   UNL     1       0.509   2.168  -1.566  1.00  0.00    -0.168 F 
ATOM     11  F   UNL     1       2.429   1.677  -2.430  1.00  0.00    -0.168 F 
ATOM     12  F   UNL     1       0.690   1.850  -3.720  1.00  0.00    -0.168 F 
ENDBRANCH   7   9
BRANCH   7  13
ATOM     13  N   UNL     1       1.248  -0.393  -0.836  1.00  0.00    -0.332 N 
ATOM     14  C   UNL     1       1.517  -1.498  -0.102  1.00  0.00     0.231 C 
ATOM     15  H   UNL     1       1.336   0.431  -0.303  1.00  0.00     0.164 HD
ATOM     16  O   UNL     1       1.692  -1.326   1.107  1.00  0.00    -0.274 OA
BRANCH  14  17
ATOM     17  C   UNL     1       1.676  -2.865  -0.718  1.00  0.00     0.169 C 
BRANCH  17  18
ATOM     18  S   UNL     1       0.104  -3.552  -1.305  1.00  0.00    -0.146 SA
BRANCH  18  19
ATOM     19  C   UNL     1      -0.750  -3.801   0.279  1.00  0.00     0.116 C 
BRANCH  19  20
ATOM     20  C   UNL     1      -0.232  -4.889   1.183  1.00  0.00     0.014 A 
ATOM     21  C   UNL     1      -0.603  -5.083   2.504  1.00  0.00     0.016 A 
ATOM     22  S   UNL     1       0.864  -6.116   0.685  1.00  0.00    -0.148 S 
ATOM     23  C   UNL     1       0.082  -6.169   3.120  1.00  0.00     0.012 A 
ATOM     24  C   UNL     1       0.947  -6.788   2.249  1.00  0.00     0.065 A 
ENDBRANCH  19  20
ENDBRANCH  18  19
ENDBRANCH  17  18
ENDBRANCH  14  17
ENDBRANCH   7  13
ENDBRANCH   5   7
ENDBRANCH   4   5
ENDBRANCH   3   4
ENDBRANCH   2   3
ENDBRANCH   1   2
BRANCH   1  25
ATOM     25  C   UNL     1      -2.283   1.914  -0.525  1.00  0.00     0.188 C 
BRANCH  25  26
ATOM     26  C   UNL     1      -1.569   1.167   0.622  1.00  0.00     0.188 C 
BRANCH  26  27
ATOM     27  O   UNL     1      -2.348   0.154   1.211  1.00  0.00    -0.376 OA
BRANCH  27  28
ATOM     28  C   UNL     1      -2.849   0.372   2.515  1.00  0.00     0.202 C 
BRANCH  28  29
ATOM     29  C   UNL     1      -3.506   1.711   2.906  1.00  0.00     0.261 C 
BRANCH  29  30
ATOM     30  O   UNL     1      -3.026   2.904   2.268  1.00  0.00    -0.460 OA
BRANCH  30  31
ATOM     31  C   UNL     1      -1.932   3.502   2.790  1.00  0.00     0.338 C 
ATOM     32  O   UNL     1      -1.269   3.124   3.744  1.00  0.00    -0.246 OA
BRANCH  31  33
ATOM     33  C   UNL     1      -1.545   4.603   1.881  1.00  0.00     0.060 A 
ATOM     34  C   UNL     1      -0.331   4.532   1.178  1.00  0.00     0.016 A 
ATOM     35  C   UNL     1      -2.392   5.699   1.715  1.00  0.00     0.016 A 
ATOM     36  C   UNL     1       0.049   5.572   0.324  1.00  0.00     0.010 A 
ATOM     37  C   UNL     1      -1.998   6.749   0.884  1.00  0.00     0.010 A 
ATOM     38  C   UNL     1      -0.764   6.706   0.208  1.00  0.00    -0.014 A 
BRANCH  38  39
ATOM     39  C   UNL     1      -0.257   7.950  -0.422  1.00  0.00     0.031 A 
ATOM     40  C   UNL     1       0.284   9.021   0.483  1.00  0.00     0.074 A 
ATOM     41  C   UNL     1      -0.325   8.160  -1.747  1.00  0.00     0.049 A 
ATOM     42  N   UNL     1       0.595  10.263   0.216  1.00  0.00    -0.248 NA
ATOM     43  C   UNL     1       0.484   8.635   1.889  1.00  0.00     0.031 C 
ATOM     44  C   UNL     1      -0.770   7.187  -2.739  1.00  0.00     0.029 A 
ATOM     45  N   UNL     1      -0.046   9.290  -2.479  1.00  0.00    -0.354 N 
ATOM     46  C   UNL     1       1.000  10.814   1.425  1.00  0.00     0.074 A 
ATOM     47  C   UNL     1       0.876   9.778   2.428  1.00  0.00     0.031 C 
ATOM     48  C   UNL     1      -0.768   7.772  -3.950  1.00  0.00     0.029 A 
ATOM     49  C   UNL     1      -0.369   9.172  -3.808  1.00  0.00     0.049 A 
ATOM     50  H   UNL     1       0.347  10.103  -2.088  1.00  0.00     0.167 HD
ATOM     51  C   UNL     1       1.431  12.072   1.679  1.00  0.00     0.037 A 
ATOM     52  C   UNL     1      -0.384  10.101  -4.786  1.00  0.00     0.037 A 
ATOM     53  C   UNL     1       1.540  13.101   0.679  1.00  0.00     0.049 A 
ATOM     54  C   UNL     1       0.017  11.521  -4.470  1.00  0.00     0.074 A 
ATOM     55  C   UNL     1       1.975  14.406   0.830  1.00  0.00     0.029 A 
ATOM     56  N   UNL     1       1.195  12.944  -0.655  1.00  0.00    -0.354 N 
ATOM     57  N   UNL     1       0.403  12.039  -3.329  1.00  0.00    -0.248 NA
ATOM     58  C   UNL     1      -0.022  12.486  -5.580  1.00  0.00     0.031 C 
ATOM     59  C   UNL     1       1.834  15.056  -0.400  1.00  0.00     0.029 A 
ATOM     60  C   UNL     1       1.382  14.137  -1.334  1.00  0.00     0.049 A 
ATOM     61  H   UNL     1       0.866  12.109  -1.060  1.00  0.00     0.167 HD
ATOM     62  C   UNL     1       0.690  13.375  -3.590  1.00  0.00     0.074 A 
ATOM     63  C   UNL     1       0.431  13.589  -4.998  1.00  0.00     0.031 C 
ATOM     64  C   UNL     1       1.138  14.333  -2.742  1.00  0.00     0.037 A 
BRANCH  51  65
ATOM     65  C   UNL     1       1.760  12.410   3.104  1.00  0.00     0.057 A 
ATOM     66  C   UNL     1       2.861  11.854   3.769  1.00  0.00     0.134 A 
ATOM     67  C   UNL     1       0.956  13.302   3.825  1.00  0.00     0.134 A 
ATOM     68  F   UNL     1       3.663  10.979   3.144  1.00  0.00    -0.206 F 
ATOM     69  C   UNL     1       3.126  12.142   5.110  1.00  0.00     0.040 A 
ATOM     70  C   UNL     1       1.231  13.624   5.155  1.00  0.00     0.040 A 
ATOM     71  F   UNL     1      -0.112  13.876   3.250  1.00  0.00    -0.206 F 
ATOM     72  C   UNL     1       2.312  13.034   5.804  1.00  0.00     0.006 A 
ENDBRANCH  51  65
BRANCH  52  73
ATOM     73  C   UNL     1      -0.816   9.725  -6.156  1.00  0.00     0.057 A 
ATOM     74  C   UNL     1       0.093   9.693  -7.220  1.00  0.00     0.134 A 
ATOM     75  C   UNL     1      -2.147   9.392  -6.438  1.00  0.00     0.134 A 
ATOM     76  F   UNL     1       1.376  10.029  -7.021  1.00  0.00    -0.206 F 
ATOM     77  C   UNL     1      -0.305   9.353  -8.514  1.00  0.00     0.040 A 
ATOM     78  C   UNL     1      -2.554   9.023  -7.721  1.00  0.00     0.040 A 
ATOM     79  F   UNL     1      -3.069   9.406  -5.464  1.00  0.00    -0.206 F 
ATOM     80  C   UNL     1      -1.632   9.008  -8.765  1.00  0.00     0.006 A 
ENDBRANCH  52  73
BRANCH  64  81
ATOM     81  C   UNL     1       1.448  15.689  -3.312  1.00  0.00     0.057 A 
ATOM     82  C   UNL     1       0.447  16.578  -3.722  1.00  0.00     0.134 A 
ATOM     83  C   UNL     1       2.775  16.138  -3.380  1.00  0.00     0.134 A 
ATOM     84  F   UNL     1      -0.843  16.210  -3.693  1.00  0.00    -0.206 F 
ATOM     85  C   UNL     1       0.754  17.857  -4.191  1.00  0.00     0.040 A 
ATOM     86  C   UNL     1       3.092  17.424  -3.818  1.00  0.00     0.040 A 
ATOM     87  F   UNL     1       3.783  15.342  -2.993  1.00  0.00    -0.206 F 
ATOM     88  C   UNL     1       2.080  18.287  -4.229  1.00  0.00     0.006 A 
ENDBRANCH  64  81
ENDBRANCH  38  39
ENDBRANCH  31  33
ENDBRANCH  30  31
ENDBRANCH  29  30
ENDBRANCH  28  29
ENDBRANCH  27  28
ENDBRANCH  26  27
ENDBRANCH  25  26
ENDBRANCH   1  25
TORSDOF 23
