REMARK SMILES O=C(OCCOCCOCCOC(=O)c1ccc([C@@H]2CC(O)=Nc3c2ncn3-c2cccc(Cl)c2)cc1)c1ccc(-c2c3nc(c(-c4c(F)cccc4F)c4ccc([nH]4)c(-c4c(F)cccc4F)c4nc(c(-c5c(F)cccc5F)c5ccc2[nH]5)C=C4)C=C3)cc1
REMARK SMILES IDX 7 1 6 2 5 3 4 4 3 5 2 6 1 7 38 8 39 9 91 10 40 11 90 12
REMARK SMILES IDX 41 13 42 14 43 15 84 16 44 17 89 18 83 19 85 20 45 21 88 22
REMARK SMILES IDX 82 23 81 24 46 26 72 27 55 28 71 29 56 30 59 31 70 32 86 33
REMARK SMILES IDX 57 34 58 35 69 37 87 38 60 39 47 40 48 41 53 42 49 43 50 44
REMARK SMILES IDX 52 45 54 46 51 47 73 48 74 49 79 50 75 51 76 52 78 53 80 54
REMARK SMILES IDX 77 55 61 56 62 57 67 58 63 59 64 60 66 61 68 62 65 63 8 64
REMARK SMILES IDX 9 65 10 66 11 67 12 68 13 69 14 70 15 71 16 72 37 73 17 74
REMARK SMILES IDX 36 75 18 76 19 77 20 78 25 79 21 80 24 81 26 82 23 83 28 84
REMARK SMILES IDX 27 85 22 86 29 88 30 89 35 90 31 91 33 92 32 93 34 94
REMARK H PARENT 85 25 59 36 22 87
REMARK Flexibility Score: inf
ROOT
ATOM      1  C   UNL     1       3.490  -1.270  -1.073  1.00  0.00     0.188 C 
ENDROOT
BRANCH   1   2
ATOM      2  O   UNL     1       4.859  -1.237  -0.754  1.00  0.00    -0.376 OA
BRANCH   2   3
ATOM      3  C   UNL     1       5.399  -0.406   0.255  1.00  0.00     0.202 C 
BRANCH   3   4
ATOM      4  C   UNL     1       4.595   0.349   1.321  1.00  0.00     0.261 C 
BRANCH   4   5
ATOM      5  O   UNL     1       3.194   0.096   1.373  1.00  0.00    -0.460 OA
BRANCH   5   6
ATOM      6  C   UNL     1       2.136   0.836   0.991  1.00  0.00     0.338 C 
ATOM      7  O   UNL     1       1.023   0.496   1.393  1.00  0.00    -0.246 OA
BRANCH   6   8
ATOM      8  C   UNL     1       2.186   1.976   0.026  1.00  0.00     0.060 A 
ATOM      9  C   UNL     1       3.318   2.674  -0.390  1.00  0.00     0.016 A 
ATOM     10  C   UNL     1       0.929   2.388  -0.470  1.00  0.00     0.016 A 
ATOM     11  C   UNL     1       3.180   3.855  -1.112  1.00  0.00     0.010 A 
ATOM     12  C   UNL     1       0.788   3.545  -1.222  1.00  0.00     0.010 A 
ATOM     13  C   UNL     1       1.911   4.317  -1.471  1.00  0.00    -0.014 A 
BRANCH  13  14
ATOM     14  C   UNL     1       1.826   5.609  -2.136  1.00  0.00     0.031 A 
ATOM     15  C   UNL     1       2.491   5.690  -3.459  1.00  0.00     0.074 A 
ATOM     16  C   UNL     1       1.176   6.669  -1.616  1.00  0.00     0.049 A 
ATOM     17  N   UNL     1       3.547   6.367  -3.771  1.00  0.00    -0.248 NA
ATOM     18  C   UNL     1       1.979   4.838  -4.540  1.00  0.00     0.031 C 
ATOM     19  C   UNL     1       0.255   6.703  -0.478  1.00  0.00     0.029 A 
ATOM     20  N   UNL     1       1.158   7.955  -2.068  1.00  0.00    -0.354 N 
ATOM     21  C   UNL     1       3.736   6.175  -5.136  1.00  0.00     0.074 A 
ATOM     22  C   UNL     1       2.826   5.129  -5.529  1.00  0.00     0.031 C 
ATOM     23  C   UNL     1      -0.387   7.894  -0.461  1.00  0.00     0.029 A 
ATOM     24  C   UNL     1       0.177   8.750  -1.493  1.00  0.00     0.049 A 
ATOM     25  H   UNL     1       1.788   8.291  -2.745  1.00  0.00     0.167 HD
ATOM     26  C   UNL     1       4.485   7.038  -5.876  1.00  0.00     0.037 A 
ATOM     27  C   UNL     1      -0.175  10.002  -1.874  1.00  0.00     0.037 A 
ATOM     28  C   UNL     1       5.351   7.834  -5.045  1.00  0.00     0.049 A 
ATOM     29  C   UNL     1       0.951  10.576  -2.650  1.00  0.00     0.074 A 
ATOM     30  C   UNL     1       6.364   7.557  -4.147  1.00  0.00     0.029 A 
ATOM     31  N   UNL     1       5.006   9.143  -4.818  1.00  0.00    -0.354 N 
ATOM     32  N   UNL     1       2.088  10.938  -2.130  1.00  0.00    -0.248 NA
ATOM     33  C   UNL     1       0.962  10.367  -4.090  1.00  0.00     0.031 C 
ATOM     34  C   UNL     1       6.223   8.534  -3.118  1.00  0.00     0.029 A 
ATOM     35  C   UNL     1       5.169   9.373  -3.478  1.00  0.00     0.049 A 
ATOM     36  H   UNL     1       4.699   9.793  -5.491  1.00  0.00     0.167 HD
ATOM     37  C   UNL     1       3.036  10.572  -3.073  1.00  0.00     0.074 A 
ATOM     38  C   UNL     1       2.280  10.328  -4.298  1.00  0.00     0.031 C 
ATOM     39  C   UNL     1       4.304  10.230  -2.701  1.00  0.00     0.037 A 
BRANCH  26  40
ATOM     40  C   UNL     1       4.176   7.419  -7.302  1.00  0.00     0.057 A 
ATOM     41  C   UNL     1       5.093   8.212  -8.018  1.00  0.00     0.134 A 
ATOM     42  C   UNL     1       2.898   7.306  -7.885  1.00  0.00     0.134 A 
ATOM     43  F   UNL     1       6.339   8.408  -7.560  1.00  0.00    -0.206 F 
ATOM     44  C   UNL     1       4.737   8.907  -9.179  1.00  0.00     0.040 A 
ATOM     45  C   UNL     1       2.548   7.955  -9.072  1.00  0.00     0.040 A 
ATOM     46  F   UNL     1       1.894   6.654  -7.288  1.00  0.00    -0.206 F 
ATOM     47  C   UNL     1       3.457   8.787  -9.705  1.00  0.00     0.006 A 
ENDBRANCH  26  40
BRANCH  27  48
ATOM     48  C   UNL     1      -1.508  10.645  -1.839  1.00  0.00     0.057 A 
ATOM     49  C   UNL     1      -1.649  12.032  -1.991  1.00  0.00     0.134 A 
ATOM     50  C   UNL     1      -2.688   9.889  -1.942  1.00  0.00     0.134 A 
ATOM     51  F   UNL     1      -0.577  12.836  -1.946  1.00  0.00    -0.206 F 
ATOM     52  C   UNL     1      -2.887  12.629  -2.263  1.00  0.00     0.040 A 
ATOM     53  C   UNL     1      -3.931  10.473  -2.204  1.00  0.00     0.040 A 
ATOM     54  F   UNL     1      -2.662   8.550  -1.886  1.00  0.00    -0.206 F 
ATOM     55  C   UNL     1      -4.032  11.847  -2.383  1.00  0.00     0.006 A 
ENDBRANCH  27  48
BRANCH  39  56
ATOM     56  C   UNL     1       4.737  10.539  -1.296  1.00  0.00     0.057 A 
ATOM     57  C   UNL     1       4.131  10.007  -0.148  1.00  0.00     0.134 A 
ATOM     58  C   UNL     1       5.899  11.297  -1.105  1.00  0.00     0.134 A 
ATOM     59  F   UNL     1       3.079   9.182  -0.235  1.00  0.00    -0.206 F 
ATOM     60  C   UNL     1       4.630  10.265   1.133  1.00  0.00     0.040 A 
ATOM     61  C   UNL     1       6.428  11.530   0.165  1.00  0.00     0.040 A 
ATOM     62  F   UNL     1       6.566  11.790  -2.161  1.00  0.00    -0.206 F 
ATOM     63  C   UNL     1       5.786  11.024   1.292  1.00  0.00     0.006 A 
ENDBRANCH  39  56
ENDBRANCH  13  14
ENDBRANCH   6   8
ENDBRANCH   5   6
ENDBRANCH   4   5
ENDBRANCH   3   4
ENDBRANCH   2   3
ENDBRANCH   1   2
BRANCH   1  64
ATOM     64  C   UNL     1       2.601  -2.282  -0.310  1.00  0.00     0.188 C 
BRANCH  64  65
ATOM     65  O   UNL     1       3.157  -3.247   0.570  1.00  0.00    -0.376 OA
BRANCH  65  66
ATOM     66  C   UNL     1       4.385  -3.874   0.251  1.00  0.00     0.202 C 
BRANCH  66  67
ATOM     67  C   UNL     1       4.505  -4.673  -1.053  1.00  0.00     0.261 C 
BRANCH  67  68
ATOM     68  O   UNL     1       4.115  -3.964  -2.240  1.00  0.00    -0.460 OA
BRANCH  68  69
ATOM     69  C   UNL     1       3.004  -4.414  -2.856  1.00  0.00     0.338 C 
ATOM     70  O   UNL     1       2.284  -5.356  -2.515  1.00  0.00    -0.246 OA
BRANCH  69  71
ATOM     71  C   UNL     1       2.668  -3.543  -3.988  1.00  0.00     0.060 A 
ATOM     72  C   UNL     1       1.552  -2.708  -3.890  1.00  0.00     0.016 A 
ATOM     73  C   UNL     1       3.399  -3.609  -5.173  1.00  0.00     0.016 A 
ATOM     74  C   UNL     1       1.172  -1.924  -4.976  1.00  0.00     0.005 A 
ATOM     75  C   UNL     1       2.986  -2.857  -6.278  1.00  0.00     0.005 A 
ATOM     76  C   UNL     1       1.866  -2.005  -6.196  1.00  0.00    -0.038 A 
BRANCH  76  77
ATOM     77  C   UNL     1       1.272  -1.282  -7.395  1.00  0.00     0.081 C 
ATOM     78  C   UNL     1       0.510  -2.272  -8.303  1.00  0.00     0.111 C 
ATOM     79  C   UNL     1       2.368  -0.609  -8.130  1.00  0.00     0.093 A 
ATOM     80  C   UNL     1       1.240  -2.649  -9.581  1.00  0.00     0.188 C 
ATOM     81  C   UNL     1       2.709  -0.988  -9.409  1.00  0.00     0.164 A 
ATOM     82  N   UNL     1       3.179   0.387  -7.659  1.00  0.00    -0.238 NA
ATOM     83  N   UNL     1       2.222  -2.019 -10.141  1.00  0.00    -0.198 NA
ATOM     84  N   UNL     1       3.794  -0.202  -9.741  1.00  0.00    -0.283 N 
ATOM     85  C   UNL     1       4.055   0.573  -8.628  1.00  0.00     0.206 A 
BRANCH  80  86
ATOM     86  O   UNL     1       0.740  -3.733 -10.205  1.00  0.00    -0.496 OA
ATOM     87  H   UNL     1       0.028  -4.207  -9.822  1.00  0.00     0.294 HD
ENDBRANCH  80  86
BRANCH  84  88
ATOM     88  C   UNL     1       4.512  -0.211 -10.958  1.00  0.00     0.050 A 
ATOM     89  C   UNL     1       5.908  -0.122 -10.948  1.00  0.00     0.027 A 
ATOM     90  C   UNL     1       3.816  -0.335 -12.167  1.00  0.00     0.047 A 
ATOM     91  C   UNL     1       6.609  -0.202 -12.154  1.00  0.00     0.004 A 
ATOM     92  C   UNL     1       4.524  -0.361 -13.365  1.00  0.00     0.043 A 
ATOM     93  C   UNL     1       5.917  -0.312 -13.363  1.00  0.00     0.020 A 
ATOM     94  Cl  UNL     1       3.673  -0.438 -14.859  1.00  0.00    -0.084 Cl
ENDBRANCH  84  88
ENDBRANCH  76  77
ENDBRANCH  69  71
ENDBRANCH  68  69
ENDBRANCH  67  68
ENDBRANCH  66  67
ENDBRANCH  65  66
ENDBRANCH  64  65
ENDBRANCH   1  64
TORSDOF 20
