REMARK SMILES Cc1ccc2oc(CCCC(=O)OCCOCCOCCOC(=O)c3ccc(-c4c5nc(c(-c6c(F)cccc6F)c6ccc([nH]6)c(-c6c(F)cccc6F)c6nc(c(-c7c(F)cccc7F)c7ccc4[nH]7)C=C6)C=C5)cc3)cc(=O)c2c1
REMARK SMILES IDX 17 1 16 2 15 3 14 4 13 5 11 6 12 7 10 8 9 9 8 10 7 11 1 12
REMARK SMILES IDX 2 13 3 14 83 15 4 16 82 17 5 18 80 19 6 20 79 21 81 22 18 23
REMARK SMILES IDX 19 24 20 25 21 26 22 27 23 28 24 29 25 30 26 31 78 32 27 33
REMARK SMILES IDX 77 34 28 35 29 36 30 37 71 38 31 39 76 40 70 41 72 42 32 43
REMARK SMILES IDX 75 44 69 45 68 46 33 48 59 49 42 50 58 51 43 52 46 53 57 54
REMARK SMILES IDX 73 55 44 56 45 57 56 59 74 60 47 61 34 62 35 63 40 64 36 65
REMARK SMILES IDX 37 66 39 67 41 68 38 69 60 70 61 71 66 72 62 73 63 74 65 75
REMARK SMILES IDX 67 76 64 77 48 78 49 79 54 80 50 81 51 82 53 83 55 84 52 85
REMARK H PARENT 72 47 46 58
REMARK Flexibility Score: inf
ROOT
ATOM      1  C   UNL     1       3.952  -6.397  -0.311  1.00  0.00     0.188 C 
ENDROOT
BRANCH   1   2
ATOM      2  O   UNL     1       3.521  -6.969  -1.537  1.00  0.00    -0.376 OA
BRANCH   2   3
ATOM      3  C   UNL     1       3.058  -6.070  -2.546  1.00  0.00     0.202 C 
BRANCH   3   4
ATOM      4  C   UNL     1       2.022  -5.009  -2.132  1.00  0.00     0.261 C 
BRANCH   4   5
ATOM      5  O   UNL     1       2.435  -4.182  -1.017  1.00  0.00    -0.463 OA
BRANCH   5   6
ATOM      6  C   UNL     1       1.577  -4.112   0.030  1.00  0.00     0.305 C 
ATOM      7  O   UNL     1       0.464  -4.633   0.045  1.00  0.00    -0.252 OA
BRANCH   6   8
ATOM      8  C   UNL     1       2.143  -3.454   1.281  1.00  0.00     0.123 C 
BRANCH   8   9
ATOM      9  C   UNL     1       3.305  -2.449   1.276  1.00  0.00     0.020 C 
BRANCH   9  10
ATOM     10  C   UNL     1       3.506  -1.527   0.070  1.00  0.00     0.076 C 
BRANCH  10  11
ATOM     11  C   UNL     1       2.319  -0.637  -0.147  1.00  0.00     0.108 A 
ATOM     12  C   UNL     1      -3.897   1.103   0.055  1.00  0.00     0.044 C 
ATOM     13  C   UNL     1      -2.543   0.466  -0.038  1.00  0.00    -0.050 A 
ATOM     14  C   UNL     1      -2.420  -0.928  -0.114  1.00  0.00     0.007 A 
ATOM     15  C   UNL     1      -1.391   1.268  -0.067  1.00  0.00     0.019 A 
ATOM     16  C   UNL     1      -1.165  -1.514  -0.246  1.00  0.00     0.048 A 
ATOM     17  C   UNL     1      -0.136   0.672  -0.179  1.00  0.00     0.065 A 
ATOM     18  C   UNL     1      -0.031  -0.709  -0.285  1.00  0.00     0.138 A 
ATOM     19  C   UNL     1       1.106   1.465  -0.151  1.00  0.00     0.192 A 
ATOM     20  O   UNL     1       1.168  -1.342  -0.428  1.00  0.00    -0.461 OA
ATOM     21  C   UNL     1       2.365   0.699  -0.045  1.00  0.00     0.095 A 
ATOM     22  O   UNL     1       1.109   2.688  -0.152  1.00  0.00    -0.289 OA
ENDBRANCH  10  11
ENDBRANCH   9  10
ENDBRANCH   8   9
ENDBRANCH   6   8
ENDBRANCH   5   6
ENDBRANCH   4   5
ENDBRANCH   3   4
ENDBRANCH   2   3
ENDBRANCH   1   2
BRANCH   1  23
ATOM     23  C   UNL     1       5.033  -5.310  -0.381  1.00  0.00     0.188 C 
BRANCH  23  24
ATOM     24  O   UNL     1       5.202  -4.717  -1.650  1.00  0.00    -0.376 OA
BRANCH  24  25
ATOM     25  C   UNL     1       6.499  -4.281  -2.035  1.00  0.00     0.202 C 
BRANCH  25  26
ATOM     26  C   UNL     1       7.613  -5.349  -2.129  1.00  0.00     0.261 C 
BRANCH  26  27
ATOM     27  O   UNL     1       7.846  -6.172  -0.967  1.00  0.00    -0.460 OA
BRANCH  27  28
ATOM     28  C   UNL     1       8.194  -5.553   0.187  1.00  0.00     0.338 C 
ATOM     29  O   UNL     1       8.487  -4.374   0.315  1.00  0.00    -0.246 OA
BRANCH  28  30
ATOM     30  C   UNL     1       7.858  -6.462   1.323  1.00  0.00     0.060 A 
ATOM     31  C   UNL     1       7.115  -5.941   2.396  1.00  0.00     0.016 A 
ATOM     32  C   UNL     1       8.180  -7.822   1.304  1.00  0.00     0.016 A 
ATOM     33  C   UNL     1       6.743  -6.759   3.469  1.00  0.00     0.010 A 
ATOM     34  C   UNL     1       7.822  -8.637   2.387  1.00  0.00     0.010 A 
ATOM     35  C   UNL     1       7.137  -8.103   3.495  1.00  0.00    -0.014 A 
BRANCH  35  36
ATOM     36  C   UNL     1       7.037  -8.886   4.758  1.00  0.00     0.031 A 
ATOM     37  C   UNL     1       8.277  -9.024   5.605  1.00  0.00     0.074 A 
ATOM     38  C   UNL     1       5.887  -9.451   5.172  1.00  0.00     0.049 A 
ATOM     39  N   UNL     1       8.463  -9.697   6.713  1.00  0.00    -0.248 NA
ATOM     40  C   UNL     1       9.470  -8.306   5.130  1.00  0.00     0.031 C 
ATOM     41  C   UNL     1       4.603  -9.367   4.482  1.00  0.00     0.029 A 
ATOM     42  N   UNL     1       5.624 -10.223   6.280  1.00  0.00    -0.354 N 
ATOM     43  C   UNL     1       9.794  -9.491   7.058  1.00  0.00     0.074 A 
ATOM     44  C   UNL     1      10.376  -8.662   6.027  1.00  0.00     0.031 C 
ATOM     45  C   UNL     1       3.689 -10.071   5.176  1.00  0.00     0.029 A 
ATOM     46  C   UNL     1       4.330 -10.683   6.340  1.00  0.00     0.049 A 
ATOM     47  H   UNL     1       6.300 -10.427   6.966  1.00  0.00     0.167 HD
ATOM     48  C   UNL     1      10.471  -9.941   8.141  1.00  0.00     0.037 A 
ATOM     49  C   UNL     1       3.739 -11.519   7.219  1.00  0.00     0.037 A 
ATOM     50  C   UNL     1       9.900 -10.769   9.170  1.00  0.00     0.049 A 
ATOM     51  C   UNL     1       4.535 -12.075   8.376  1.00  0.00     0.074 A 
ATOM     52  C   UNL     1      10.505 -11.261  10.313  1.00  0.00     0.029 A 
ATOM     53  N   UNL     1       8.595 -11.235   9.177  1.00  0.00    -0.354 N 
ATOM     54  N   UNL     1       5.784 -11.854   8.707  1.00  0.00    -0.248 NA
ATOM     55  C   UNL     1       3.833 -12.996   9.284  1.00  0.00     0.031 C 
ATOM     56  C   UNL     1       9.585 -12.075  10.980  1.00  0.00     0.029 A 
ATOM     57  C   UNL     1       8.384 -12.032  10.290  1.00  0.00     0.049 A 
ATOM     58  H   UNL     1       7.918 -11.030   8.492  1.00  0.00     0.167 HD
ATOM     59  C   UNL     1       6.004 -12.572   9.879  1.00  0.00     0.074 A 
ATOM     60  C   UNL     1       4.758 -13.230  10.205  1.00  0.00     0.031 C 
ATOM     61  C   UNL     1       7.136 -12.672  10.619  1.00  0.00     0.037 A 
BRANCH  48  62
ATOM     62  C   UNL     1      11.923  -9.571   8.251  1.00  0.00     0.057 A 
ATOM     63  C   UNL     1      12.338  -8.259   8.514  1.00  0.00     0.134 A 
ATOM     64  C   UNL     1      12.918 -10.548   8.117  1.00  0.00     0.134 A 
ATOM     65  F   UNL     1      11.437  -7.272   8.637  1.00  0.00    -0.206 F 
ATOM     66  C   UNL     1      13.691  -7.927   8.614  1.00  0.00     0.040 A 
ATOM     67  C   UNL     1      14.272 -10.234   8.246  1.00  0.00     0.040 A 
ATOM     68  F   UNL     1      12.591 -11.825   7.868  1.00  0.00    -0.206 F 
ATOM     69  C   UNL     1      14.661  -8.919   8.488  1.00  0.00     0.006 A 
ENDBRANCH  48  62
BRANCH  49  70
ATOM     70  C   UNL     1       2.313 -11.905   7.044  1.00  0.00     0.057 A 
ATOM     71  C   UNL     1       1.333 -11.508   7.963  1.00  0.00     0.134 A 
ATOM     72  C   UNL     1       1.903 -12.716   5.979  1.00  0.00     0.134 A 
ATOM     73  F   UNL     1       1.666 -10.757   9.023  1.00  0.00    -0.206 F 
ATOM     74  C   UNL     1       0.004 -11.919   7.840  1.00  0.00     0.040 A 
ATOM     75  C   UNL     1       0.572 -13.110   5.827  1.00  0.00     0.040 A 
ATOM     76  F   UNL     1       2.791 -13.137   5.067  1.00  0.00    -0.206 F 
ATOM     77  C   UNL     1      -0.381 -12.718   6.766  1.00  0.00     0.006 A 
ENDBRANCH  49  70
BRANCH  61  78
ATOM     78  C   UNL     1       7.072 -13.473  11.891  1.00  0.00     0.057 A 
ATOM     79  C   UNL     1       6.954 -14.868  11.893  1.00  0.00     0.134 A 
ATOM     80  C   UNL     1       7.179 -12.835  13.135  1.00  0.00     0.134 A 
ATOM     81  F   UNL     1       6.839 -15.543  10.739  1.00  0.00    -0.206 F 
ATOM     82  C   UNL     1       6.917 -15.597  13.084  1.00  0.00     0.040 A 
ATOM     83  C   UNL     1       7.176 -13.555  14.331  1.00  0.00     0.040 A 
ATOM     84  F   UNL     1       7.308 -11.502  13.209  1.00  0.00    -0.206 F 
ATOM     85  C   UNL     1       7.036 -14.941  14.307  1.00  0.00     0.006 A 
ENDBRANCH  61  78
ENDBRANCH  35  36
ENDBRANCH  28  30
ENDBRANCH  27  28
ENDBRANCH  26  27
ENDBRANCH  25  26
ENDBRANCH  24  25
ENDBRANCH  23  24
ENDBRANCH   1  23
TORSDOF 20
