REMARK SMILES CC(C)(C)OC(=O)N1CCN(c2ccc([N+](=O)[O-])c(Br)c2)C[C@H]1C(=O)OCCOCCOCCOC(=O)c1ccc(-c2c3nc(c(-c4c(F)cccc4F)c4ccc([nH]4)c(-c4c(F)cccc4F)c4nc(c(-c5c(F)cccc5F)c5ccc2[nH]5)C=C4)C=C3)cc1
REMARK SMILES IDX 30 1 29 2 28 3 27 4 26 5 24 6 25 7 23 8 8 9 9 10 10 11 22 12
REMARK SMILES IDX 11 13 6 14 7 15 5 16 2 17 1 18 3 19 4 20 12 21 13 22 21 23
REMARK SMILES IDX 14 24 19 25 15 26 20 27 16 28 17 29 18 30 31 31 32 32 33 33
REMARK SMILES IDX 34 34 35 35 36 36 37 37 38 38 39 39 91 40 40 41 90 42 41 43
REMARK SMILES IDX 42 44 43 45 84 46 44 47 89 48 83 49 85 50 45 51 88 52 82 53
REMARK SMILES IDX 81 54 46 56 72 57 55 58 71 59 56 60 59 61 70 62 86 63 57 64
REMARK SMILES IDX 58 65 69 67 87 68 60 69 47 70 48 71 53 72 49 73 50 74 52 75
REMARK SMILES IDX 54 76 51 77 73 78 74 79 79 80 75 81 76 82 78 83 80 84 77 85
REMARK SMILES IDX 61 86 62 87 67 88 63 89 64 90 66 91 68 92 65 93
REMARK H PARENT 85 55 59 66
REMARK Flexibility Score: inf
ROOT
ATOM      1  C   UNL     1       4.493  -3.119  -0.854  1.00  0.00     0.188 C 
ENDROOT
BRANCH   1   2
ATOM      2  O   UNL     1       5.245  -2.080  -1.477  1.00  0.00    -0.376 OA
BRANCH   2   3
ATOM      3  C   UNL     1       5.006  -0.747  -1.050  1.00  0.00     0.202 C 
BRANCH   3   4
ATOM      4  C   UNL     1       4.146   0.061  -2.039  1.00  0.00     0.261 C 
BRANCH   4   5
ATOM      5  O   UNL     1       3.009  -0.649  -2.589  1.00  0.00    -0.462 OA
BRANCH   5   6
ATOM      6  C   UNL     1       3.312  -1.402  -3.670  1.00  0.00     0.330 C 
ATOM      7  O   UNL     1       4.444  -1.423  -4.161  1.00  0.00    -0.250 OA
BRANCH   6   8
ATOM      8  C   UNL     1       2.199  -2.326  -4.235  1.00  0.00     0.217 C 
ATOM      9  N   UNL     1       0.725  -2.490  -3.933  1.00  0.00    -0.291 N 
ATOM     10  C   UNL     1       0.044  -3.451  -4.828  1.00  0.00     0.145 C 
ATOM     11  C   UNL     1       0.218  -3.134  -6.314  1.00  0.00     0.138 C 
ATOM     12  C   UNL     1       2.361  -2.048  -5.769  1.00  0.00     0.154 C 
ATOM     13  N   UNL     1       1.647  -3.043  -6.582  1.00  0.00    -0.367 N 
BRANCH   9  14
ATOM     14  C   UNL     1       0.151  -2.483  -2.668  1.00  0.00     0.411 C 
ATOM     15  O   UNL     1      -0.592  -3.378  -2.277  1.00  0.00    -0.224 OA
BRANCH  14  16
ATOM     16  O   UNL     1       0.342  -1.323  -2.002  1.00  0.00    -0.444 OA
BRANCH  16  17
ATOM     17  C   UNL     1      -0.481  -1.031  -0.829  1.00  0.00     0.106 C 
ATOM     18  C   UNL     1       0.099   0.276  -0.268  1.00  0.00     0.056 C 
ATOM     19  C   UNL     1      -0.455  -2.134   0.243  1.00  0.00     0.056 C 
ATOM     20  C   UNL     1      -1.941  -0.771  -1.234  1.00  0.00     0.056 C 
ENDBRANCH  16  17
ENDBRANCH  14  16
ENDBRANCH   9  14
BRANCH  13  21
ATOM     21  C   UNL     1       2.153  -3.265  -7.846  1.00  0.00     0.038 A 
ATOM     22  C   UNL     1       3.284  -4.073  -7.981  1.00  0.00     0.033 A 
ATOM     23  C   UNL     1       1.613  -2.682  -8.993  1.00  0.00     0.048 A 
ATOM     24  C   UNL     1       3.855  -4.308  -9.230  1.00  0.00     0.089 A 
ATOM     25  C   UNL     1       2.181  -2.891 -10.265  1.00  0.00     0.097 A 
ATOM     26  C   UNL     1       3.310  -3.716 -10.384  1.00  0.00     0.283 A 
ATOM     27  Br  UNL     1       1.293  -1.972 -11.676  1.00  0.00    -0.043 Br
BRANCH  26  28
ATOM     28  N   UNL     1       3.984  -4.016 -11.659  1.00  0.00     0.063 N 
ATOM     29  O   UNL     1       4.905  -4.848 -11.631  1.00  0.00    -0.258 OA
ATOM     30  O   UNL     1       3.627  -3.436 -12.689  1.00  0.00    -0.258 OA
ENDBRANCH  26  28
ENDBRANCH  13  21
ENDBRANCH   6   8
ENDBRANCH   5   6
ENDBRANCH   4   5
ENDBRANCH   3   4
ENDBRANCH   2   3
ENDBRANCH   1   2
BRANCH   1  31
ATOM     31  C   UNL     1       3.002  -2.883  -0.618  1.00  0.00     0.188 C 
BRANCH  31  32
ATOM     32  O   UNL     1       2.602  -1.812   0.221  1.00  0.00    -0.376 OA
BRANCH  32  33
ATOM     33  C   UNL     1       2.921  -1.808   1.605  1.00  0.00     0.202 C 
BRANCH  33  34
ATOM     34  C   UNL     1       2.450  -2.970   2.479  1.00  0.00     0.261 C 
BRANCH  34  35
ATOM     35  O   UNL     1       2.941  -4.229   2.012  1.00  0.00    -0.460 OA
BRANCH  35  36
ATOM     36  C   UNL     1       1.991  -5.115   1.623  1.00  0.00     0.338 C 
ATOM     37  O   UNL     1       0.779  -4.994   1.669  1.00  0.00    -0.246 OA
BRANCH  36  38
ATOM     38  C   UNL     1       2.682  -6.227   0.959  1.00  0.00     0.060 A 
ATOM     39  C   UNL     1       2.397  -6.521  -0.383  1.00  0.00     0.016 A 
ATOM     40  C   UNL     1       3.622  -6.961   1.679  1.00  0.00     0.016 A 
ATOM     41  C   UNL     1       3.056  -7.576  -1.009  1.00  0.00     0.010 A 
ATOM     42  C   UNL     1       4.268  -8.019   1.057  1.00  0.00     0.010 A 
ATOM     43  C   UNL     1       3.972  -8.344  -0.279  1.00  0.00    -0.014 A 
BRANCH  43  44
ATOM     44  C   UNL     1       4.552  -9.582  -0.832  1.00  0.00     0.031 A 
ATOM     45  C   UNL     1       4.007 -10.895  -0.356  1.00  0.00     0.074 A 
ATOM     46  C   UNL     1       5.615  -9.524  -1.650  1.00  0.00     0.049 A 
ATOM     47  N   UNL     1       4.476 -12.101  -0.532  1.00  0.00    -0.248 NA
ATOM     48  C   UNL     1       2.779 -10.833   0.454  1.00  0.00     0.031 C 
ATOM     49  C   UNL     1       6.216  -8.297  -2.169  1.00  0.00     0.029 A 
ATOM     50  N   UNL     1       6.402 -10.528  -2.150  1.00  0.00    -0.354 N 
ATOM     51  C   UNL     1       3.617 -12.940   0.166  1.00  0.00     0.074 A 
ATOM     52  C   UNL     1       2.616 -12.103   0.791  1.00  0.00     0.031 C 
ATOM     53  C   UNL     1       7.301  -8.619  -2.892  1.00  0.00     0.029 A 
ATOM     54  C   UNL     1       7.490 -10.067  -2.848  1.00  0.00     0.049 A 
ATOM     55  H   UNL     1       6.207 -11.484  -2.021  1.00  0.00     0.167 HD
ATOM     56  C   UNL     1       3.665 -14.288   0.273  1.00  0.00     0.037 A 
ATOM     57  C   UNL     1       8.539 -10.741  -3.357  1.00  0.00     0.037 A 
ATOM     58  C   UNL     1       4.674 -15.101  -0.352  1.00  0.00     0.049 A 
ATOM     59  C   UNL     1       8.594 -12.236  -3.192  1.00  0.00     0.074 A 
ATOM     60  C   UNL     1       4.794 -16.479  -0.355  1.00  0.00     0.029 A 
ATOM     61  N   UNL     1       5.750 -14.604  -1.076  1.00  0.00    -0.354 N 
ATOM     62  N   UNL     1       7.754 -13.033  -2.575  1.00  0.00    -0.248 NA
ATOM     63  C   UNL     1       9.741 -12.926  -3.797  1.00  0.00     0.031 C 
ATOM     64  C   UNL     1       5.975 -16.811  -1.026  1.00  0.00     0.029 A 
ATOM     65  C   UNL     1       6.557 -15.646  -1.500  1.00  0.00     0.049 A 
ATOM     66  H   UNL     1       5.914 -13.651  -1.260  1.00  0.00     0.167 HD
ATOM     67  C   UNL     1       8.256 -14.318  -2.737  1.00  0.00     0.074 A 
ATOM     68  C   UNL     1       9.466 -14.194  -3.525  1.00  0.00     0.031 C 
ATOM     69  C   UNL     1       7.761 -15.496  -2.280  1.00  0.00     0.037 A 
BRANCH  56  70
ATOM     70  C   UNL     1       2.620 -14.953   1.122  1.00  0.00     0.057 A 
ATOM     71  C   UNL     1       1.269 -14.988   0.753  1.00  0.00     0.134 A 
ATOM     72  C   UNL     1       2.974 -15.578   2.326  1.00  0.00     0.134 A 
ATOM     73  F   UNL     1       0.857 -14.395  -0.378  1.00  0.00    -0.206 F 
ATOM     74  C   UNL     1       0.304 -15.589   1.564  1.00  0.00     0.040 A 
ATOM     75  C   UNL     1       2.024 -16.210   3.129  1.00  0.00     0.040 A 
ATOM     76  F   UNL     1       4.250 -15.585   2.741  1.00  0.00    -0.206 F 
ATOM     77  C   UNL     1       0.682 -16.209   2.753  1.00  0.00     0.006 A 
ENDBRANCH  56  70
BRANCH  57  78
ATOM     78  C   UNL     1       9.619 -10.004  -4.058  1.00  0.00     0.057 A 
ATOM     79  C   UNL     1       9.794 -10.123  -5.441  1.00  0.00     0.134 A 
ATOM     80  C   UNL     1      10.492  -9.152  -3.369  1.00  0.00     0.134 A 
ATOM     81  F   UNL     1       9.001 -10.937  -6.153  1.00  0.00    -0.206 F 
ATOM     82  C   UNL     1      10.804  -9.432  -6.113  1.00  0.00     0.040 A 
ATOM     83  C   UNL     1      11.489  -8.435  -4.032  1.00  0.00     0.040 A 
ATOM     84  F   UNL     1      10.374  -8.989  -2.043  1.00  0.00    -0.206 F 
ATOM     85  C   UNL     1      11.650  -8.579  -5.408  1.00  0.00     0.006 A 
ENDBRANCH  57  78
BRANCH  69  86
ATOM     86  C   UNL     1       8.513 -16.744  -2.647  1.00  0.00     0.057 A 
ATOM     87  C   UNL     1       9.759 -17.052  -2.087  1.00  0.00     0.134 A 
ATOM     88  C   UNL     1       7.960 -17.670  -3.542  1.00  0.00     0.134 A 
ATOM     89  F   UNL     1      10.349 -16.203  -1.232  1.00  0.00    -0.206 F 
ATOM     90  C   UNL     1      10.440 -18.223  -2.424  1.00  0.00     0.040 A 
ATOM     91  C   UNL     1       8.616 -18.858  -3.862  1.00  0.00     0.040 A 
ATOM     92  F   UNL     1       6.763 -17.442  -4.105  1.00  0.00    -0.206 F 
ATOM     93  C   UNL     1       9.864 -19.134  -3.308  1.00  0.00     0.006 A 
ENDBRANCH  69  86
ENDBRANCH  43  44
ENDBRANCH  36  38
ENDBRANCH  35  36
ENDBRANCH  34  35
ENDBRANCH  33  34
ENDBRANCH  32  33
ENDBRANCH  31  32
ENDBRANCH   1  31
TORSDOF 22
