REMARK SMILES C#CC[N@@H+](CC(=O)Nc1c(Cl)cccc1Cl)CC(=O)OCCOCCOCCOC(=O)c1ccc(-c2c3nc(c(-c4c(F)cccc4F)c4ccc([nH]4)c(-c4c(F)cccc4F)c4nc(c(-c5c(F)cccc5F)c5ccc2[nH]5)C=C4)C=C3)cc1
REMARK SMILES IDX 24 1 23 2 22 3 21 4 20 5 18 6 19 7 17 8 4 9 3 11 2 12 1 13
REMARK SMILES IDX 5 14 6 15 7 16 8 17 9 19 10 20 15 21 11 22 12 23 14 24 16 25
REMARK SMILES IDX 13 26 25 27 26 28 27 29 28 30 29 31 30 32 31 33 32 34 33 35
REMARK SMILES IDX 85 36 34 37 84 38 35 39 36 40 37 41 78 42 38 43 83 44 77 45
REMARK SMILES IDX 79 46 39 47 82 48 76 49 75 50 40 52 66 53 49 54 65 55 50 56
REMARK SMILES IDX 53 57 64 58 80 59 51 60 52 61 63 63 81 64 54 65 41 66 42 67
REMARK SMILES IDX 47 68 43 69 44 70 46 71 48 72 45 73 67 74 68 75 73 76 69 77
REMARK SMILES IDX 70 78 72 79 74 80 71 81 55 82 56 83 61 84 57 85 58 86 60 87
REMARK SMILES IDX 62 88 59 89
REMARK H PARENT 4 10 8 18 79 51 53 62
REMARK Flexibility Score: inf
ROOT
ATOM      1  C   UNL     1      -2.370   1.400   4.592  1.00  0.00     0.188 C 
ENDROOT
BRANCH   1   2
ATOM      2  O   UNL     1      -3.260   2.499   4.795  1.00  0.00    -0.376 OA
BRANCH   2   3
ATOM      3  C   UNL     1      -4.425   2.466   3.969  1.00  0.00     0.202 C 
BRANCH   3   4
ATOM      4  C   UNL     1      -4.252   3.365   2.743  1.00  0.00     0.261 C 
BRANCH   4   5
ATOM      5  O   UNL     1      -3.897   2.641   1.548  1.00  0.00    -0.459 OA
BRANCH   5   6
ATOM      6  C   UNL     1      -2.611   2.680   1.129  1.00  0.00     0.361 C 
ATOM      7  O   UNL     1      -1.668   3.091   1.794  1.00  0.00    -0.245 OA
BRANCH   6   8
ATOM      8  C   UNL     1      -2.502   2.282  -0.343  1.00  0.00     0.387 C 
BRANCH   8   9
ATOM      9  N   UNL     1      -2.709   0.871  -0.720  1.00  0.00    -0.308 N 
ATOM     10  H   UNL     1      -2.389   0.909  -1.688  1.00  0.00     0.349 HD
BRANCH   9  11
ATOM     11  C   UNL     1      -1.900  -0.064   0.010  1.00  0.00     0.354 C 
BRANCH  11  12
ATOM     12  C   UNL     1      -0.380  -0.064   0.010  1.00  0.00    -0.047 C 
ATOM     13  C   UNL     1       0.924  -0.064   0.010  1.00  0.00     0.010 C 
ENDBRANCH  11  12
ENDBRANCH   9  11
BRANCH   9  14
ATOM     14  C   UNL     1      -4.121   0.372  -0.784  1.00  0.00     0.365 C 
BRANCH  14  15
ATOM     15  C   UNL     1      -4.815  -0.124   0.516  1.00  0.00     0.279 C 
ATOM     16  O   UNL     1      -5.579   0.629   1.135  1.00  0.00    -0.268 OA
ATOM     17  N   UNL     1      -4.709  -1.399   1.020  1.00  0.00    -0.319 N 
ATOM     18  H   UNL     1      -5.197  -1.534   1.864  1.00  0.00     0.170 HD
BRANCH  17  19
ATOM     19  C   UNL     1      -4.034  -2.556   0.560  1.00  0.00     0.079 A 
ATOM     20  C   UNL     1      -2.806  -2.937   1.127  1.00  0.00     0.066 A 
ATOM     21  C   UNL     1      -4.655  -3.494  -0.270  1.00  0.00     0.066 A 
ATOM     22  Cl  UNL     1      -2.096  -2.040   2.390  1.00  0.00    -0.082 Cl
ATOM     23  C   UNL     1      -2.106  -4.072   0.714  1.00  0.00     0.023 A 
ATOM     24  C   UNL     1      -3.991  -4.679  -0.635  1.00  0.00     0.023 A 
ATOM     25  Cl  UNL     1      -6.287  -3.290  -0.792  1.00  0.00    -0.082 Cl
ATOM     26  C   UNL     1      -2.698  -4.944  -0.182  1.00  0.00     0.003 A 
ENDBRANCH  17  19
ENDBRANCH  14  15
ENDBRANCH   9  14
ENDBRANCH   8   9
ENDBRANCH   6   8
ENDBRANCH   5   6
ENDBRANCH   4   5
ENDBRANCH   3   4
ENDBRANCH   2   3
ENDBRANCH   1   2
BRANCH   1  27
ATOM     27  C   UNL     1      -2.765   0.205   5.463  1.00  0.00     0.188 C 
BRANCH  27  28
ATOM     28  O   UNL     1      -3.660  -0.671   4.761  1.00  0.00    -0.376 OA
BRANCH  28  29
ATOM     29  C   UNL     1      -4.028  -1.812   5.547  1.00  0.00     0.202 C 
BRANCH  29  30
ATOM     30  C   UNL     1      -3.114  -3.033   5.351  1.00  0.00     0.261 C 
BRANCH  30  31
ATOM     31  O   UNL     1      -1.722  -2.671   5.426  1.00  0.00    -0.460 OA
BRANCH  31  32
ATOM     32  C   UNL     1      -0.869  -3.655   5.045  1.00  0.00     0.338 C 
ATOM     33  O   UNL     1      -1.152  -4.833   4.912  1.00  0.00    -0.246 OA
BRANCH  32  34
ATOM     34  C   UNL     1       0.472  -3.107   4.695  1.00  0.00     0.060 A 
ATOM     35  C   UNL     1       0.627  -1.847   4.111  1.00  0.00     0.016 A 
ATOM     36  C   UNL     1       1.585  -3.942   4.790  1.00  0.00     0.016 A 
ATOM     37  C   UNL     1       1.838  -1.482   3.508  1.00  0.00     0.010 A 
ATOM     38  C   UNL     1       2.828  -3.513   4.305  1.00  0.00     0.010 A 
ATOM     39  C   UNL     1       2.974  -2.292   3.614  1.00  0.00    -0.014 A 
BRANCH  39  40
ATOM     40  C   UNL     1       4.302  -1.946   3.007  1.00  0.00     0.031 A 
ATOM     41  C   UNL     1       5.081  -3.023   2.292  1.00  0.00     0.074 A 
ATOM     42  C   UNL     1       4.881  -0.730   3.097  1.00  0.00     0.049 A 
ATOM     43  N   UNL     1       6.374  -3.186   2.181  1.00  0.00    -0.248 NA
ATOM     44  C   UNL     1       4.283  -4.074   1.641  1.00  0.00     0.031 C 
ATOM     45  C   UNL     1       4.268   0.497   3.601  1.00  0.00     0.029 A 
ATOM     46  N   UNL     1       6.168  -0.343   2.779  1.00  0.00    -0.354 N 
ATOM     47  C   UNL     1       6.546  -4.418   1.560  1.00  0.00     0.074 A 
ATOM     48  C   UNL     1       5.224  -4.932   1.268  1.00  0.00     0.031 C 
ATOM     49  C   UNL     1       5.162   1.496   3.546  1.00  0.00     0.029 A 
ATOM     50  C   UNL     1       6.453   0.951   3.147  1.00  0.00     0.049 A 
ATOM     51  H   UNL     1       6.816  -0.935   2.333  1.00  0.00     0.167 HD
ATOM     52  C   UNL     1       7.706  -5.068   1.298  1.00  0.00     0.037 A 
ATOM     53  C   UNL     1       7.626   1.604   3.263  1.00  0.00     0.037 A 
ATOM     54  C   UNL     1       9.013  -4.497   1.502  1.00  0.00     0.049 A 
ATOM     55  C   UNL     1       8.915   0.871   3.016  1.00  0.00     0.074 A 
ATOM     56  C   UNL     1      10.256  -5.075   1.309  1.00  0.00     0.029 A 
ATOM     57  N   UNL     1       9.240  -3.190   1.903  1.00  0.00    -0.354 N 
ATOM     58  N   UNL     1       9.102  -0.371   2.643  1.00  0.00    -0.248 NA
ATOM     59  C   UNL     1      10.158   1.620   3.254  1.00  0.00     0.031 C 
ATOM     60  C   UNL     1      11.236  -4.119   1.606  1.00  0.00     0.029 A 
ATOM     61  C   UNL     1      10.600  -2.938   1.951  1.00  0.00     0.049 A 
ATOM     62  H   UNL     1       8.537  -2.536   2.121  1.00  0.00     0.167 HD
ATOM     63  C   UNL     1      10.479  -0.552   2.602  1.00  0.00     0.074 A 
ATOM     64  C   UNL     1      11.081   0.714   2.964  1.00  0.00     0.031 C 
ATOM     65  C   UNL     1      11.183  -1.671   2.303  1.00  0.00     0.037 A 
BRANCH  52  66
ATOM     66  C   UNL     1       7.617  -6.492   0.837  1.00  0.00     0.057 A 
ATOM     67  C   UNL     1       7.225  -6.847  -0.458  1.00  0.00     0.134 A 
ATOM     68  C   UNL     1       7.963  -7.531   1.715  1.00  0.00     0.134 A 
ATOM     69  F   UNL     1       6.865  -5.905  -1.341  1.00  0.00    -0.206 F 
ATOM     70  C   UNL     1       7.158  -8.185  -0.857  1.00  0.00     0.040 A 
ATOM     71  C   UNL     1       7.924  -8.869   1.320  1.00  0.00     0.040 A 
ATOM     72  F   UNL     1       8.353  -7.260   2.970  1.00  0.00    -0.206 F 
ATOM     73  C   UNL     1       7.514  -9.199   0.031  1.00  0.00     0.006 A 
ENDBRANCH  52  66
BRANCH  53  74
ATOM     74  C   UNL     1       7.645   3.007   3.755  1.00  0.00     0.057 A 
ATOM     75  C   UNL     1       8.015   4.062   2.915  1.00  0.00     0.134 A 
ATOM     76  C   UNL     1       7.296   3.325   5.074  1.00  0.00     0.134 A 
ATOM     77  F   UNL     1       8.395   3.818   1.652  1.00  0.00    -0.206 F 
ATOM     78  C   UNL     1       8.038   5.383   3.368  1.00  0.00     0.040 A 
ATOM     79  C   UNL     1       7.284   4.643   5.532  1.00  0.00     0.040 A 
ATOM     80  F   UNL     1       6.940   2.358   5.933  1.00  0.00    -0.206 F 
ATOM     81  C   UNL     1       7.660   5.676   4.677  1.00  0.00     0.006 A 
ENDBRANCH  53  74
BRANCH  65  82
ATOM     82  C   UNL     1      12.677  -1.562   2.316  1.00  0.00     0.057 A 
ATOM     83  C   UNL     1      13.403  -1.535   3.512  1.00  0.00     0.134 A 
ATOM     84  C   UNL     1      13.397  -1.508   1.116  1.00  0.00     0.134 A 
ATOM     85  F   UNL     1      12.768  -1.568   4.694  1.00  0.00    -0.206 F 
ATOM     86  C   UNL     1      14.796  -1.442   3.516  1.00  0.00     0.040 A 
ATOM     87  C   UNL     1      14.791  -1.433   1.107  1.00  0.00     0.040 A 
ATOM     88  F   UNL     1      12.759  -1.534  -0.063  1.00  0.00    -0.206 F 
ATOM     89  C   UNL     1      15.493  -1.396   2.310  1.00  0.00     0.006 A 
ENDBRANCH  65  82
ENDBRANCH  39  40
ENDBRANCH  32  34
ENDBRANCH  31  32
ENDBRANCH  30  31
ENDBRANCH  29  30
ENDBRANCH  28  29
ENDBRANCH  27  28
ENDBRANCH   1  27
TORSDOF 23
