REMARK SMILES C[C@@H](C(=O)OCCOCCOCCOC(=O)c1ccc(-c2c3nc(c(-c4c(F)cccc4F)c4ccc([nH]4)c(-c4c(F)cccc4F)c4nc(c(-c5c(F)cccc5F)c5ccc2[nH]5)C=C4)C=C3)cc1)c1ccc(-c2ccc3[nH]ccc3c2)cc1
REMARK SMILES IDX 9 1 8 2 7 3 6 4 5 5 3 6 4 7 2 8 1 9 71 10 72 11 85 12 73 13
REMARK SMILES IDX 84 14 74 15 75 16 76 17 83 18 77 19 82 20 78 21 81 22 79 23
REMARK SMILES IDX 80 24 10 26 11 27 12 28 13 29 14 30 15 31 16 32 17 33 18 34
REMARK SMILES IDX 70 35 19 36 69 37 20 38 21 39 22 40 63 41 23 42 68 43 62 44
REMARK SMILES IDX 64 45 24 46 67 47 61 48 60 49 25 51 51 52 34 53 50 54 35 55
REMARK SMILES IDX 38 56 49 57 65 58 36 59 37 60 48 62 66 63 39 64 26 65 27 66
REMARK SMILES IDX 32 67 28 68 29 69 31 70 33 71 30 72 52 73 53 74 58 75 54 76
REMARK SMILES IDX 55 77 57 78 59 79 56 80 40 81 41 82 46 83 42 84 43 85 45 86
REMARK SMILES IDX 47 87 44 88
REMARK H PARENT 79 25 64 50 38 61
REMARK Flexibility Score: inf
ROOT
ATOM      1  C   UNL     1       0.367  -2.178   2.971  1.00  0.00     0.188 C 
ENDROOT
BRANCH   1   2
ATOM      2  O   UNL     1       1.121  -3.097   3.740  1.00  0.00    -0.376 OA
BRANCH   2   3
ATOM      3  C   UNL     1       2.339  -3.614   3.217  1.00  0.00     0.202 C 
BRANCH   3   4
ATOM      4  C   UNL     1       2.612  -3.776   1.705  1.00  0.00     0.261 C 
BRANCH   4   5
ATOM      5  O   UNL     1       2.149  -2.713   0.856  1.00  0.00    -0.463 OA
BRANCH   5   6
ATOM      6  C   UNL     1       1.434  -3.073  -0.242  1.00  0.00     0.313 C 
ATOM      7  O   UNL     1       1.220  -4.239  -0.565  1.00  0.00    -0.252 OA
BRANCH   6   8
ATOM      8  C   UNL     1       0.850  -1.882  -1.018  1.00  0.00     0.126 C 
ATOM      9  C   UNL     1       1.753  -0.637  -1.008  1.00  0.00     0.025 C 
BRANCH   8  10
ATOM     10  C   UNL     1      -0.638  -1.636  -0.742  1.00  0.00    -0.034 A 
ATOM     11  C   UNL     1      -1.191  -0.355  -0.640  1.00  0.00     0.005 A 
ATOM     12  C   UNL     1      -1.533  -2.714  -0.692  1.00  0.00     0.005 A 
ATOM     13  C   UNL     1      -2.578  -0.166  -0.530  1.00  0.00     0.009 A 
ATOM     14  C   UNL     1      -2.920  -2.519  -0.599  1.00  0.00     0.009 A 
ATOM     15  C   UNL     1      -3.488  -1.236  -0.555  1.00  0.00    -0.018 A 
BRANCH  15  16
ATOM     16  C   UNL     1      -4.961  -1.010  -0.578  1.00  0.00    -0.018 A 
ATOM     17  C   UNL     1      -5.507   0.244  -0.929  1.00  0.00     0.011 A 
ATOM     18  C   UNL     1      -5.877  -2.045  -0.313  1.00  0.00     0.019 A 
ATOM     19  C   UNL     1      -6.878   0.535  -0.878  1.00  0.00     0.027 A 
ATOM     20  C   UNL     1      -7.263  -1.816  -0.405  1.00  0.00    -0.000 A 
ATOM     21  C   UNL     1      -7.729  -0.520  -0.585  1.00  0.00     0.045 A 
ATOM     22  C   UNL     1      -8.399  -2.655  -0.436  1.00  0.00     0.028 A 
ATOM     23  N   UNL     1      -9.093  -0.556  -0.423  1.00  0.00    -0.361 N 
ATOM     24  C   UNL     1      -9.518  -1.854  -0.464  1.00  0.00     0.083 A 
ATOM     25  H   UNL     1      -9.673   0.230  -0.296  1.00  0.00     0.166 HD
ENDBRANCH  15  16
ENDBRANCH   8  10
ENDBRANCH   6   8
ENDBRANCH   5   6
ENDBRANCH   4   5
ENDBRANCH   3   4
ENDBRANCH   2   3
ENDBRANCH   1   2
BRANCH   1  26
ATOM     26  C   UNL     1       1.031  -0.849   2.584  1.00  0.00     0.188 C 
BRANCH  26  27
ATOM     27  O   UNL     1       2.417  -0.764   2.801  1.00  0.00    -0.376 OA
BRANCH  27  28
ATOM     28  C   UNL     1       2.909  -0.257   4.029  1.00  0.00     0.202 C 
BRANCH  28  29
ATOM     29  C   UNL     1       2.082  -0.073   5.321  1.00  0.00     0.261 C 
BRANCH  29  30
ATOM     30  O   UNL     1       0.654  -0.144   5.252  1.00  0.00    -0.460 OA
BRANCH  30  31
ATOM     31  C   UNL     1      -0.012   1.001   4.979  1.00  0.00     0.338 C 
ATOM     32  O   UNL     1       0.470   2.102   4.750  1.00  0.00    -0.246 OA
BRANCH  31  33
ATOM     33  C   UNL     1      -1.440   0.657   4.800  1.00  0.00     0.060 A 
ATOM     34  C   UNL     1      -2.026   0.759   3.529  1.00  0.00     0.016 A 
ATOM     35  C   UNL     1      -2.196   0.229   5.892  1.00  0.00     0.016 A 
ATOM     36  C   UNL     1      -3.375   0.442   3.350  1.00  0.00     0.010 A 
ATOM     37  C   UNL     1      -3.553  -0.059   5.716  1.00  0.00     0.010 A 
ATOM     38  C   UNL     1      -4.157   0.069   4.451  1.00  0.00    -0.014 A 
BRANCH  38  39
ATOM     39  C   UNL     1      -5.638   0.010   4.329  1.00  0.00     0.031 A 
ATOM     40  C   UNL     1      -6.419   1.239   4.708  1.00  0.00     0.074 A 
ATOM     41  C   UNL     1      -6.269  -1.108   3.920  1.00  0.00     0.049 A 
ATOM     42  N   UNL     1      -7.712   1.434   4.722  1.00  0.00    -0.248 NA
ATOM     43  C   UNL     1      -5.632   2.404   5.150  1.00  0.00     0.031 C 
ATOM     44  C   UNL     1      -5.598  -2.334   3.505  1.00  0.00     0.029 A 
ATOM     45  N   UNL     1      -7.608  -1.398   3.783  1.00  0.00    -0.354 N 
ATOM     46  C   UNL     1      -7.893   2.718   5.222  1.00  0.00     0.074 A 
ATOM     47  C   UNL     1      -6.581   3.261   5.492  1.00  0.00     0.031 C 
ATOM     48  C   UNL     1      -6.525  -3.235   3.133  1.00  0.00     0.029 A 
ATOM     49  C   UNL     1      -7.864  -2.674   3.320  1.00  0.00     0.049 A 
ATOM     50  H   UNL     1      -8.320  -0.752   3.996  1.00  0.00     0.167 HD
ATOM     51  C   UNL     1      -9.055   3.373   5.452  1.00  0.00     0.037 A 
ATOM     52  C   UNL     1      -9.043  -3.297   3.070  1.00  0.00     0.037 A 
ATOM     53  C   UNL     1     -10.352   2.823   5.158  1.00  0.00     0.049 A 
ATOM     54  C   UNL     1     -10.312  -2.498   3.301  1.00  0.00     0.074 A 
ATOM     55  C   UNL     1     -11.594   3.405   5.334  1.00  0.00     0.029 A 
ATOM     56  N   UNL     1     -10.569   1.557   4.633  1.00  0.00    -0.354 N 
ATOM     57  N   UNL     1     -10.461  -1.233   3.628  1.00  0.00    -0.248 NA
ATOM     58  C   UNL     1     -11.586  -3.208   3.115  1.00  0.00     0.031 C 
ATOM     59  C   UNL     1     -12.566   2.470   4.969  1.00  0.00     0.029 A 
ATOM     60  C   UNL     1     -11.929   1.328   4.508  1.00  0.00     0.049 A 
ATOM     61  H   UNL     1      -9.863   0.917   4.388  1.00  0.00     0.167 HD
ATOM     62  C   UNL     1     -11.832  -0.996   3.637  1.00  0.00     0.074 A 
ATOM     63  C   UNL     1     -12.465  -2.222   3.205  1.00  0.00     0.031 C 
ATOM     64  C   UNL     1     -12.521   0.114   4.008  1.00  0.00     0.037 A 
BRANCH  51  65
ATOM     65  C   UNL     1      -8.979   4.723   6.105  1.00  0.00     0.057 A 
ATOM     66  C   UNL     1      -8.488   5.854   5.442  1.00  0.00     0.134 A 
ATOM     67  C   UNL     1      -9.435   4.893   7.420  1.00  0.00     0.134 A 
ATOM     68  F   UNL     1      -8.021   5.759   4.188  1.00  0.00    -0.206 F 
ATOM     69  C   UNL     1      -8.431   7.101   6.071  1.00  0.00     0.040 A 
ATOM     70  C   UNL     1      -9.411   6.139   8.048  1.00  0.00     0.040 A 
ATOM     71  F   UNL     1      -9.920   3.852   8.113  1.00  0.00    -0.206 F 
ATOM     72  C   UNL     1      -8.901   7.247   7.375  1.00  0.00     0.006 A 
ENDBRANCH  51  65
BRANCH  52  73
ATOM     73  C   UNL     1      -9.093  -4.694   2.500  1.00  0.00     0.057 A 
ATOM     74  C   UNL     1      -9.817  -5.002   1.334  1.00  0.00     0.134 A 
ATOM     75  C   UNL     1      -8.399  -5.770   3.068  1.00  0.00     0.134 A 
ATOM     76  F   UNL     1     -10.621  -4.096   0.764  1.00  0.00    -0.206 F 
ATOM     77  C   UNL     1      -9.763  -6.248   0.704  1.00  0.00     0.040 A 
ATOM     78  C   UNL     1      -8.327  -7.026   2.448  1.00  0.00     0.040 A 
ATOM     79  F   UNL     1      -7.754  -5.623   4.235  1.00  0.00    -0.206 F 
ATOM     80  C   UNL     1      -8.991  -7.261   1.249  1.00  0.00     0.006 A 
ENDBRANCH  52  73
BRANCH  64  81
ATOM     81  C   UNL     1     -14.022   0.057   3.918  1.00  0.00     0.057 A 
ATOM     82  C   UNL     1     -14.782  -0.775   4.752  1.00  0.00     0.134 A 
ATOM     83  C   UNL     1     -14.720   0.873   3.017  1.00  0.00     0.134 A 
ATOM     84  F   UNL     1     -14.179  -1.584   5.638  1.00  0.00    -0.206 F 
ATOM     85  C   UNL     1     -16.174  -0.829   4.662  1.00  0.00     0.040 A 
ATOM     86  C   UNL     1     -16.114   0.857   2.946  1.00  0.00     0.040 A 
ATOM     87  F   UNL     1     -14.060   1.710   2.202  1.00  0.00    -0.206 F 
ATOM     88  C   UNL     1     -16.844  -0.005   3.761  1.00  0.00     0.006 A 
ENDBRANCH  64  81
ENDBRANCH  38  39
ENDBRANCH  31  33
ENDBRANCH  30  31
ENDBRANCH  29  30
ENDBRANCH  28  29
ENDBRANCH  27  28
ENDBRANCH  26  27
ENDBRANCH   1  26
TORSDOF 19
