REMARK SMILES NC(=O)C[C@H](NC(=O)[C@@H]1CCC[NH2+]1)C(=O)OCCOCCOCCOC(=O)c1ccc(-c2c3nc(c(-c4c(F)cccc4F)c4ccc([nH]4)c(-c4c(F)cccc4F)c4nc(c(-c5c(F)cccc5F)c5ccc2[nH]5)C=C4)C=C3)cc1
REMARK SMILES IDX 20 1 19 2 18 3 17 4 16 5 14 6 15 7 5 8 4 9 2 10 1 11 3 14
REMARK SMILES IDX 6 15 7 16 8 18 9 19 10 20 13 21 11 22 12 23 21 26 22 27
REMARK SMILES IDX 23 28 24 29 25 30 26 31 27 32 28 33 29 34 81 35 30 36 80 37
REMARK SMILES IDX 31 38 32 39 33 40 74 41 34 42 79 43 73 44 75 45 35 46 78 47
REMARK SMILES IDX 72 48 71 49 36 51 62 52 45 53 61 54 46 55 49 56 60 57 76 58
REMARK SMILES IDX 47 59 48 60 59 62 77 63 50 64 37 65 38 66 43 67 39 68 40 69
REMARK SMILES IDX 42 70 44 71 41 72 63 73 64 74 69 75 65 76 66 77 68 78 70 79
REMARK SMILES IDX 67 80 51 81 52 82 57 83 53 84 54 85 56 86 58 87 55 88
REMARK H PARENT 1 12 1 13 6 17 13 24 13 25 75 50 49 61
REMARK Flexibility Score: inf
ROOT
ATOM      1  C   UNL     1       1.552  -6.215   0.112  1.00  0.00     0.188 C 
ENDROOT
BRANCH   1   2
ATOM      2  O   UNL     1       2.625  -7.123   0.325  1.00  0.00    -0.376 OA
BRANCH   2   3
ATOM      3  C   UNL     1       3.781  -6.734   1.053  1.00  0.00     0.202 C 
BRANCH   3   4
ATOM      4  C   UNL     1       4.571  -5.497   0.607  1.00  0.00     0.261 C 
BRANCH   4   5
ATOM      5  O   UNL     1       3.820  -4.274   0.520  1.00  0.00    -0.462 OA
BRANCH   5   6
ATOM      6  C   UNL     1       3.507  -3.854  -0.734  1.00  0.00     0.329 C 
ATOM      7  O   UNL     1       3.743  -4.479  -1.764  1.00  0.00    -0.250 OA
BRANCH   6   8
ATOM      8  C   UNL     1       2.796  -2.486  -0.752  1.00  0.00     0.201 C 
BRANCH   8   9
ATOM      9  C   UNL     1       3.663  -1.637  -1.670  1.00  0.00     0.136 C 
BRANCH   9  10
ATOM     10  C   UNL     1       3.209  -1.570  -3.111  1.00  0.00     0.220 C 
ATOM     11  N   UNL     1       2.629  -2.663  -3.666  1.00  0.00    -0.370 N 
ATOM     12  H   UNL     1       2.328  -2.639  -4.603  1.00  0.00     0.159 HD
ATOM     13  H   UNL     1       2.510  -3.482  -3.132  1.00  0.00     0.159 HD
ATOM     14  O   UNL     1       3.397  -0.566  -3.794  1.00  0.00    -0.275 OA
ENDBRANCH   9  10
ENDBRANCH   8   9
BRANCH   8  15
ATOM     15  N   UNL     1       2.602  -1.931   0.610  1.00  0.00    -0.337 N 
ATOM     16  C   UNL     1       1.632  -1.007   0.942  1.00  0.00     0.278 C 
ATOM     17  H   UNL     1       3.204  -2.242   1.325  1.00  0.00     0.164 HD
ATOM     18  O   UNL     1       0.652  -1.392   1.582  1.00  0.00    -0.268 OA
BRANCH  16  19
ATOM     19  C   UNL     1       1.835   0.480   0.580  1.00  0.00     0.272 C 
ATOM     20  C   UNL     1       1.449   0.872  -0.831  1.00  0.00     0.081 C 
ATOM     21  N   UNL     1       3.244   0.883   0.800  1.00  0.00    -0.336 N 
ATOM     22  C   UNL     1       2.485   1.904  -1.242  1.00  0.00     0.068 C 
ATOM     23  C   UNL     1       3.686   1.684  -0.340  1.00  0.00     0.261 C 
ATOM     24  H   UNL     1       3.829   0.053   0.883  1.00  0.00     0.346 HD
ATOM     25  H   UNL     1       3.319   1.430   1.658  1.00  0.00     0.346 HD
ENDBRANCH  16  19
ENDBRANCH   8  15
ENDBRANCH   6   8
ENDBRANCH   5   6
ENDBRANCH   4   5
ENDBRANCH   3   4
ENDBRANCH   2   3
ENDBRANCH   1   2
BRANCH   1  26
ATOM     26  C   UNL     1       1.125  -5.221   1.209  1.00  0.00     0.188 C 
BRANCH  26  27
ATOM     27  O   UNL     1       1.888  -5.302   2.393  1.00  0.00    -0.376 OA
BRANCH  27  28
ATOM     28  C   UNL     1       1.246  -5.872   3.528  1.00  0.00     0.202 C 
BRANCH  28  29
ATOM     29  C   UNL     1       0.564  -7.251   3.402  1.00  0.00     0.261 C 
BRANCH  29  30
ATOM     30  O   UNL     1      -0.241  -7.473   2.230  1.00  0.00    -0.460 OA
BRANCH  30  31
ATOM     31  C   UNL     1      -1.479  -6.923   2.202  1.00  0.00     0.338 C 
ATOM     32  O   UNL     1      -2.011  -6.269   3.075  1.00  0.00    -0.246 OA
BRANCH  31  33
ATOM     33  C   UNL     1      -1.994  -7.071   0.818  1.00  0.00     0.060 A 
ATOM     34  C   UNL     1      -2.208  -5.920   0.043  1.00  0.00     0.016 A 
ATOM     35  C   UNL     1      -2.232  -8.335   0.277  1.00  0.00     0.016 A 
ATOM     36  C   UNL     1      -2.673  -6.033  -1.271  1.00  0.00     0.010 A 
ATOM     37  C   UNL     1      -2.726  -8.445  -1.028  1.00  0.00     0.010 A 
ATOM     38  C   UNL     1      -2.971  -7.294  -1.801  1.00  0.00    -0.014 A 
BRANCH  38  39
ATOM     39  C   UNL     1      -3.727  -7.413  -3.075  1.00  0.00     0.031 A 
ATOM     40  C   UNL     1      -5.217  -7.600  -2.999  1.00  0.00     0.074 A 
ATOM     41  C   UNL     1      -3.116  -7.367  -4.272  1.00  0.00     0.049 A 
ATOM     42  N   UNL     1      -6.078  -7.838  -3.955  1.00  0.00    -0.248 NA
ATOM     43  C   UNL     1      -5.815  -7.512  -1.657  1.00  0.00     0.031 C 
ATOM     44  C   UNL     1      -1.690  -7.141  -4.489  1.00  0.00     0.029 A 
ATOM     45  N   UNL     1      -3.629  -7.529  -5.537  1.00  0.00    -0.354 N 
ATOM     46  C   UNL     1      -7.314  -7.942  -3.329  1.00  0.00     0.074 A 
ATOM     47  C   UNL     1      -7.089  -7.766  -1.911  1.00  0.00     0.031 C 
ATOM     48  C   UNL     1      -1.436  -7.201  -5.810  1.00  0.00     0.029 A 
ATOM     49  C   UNL     1      -2.675  -7.508  -6.525  1.00  0.00     0.049 A 
ATOM     50  H   UNL     1      -4.589  -7.648  -5.718  1.00  0.00     0.167 HD
ATOM     51  C   UNL     1      -8.529  -8.162  -3.885  1.00  0.00     0.037 A 
ATOM     52  C   UNL     1      -2.785  -7.743  -7.848  1.00  0.00     0.037 A 
ATOM     53  C   UNL     1      -8.753  -8.343  -5.294  1.00  0.00     0.049 A 
ATOM     54  C   UNL     1      -4.136  -8.074  -8.435  1.00  0.00     0.074 A 
ATOM     55  C   UNL     1      -9.949  -8.558  -5.955  1.00  0.00     0.029 A 
ATOM     56  N   UNL     1      -7.756  -8.341  -6.258  1.00  0.00    -0.354 N 
ATOM     57  N   UNL     1      -5.301  -8.154  -7.840  1.00  0.00    -0.248 NA
ATOM     58  C   UNL     1      -4.184  -8.351  -9.879  1.00  0.00     0.031 C 
ATOM     59  C   UNL     1      -9.670  -8.743  -7.313  1.00  0.00     0.029 A 
ATOM     60  C   UNL     1      -8.307  -8.580  -7.506  1.00  0.00     0.049 A 
ATOM     61  H   UNL     1      -6.799  -8.193  -6.082  1.00  0.00     0.167 HD
ATOM     62  C   UNL     1      -6.222  -8.454  -8.838  1.00  0.00     0.074 A 
ATOM     63  C   UNL     1      -5.481  -8.534 -10.079  1.00  0.00     0.031 C 
ATOM     64  C   UNL     1      -7.561  -8.643  -8.737  1.00  0.00     0.037 A 
BRANCH  51  65
ATOM     65  C   UNL     1      -9.706  -8.254  -2.957  1.00  0.00     0.057 A 
ATOM     66  C   UNL     1     -10.210  -7.134  -2.284  1.00  0.00     0.134 A 
ATOM     67  C   UNL     1     -10.357  -9.477  -2.755  1.00  0.00     0.134 A 
ATOM     68  F   UNL     1      -9.622  -5.936  -2.420  1.00  0.00    -0.206 F 
ATOM     69  C   UNL     1     -11.305  -7.232  -1.423  1.00  0.00     0.040 A 
ATOM     70  C   UNL     1     -11.470  -9.582  -1.921  1.00  0.00     0.040 A 
ATOM     71  F   UNL     1      -9.927 -10.588  -3.372  1.00  0.00    -0.206 F 
ATOM     72  C   UNL     1     -11.943  -8.459  -1.246  1.00  0.00     0.006 A 
ENDBRANCH  51  65
BRANCH  52  73
ATOM     73  C   UNL     1      -1.581  -7.704  -8.720  1.00  0.00     0.057 A 
ATOM     74  C   UNL     1      -1.425  -6.716  -9.699  1.00  0.00     0.134 A 
ATOM     75  C   UNL     1      -0.575  -8.674  -8.620  1.00  0.00     0.134 A 
ATOM     76  F   UNL     1      -2.367  -5.776  -9.864  1.00  0.00    -0.206 F 
ATOM     77  C   UNL     1      -0.325  -6.703 -10.559  1.00  0.00     0.040 A 
ATOM     78  C   UNL     1       0.544  -8.657  -9.454  1.00  0.00     0.040 A 
ATOM     79  F   UNL     1      -0.664  -9.650  -7.705  1.00  0.00    -0.206 F 
ATOM     80  C   UNL     1       0.667  -7.674 -10.433  1.00  0.00     0.006 A 
ENDBRANCH  52  73
BRANCH  64  81
ATOM     81  C   UNL     1      -8.327  -8.904 -10.004  1.00  0.00     0.057 A 
ATOM     82  C   UNL     1      -8.232 -10.119 -10.694  1.00  0.00     0.134 A 
ATOM     83  C   UNL     1      -9.216  -7.944 -10.506  1.00  0.00     0.134 A 
ATOM     84  F   UNL     1      -7.393 -11.077 -10.274  1.00  0.00    -0.206 F 
ATOM     85  C   UNL     1      -8.979 -10.361 -11.850  1.00  0.00     0.040 A 
ATOM     86  C   UNL     1      -9.989  -8.186 -11.642  1.00  0.00     0.040 A 
ATOM     87  F   UNL     1      -9.365  -6.763  -9.886  1.00  0.00    -0.206 F 
ATOM     88  C   UNL     1      -9.867  -9.396 -12.321  1.00  0.00     0.006 A 
ENDBRANCH  64  81
ENDBRANCH  38  39
ENDBRANCH  31  33
ENDBRANCH  30  31
ENDBRANCH  29  30
ENDBRANCH  28  29
ENDBRANCH  27  28
ENDBRANCH  26  27
ENDBRANCH   1  26
TORSDOF 21
