REMARK SMILES C[C@@H]1CC([NH2+][C@@](C)(C(=O)OCCOCCOCCOC(=O)c2ccc(-c3c4nc(c(-c5c(F)cccc5F)c5ccc([nH]5)c(-c5c(F)cccc5F)c5nc(c(-c6c(F)cccc6F)c6ccc3[nH]6)C=C5)C=C4)cc2)C(F)(F)F)C[C@@H](C)C1
REMARK SMILES IDX 14 1 13 2 12 3 11 4 10 5 8 6 9 7 6 8 7 9 5 10 4 13 1 14 2 15
REMARK SMILES IDX 3 16 83 17 81 18 80 19 82 20 76 21 77 22 78 23 79 24 15 25
REMARK SMILES IDX 16 26 17 27 18 28 19 29 20 30 21 31 22 32 23 33 75 34 24 35
REMARK SMILES IDX 74 36 25 37 26 38 27 39 68 40 28 41 73 42 67 43 69 44 29 45
REMARK SMILES IDX 72 46 66 47 65 48 30 50 56 51 39 52 55 53 40 54 43 55 54 56
REMARK SMILES IDX 70 57 41 58 42 59 53 61 71 62 44 63 31 64 32 65 37 66 33 67
REMARK SMILES IDX 34 68 36 69 38 70 35 71 57 72 58 73 63 74 59 75 60 76 62 77
REMARK SMILES IDX 64 78 61 79 45 80 46 81 51 82 47 83 48 84 50 85 52 86 49 87
REMARK H PARENT 5 11 5 12 69 49 43 60
REMARK Flexibility Score: inf
ROOT
ATOM      1  C   UNL     1       3.425  -3.199   3.264  1.00  0.00     0.188 C 
ENDROOT
BRANCH   1   2
ATOM      2  O   UNL     1       4.402  -2.734   4.185  1.00  0.00    -0.376 OA
BRANCH   2   3
ATOM      3  C   UNL     1       4.962  -1.439   4.041  1.00  0.00     0.202 C 
BRANCH   3   4
ATOM      4  C   UNL     1       5.526  -0.964   2.690  1.00  0.00     0.261 C 
BRANCH   4   5
ATOM      5  O   UNL     1       4.799  -1.329   1.503  1.00  0.00    -0.458 OA
BRANCH   5   6
ATOM      6  C   UNL     1       5.309  -2.385   0.799  1.00  0.00     0.377 C 
ATOM      7  O   UNL     1       6.322  -2.983   1.147  1.00  0.00    -0.244 OA
BRANCH   6   8
ATOM      8  C   UNL     1       4.559  -2.660  -0.527  1.00  0.00     0.287 C 
ATOM      9  C   UNL     1       5.486  -2.063  -1.597  1.00  0.00     0.103 C 
BRANCH   8  10
ATOM     10  N   UNL     1       3.193  -2.007  -0.519  1.00  0.00    -0.322 N 
ATOM     11  H   UNL     1       2.732  -2.298   0.343  1.00  0.00     0.347 HD
ATOM     12  H   UNL     1       3.408  -1.016  -0.626  1.00  0.00     0.347 HD
BRANCH  10  13
ATOM     13  C   UNL     1       2.247  -2.265  -1.612  1.00  0.00     0.184 C 
ATOM     14  C   UNL     1       0.826   0.439  -0.017  1.00  0.00     0.008 C 
ATOM     15  C   UNL     1       0.536  -0.270  -1.341  1.00  0.00    -0.008 C 
ATOM     16  C   UNL     1       0.812  -1.789  -1.257  1.00  0.00     0.068 C 
ATOM     17  C   UNL     1       1.232   0.428  -2.530  1.00  0.00     0.007 C 
ATOM     18  C   UNL     1       2.662  -0.070  -2.767  1.00  0.00    -0.008 C 
ATOM     19  C   UNL     1       2.625  -1.593  -2.933  1.00  0.00     0.068 C 
ATOM     20  C   UNL     1       3.333   0.582  -3.969  1.00  0.00     0.008 C 
ENDBRANCH  10  13
ENDBRANCH   8  10
BRANCH   8  21
ATOM     21  C   UNL     1       4.532  -4.205  -0.632  1.00  0.00     0.455 C 
ATOM     22  F   UNL     1       3.760  -4.762   0.334  1.00  0.00    -0.164 F 
ATOM     23  F   UNL     1       4.005  -4.599  -1.822  1.00  0.00    -0.164 F 
ATOM     24  F   UNL     1       5.753  -4.778  -0.569  1.00  0.00    -0.164 F 
ENDBRANCH   8  21
ENDBRANCH   6   8
ENDBRANCH   5   6
ENDBRANCH   4   5
ENDBRANCH   3   4
ENDBRANCH   2   3
ENDBRANCH   1   2
BRANCH   1  25
ATOM     25  C   UNL     1       2.343  -2.242   2.729  1.00  0.00     0.188 C 
BRANCH  25  26
ATOM     26  O   UNL     1       2.404  -0.945   3.268  1.00  0.00    -0.376 OA
BRANCH  26  27
ATOM     27  C   UNL     1       1.451  -0.586   4.250  1.00  0.00     0.202 C 
BRANCH  27  28
ATOM     28  C   UNL     1       0.967  -1.568   5.340  1.00  0.00     0.261 C 
BRANCH  28  29
ATOM     29  O   UNL     1       1.042  -2.977   5.073  1.00  0.00    -0.460 OA
BRANCH  29  30
ATOM     30  C   UNL     1      -0.017  -3.562   4.466  1.00  0.00     0.338 C 
ATOM     31  O   UNL     1      -1.046  -3.016   4.099  1.00  0.00    -0.246 OA
BRANCH  30  32
ATOM     32  C   UNL     1       0.354  -4.955   4.125  1.00  0.00     0.060 A 
ATOM     33  C   UNL     1       0.491  -5.320   2.777  1.00  0.00     0.016 A 
ATOM     34  C   UNL     1       0.574  -5.897   5.131  1.00  0.00     0.016 A 
ATOM     35  C   UNL     1       0.828  -6.633   2.432  1.00  0.00     0.010 A 
ATOM     36  C   UNL     1       0.883  -7.218   4.783  1.00  0.00     0.010 A 
ATOM     37  C   UNL     1       0.984  -7.601   3.432  1.00  0.00    -0.014 A 
BRANCH  37  38
ATOM     38  C   UNL     1       1.057  -9.042   3.079  1.00  0.00     0.031 A 
ATOM     39  C   UNL     1      -0.201  -9.864   3.172  1.00  0.00     0.074 A 
ATOM     40  C   UNL     1       2.206  -9.624   2.691  1.00  0.00     0.049 A 
ATOM     41  N   UNL     1      -0.372 -11.152   3.021  1.00  0.00    -0.248 NA
ATOM     42  C   UNL     1      -1.436  -9.125   3.484  1.00  0.00     0.031 C 
ATOM     43  C   UNL     1       3.483  -8.941   2.506  1.00  0.00     0.029 A 
ATOM     44  N   UNL     1       2.481 -10.940   2.400  1.00  0.00    -0.354 N 
ATOM     45  C   UNL     1      -1.726 -11.380   3.232  1.00  0.00     0.074 A 
ATOM     46  C   UNL     1      -2.326 -10.102   3.549  1.00  0.00     0.031 C 
ATOM     47  C   UNL     1       4.414  -9.847   2.154  1.00  0.00     0.029 A 
ATOM     48  C   UNL     1       3.806 -11.177   2.126  1.00  0.00     0.049 A 
ATOM     49  H   UNL     1       1.793 -11.644   2.389  1.00  0.00     0.167 HD
ATOM     50  C   UNL     1      -2.410 -12.547   3.164  1.00  0.00     0.037 A 
ATOM     51  C   UNL     1       4.457 -12.338   1.909  1.00  0.00     0.037 A 
ATOM     52  C   UNL     1      -1.814 -13.820   2.855  1.00  0.00     0.049 A 
ATOM     53  C   UNL     1       3.690 -13.638   1.928  1.00  0.00     0.074 A 
ATOM     54  C   UNL     1      -2.428 -15.056   2.750  1.00  0.00     0.029 A 
ATOM     55  N   UNL     1      -0.464 -14.022   2.614  1.00  0.00    -0.354 N 
ATOM     56  N   UNL     1       2.408 -13.844   2.110  1.00  0.00    -0.248 NA
ATOM     57  C   UNL     1       4.465 -14.870   1.710  1.00  0.00     0.031 C 
ATOM     58  C   UNL     1      -1.441 -16.015   2.505  1.00  0.00     0.029 A 
ATOM     59  C   UNL     1      -0.221 -15.368   2.389  1.00  0.00     0.049 A 
ATOM     60  H   UNL     1       0.221 -13.315   2.603  1.00  0.00     0.167 HD
ATOM     61  C   UNL     1       2.219 -15.217   1.992  1.00  0.00     0.074 A 
ATOM     62  C   UNL     1       3.516 -15.795   1.713  1.00  0.00     0.031 C 
ATOM     63  C   UNL     1       1.072 -15.934   2.100  1.00  0.00     0.037 A 
BRANCH  50  64
ATOM     64  C   UNL     1      -3.881 -12.503   3.465  1.00  0.00     0.057 A 
ATOM     65  C   UNL     1      -4.800 -11.900   2.597  1.00  0.00     0.134 A 
ATOM     66  C   UNL     1      -4.386 -13.098   4.628  1.00  0.00     0.134 A 
ATOM     67  F   UNL     1      -4.381 -11.299   1.473  1.00  0.00    -0.206 F 
ATOM     68  C   UNL     1      -6.165 -11.866   2.888  1.00  0.00     0.040 A 
ATOM     69  C   UNL     1      -5.752 -13.098   4.915  1.00  0.00     0.040 A 
ATOM     70  F   UNL     1      -3.562 -13.697   5.501  1.00  0.00    -0.206 F 
ATOM     71  C   UNL     1      -6.645 -12.474   4.047  1.00  0.00     0.006 A 
ENDBRANCH  50  64
BRANCH  51  72
ATOM     72  C   UNL     1       5.925 -12.341   1.676  1.00  0.00     0.057 A 
ATOM     73  C   UNL     1       6.464 -12.715   0.439  1.00  0.00     0.134 A 
ATOM     74  C   UNL     1       6.827 -12.011   2.696  1.00  0.00     0.134 A 
ATOM     75  F   UNL     1       5.655 -13.074  -0.569  1.00  0.00    -0.206 F 
ATOM     76  C   UNL     1       7.843 -12.781   0.231  1.00  0.00     0.040 A 
ATOM     77  C   UNL     1       8.207 -12.044   2.493  1.00  0.00     0.040 A 
ATOM     78  F   UNL     1       6.377 -11.652   3.908  1.00  0.00    -0.206 F 
ATOM     79  C   UNL     1       8.719 -12.438   1.258  1.00  0.00     0.006 A 
ENDBRANCH  51  72
BRANCH  63  80
ATOM     80  C   UNL     1       1.152 -17.417   1.868  1.00  0.00     0.057 A 
ATOM     81  C   UNL     1       1.772 -18.284   2.777  1.00  0.00     0.134 A 
ATOM     82  C   UNL     1       0.555 -17.991   0.736  1.00  0.00     0.134 A 
ATOM     83  F   UNL     1       2.372 -17.801   3.876  1.00  0.00    -0.206 F 
ATOM     84  C   UNL     1       1.818 -19.662   2.557  1.00  0.00     0.040 A 
ATOM     85  C   UNL     1       0.567 -19.370   0.522  1.00  0.00     0.040 A 
ATOM     86  F   UNL     1      -0.067 -17.223  -0.170  1.00  0.00    -0.206 F 
ATOM     87  C   UNL     1       1.207 -20.210   1.430  1.00  0.00     0.006 A 
ENDBRANCH  63  80
ENDBRANCH  37  38
ENDBRANCH  30  32
ENDBRANCH  29  30
ENDBRANCH  28  29
ENDBRANCH  27  28
ENDBRANCH  26  27
ENDBRANCH  25  26
ENDBRANCH   1  25
TORSDOF 20
