REMARK SMILES CC1(C)OC(=O)C(/C=N/[C@@H](CCC(N)=O)C(=O)OCCOCCOCCOC(=O)c2ccc(-c3c4nc(c(-c5c(F)cccc5F)c5ccc([nH]5)c(-c5c(F)cccc5F)c5nc(c(-c6c(F)cccc6F)c6ccc3[nH]6)C=C5)C=C4)cc2)C(=O)O1
REMARK SMILES IDX 22 1 21 2 20 3 19 4 18 5 16 6 17 7 10 8 9 9 8 10 7 11 1 12
REMARK SMILES IDX 2 13 3 14 4 15 86 16 5 17 84 18 6 19 85 20 11 21 12 22 13 23
REMARK SMILES IDX 14 24 15 25 23 28 24 29 25 30 26 31 27 32 28 33 29 34 30 35
REMARK SMILES IDX 31 36 83 37 32 38 82 39 33 40 34 41 35 42 76 43 36 44 81 45
REMARK SMILES IDX 75 46 77 47 37 48 80 49 74 50 73 51 38 53 64 54 47 55 63 56
REMARK SMILES IDX 48 57 51 58 62 59 78 60 49 61 50 62 61 64 79 65 52 66 39 67
REMARK SMILES IDX 40 68 45 69 41 70 42 71 44 72 46 73 43 74 65 75 66 76 71 77
REMARK SMILES IDX 67 78 68 79 70 80 72 81 69 82 53 83 54 84 59 85 55 86 56 87
REMARK SMILES IDX 58 88 60 89 57 90
REMARK H PARENT 14 26 14 27 77 52 51 63
REMARK Flexibility Score: inf
ROOT
ATOM      1  C   UNL     1       3.419   4.831   2.746  1.00  0.00     0.188 C 
ENDROOT
BRANCH   1   2
ATOM      2  O   UNL     1       4.290   4.392   3.778  1.00  0.00    -0.376 OA
BRANCH   2   3
ATOM      3  C   UNL     1       3.917   3.265   4.564  1.00  0.00     0.202 C 
BRANCH   3   4
ATOM      4  C   UNL     1       2.484   3.158   5.108  1.00  0.00     0.261 C 
BRANCH   4   5
ATOM      5  O   UNL     1       1.444   3.119   4.105  1.00  0.00    -0.462 OA
BRANCH   5   6
ATOM      6  C   UNL     1       0.503   4.088   4.189  1.00  0.00     0.330 C 
ATOM      7  O   UNL     1       0.509   4.962   5.057  1.00  0.00    -0.250 OA
BRANCH   6   8
ATOM      8  C   UNL     1      -0.644   4.016   3.184  1.00  0.00     0.215 C 
BRANCH   8   9
ATOM      9  N   UNL     1      -0.513   3.383   1.862  1.00  0.00    -0.281 NA
ATOM     10  C   UNL     1      -0.051   2.213   1.628  1.00  0.00     0.106 C 
BRANCH  10  11
ATOM     11  C   UNL     1      -0.186   1.640   0.237  1.00  0.00     0.250 C 
ATOM     12  C   UNL     1      -0.076  -1.968   1.308  1.00  0.00     0.106 C 
ATOM     13  C   UNL     1      -0.021  -1.157   0.017  1.00  0.00     0.252 C 
ATOM     14  C   UNL     1       0.119  -2.094  -1.184  1.00  0.00     0.106 C 
ATOM     15  O   UNL     1       1.150  -0.344   0.048  1.00  0.00    -0.422 OA
ATOM     16  O   UNL     1      -1.272  -0.489  -0.148  1.00  0.00    -0.422 OA
ATOM     17  C   UNL     1       1.032   0.959  -0.249  1.00  0.00     0.329 C 
ATOM     18  C   UNL     1      -1.415   0.817   0.114  1.00  0.00     0.329 C 
ATOM     19  O   UNL     1       1.936   1.562  -0.817  1.00  0.00    -0.251 OA
ATOM     20  O   UNL     1      -2.538   1.302   0.213  1.00  0.00    -0.251 OA
ENDBRANCH  10  11
ENDBRANCH   8   9
BRANCH   8  21
ATOM     21  C   UNL     1      -1.961   3.627   3.862  1.00  0.00     0.049 C 
BRANCH  21  22
ATOM     22  C   UNL     1      -2.203   2.134   4.072  1.00  0.00     0.102 C 
BRANCH  22  23
ATOM     23  C   UNL     1      -1.115   1.408   4.827  1.00  0.00     0.217 C 
ATOM     24  N   UNL     1      -0.875   1.841   6.093  1.00  0.00    -0.370 N 
ATOM     25  O   UNL     1      -0.482   0.474   4.346  1.00  0.00    -0.275 OA
ATOM     26  H   UNL     1      -1.393   2.592   6.463  1.00  0.00     0.159 HD
ATOM     27  H   UNL     1      -0.184   1.403   6.639  1.00  0.00     0.159 HD
ENDBRANCH  22  23
ENDBRANCH  21  22
ENDBRANCH   8  21
ENDBRANCH   6   8
ENDBRANCH   5   6
ENDBRANCH   4   5
ENDBRANCH   3   4
ENDBRANCH   2   3
ENDBRANCH   1   2
BRANCH   1  28
ATOM     28  C   UNL     1       2.874   3.802   1.740  1.00  0.00     0.188 C 
BRANCH  28  29
ATOM     29  O   UNL     1       3.153   2.453   2.037  1.00  0.00    -0.376 OA
BRANCH  29  30
ATOM     30  C   UNL     1       4.221   1.804   1.363  1.00  0.00     0.202 C 
BRANCH  30  31
ATOM     31  C   UNL     1       5.464   2.531   0.810  1.00  0.00     0.261 C 
BRANCH  31  32
ATOM     32  O   UNL     1       5.366   3.938   0.568  1.00  0.00    -0.460 OA
BRANCH  32  33
ATOM     33  C   UNL     1       4.952   4.333  -0.659  1.00  0.00     0.338 C 
ATOM     34  O   UNL     1       4.676   3.632  -1.617  1.00  0.00    -0.246 OA
BRANCH  33  35
ATOM     35  C   UNL     1       4.709   5.790  -0.592  1.00  0.00     0.060 A 
ATOM     36  C   UNL     1       3.402   6.284  -0.723  1.00  0.00     0.016 A 
ATOM     37  C   UNL     1       5.775   6.663  -0.373  1.00  0.00     0.016 A 
ATOM     38  C   UNL     1       3.163   7.658  -0.659  1.00  0.00     0.010 A 
ATOM     39  C   UNL     1       5.538   8.038  -0.337  1.00  0.00     0.010 A 
ATOM     40  C   UNL     1       4.237   8.544  -0.511  1.00  0.00    -0.014 A 
BRANCH  40  41
ATOM     41  C   UNL     1       4.046   9.996  -0.744  1.00  0.00     0.031 A 
ATOM     42  C   UNL     1       4.409  10.550  -2.095  1.00  0.00     0.074 A 
ATOM     43  C   UNL     1       3.575  10.813   0.214  1.00  0.00     0.049 A 
ATOM     44  N   UNL     1       4.418  11.790  -2.514  1.00  0.00    -0.248 NA
ATOM     45  C   UNL     1       4.830   9.568  -3.107  1.00  0.00     0.031 C 
ATOM     46  C   UNL     1       3.152  10.398   1.549  1.00  0.00     0.029 A 
ATOM     47  N   UNL     1       3.393  12.174   0.208  1.00  0.00    -0.354 N 
ATOM     48  C   UNL     1       4.855  11.737  -3.831  1.00  0.00     0.074 A 
ATOM     49  C   UNL     1       5.134  10.349  -4.131  1.00  0.00     0.031 C 
ATOM     50  C   UNL     1       2.775  11.487   2.243  1.00  0.00     0.029 A 
ATOM     51  C   UNL     1       2.963  12.676   1.412  1.00  0.00     0.049 A 
ATOM     52  H   UNL     1       3.554  12.736  -0.583  1.00  0.00     0.167 HD
ATOM     53  C   UNL     1       5.004  12.751  -4.715  1.00  0.00     0.037 A 
ATOM     54  C   UNL     1       2.772  13.952   1.804  1.00  0.00     0.037 A 
ATOM     55  C   UNL     1       4.733  14.132  -4.413  1.00  0.00     0.049 A 
ATOM     56  C   UNL     1       3.020  15.074   0.828  1.00  0.00     0.074 A 
ATOM     57  C   UNL     1       4.833  15.232  -5.246  1.00  0.00     0.029 A 
ATOM     58  N   UNL     1       4.323  14.603  -3.175  1.00  0.00    -0.354 N 
ATOM     59  N   UNL     1       3.403  15.015  -0.425  1.00  0.00    -0.248 NA
ATOM     60  C   UNL     1       2.807  16.443   1.322  1.00  0.00     0.031 C 
ATOM     61  C   UNL     1       4.544  16.376  -4.495  1.00  0.00     0.029 A 
ATOM     62  C   UNL     1       4.197  15.982  -3.213  1.00  0.00     0.049 A 
ATOM     63  H   UNL     1       4.148  14.041  -2.385  1.00  0.00     0.167 HD
ATOM     64  C   UNL     1       3.443  16.330  -0.877  1.00  0.00     0.074 A 
ATOM     65  C   UNL     1       3.034  17.164   0.233  1.00  0.00     0.031 C 
ATOM     66  C   UNL     1       3.782  16.803  -2.102  1.00  0.00     0.037 A 
BRANCH  53  67
ATOM     67  C   UNL     1       5.516  12.403  -6.083  1.00  0.00     0.057 A 
ATOM     68  C   UNL     1       4.749  11.675  -7.003  1.00  0.00     0.134 A 
ATOM     69  C   UNL     1       6.790  12.817  -6.492  1.00  0.00     0.134 A 
ATOM     70  F   UNL     1       3.526  11.234  -6.671  1.00  0.00    -0.206 F 
ATOM     71  C   UNL     1       5.243  11.344  -8.266  1.00  0.00     0.040 A 
ATOM     72  C   UNL     1       7.282  12.520  -7.764  1.00  0.00     0.040 A 
ATOM     73  F   UNL     1       7.577  13.522  -5.664  1.00  0.00    -0.206 F 
ATOM     74  C   UNL     1       6.511  11.773  -8.652  1.00  0.00     0.006 A 
ENDBRANCH  53  67
BRANCH  54  75
ATOM     75  C   UNL     1       2.332  14.246   3.192  1.00  0.00     0.057 A 
ATOM     76  C   UNL     1       1.066  14.784   3.454  1.00  0.00     0.134 A 
ATOM     77  C   UNL     1       3.174  14.022   4.289  1.00  0.00     0.134 A 
ATOM     78  F   UNL     1       0.223  15.048   2.444  1.00  0.00    -0.206 F 
ATOM     79  C   UNL     1       0.659  15.103   4.751  1.00  0.00     0.040 A 
ATOM     80  C   UNL     1       2.769  14.310   5.594  1.00  0.00     0.040 A 
ATOM     81  F   UNL     1       4.401  13.513   4.108  1.00  0.00    -0.206 F 
ATOM     82  C   UNL     1       1.511  14.860   5.826  1.00  0.00     0.006 A 
ENDBRANCH  54  75
BRANCH  66  83
ATOM     83  C   UNL     1       3.685  18.287  -2.327  1.00  0.00     0.057 A 
ATOM     84  C   UNL     1       4.573  19.192  -1.732  1.00  0.00     0.134 A 
ATOM     85  C   UNL     1       2.714  18.812  -3.191  1.00  0.00     0.134 A 
ATOM     86  F   UNL     1       5.521  18.759  -0.886  1.00  0.00    -0.206 F 
ATOM     87  C   UNL     1       4.483  20.566  -1.967  1.00  0.00     0.040 A 
ATOM     88  C   UNL     1       2.634  20.180  -3.458  1.00  0.00     0.040 A 
ATOM     89  F   UNL     1       1.838  18.002  -3.805  1.00  0.00    -0.206 F 
ATOM     90  C   UNL     1       3.516  21.062  -2.839  1.00  0.00     0.006 A 
ENDBRANCH  66  83
ENDBRANCH  40  41
ENDBRANCH  33  35
ENDBRANCH  32  33
ENDBRANCH  31  32
ENDBRANCH  30  31
ENDBRANCH  29  30
ENDBRANCH  28  29
ENDBRANCH   1  28
TORSDOF 22
