REMARK SMILES COc1ccc([N+](=O)[O-])cc1C(=O)N[C@@H](Cc1c[nH]c2ccccc12)C(=O)OCCOCCOCCOC(=O)c1ccc(-c2c3nc(c(-c4c(F)cccc4F)c4ccc([nH]4)c(-c4c(F)cccc4F)c4nc(c(-c5c(F)cccc5F)c5ccc2[nH]5)C=C4)C=C3)cc1
REMARK SMILES IDX 32 1 31 2 30 3 29 4 28 5 26 6 27 7 15 8 14 9 12 10 13 11
REMARK SMILES IDX 11 13 3 14 4 15 5 16 10 17 6 18 2 19 1 20 7 21 8 22 9 23
REMARK SMILES IDX 16 24 17 25 18 26 25 27 19 28 20 29 24 30 21 32 23 33 22 34
REMARK SMILES IDX 33 35 34 36 35 37 36 38 37 39 38 40 39 41 40 42 41 43 93 44
REMARK SMILES IDX 42 45 92 46 43 47 44 48 45 49 86 50 46 51 91 52 85 53 87 54
REMARK SMILES IDX 47 55 90 56 84 57 83 58 48 60 74 61 57 62 73 63 58 64 61 65
REMARK SMILES IDX 72 66 88 67 59 68 60 69 71 71 89 72 62 73 49 74 50 75 55 76
REMARK SMILES IDX 51 77 52 78 54 79 56 80 53 81 75 82 76 83 81 84 77 85 78 86
REMARK SMILES IDX 80 87 82 88 79 89 63 90 64 91 69 92 65 93 66 94 68 95 70 96
REMARK SMILES IDX 67 97
REMARK H PARENT 14 12 19 31 87 59 61 70
REMARK Flexibility Score: inf
ROOT
ATOM      1  C   UNL     1       0.288   2.876  -0.140  1.00  0.00     0.188 C 
ENDROOT
BRANCH   1   2
ATOM      2  O   UNL     1       0.045   3.803   0.893  1.00  0.00    -0.376 OA
BRANCH   2   3
ATOM      3  C   UNL     1       0.502   3.445   2.194  1.00  0.00     0.202 C 
BRANCH   3   4
ATOM      4  C   UNL     1       0.537   1.963   2.635  1.00  0.00     0.261 C 
BRANCH   4   5
ATOM      5  O   UNL     1       1.314   1.077   1.785  1.00  0.00    -0.462 OA
BRANCH   5   6
ATOM      6  C   UNL     1       1.157  -0.261   2.029  1.00  0.00     0.329 C 
ATOM      7  O   UNL     1       0.420  -0.684   2.918  1.00  0.00    -0.250 OA
BRANCH   6   8
ATOM      8  C   UNL     1       2.050  -1.216   1.167  1.00  0.00     0.197 C 
BRANCH   8   9
ATOM      9  N   UNL     1       2.707  -0.653  -0.042  1.00  0.00    -0.338 N 
ATOM     10  C   UNL     1       2.799  -0.820  -1.391  1.00  0.00     0.256 C 
ATOM     11  O   UNL     1       3.717  -0.170  -1.911  1.00  0.00    -0.269 OA
ATOM     12  H   UNL     1       3.273   0.106   0.227  1.00  0.00     0.164 HD
BRANCH  10  13
ATOM     13  C   UNL     1       1.926  -1.563  -2.345  1.00  0.00     0.088 A 
ATOM     14  C   UNL     1       0.584  -1.907  -2.171  1.00  0.00     0.132 A 
ATOM     15  C   UNL     1      -0.185  -2.398  -3.249  1.00  0.00     0.054 A 
ATOM     16  C   UNL     1       0.347  -2.479  -4.537  1.00  0.00     0.089 A 
ATOM     17  C   UNL     1       2.465  -1.701  -3.654  1.00  0.00     0.103 A 
ATOM     18  C   UNL     1       1.678  -2.121  -4.738  1.00  0.00     0.270 A 
BRANCH  14  19
ATOM     19  O   UNL     1      -0.065  -1.746  -0.980  1.00  0.00    -0.496 OA
ATOM     20  C   UNL     1      -0.797  -0.522  -1.003  1.00  0.00     0.278 C 
ENDBRANCH  14  19
BRANCH  18  21
ATOM     21  N   UNL     1       2.228  -2.085  -6.104  1.00  0.00     0.062 N 
ATOM     22  O   UNL     1       1.477  -2.412  -7.032  1.00  0.00    -0.258 OA
ATOM     23  O   UNL     1       3.397  -1.705  -6.245  1.00  0.00    -0.258 OA
ENDBRANCH  18  21
ENDBRANCH  10  13
ENDBRANCH   8   9
BRANCH   8  24
ATOM     24  C   UNL     1       3.145  -1.809   2.143  1.00  0.00     0.074 C 
BRANCH  24  25
ATOM     25  C   UNL     1       4.237  -0.803   2.473  1.00  0.00    -0.020 A 
ATOM     26  C   UNL     1       4.115   0.480   2.975  1.00  0.00     0.087 A 
ATOM     27  C   UNL     1       5.547  -0.745   1.920  1.00  0.00     0.003 A 
ATOM     28  N   UNL     1       4.589   1.249   1.937  1.00  0.00    -0.361 N 
ATOM     29  C   UNL     1       5.603   0.528   1.348  1.00  0.00     0.046 A 
ATOM     30  C   UNL     1       6.622  -1.624   1.716  1.00  0.00     0.010 A 
ATOM     31  H   UNL     1       4.267   2.139   1.668  1.00  0.00     0.166 HD
ATOM     32  C   UNL     1       6.540   0.888   0.387  1.00  0.00     0.026 A 
ATOM     33  C   UNL     1       7.686  -1.194   0.914  1.00  0.00     0.001 A 
ATOM     34  C   UNL     1       7.607   0.007   0.205  1.00  0.00     0.002 A 
ENDBRANCH  24  25
ENDBRANCH   8  24
ENDBRANCH   6   8
ENDBRANCH   5   6
ENDBRANCH   4   5
ENDBRANCH   3   4
ENDBRANCH   2   3
ENDBRANCH   1   2
BRANCH   1  35
ATOM     35  C   UNL     1       1.742   2.585  -0.526  1.00  0.00     0.188 C 
BRANCH  35  36
ATOM     36  O   UNL     1       2.837   3.127   0.181  1.00  0.00    -0.376 OA
BRANCH  36  37
ATOM     37  C   UNL     1       3.065   4.528   0.135  1.00  0.00     0.202 C 
BRANCH  37  38
ATOM     38  C   UNL     1       2.943   5.372  -1.148  1.00  0.00     0.261 C 
BRANCH  38  39
ATOM     39  O   UNL     1       2.038   4.908  -2.154  1.00  0.00    -0.460 OA
BRANCH  39  40
ATOM     40  C   UNL     1       2.620   4.262  -3.196  1.00  0.00     0.338 C 
ATOM     41  O   UNL     1       3.817   4.068  -3.373  1.00  0.00    -0.246 OA
BRANCH  40  42
ATOM     42  C   UNL     1       1.560   3.630  -4.005  1.00  0.00     0.060 A 
ATOM     43  C   UNL     1       1.480   2.230  -4.043  1.00  0.00     0.016 A 
ATOM     44  C   UNL     1       0.652   4.410  -4.719  1.00  0.00     0.016 A 
ATOM     45  C   UNL     1       0.485   1.607  -4.793  1.00  0.00     0.010 A 
ATOM     46  C   UNL     1      -0.317   3.780  -5.507  1.00  0.00     0.010 A 
ATOM     47  C   UNL     1      -0.392   2.375  -5.564  1.00  0.00    -0.014 A 
BRANCH  47  48
ATOM     48  C   UNL     1      -1.244   1.722  -6.589  1.00  0.00     0.031 A 
ATOM     49  C   UNL     1      -0.779   1.750  -8.019  1.00  0.00     0.074 A 
ATOM     50  C   UNL     1      -2.399   1.109  -6.273  1.00  0.00     0.049 A 
ATOM     51  N   UNL     1      -1.419   1.416  -9.108  1.00  0.00    -0.248 NA
ATOM     52  C   UNL     1       0.594   2.229  -8.244  1.00  0.00     0.031 C 
ATOM     53  C   UNL     1      -2.927   0.932  -4.923  1.00  0.00     0.029 A 
ATOM     54  N   UNL     1      -3.350   0.539  -7.085  1.00  0.00    -0.354 N 
ATOM     55  C   UNL     1      -0.536   1.667 -10.152  1.00  0.00     0.074 A 
ATOM     56  C   UNL     1       0.676   2.196  -9.565  1.00  0.00     0.031 C 
ATOM     57  C   UNL     1      -4.125   0.324  -5.002  1.00  0.00     0.029 A 
ATOM     58  C   UNL     1      -4.469   0.118  -6.409  1.00  0.00     0.049 A 
ATOM     59  H   UNL     1      -3.239   0.442  -8.059  1.00  0.00     0.167 HD
ATOM     60  C   UNL     1      -0.719   1.475 -11.479  1.00  0.00     0.037 A 
ATOM     61  C   UNL     1      -5.651  -0.332  -6.876  1.00  0.00     0.037 A 
ATOM     62  C   UNL     1      -1.918   0.934 -12.061  1.00  0.00     0.049 A 
ATOM     63  C   UNL     1      -5.873  -0.442  -8.365  1.00  0.00     0.074 A 
ATOM     64  C   UNL     1      -2.196   0.698 -13.396  1.00  0.00     0.029 A 
ATOM     65  N   UNL     1      -3.038   0.547 -11.343  1.00  0.00    -0.354 N 
ATOM     66  N   UNL     1      -5.045  -0.184  -9.349  1.00  0.00    -0.248 NA
ATOM     67  C   UNL     1      -7.199  -0.899  -8.810  1.00  0.00     0.031 C 
ATOM     68  C   UNL     1      -3.507   0.223 -13.491  1.00  0.00     0.029 A 
ATOM     69  C   UNL     1      -4.021   0.100 -12.210  1.00  0.00     0.049 A 
ATOM     70  H   UNL     1      -3.123   0.583 -10.363  1.00  0.00     0.167 HD
ATOM     71  C   UNL     1      -5.734  -0.483 -10.520  1.00  0.00     0.074 A 
ATOM     72  C   UNL     1      -7.046  -0.947 -10.126  1.00  0.00     0.031 C 
ATOM     73  C   UNL     1      -5.317  -0.383 -11.806  1.00  0.00     0.037 A 
BRANCH  60  74
ATOM     74  C   UNL     1       0.389   1.896 -12.400  1.00  0.00     0.057 A 
ATOM     75  C   UNL     1       1.599   1.197 -12.479  1.00  0.00     0.134 A 
ATOM     76  C   UNL     1       0.222   2.999 -13.247  1.00  0.00     0.134 A 
ATOM     77  F   UNL     1       1.828   0.141 -11.685  1.00  0.00    -0.206 F 
ATOM     78  C   UNL     1       2.614   1.594 -13.352  1.00  0.00     0.040 A 
ATOM     79  C   UNL     1       1.217   3.387 -14.145  1.00  0.00     0.040 A 
ATOM     80  F   UNL     1      -0.915   3.710 -13.225  1.00  0.00    -0.206 F 
ATOM     81  C   UNL     1       2.420   2.687 -14.195  1.00  0.00     0.006 A 
ENDBRANCH  60  74
BRANCH  61  82
ATOM     82  C   UNL     1      -6.750  -0.673  -5.934  1.00  0.00     0.057 A 
ATOM     83  C   UNL     1      -7.217  -1.987  -5.806  1.00  0.00     0.134 A 
ATOM     84  C   UNL     1      -7.396   0.314  -5.178  1.00  0.00     0.134 A 
ATOM     85  F   UNL     1      -6.660  -2.973  -6.523  1.00  0.00    -0.206 F 
ATOM     86  C   UNL     1      -8.299  -2.303  -4.982  1.00  0.00     0.040 A 
ATOM     87  C   UNL     1      -8.459   0.008  -4.327  1.00  0.00     0.040 A 
ATOM     88  F   UNL     1      -7.001   1.594  -5.255  1.00  0.00    -0.206 F 
ATOM     89  C   UNL     1      -8.920  -1.303  -4.235  1.00  0.00     0.006 A 
ENDBRANCH  61  82
BRANCH  73  90
ATOM     90  C   UNL     1      -6.257  -0.839 -12.886  1.00  0.00     0.057 A 
ATOM     91  C   UNL     1      -7.403  -0.113 -13.234  1.00  0.00     0.134 A 
ATOM     92  C   UNL     1      -5.972  -1.990 -13.634  1.00  0.00     0.134 A 
ATOM     93  F   UNL     1      -7.741   0.993 -12.553  1.00  0.00    -0.206 F 
ATOM     94  C   UNL     1      -8.241  -0.525 -14.273  1.00  0.00     0.040 A 
ATOM     95  C   UNL     1      -6.786  -2.396 -14.693  1.00  0.00     0.040 A 
ATOM     96  F   UNL     1      -4.885  -2.727 -13.362  1.00  0.00    -0.206 F 
ATOM     97  C   UNL     1      -7.927  -1.665 -15.012  1.00  0.00     0.006 A 
ENDBRANCH  73  90
ENDBRANCH  47  48
ENDBRANCH  40  42
ENDBRANCH  39  40
ENDBRANCH  38  39
ENDBRANCH  37  38
ENDBRANCH  36  37
ENDBRANCH  35  36
ENDBRANCH   1  35
TORSDOF 23
