REMARK SMILES COCCS(=O)(=O)Cc1ccc(C(=O)OCCOCCOCCOC(=O)c2ccc(-c3c4nc(c(-c5c(F)cccc5F)c5ccc([nH]5)c(-c5c(F)cccc5F)c5nc(c(-c6c(F)cccc6F)c6ccc3[nH]6)C=C5)C=C4)cc2)cn1
REMARK SMILES IDX 18 1 17 2 16 3 15 4 13 5 14 6 12 7 9 8 10 9 82 10 11 11
REMARK SMILES IDX 81 12 8 13 5 14 6 15 7 16 4 17 3 18 2 19 1 20 19 21 20 22
REMARK SMILES IDX 21 23 22 24 23 25 24 26 25 27 26 28 27 29 28 30 80 31 29 32
REMARK SMILES IDX 79 33 30 34 31 35 32 36 73 37 33 38 78 39 72 40 74 41 34 42
REMARK SMILES IDX 77 43 71 44 70 45 35 47 61 48 44 49 60 50 45 51 48 52 59 53
REMARK SMILES IDX 75 54 46 55 47 56 58 58 76 59 49 60 36 61 37 62 42 63 38 64
REMARK SMILES IDX 39 65 41 66 43 67 40 68 62 69 63 70 68 71 64 72 65 73 67 74
REMARK SMILES IDX 69 75 66 76 50 77 51 78 56 79 52 80 53 81 55 82 57 83 54 84
REMARK H PARENT 74 46 48 57
REMARK Flexibility Score: inf
ROOT
ATOM      1  O   UNL     1      -7.721   2.261   0.424  1.00  0.00    -0.376 OA
ENDROOT
BRANCH   1   2
ATOM      2  C   UNL     1      -8.235   1.252  -0.429  1.00  0.00     0.202 C 
BRANCH   2   3
ATOM      3  C   UNL     1      -7.443   0.514  -1.525  1.00  0.00     0.261 C 
BRANCH   3   4
ATOM      4  O   UNL     1      -6.025   0.467  -1.381  1.00  0.00    -0.460 OA
BRANCH   4   5
ATOM      5  C   UNL     1      -5.337   1.263  -2.237  1.00  0.00     0.339 C 
ATOM      6  O   UNL     1      -5.796   1.964  -3.115  1.00  0.00    -0.246 OA
BRANCH   5   7
ATOM      7  C   UNL     1      -3.921   1.308  -1.835  1.00  0.00     0.078 A 
ATOM      8  C   UNL     1      -1.262   1.608  -1.209  1.00  0.00     0.055 A 
ATOM      9  C   UNL     1      -1.908   0.415  -0.887  1.00  0.00     0.026 A 
ATOM     10  N   UNL     1      -1.936   2.670  -1.706  1.00  0.00    -0.259 NA
ATOM     11  C   UNL     1      -3.245   0.247  -1.240  1.00  0.00     0.019 A 
ATOM     12  C   UNL     1      -3.243   2.502  -2.010  1.00  0.00     0.127 A 
BRANCH   8  13
ATOM     13  C   UNL     1       0.211   1.784  -1.027  1.00  0.00     0.193 C 
BRANCH  13  14
ATOM     14  S   UNL     1       1.115   1.111  -2.423  1.00  0.00     0.158 S 
ATOM     15  O   UNL     1       2.518   1.083  -2.039  1.00  0.00    -0.228 OA
ATOM     16  O   UNL     1       0.736   1.847  -3.617  1.00  0.00    -0.228 OA
BRANCH  14  17
ATOM     17  C   UNL     1       0.620  -0.584  -2.706  1.00  0.00     0.165 C 
BRANCH  17  18
ATOM     18  C   UNL     1       1.309  -1.577  -1.793  1.00  0.00     0.176 C 
BRANCH  18  19
ATOM     19  O   UNL     1       0.679  -1.615  -0.514  1.00  0.00    -0.384 OA
ATOM     20  C   UNL     1       1.564  -1.312   0.558  1.00  0.00     0.194 C 
ENDBRANCH  18  19
ENDBRANCH  17  18
ENDBRANCH  14  17
ENDBRANCH  13  14
ENDBRANCH   8  13
ENDBRANCH   5   7
ENDBRANCH   4   5
ENDBRANCH   3   4
ENDBRANCH   2   3
ENDBRANCH   1   2
BRANCH   1  21
ATOM     21  C   UNL     1      -6.339   2.393   0.670  1.00  0.00     0.188 C 
BRANCH  21  22
ATOM     22  C   UNL     1      -5.596   1.274   1.422  1.00  0.00     0.188 C 
BRANCH  22  23
ATOM     23  O   UNL     1      -6.261   0.055   1.649  1.00  0.00    -0.376 OA
BRANCH  23  24
ATOM     24  C   UNL     1      -7.304  -0.023   2.607  1.00  0.00     0.202 C 
BRANCH  24  25
ATOM     25  C   UNL     1      -7.621   1.026   3.695  1.00  0.00     0.261 C 
BRANCH  25  26
ATOM     26  O   UNL     1      -7.118   2.354   3.528  1.00  0.00    -0.460 OA
BRANCH  26  27
ATOM     27  C   UNL     1      -6.073   2.691   4.320  1.00  0.00     0.338 C 
ATOM     28  O   UNL     1      -5.494   1.979   5.130  1.00  0.00    -0.246 OA
BRANCH  27  29
ATOM     29  C   UNL     1      -5.591   4.028   3.935  1.00  0.00     0.060 A 
ATOM     30  C   UNL     1      -4.333   4.144   3.328  1.00  0.00     0.016 A 
ATOM     31  C   UNL     1      -6.358   5.162   4.202  1.00  0.00     0.016 A 
ATOM     32  C   UNL     1      -3.829   5.402   2.999  1.00  0.00     0.010 A 
ATOM     33  C   UNL     1      -5.841   6.424   3.893  1.00  0.00     0.010 A 
ATOM     34  C   UNL     1      -4.564   6.552   3.315  1.00  0.00    -0.014 A 
BRANCH  34  35
ATOM     35  C   UNL     1      -3.935   7.889   3.193  1.00  0.00     0.031 A 
ATOM     36  C   UNL     1      -3.372   8.537   4.428  1.00  0.00     0.074 A 
ATOM     37  C   UNL     1      -3.854   8.516   2.007  1.00  0.00     0.049 A 
ATOM     38  N   UNL     1      -2.839   9.723   4.576  1.00  0.00    -0.248 NA
ATOM     39  C   UNL     1      -3.422   7.739   5.663  1.00  0.00     0.031 C 
ATOM     40  C   UNL     1      -4.320   7.978   0.731  1.00  0.00     0.029 A 
ATOM     41  N   UNL     1      -3.358   9.757   1.690  1.00  0.00    -0.354 N 
ATOM     42  C   UNL     1      -2.499   9.816   5.920  1.00  0.00     0.074 A 
ATOM     43  C   UNL     1      -2.913   8.581   6.549  1.00  0.00     0.031 C 
ATOM     44  C   UNL     1      -4.101   8.891  -0.232  1.00  0.00     0.029 A 
ATOM     45  C   UNL     1      -3.515  10.089   0.367  1.00  0.00     0.049 A 
ATOM     46  H   UNL     1      -2.932  10.351   2.349  1.00  0.00     0.167 HD
ATOM     47  C   UNL     1      -1.890  10.837   6.569  1.00  0.00     0.037 A 
ATOM     48  C   UNL     1      -3.241  11.240  -0.279  1.00  0.00     0.037 A 
ATOM     49  C   UNL     1      -1.484  12.068   5.943  1.00  0.00     0.049 A 
ATOM     50  C   UNL     1      -2.642  12.394   0.483  1.00  0.00     0.074 A 
ATOM     51  C   UNL     1      -0.843  13.154   6.513  1.00  0.00     0.029 A 
ATOM     52  N   UNL     1      -1.691  12.381   4.608  1.00  0.00    -0.354 N 
ATOM     53  N   UNL     1      -2.299  12.466   1.747  1.00  0.00    -0.248 NA
ATOM     54  C   UNL     1      -2.390  13.630  -0.275  1.00  0.00     0.031 C 
ATOM     55  C   UNL     1      -0.716  14.148   5.537  1.00  0.00     0.029 A 
ATOM     56  C   UNL     1      -1.219  13.657   4.343  1.00  0.00     0.049 A 
ATOM     57  H   UNL     1      -2.111  11.785   3.946  1.00  0.00     0.167 HD
ATOM     58  C   UNL     1      -1.764  13.736   1.927  1.00  0.00     0.074 A 
ATOM     59  C   UNL     1      -1.816  14.397   0.640  1.00  0.00     0.031 C 
ATOM     60  C   UNL     1      -1.271  14.303   3.056  1.00  0.00     0.037 A 
BRANCH  47  61
ATOM     61  C   UNL     1      -1.656  10.675   8.043  1.00  0.00     0.057 A 
ATOM     62  C   UNL     1      -0.711   9.774   8.552  1.00  0.00     0.134 A 
ATOM     63  C   UNL     1      -2.368  11.452   8.966  1.00  0.00     0.134 A 
ATOM     64  F   UNL     1      -0.005   8.989   7.724  1.00  0.00    -0.206 F 
ATOM     65  C   UNL     1      -0.502   9.633   9.925  1.00  0.00     0.040 A 
ATOM     66  C   UNL     1      -2.147  11.341  10.339  1.00  0.00     0.040 A 
ATOM     67  F   UNL     1      -3.285  12.338   8.547  1.00  0.00    -0.206 F 
ATOM     68  C   UNL     1      -1.217  10.424  10.823  1.00  0.00     0.006 A 
ENDBRANCH  47  61
BRANCH  48  69
ATOM     69  C   UNL     1      -3.547  11.373  -1.727  1.00  0.00     0.057 A 
ATOM     70  C   UNL     1      -2.526  11.499  -2.676  1.00  0.00     0.134 A 
ATOM     71  C   UNL     1      -4.867  11.409  -2.193  1.00  0.00     0.134 A 
ATOM     72  F   UNL     1      -1.242  11.501  -2.290  1.00  0.00    -0.206 F 
ATOM     73  C   UNL     1      -2.805  11.675  -4.033  1.00  0.00     0.040 A 
ATOM     74  C   UNL     1      -5.161  11.556  -3.550  1.00  0.00     0.040 A 
ATOM     75  F   UNL     1      -5.892  11.298  -1.336  1.00  0.00    -0.206 F 
ATOM     76  C   UNL     1      -4.127  11.697  -4.473  1.00  0.00     0.006 A 
ENDBRANCH  48  69
BRANCH  60  77
ATOM     77  C   UNL     1      -0.711  15.694   2.946  1.00  0.00     0.057 A 
ATOM     78  C   UNL     1      -1.530  16.813   2.747  1.00  0.00     0.134 A 
ATOM     79  C   UNL     1       0.666  15.920   3.086  1.00  0.00     0.134 A 
ATOM     80  F   UNL     1      -2.855  16.667   2.595  1.00  0.00    -0.206 F 
ATOM     81  C   UNL     1      -0.998  18.102   2.665  1.00  0.00     0.040 A 
ATOM     82  C   UNL     1       1.205  17.206   3.036  1.00  0.00     0.040 A 
ATOM     83  F   UNL     1       1.507  14.895   3.291  1.00  0.00    -0.206 F 
ATOM     84  C   UNL     1       0.373  18.301   2.817  1.00  0.00     0.006 A 
ENDBRANCH  60  77
ENDBRANCH  34  35
ENDBRANCH  27  29
ENDBRANCH  26  27
ENDBRANCH  25  26
ENDBRANCH  24  25
ENDBRANCH  23  24
ENDBRANCH  22  23
ENDBRANCH  21  22
ENDBRANCH   1  21
TORSDOF 22
