REMARK SMILES Cc1ccccc1C(=O)Nc1cc(C(=O)OCCOCCOCCOC(=O)c2ccc(-c3c4nc(c(-c5c(F)cccc5F)c5ccc([nH]5)c(-c5c(F)cccc5F)c5nc(c(-c6c(F)cccc6F)c6ccc3[nH]6)C=C5)C=C4)cc2)ccc1N1CC[NH+](CC(=O)Nc2ccc(F)cc2)CC1
REMARK SMILES IDX 20 1 19 2 18 3 17 4 16 5 14 6 15 7 13 8 11 9 12 10 84 11
REMARK SMILES IDX 83 12 82 13 10 14 8 15 9 16 7 18 1 19 2 20 3 21 4 22 6 23
REMARK SMILES IDX 5 24 85 25 86 26 101 27 87 28 100 29 88 30 89 32 90 33 91 34
REMARK SMILES IDX 92 35 93 37 94 38 99 39 95 40 98 41 96 42 97 43 21 44 22 45
REMARK SMILES IDX 23 46 24 47 25 48 26 49 27 50 28 51 29 52 81 53 30 54 80 55
REMARK SMILES IDX 31 56 32 57 33 58 74 59 34 60 79 61 73 62 75 63 35 64 78 65
REMARK SMILES IDX 72 66 71 67 36 69 62 70 45 71 61 72 46 73 49 74 60 75 76 76
REMARK SMILES IDX 47 77 48 78 59 80 77 81 50 82 37 83 38 84 43 85 39 86 40 87
REMARK SMILES IDX 42 88 44 89 41 90 63 91 64 92 69 93 65 94 66 95 68 96 70 97
REMARK SMILES IDX 67 98 51 99 52 100 57 101 53 102 54 103 56 104 58 105 55 106
REMARK H PARENT 10 17 88 31 92 36 75 68 49 79
REMARK Flexibility Score: inf
ROOT
ATOM      1  C   UNL     1       6.013  -4.689  -5.611  1.00  0.00     0.188 C 
ENDROOT
BRANCH   1   2
ATOM      2  O   UNL     1       4.763  -5.157  -6.074  1.00  0.00    -0.376 OA
BRANCH   2   3
ATOM      3  C   UNL     1       3.738  -4.935  -5.127  1.00  0.00     0.202 C 
BRANCH   3   4
ATOM      4  C   UNL     1       3.706  -3.642  -4.275  1.00  0.00     0.261 C 
BRANCH   4   5
ATOM      5  O   UNL     1       4.892  -3.171  -3.309  1.00  0.00    -0.460 OA
BRANCH   5   6
ATOM      6  C   UNL     1       5.459  -2.381  -2.269  1.00  0.00     0.338 C 
ATOM      7  O   UNL     1       6.698  -2.360  -2.377  1.00  0.00    -0.246 OA
BRANCH   6   8
ATOM      8  C   UNL     1       4.968  -1.519  -0.884  1.00  0.00     0.062 A 
ATOM      9  C   UNL     1       3.686   0.352   0.365  1.00  0.00     0.065 A 
ATOM     10  C   UNL     1       3.752  -0.870  -0.404  1.00  0.00     0.044 A 
ATOM     11  C   UNL     1       4.929   0.895   0.818  1.00  0.00     0.061 A 
ATOM     12  C   UNL     1       6.048   0.040   0.668  1.00  0.00     0.029 A 
ATOM     13  C   UNL     1       6.074  -1.102  -0.152  1.00  0.00     0.018 A 
BRANCH   9  14
ATOM     14  N   UNL     1       2.503   1.187   0.477  1.00  0.00    -0.320 N 
ATOM     15  C   UNL     1       1.126   1.317   0.756  1.00  0.00     0.255 C 
ATOM     16  O   UNL     1       0.739   2.502   0.762  1.00  0.00    -0.269 OA
ATOM     17  H   UNL     1       2.806   2.095   0.249  1.00  0.00     0.170 HD
BRANCH  15  18
ATOM     18  C   UNL     1      -0.020   0.329   1.003  1.00  0.00     0.043 A 
ATOM     19  C   UNL     1       1.654  -1.830   1.695  1.00  0.00     0.045 C 
ATOM     20  C   UNL     1       0.414  -1.438   0.940  1.00  0.00    -0.038 A 
ATOM     21  C   UNL     1      -0.657  -2.648  -0.020  1.00  0.00     0.004 A 
ATOM     22  C   UNL     1      -2.195  -2.059  -0.906  1.00  0.00     0.000 A 
ATOM     23  C   UNL     1      -1.613   0.912   0.228  1.00  0.00     0.014 A 
ATOM     24  C   UNL     1      -2.679  -0.267  -0.802  1.00  0.00     0.001 A 
ENDBRANCH  15  18
ENDBRANCH   9  14
BRANCH  11  25
ATOM     25  N   UNL     1       5.145   2.188   1.340  1.00  0.00    -0.359 N 
ATOM     26  C   UNL     1       6.542   2.597   1.730  1.00  0.00     0.178 C 
ATOM     27  C   UNL     1       4.141   2.946   2.085  1.00  0.00     0.178 C 
ATOM     28  C   UNL     1       6.745   4.103   2.112  1.00  0.00     0.284 C 
ATOM     29  C   UNL     1       4.409   4.448   1.911  1.00  0.00     0.284 C 
ATOM     30  N   UNL     1       5.604   4.876   2.624  1.00  0.00    -0.324 N 
ATOM     31  H   UNL     1       5.798   5.856   2.421  1.00  0.00     0.348 HD
BRANCH  30  32
ATOM     32  C   UNL     1       5.455   5.004   4.090  1.00  0.00     0.364 C 
BRANCH  32  33
ATOM     33  C   UNL     1       5.303   3.733   4.921  1.00  0.00     0.279 C 
ATOM     34  O   UNL     1       6.315   3.067   5.193  1.00  0.00    -0.268 OA
ATOM     35  N   UNL     1       4.127   3.247   5.426  1.00  0.00    -0.321 N 
ATOM     36  H   UNL     1       4.289   2.579   6.131  1.00  0.00     0.170 HD
BRANCH  35  37
ATOM     37  C   UNL     1       2.742   3.441   5.212  1.00  0.00     0.041 A 
ATOM     38  C   UNL     1       1.893   2.487   5.807  1.00  0.00     0.029 A 
ATOM     39  C   UNL     1       2.156   4.400   4.390  1.00  0.00     0.029 A 
ATOM     40  C   UNL     1       0.523   2.443   5.519  1.00  0.00     0.041 A 
ATOM     41  C   UNL     1       0.794   4.327   4.053  1.00  0.00     0.041 A 
ATOM     42  C   UNL     1      -0.009   3.346   4.616  1.00  0.00     0.123 A 
ATOM     43  F   UNL     1      -1.309   3.283   4.300  1.00  0.00    -0.207 F 
ENDBRANCH  35  37
ENDBRANCH  32  33
ENDBRANCH  30  32
ENDBRANCH  11  25
ENDBRANCH   6   8
ENDBRANCH   5   6
ENDBRANCH   4   5
ENDBRANCH   3   4
ENDBRANCH   2   3
ENDBRANCH   1   2
BRANCH   1  44
ATOM     44  C   UNL     1       6.266  -3.264  -6.107  1.00  0.00     0.188 C 
BRANCH  44  45
ATOM     45  O   UNL     1       5.075  -2.492  -6.245  1.00  0.00    -0.376 OA
BRANCH  45  46
ATOM     46  C   UNL     1       4.517  -2.424  -7.556  1.00  0.00     0.202 C 
BRANCH  46  47
ATOM     47  C   UNL     1       5.266  -1.376  -8.388  1.00  0.00     0.261 C 
BRANCH  47  48
ATOM     48  O   UNL     1       5.047  -0.045  -7.872  1.00  0.00    -0.460 OA
BRANCH  48  49
ATOM     49  C   UNL     1       5.691   0.229  -6.705  1.00  0.00     0.338 C 
ATOM     50  O   UNL     1       6.895   0.150  -6.527  1.00  0.00    -0.246 OA
BRANCH  49  51
ATOM     51  C   UNL     1       4.670   0.382  -5.628  1.00  0.00     0.060 A 
ATOM     52  C   UNL     1       5.074   0.410  -4.308  1.00  0.00     0.016 A 
ATOM     53  C   UNL     1       3.319   0.170  -5.901  1.00  0.00     0.016 A 
ATOM     54  C   UNL     1       4.168  -0.004  -3.325  1.00  0.00     0.010 A 
ATOM     55  C   UNL     1       2.511  -0.426  -4.934  1.00  0.00     0.010 A 
ATOM     56  C   UNL     1       2.986  -0.687  -3.643  1.00  0.00    -0.014 A 
BRANCH  56  57
ATOM     57  C   UNL     1       2.081  -1.605  -2.831  1.00  0.00     0.031 A 
ATOM     58  C   UNL     1       0.904  -0.866  -2.309  1.00  0.00     0.074 A 
ATOM     59  C   UNL     1       2.179  -2.832  -2.137  1.00  0.00     0.049 A 
ATOM     60  N   UNL     1       0.276  -1.402  -1.348  1.00  0.00    -0.248 NA
ATOM     61  C   UNL     1       0.511   0.471  -2.612  1.00  0.00     0.031 C 
ATOM     62  C   UNL     1       1.070  -3.805  -1.933  1.00  0.00     0.029 A 
ATOM     63  N   UNL     1       3.210  -3.624  -1.609  1.00  0.00    -0.354 N 
ATOM     64  C   UNL     1      -0.728  -0.678  -0.636  1.00  0.00     0.074 A 
ATOM     65  C   UNL     1      -0.539   0.583  -1.794  1.00  0.00     0.031 C 
ATOM     66  C   UNL     1       1.445  -4.823  -1.124  1.00  0.00     0.029 A 
ATOM     67  C   UNL     1       2.845  -4.694  -0.832  1.00  0.00     0.049 A 
ATOM     68  H   UNL     1       4.156  -3.421  -1.789  1.00  0.00     0.167 HD
ATOM     69  C   UNL     1      -1.731  -1.071   0.895  1.00  0.00     0.037 A 
ATOM     70  C   UNL     1       3.632  -5.427  -0.008  1.00  0.00     0.037 A 
ATOM     71  C   UNL     1      -1.725  -2.499   1.899  1.00  0.00     0.049 A 
ATOM     72  C   UNL     1       2.976  -5.617   1.337  1.00  0.00     0.074 A 
ATOM     73  C   UNL     1      -2.262  -3.790   1.634  1.00  0.00     0.029 A 
ATOM     74  N   UNL     1      -0.866  -2.740   2.978  1.00  0.00    -0.354 N 
ATOM     75  N   UNL     1       1.818  -5.103   1.668  1.00  0.00    -0.248 NA
ATOM     76  C   UNL     1       3.626  -6.311   2.450  1.00  0.00     0.031 C 
ATOM     77  C   UNL     1      -1.419  -4.763   2.205  1.00  0.00     0.029 A 
ATOM     78  C   UNL     1      -0.475  -4.094   2.954  1.00  0.00     0.049 A 
ATOM     79  H   UNL     1      -0.582  -2.073   3.643  1.00  0.00     0.167 HD
ATOM     80  C   UNL     1       1.645  -5.244   3.026  1.00  0.00     0.074 A 
ATOM     81  C   UNL     1       2.769  -6.061   3.454  1.00  0.00     0.031 C 
ATOM     82  C   UNL     1       0.629  -4.645   3.723  1.00  0.00     0.037 A 
BRANCH  69  83
ATOM     83  C   UNL     1      -3.372  -0.528   1.507  1.00  0.00     0.057 A 
ATOM     84  C   UNL     1      -4.428  -1.491   1.488  1.00  0.00     0.134 A 
ATOM     85  C   UNL     1      -3.903   0.784   1.533  1.00  0.00     0.134 A 
ATOM     86  F   UNL     1      -4.301  -2.722   1.985  1.00  0.00    -0.206 F 
ATOM     87  C   UNL     1      -5.749  -1.225   1.111  1.00  0.00     0.040 A 
ATOM     88  C   UNL     1      -5.236   1.075   1.146  1.00  0.00     0.040 A 
ATOM     89  F   UNL     1      -3.160   1.844   1.884  1.00  0.00    -0.206 F 
ATOM     90  C   UNL     1      -6.141   0.065   0.850  1.00  0.00     0.006 A 
ENDBRANCH  69  83
BRANCH  70  91
ATOM     91  C   UNL     1       5.102  -5.461  -0.299  1.00  0.00     0.057 A 
ATOM     92  C   UNL     1       5.540  -6.112  -1.474  1.00  0.00     0.134 A 
ATOM     93  C   UNL     1       6.075  -4.730   0.388  1.00  0.00     0.134 A 
ATOM     94  F   UNL     1       4.678  -6.852  -2.190  1.00  0.00    -0.206 F 
ATOM     95  C   UNL     1       6.837  -5.969  -1.986  1.00  0.00     0.040 A 
ATOM     96  C   UNL     1       7.381  -4.577  -0.116  1.00  0.00     0.040 A 
ATOM     97  F   UNL     1       5.763  -4.081   1.517  1.00  0.00    -0.206 F 
ATOM     98  C   UNL     1       7.755  -5.169  -1.322  1.00  0.00     0.006 A 
ENDBRANCH  70  91
BRANCH  82  99
ATOM     99  C   UNL     1       0.498  -4.670   5.210  1.00  0.00     0.057 A 
ATOM    100  C   UNL     1       1.571  -4.531   6.096  1.00  0.00     0.134 A 
ATOM    101  C   UNL     1      -0.787  -4.705   5.789  1.00  0.00     0.134 A 
ATOM    102  F   UNL     1       2.831  -4.410   5.655  1.00  0.00    -0.206 F 
ATOM    103  C   UNL     1       1.377  -4.467   7.479  1.00  0.00     0.040 A 
ATOM    104  C   UNL     1      -0.995  -4.584   7.158  1.00  0.00     0.040 A 
ATOM    105  F   UNL     1      -1.893  -4.842   5.042  1.00  0.00    -0.206 F 
ATOM    106  C   UNL     1       0.091  -4.476   8.012  1.00  0.00     0.006 A 
ENDBRANCH  82  99
ENDBRANCH  56  57
ENDBRANCH  49  51
ENDBRANCH  48  49
ENDBRANCH  47  48
ENDBRANCH  46  47
ENDBRANCH  45  46
ENDBRANCH  44  45
ENDBRANCH   1  44
TORSDOF 23
