REMARK SMILES CN1C(=O)[C@@H]2CC=CC[C@]2(C(=O)OCCOCCOCCOC(=O)c2ccc(-c3c4nc(c(-c5c(F)cccc5F)c5ccc([nH]5)c(-c5c(F)cccc5F)c5nc(c(-c6c(F)cccc6F)c6ccc3[nH]6)C=C5)C=C4)cc2)[C@H]1c1ccccc1
REMARK SMILES IDX 18 1 17 2 16 3 15 4 14 5 13 6 11 7 12 8 10 9 1 10 2 11 3 12
REMARK SMILES IDX 79 13 4 14 5 15 6 16 9 17 7 18 8 19 80 20 81 21 85 22 82 23
REMARK SMILES IDX 84 24 83 25 19 26 20 27 21 28 22 29 23 30 24 31 25 32 26 33
REMARK SMILES IDX 78 34 27 35 77 36 28 37 29 38 30 39 71 40 31 41 76 42 70 43
REMARK SMILES IDX 72 44 32 45 75 46 69 47 68 48 33 50 59 51 42 52 58 53 43 54
REMARK SMILES IDX 46 55 57 56 73 57 44 58 45 59 56 61 74 62 47 63 34 64 35 65
REMARK SMILES IDX 40 66 36 67 37 68 39 69 41 70 38 71 60 72 61 73 66 74 62 75
REMARK SMILES IDX 63 76 65 77 67 78 64 79 48 80 49 81 54 82 50 83 51 84 53 85
REMARK SMILES IDX 55 86 52 87
REMARK H PARENT 72 49 46 60
REMARK Flexibility Score: inf
ROOT
ATOM      1  C   UNL     1       2.256   4.313  -3.628  1.00  0.00     0.188 C 
ENDROOT
BRANCH   1   2
ATOM      2  C   UNL     1       1.605   5.347  -4.582  1.00  0.00     0.188 C 
BRANCH   2   3
ATOM      3  O   UNL     1       0.271   5.763  -4.253  1.00  0.00    -0.376 OA
BRANCH   3   4
ATOM      4  C   UNL     1       0.135   6.457  -3.018  1.00  0.00     0.202 C 
BRANCH   4   5
ATOM      5  C   UNL     1      -0.840   5.728  -2.077  1.00  0.00     0.261 C 
BRANCH   5   6
ATOM      6  O   UNL     1      -0.625   4.312  -2.176  1.00  0.00    -0.463 OA
BRANCH   6   7
ATOM      7  C   UNL     1      -1.620   3.385  -2.458  1.00  0.00     0.315 C 
ATOM      8  O   UNL     1      -2.811   3.621  -2.553  1.00  0.00    -0.251 OA
BRANCH   7   9
ATOM      9  C   UNL     1      -0.872   2.060  -2.822  1.00  0.00     0.108 C 
ATOM     10  C   UNL     1       1.208   0.014  -0.311  1.00  0.00     0.147 C 
ATOM     11  N   UNL     1       0.320   0.509  -1.353  1.00  0.00    -0.337 N 
ATOM     12  C   UNL     1      -0.582  -0.271  -2.025  1.00  0.00     0.227 C 
ATOM     13  C   UNL     1       0.019   1.904  -1.498  1.00  0.00     0.133 C 
ATOM     14  O   UNL     1      -0.703  -1.480  -1.882  1.00  0.00    -0.275 OA
ATOM     15  C   UNL     1      -1.411   0.592  -2.987  1.00  0.00     0.102 C 
ATOM     16  C   UNL     1      -1.220  -0.168  -4.349  1.00  0.00     0.041 C 
ATOM     17  C   UNL     1      -0.573   2.577  -4.261  1.00  0.00     0.049 C 
ATOM     18  C   UNL     1      -0.391   0.463  -5.416  1.00  0.00    -0.030 C 
ATOM     19  C   UNL     1      -0.044   1.740  -5.346  1.00  0.00    -0.030 C 
BRANCH  13  20
ATOM     20  C   UNL     1      -0.782   2.333  -0.212  1.00  0.00    -0.024 A 
ATOM     21  C   UNL     1      -2.090   1.848   0.013  1.00  0.00     0.006 A 
ATOM     22  C   UNL     1      -0.331   3.405   0.575  1.00  0.00     0.006 A 
ATOM     23  C   UNL     1      -2.986   2.555   0.813  1.00  0.00     0.000 A 
ATOM     24  C   UNL     1      -1.228   4.091   1.403  1.00  0.00     0.000 A 
ATOM     25  C   UNL     1      -2.564   3.699   1.478  1.00  0.00     0.000 A 
ENDBRANCH  13  20
ENDBRANCH   7   9
ENDBRANCH   6   7
ENDBRANCH   5   6
ENDBRANCH   4   5
ENDBRANCH   3   4
ENDBRANCH   2   3
ENDBRANCH   1   2
BRANCH   1  26
ATOM     26  O   UNL     1       3.050   4.782  -2.549  1.00  0.00    -0.376 OA
BRANCH  26  27
ATOM     27  C   UNL     1       3.958   5.837  -2.812  1.00  0.00     0.202 C 
BRANCH  27  28
ATOM     28  C   UNL     1       4.998   5.670  -3.936  1.00  0.00     0.261 C 
BRANCH  28  29
ATOM     29  O   UNL     1       4.465   5.234  -5.204  1.00  0.00    -0.460 OA
BRANCH  29  30
ATOM     30  C   UNL     1       4.793   3.974  -5.587  1.00  0.00     0.338 C 
ATOM     31  O   UNL     1       5.518   3.191  -4.980  1.00  0.00    -0.246 OA
BRANCH  30  32
ATOM     32  C   UNL     1       3.986   3.570  -6.762  1.00  0.00     0.060 A 
ATOM     33  C   UNL     1       3.317   2.337  -6.727  1.00  0.00     0.016 A 
ATOM     34  C   UNL     1       3.898   4.374  -7.900  1.00  0.00     0.016 A 
ATOM     35  C   UNL     1       2.579   1.898  -7.832  1.00  0.00     0.010 A 
ATOM     36  C   UNL     1       3.168   3.926  -9.010  1.00  0.00     0.010 A 
ATOM     37  C   UNL     1       2.517   2.678  -8.992  1.00  0.00    -0.014 A 
BRANCH  37  38
ATOM     38  C   UNL     1       1.954   2.123 -10.252  1.00  0.00     0.031 A 
ATOM     39  C   UNL     1       2.901   1.470 -11.222  1.00  0.00     0.074 A 
ATOM     40  C   UNL     1       0.646   2.206 -10.558  1.00  0.00     0.049 A 
ATOM     41  N   UNL     1       2.685   1.044 -12.440  1.00  0.00    -0.248 NA
ATOM     42  C   UNL     1       4.281   1.278 -10.749  1.00  0.00     0.031 C 
ATOM     43  C   UNL     1      -0.398   2.746  -9.693  1.00  0.00     0.029 A 
ATOM     44  N   UNL     1      -0.020   1.849 -11.708  1.00  0.00    -0.354 N 
ATOM     45  C   UNL     1       3.903   0.545 -12.884  1.00  0.00     0.074 A 
ATOM     46  C   UNL     1       4.856   0.739 -11.813  1.00  0.00     0.031 C 
ATOM     47  C   UNL     1      -1.571   2.708 -10.351  1.00  0.00     0.029 A 
ATOM     48  C   UNL     1      -1.354   2.184 -11.700  1.00  0.00     0.049 A 
ATOM     49  H   UNL     1       0.416   1.395 -12.465  1.00  0.00     0.167 HD
ATOM     50  C   UNL     1       4.204  -0.021 -14.076  1.00  0.00     0.037 A 
ATOM     51  C   UNL     1      -2.279   2.113 -12.680  1.00  0.00     0.037 A 
ATOM     52  C   UNL     1       3.266  -0.204 -15.151  1.00  0.00     0.049 A 
ATOM     53  C   UNL     1      -1.894   1.583 -14.042  1.00  0.00     0.074 A 
ATOM     54  C   UNL     1       3.485  -0.769 -16.396  1.00  0.00     0.029 A 
ATOM     55  N   UNL     1       1.937   0.184 -15.116  1.00  0.00    -0.354 N 
ATOM     56  N   UNL     1      -0.743   1.108 -14.453  1.00  0.00    -0.248 NA
ATOM     57  C   UNL     1      -2.938   1.587 -15.080  1.00  0.00     0.031 C 
ATOM     58  C   UNL     1       2.303  -0.666 -17.136  1.00  0.00     0.029 A 
ATOM     59  C   UNL     1       1.331  -0.099 -16.328  1.00  0.00     0.049 A 
ATOM     60  H   UNL     1       1.489   0.600 -14.343  1.00  0.00     0.167 HD
ATOM     61  C   UNL     1      -0.936   0.723 -15.776  1.00  0.00     0.074 A 
ATOM     62  C   UNL     1      -2.315   1.015 -16.101  1.00  0.00     0.031 C 
ATOM     63  C   UNL     1      -0.050   0.172 -16.641  1.00  0.00     0.037 A 
BRANCH  50  64
ATOM     64  C   UNL     1       5.626  -0.446 -14.295  1.00  0.00     0.057 A 
ATOM     65  C   UNL     1       6.184  -1.546 -13.632  1.00  0.00     0.134 A 
ATOM     66  C   UNL     1       6.441   0.244 -15.202  1.00  0.00     0.134 A 
ATOM     67  F   UNL     1       5.462  -2.239 -12.738  1.00  0.00    -0.206 F 
ATOM     68  C   UNL     1       7.509  -1.928 -13.842  1.00  0.00     0.040 A 
ATOM     69  C   UNL     1       7.758  -0.147 -15.444  1.00  0.00     0.040 A 
ATOM     70  F   UNL     1       5.967   1.304 -15.874  1.00  0.00    -0.206 F 
ATOM     71  C   UNL     1       8.298  -1.232 -14.757  1.00  0.00     0.006 A 
ENDBRANCH  50  64
BRANCH  51  72
ATOM     72  C   UNL     1      -3.668   2.591 -12.440  1.00  0.00     0.057 A 
ATOM     73  C   UNL     1      -4.754   1.706 -12.454  1.00  0.00     0.134 A 
ATOM     74  C   UNL     1      -3.950   3.949 -12.250  1.00  0.00     0.134 A 
ATOM     75  F   UNL     1      -4.555   0.397 -12.666  1.00  0.00    -0.206 F 
ATOM     76  C   UNL     1      -6.068   2.156 -12.309  1.00  0.00     0.040 A 
ATOM     77  C   UNL     1      -5.257   4.409 -12.075  1.00  0.00     0.040 A 
ATOM     78  F   UNL     1      -2.959   4.852 -12.236  1.00  0.00    -0.206 F 
ATOM     79  C   UNL     1      -6.322   3.512 -12.114  1.00  0.00     0.006 A 
ENDBRANCH  51  72
BRANCH  63  80
ATOM     80  C   UNL     1      -0.540  -0.213 -18.009  1.00  0.00     0.057 A 
ATOM     81  C   UNL     1      -0.839   0.740 -18.991  1.00  0.00     0.134 A 
ATOM     82  C   UNL     1      -0.637  -1.564 -18.372  1.00  0.00     0.134 A 
ATOM     83  F   UNL     1      -0.777   2.050 -18.709  1.00  0.00    -0.206 F 
ATOM     84  C   UNL     1      -1.227   0.363 -20.279  1.00  0.00     0.040 A 
ATOM     85  C   UNL     1      -0.996  -1.952 -19.664  1.00  0.00     0.040 A 
ATOM     86  F   UNL     1      -0.354  -2.529 -17.484  1.00  0.00    -0.206 F 
ATOM     87  C   UNL     1      -1.296  -0.986 -20.621  1.00  0.00     0.006 A 
ENDBRANCH  63  80
ENDBRANCH  37  38
ENDBRANCH  30  32
ENDBRANCH  29  30
ENDBRANCH  28  29
ENDBRANCH  27  28
ENDBRANCH  26  27
ENDBRANCH   1  26
TORSDOF 18
