REMARK SMILES CC(C)(C)c1cc(Nc2ccccc2C(=O)OCCOCCOCCOC(=O)c2ccc(-c3c4nc(c(-c5c(F)cccc5F)c5ccc([nH]5)c(-c5c(F)cccc5F)c5nc(c(-c6c(F)cccc6F)c6ccc3[nH]6)C=C5)C=C4)cc2)cc2c1OCC2(C)C
REMARK SMILES IDX 21 1 20 2 19 3 18 4 17 5 15 6 16 7 14 8 9 9 10 10 11 11
REMARK SMILES IDX 13 12 12 13 8 14 7 16 5 17 6 18 85 19 84 20 86 21 83 22
REMARK SMILES IDX 88 23 87 24 89 25 90 26 2 27 1 28 3 29 4 30 22 31 23 32
REMARK SMILES IDX 24 33 25 34 26 35 27 36 28 37 29 38 30 39 82 40 31 41 81 42
REMARK SMILES IDX 32 43 33 44 34 45 75 46 35 47 80 48 74 49 76 50 36 51 79 52
REMARK SMILES IDX 73 53 72 54 37 56 63 57 46 58 62 59 47 60 50 61 61 62 77 63
REMARK SMILES IDX 48 64 49 65 60 67 78 68 51 69 38 70 39 71 44 72 40 73 41 74
REMARK SMILES IDX 43 75 45 76 42 77 64 78 65 79 70 80 66 81 67 82 69 83 71 84
REMARK SMILES IDX 68 85 52 86 53 87 58 88 54 89 55 90 57 91 59 92 56 93
REMARK H PARENT 8 15 76 55 50 66
REMARK Flexibility Score: inf
ROOT
ATOM      1  C   UNL     1       0.290  -2.102   9.147  1.00  0.00     0.188 C 
ENDROOT
BRANCH   1   2
ATOM      2  O   UNL     1      -0.034  -0.811   9.652  1.00  0.00    -0.376 OA
BRANCH   2   3
ATOM      3  C   UNL     1       0.278   0.348   8.887  1.00  0.00     0.202 C 
BRANCH   3   4
ATOM      4  C   UNL     1       1.717   0.564   8.394  1.00  0.00     0.261 C 
BRANCH   4   5
ATOM      5  O   UNL     1       2.284  -0.555   7.691  1.00  0.00    -0.460 OA
BRANCH   5   6
ATOM      6  C   UNL     1       3.322  -1.175   8.305  1.00  0.00     0.340 C 
ATOM      7  O   UNL     1       3.870  -0.812   9.335  1.00  0.00    -0.246 OA
BRANCH   6   8
ATOM      8  C   UNL     1       3.623  -2.487   7.673  1.00  0.00     0.083 A 
ATOM      9  C   UNL     1       3.608  -2.731   6.285  1.00  0.00     0.053 A 
ATOM     10  C   UNL     1       4.014  -4.008   5.854  1.00  0.00     0.027 A 
ATOM     11  C   UNL     1       4.263  -5.050   6.752  1.00  0.00     0.002 A 
ATOM     12  C   UNL     1       3.884  -3.539   8.576  1.00  0.00     0.018 A 
ATOM     13  C   UNL     1       4.162  -4.824   8.117  1.00  0.00     0.001 A 
BRANCH   9  14
ATOM     14  N   UNL     1       3.071  -1.802   5.362  1.00  0.00    -0.355 N 
ATOM     15  H   UNL     1       3.353  -0.869   5.495  1.00  0.00     0.167 HD
BRANCH  14  16
ATOM     16  C   UNL     1       2.188  -2.015   4.274  1.00  0.00     0.039 A 
ATOM     17  C   UNL     1       0.968  -1.052   2.329  1.00  0.00     0.002 A 
ATOM     18  C   UNL     1       1.829  -0.923   3.448  1.00  0.00     0.034 A 
ATOM     19  C   UNL     1       0.550  -2.352   2.037  1.00  0.00     0.127 A 
ATOM     20  C   UNL     1       0.895  -3.435   2.824  1.00  0.00     0.006 A 
ATOM     21  O   UNL     1      -0.231  -2.704   0.968  1.00  0.00    -0.492 OA
ATOM     22  C   UNL     1       1.679  -3.274   3.953  1.00  0.00     0.034 A 
ATOM     23  C   UNL     1       0.335  -4.701   2.274  1.00  0.00     0.028 C 
ATOM     24  C   UNL     1      -0.394  -4.140   1.038  1.00  0.00     0.240 C 
ATOM     25  C   UNL     1       1.451  -5.676   1.877  1.00  0.00     0.020 C 
ATOM     26  C   UNL     1      -0.635  -5.375   3.249  1.00  0.00     0.020 C 
BRANCH  17  27
ATOM     27  C   UNL     1       0.509   0.155   1.494  1.00  0.00    -0.009 C 
ATOM     28  C   UNL     1       1.034   0.035   0.048  1.00  0.00     0.016 C 
ATOM     29  C   UNL     1       1.007   1.514   2.043  1.00  0.00     0.016 C 
ATOM     30  C   UNL     1      -1.036   0.236   1.478  1.00  0.00     0.016 C 
ENDBRANCH  17  27
ENDBRANCH  14  16
ENDBRANCH   9  14
ENDBRANCH   6   8
ENDBRANCH   5   6
ENDBRANCH   4   5
ENDBRANCH   3   4
ENDBRANCH   2   3
ENDBRANCH   1   2
BRANCH   1  31
ATOM     31  C   UNL     1      -0.014  -2.462   7.676  1.00  0.00     0.188 C 
BRANCH  31  32
ATOM     32  O   UNL     1      -0.598  -1.406   6.954  1.00  0.00    -0.376 OA
BRANCH  32  33
ATOM     33  C   UNL     1      -1.980  -1.445   6.659  1.00  0.00     0.202 C 
BRANCH  33  34
ATOM     34  C   UNL     1      -3.044  -1.950   7.655  1.00  0.00     0.261 C 
BRANCH  34  35
ATOM     35  O   UNL     1      -2.615  -2.792   8.731  1.00  0.00    -0.460 OA
BRANCH  35  36
ATOM     36  C   UNL     1      -2.677  -4.129   8.535  1.00  0.00     0.338 C 
ATOM     37  O   UNL     1      -3.006  -4.712   7.516  1.00  0.00    -0.246 OA
BRANCH  36  38
ATOM     38  C   UNL     1      -2.095  -4.788   9.725  1.00  0.00     0.060 A 
ATOM     39  C   UNL     1      -2.628  -4.559  10.995  1.00  0.00     0.016 A 
ATOM     40  C   UNL     1      -0.984  -5.628   9.564  1.00  0.00     0.016 A 
ATOM     41  C   UNL     1      -2.066  -5.200  12.102  1.00  0.00     0.010 A 
ATOM     42  C   UNL     1      -0.420  -6.264  10.675  1.00  0.00     0.010 A 
ATOM     43  C   UNL     1      -0.974  -6.076  11.950  1.00  0.00    -0.014 A 
BRANCH  43  44
ATOM     44  C   UNL     1      -0.561  -6.925  13.096  1.00  0.00     0.031 A 
ATOM     45  C   UNL     1       0.671  -6.653  13.905  1.00  0.00     0.074 A 
ATOM     46  C   UNL     1      -1.350  -7.970  13.412  1.00  0.00     0.049 A 
ATOM     47  N   UNL     1       1.055  -7.212  15.026  1.00  0.00    -0.248 NA
ATOM     48  C   UNL     1       1.598  -5.640  13.385  1.00  0.00     0.031 C 
ATOM     49  C   UNL     1      -2.541  -8.376  12.663  1.00  0.00     0.029 A 
ATOM     50  N   UNL     1      -1.286  -8.864  14.449  1.00  0.00    -0.354 N 
ATOM     51  C   UNL     1       2.254  -6.599  15.368  1.00  0.00     0.074 A 
ATOM     52  C   UNL     1       2.562  -5.669  14.298  1.00  0.00     0.031 C 
ATOM     53  C   UNL     1      -3.122  -9.409  13.291  1.00  0.00     0.029 A 
ATOM     54  C   UNL     1      -2.337  -9.747  14.473  1.00  0.00     0.049 A 
ATOM     55  H   UNL     1      -0.557  -8.872  15.111  1.00  0.00     0.167 HD
ATOM     56  C   UNL     1       3.012  -6.783  16.479  1.00  0.00     0.037 A 
ATOM     57  C   UNL     1      -2.649 -10.708  15.361  1.00  0.00     0.037 A 
ATOM     58  C   UNL     1       2.716  -7.736  17.524  1.00  0.00     0.049 A 
ATOM     59  C   UNL     1      -1.782 -10.902  16.571  1.00  0.00     0.074 A 
ATOM     60  C   UNL     1       3.402  -7.965  18.706  1.00  0.00     0.029 A 
ATOM     61  N   UNL     1       1.658  -8.634  17.503  1.00  0.00    -0.354 N 
ATOM     62  N   UNL     1      -0.712 -10.241  16.940  1.00  0.00    -0.248 NA
ATOM     63  C   UNL     1      -2.182 -11.967  17.500  1.00  0.00     0.031 C 
ATOM     64  C   UNL     1       2.792  -9.035  19.372  1.00  0.00     0.029 A 
ATOM     65  C   UNL     1       1.689  -9.435  18.637  1.00  0.00     0.049 A 
ATOM     66  H   UNL     1       0.984  -8.694  16.789  1.00  0.00     0.167 HD
ATOM     67  C   UNL     1      -0.329 -10.789  18.157  1.00  0.00     0.074 A 
ATOM     68  C   UNL     1      -1.297 -11.818  18.474  1.00  0.00     0.031 C 
ATOM     69  C   UNL     1       0.728 -10.466  18.943  1.00  0.00     0.037 A 
BRANCH  56  70
ATOM     70  C   UNL     1       4.240  -5.928  16.627  1.00  0.00     0.057 A 
ATOM     71  C   UNL     1       5.523  -6.489  16.580  1.00  0.00     0.134 A 
ATOM     72  C   UNL     1       4.151  -4.549  16.867  1.00  0.00     0.134 A 
ATOM     73  F   UNL     1       5.684  -7.804  16.369  1.00  0.00    -0.206 F 
ATOM     74  C   UNL     1       6.669  -5.712  16.762  1.00  0.00     0.040 A 
ATOM     75  C   UNL     1       5.290  -3.757  17.023  1.00  0.00     0.040 A 
ATOM     76  F   UNL     1       2.954  -3.946  16.926  1.00  0.00    -0.206 F 
ATOM     77  C   UNL     1       6.555  -4.340  16.976  1.00  0.00     0.006 A 
ENDBRANCH  56  70
BRANCH  57  78
ATOM     78  C   UNL     1      -3.868 -11.531  15.166  1.00  0.00     0.057 A 
ATOM     79  C   UNL     1      -3.954 -12.472  14.134  1.00  0.00     0.134 A 
ATOM     80  C   UNL     1      -4.966 -11.413  16.027  1.00  0.00     0.134 A 
ATOM     81  F   UNL     1      -2.941 -12.624  13.269  1.00  0.00    -0.206 F 
ATOM     82  C   UNL     1      -5.087 -13.268  13.966  1.00  0.00     0.040 A 
ATOM     83  C   UNL     1      -6.093 -12.223  15.889  1.00  0.00     0.040 A 
ATOM     84  F   UNL     1      -4.935 -10.538  17.043  1.00  0.00    -0.206 F 
ATOM     85  C   UNL     1      -6.156 -13.153  14.853  1.00  0.00     0.006 A 
ENDBRANCH  57  78
BRANCH  69  86
ATOM     86  C   UNL     1       0.863 -11.220  20.238  1.00  0.00     0.057 A 
ATOM     87  C   UNL     1       0.642 -10.577  21.463  1.00  0.00     0.134 A 
ATOM     88  C   UNL     1       1.181 -12.585  20.277  1.00  0.00     0.134 A 
ATOM     89  F   UNL     1       0.342  -9.270  21.503  1.00  0.00    -0.206 F 
ATOM     90  C   UNL     1       0.718 -11.265  22.675  1.00  0.00     0.040 A 
ATOM     91  C   UNL     1       1.227 -13.291  21.481  1.00  0.00     0.040 A 
ATOM     92  F   UNL     1       1.389 -13.268  19.141  1.00  0.00    -0.206 F 
ATOM     93  C   UNL     1       0.997 -12.630  22.685  1.00  0.00     0.006 A 
ENDBRANCH  69  86
ENDBRANCH  43  44
ENDBRANCH  36  38
ENDBRANCH  35  36
ENDBRANCH  34  35
ENDBRANCH  33  34
ENDBRANCH  32  33
ENDBRANCH  31  32
ENDBRANCH   1  31
TORSDOF 20
