REMARK SMILES COC(=O)CCN(C)C(=O)NCc1ccc(C(=O)OCCOCCOCCOC(=O)c2ccc(-c3c4nc(c(-c5c(F)cccc5F)c5ccc([nH]5)c(-c5c(F)cccc5F)c5nc(c(-c6c(F)cccc6F)c6ccc3[nH]6)C=C5)C=C4)cc2)o1
REMARK SMILES IDX 21 1 20 2 19 3 17 4 18 5 16 6 13 7 14 8 85 9 15 10 12 11
REMARK SMILES IDX 11 12 9 13 10 14 7 16 8 17 6 18 5 19 3 20 4 21 2 22 1 23
REMARK SMILES IDX 22 24 23 25 24 26 25 27 26 28 27 29 28 30 29 31 30 32 31 33
REMARK SMILES IDX 32 34 84 35 33 36 83 37 34 38 35 39 36 40 77 41 37 42 82 43
REMARK SMILES IDX 76 44 78 45 38 46 81 47 75 48 74 49 39 51 65 52 48 53 64 54
REMARK SMILES IDX 49 55 52 56 63 57 79 58 50 59 51 60 62 62 80 63 53 64 40 65
REMARK SMILES IDX 41 66 46 67 42 68 43 69 45 70 47 71 44 72 66 73 67 74 72 75
REMARK SMILES IDX 68 76 69 77 71 78 73 79 70 80 54 81 55 82 60 83 56 84 57 85
REMARK SMILES IDX 59 86 61 87 58 88
REMARK H PARENT 11 15 78 50 52 61
REMARK Flexibility Score: inf
ROOT
ATOM      1  C   UNL     1       5.088   9.041   1.121  1.00  0.00     0.202 C 
ENDROOT
BRANCH   1   2
ATOM      2  C   UNL     1       4.095   8.952  -0.039  1.00  0.00     0.261 C 
BRANCH   2   3
ATOM      3  O   UNL     1       2.771   8.617   0.412  1.00  0.00    -0.457 OA
BRANCH   3   4
ATOM      4  C   UNL     1       2.193   7.541  -0.198  1.00  0.00     0.374 C 
ATOM      5  O   UNL     1       2.654   6.961  -1.175  1.00  0.00    -0.242 OA
BRANCH   4   6
ATOM      6  C   UNL     1       1.040   7.113   0.558  1.00  0.00     0.211 A 
ATOM      7  C   UNL     1      -0.243   5.553   1.458  1.00  0.00     0.124 A 
ATOM      8  C   UNL     1      -0.683   6.756   1.967  1.00  0.00     0.048 A 
ATOM      9  O   UNL     1       0.758   5.775   0.557  1.00  0.00    -0.452 OA
ATOM     10  C   UNL     1       0.148   7.758   1.398  1.00  0.00     0.058 A 
BRANCH   7  11
ATOM     11  C   UNL     1      -0.577   4.125   1.718  1.00  0.00     0.193 C 
BRANCH  11  12
ATOM     12  N   UNL     1       0.680   3.411   1.841  1.00  0.00    -0.331 N 
ATOM     13  C   UNL     1       1.161   2.363   2.519  1.00  0.00     0.317 C 
ATOM     14  O   UNL     1       2.231   1.914   2.098  1.00  0.00    -0.249 OA
ATOM     15  H   UNL     1       1.372   3.809   1.265  1.00  0.00     0.165 HD
BRANCH  13  16
ATOM     16  N   UNL     1       0.526   1.813   3.597  1.00  0.00    -0.327 N 
ATOM     17  C   UNL     1      -0.581   2.398   4.328  1.00  0.00     0.148 C 
BRANCH  16  18
ATOM     18  C   UNL     1       1.001   0.500   4.070  1.00  0.00     0.132 C 
BRANCH  18  19
ATOM     19  C   UNL     1       0.197  -0.662   3.503  1.00  0.00     0.144 C 
BRANCH  19  20
ATOM     20  C   UNL     1       0.701  -1.053   2.140  1.00  0.00     0.307 C 
ATOM     21  O   UNL     1       1.499  -1.958   1.940  1.00  0.00    -0.252 OA
BRANCH  20  22
ATOM     22  O   UNL     1       0.134  -0.275   1.177  1.00  0.00    -0.469 OA
ATOM     23  C   UNL     1       0.701  -0.469  -0.118  1.00  0.00     0.282 C 
ENDBRANCH  20  22
ENDBRANCH  19  20
ENDBRANCH  18  19
ENDBRANCH  16  18
ENDBRANCH  13  16
ENDBRANCH  11  12
ENDBRANCH   7  11
ENDBRANCH   4   6
ENDBRANCH   3   4
ENDBRANCH   2   3
ENDBRANCH   1   2
BRANCH   1  24
ATOM     24  O   UNL     1       5.394   7.823   1.791  1.00  0.00    -0.376 OA
BRANCH  24  25
ATOM     25  C   UNL     1       4.364   7.133   2.492  1.00  0.00     0.188 C 
BRANCH  25  26
ATOM     26  C   UNL     1       3.417   7.928   3.410  1.00  0.00     0.188 C 
BRANCH  26  27
ATOM     27  O   UNL     1       3.888   9.221   3.759  1.00  0.00    -0.376 OA
BRANCH  27  28
ATOM     28  C   UNL     1       4.159   9.430   5.138  1.00  0.00     0.202 C 
BRANCH  28  29
ATOM     29  C   UNL     1       5.522   8.877   5.563  1.00  0.00     0.261 C 
BRANCH  29  30
ATOM     30  O   UNL     1       5.647   7.451   5.446  1.00  0.00    -0.460 OA
BRANCH  30  31
ATOM     31  C   UNL     1       4.855   6.703   6.244  1.00  0.00     0.338 C 
ATOM     32  O   UNL     1       4.035   7.095   7.053  1.00  0.00    -0.246 OA
BRANCH  31  33
ATOM     33  C   UNL     1       5.045   5.290   5.869  1.00  0.00     0.060 A 
ATOM     34  C   UNL     1       3.928   4.528   5.507  1.00  0.00     0.016 A 
ATOM     35  C   UNL     1       6.322   4.724   5.881  1.00  0.00     0.016 A 
ATOM     36  C   UNL     1       4.088   3.182   5.178  1.00  0.00     0.010 A 
ATOM     37  C   UNL     1       6.477   3.373   5.568  1.00  0.00     0.010 A 
ATOM     38  C   UNL     1       5.357   2.590   5.240  1.00  0.00    -0.014 A 
BRANCH  38  39
ATOM     39  C   UNL     1       5.508   1.122   5.109  1.00  0.00     0.031 A 
ATOM     40  C   UNL     1       5.552   0.286   6.356  1.00  0.00     0.074 A 
ATOM     41  C   UNL     1       5.628   0.540   3.904  1.00  0.00     0.049 A 
ATOM     42  N   UNL     1       5.727  -1.004   6.488  1.00  0.00    -0.248 NA
ATOM     43  C   UNL     1       5.371   1.003   7.630  1.00  0.00     0.031 C 
ATOM     44  C   UNL     1       5.569   1.233   2.620  1.00  0.00     0.029 A 
ATOM     45  N   UNL     1       5.836  -0.775   3.572  1.00  0.00    -0.354 N 
ATOM     46  C   UNL     1       5.679  -1.253   7.852  1.00  0.00     0.074 A 
ATOM     47  C   UNL     1       5.481   0.020   8.511  1.00  0.00     0.031 C 
ATOM     48  C   UNL     1       5.752   0.337   1.635  1.00  0.00     0.029 A 
ATOM     49  C   UNL     1       5.963  -0.985   2.221  1.00  0.00     0.049 A 
ATOM     50  H   UNL     1       5.889  -1.498   4.237  1.00  0.00     0.167 HD
ATOM     51  C   UNL     1       5.782  -2.438   8.498  1.00  0.00     0.037 A 
ATOM     52  C   UNL     1       6.234  -2.115   1.539  1.00  0.00     0.037 A 
ATOM     53  C   UNL     1       5.995  -3.703   7.849  1.00  0.00     0.049 A 
ATOM     54  C   UNL     1       6.414  -3.409   2.286  1.00  0.00     0.074 A 
ATOM     55  C   UNL     1       6.100  -4.959   8.421  1.00  0.00     0.029 A 
ATOM     56  N   UNL     1       6.147  -3.871   6.481  1.00  0.00    -0.354 N 
ATOM     57  N   UNL     1       6.343  -3.640   3.575  1.00  0.00    -0.248 NA
ATOM     58  C   UNL     1       6.716  -4.602   1.480  1.00  0.00     0.031 C 
ATOM     59  C   UNL     1       6.353  -5.884   7.402  1.00  0.00     0.029 A 
ATOM     60  C   UNL     1       6.367  -5.207   6.193  1.00  0.00     0.049 A 
ATOM     61  H   UNL     1       6.104  -3.148   5.815  1.00  0.00     0.167 HD
ATOM     62  C   UNL     1       6.556  -5.004   3.730  1.00  0.00     0.074 A 
ATOM     63  C   UNL     1       6.765  -5.550   2.406  1.00  0.00     0.031 C 
ATOM     64  C   UNL     1       6.570  -5.738   4.869  1.00  0.00     0.037 A 
BRANCH  51  65
ATOM     65  C   UNL     1       5.685  -2.410   9.992  1.00  0.00     0.057 A 
ATOM     66  C   UNL     1       4.461  -2.218  10.644  1.00  0.00     0.134 A 
ATOM     67  C   UNL     1       6.823  -2.593  10.786  1.00  0.00     0.134 A 
ATOM     68  F   UNL     1       3.337  -2.019   9.938  1.00  0.00    -0.206 F 
ATOM     69  C   UNL     1       4.375  -2.190  12.037  1.00  0.00     0.040 A 
ATOM     70  C   UNL     1       6.747  -2.587  12.179  1.00  0.00     0.040 A 
ATOM     71  F   UNL     1       8.025  -2.781  10.221  1.00  0.00    -0.206 F 
ATOM     72  C   UNL     1       5.520  -2.380  12.808  1.00  0.00     0.006 A 
ENDBRANCH  51  65
BRANCH  52  73
ATOM     73  C   UNL     1       6.368  -2.073   0.062  1.00  0.00     0.057 A 
ATOM     74  C   UNL     1       5.400  -2.642  -0.773  1.00  0.00     0.134 A 
ATOM     75  C   UNL     1       7.481  -1.484  -0.548  1.00  0.00     0.134 A 
ATOM     76  F   UNL     1       4.329  -3.254  -0.248  1.00  0.00    -0.206 F 
ATOM     77  C   UNL     1       5.538  -2.634  -2.162  1.00  0.00     0.040 A 
ATOM     78  C   UNL     1       7.623  -1.452  -1.936  1.00  0.00     0.040 A 
ATOM     79  F   UNL     1       8.450  -0.932   0.198  1.00  0.00    -0.206 F 
ATOM     80  C   UNL     1       6.651  -2.034  -2.748  1.00  0.00     0.006 A 
ENDBRANCH  52  73
BRANCH  64  81
ATOM     81  C   UNL     1       6.786  -7.215   4.735  1.00  0.00     0.057 A 
ATOM     82  C   UNL     1       8.052  -7.753   4.473  1.00  0.00     0.134 A 
ATOM     83  C   UNL     1       5.725  -8.110   4.921  1.00  0.00     0.134 A 
ATOM     84  F   UNL     1       9.106  -6.948   4.276  1.00  0.00    -0.206 F 
ATOM     85  C   UNL     1       8.251  -9.133   4.386  1.00  0.00     0.040 A 
ATOM     86  C   UNL     1       5.916  -9.491   4.856  1.00  0.00     0.040 A 
ATOM     87  F   UNL     1       4.490  -7.657   5.185  1.00  0.00    -0.206 F 
ATOM     88  C   UNL     1       7.182 -10.005   4.585  1.00  0.00     0.006 A 
ENDBRANCH  64  81
ENDBRANCH  38  39
ENDBRANCH  31  33
ENDBRANCH  30  31
ENDBRANCH  29  30
ENDBRANCH  28  29
ENDBRANCH  27  28
ENDBRANCH  26  27
ENDBRANCH  25  26
ENDBRANCH  24  25
ENDBRANCH   1  24
TORSDOF 24
