REMARK SMILES C[C@@](NC(=O)NCC(N)=O)(C(=O)OCCOCCOCCOC(=O)c1ccc(-c2c3nc(c(-c4c(F)cccc4F)c4ccc([nH]4)c(-c4c(F)cccc4F)c4nc(c(-c5c(F)cccc5F)c5ccc2[nH]5)C=C4)C=C3)cc1)C(F)(F)F
REMARK SMILES IDX 17 1 16 2 15 3 14 4 13 5 11 6 12 7 2 8 1 9 3 10 4 11 5 13
REMARK SMILES IDX 6 14 7 16 8 17 9 18 10 19 79 22 80 23 81 24 82 25 18 26
REMARK SMILES IDX 19 27 20 28 21 29 22 30 23 31 24 32 25 33 26 34 78 35 27 36
REMARK SMILES IDX 77 37 28 38 29 39 30 40 71 41 31 42 76 43 70 44 72 45 32 46
REMARK SMILES IDX 75 47 69 48 68 49 33 51 59 52 42 53 58 54 43 55 46 56 57 57
REMARK SMILES IDX 73 58 44 59 45 60 56 62 74 63 47 64 34 65 35 66 40 67 36 68
REMARK SMILES IDX 37 69 39 70 41 71 38 72 60 73 61 74 66 75 62 76 63 77 65 78
REMARK SMILES IDX 67 79 64 80 48 81 49 82 54 83 50 84 51 85 53 86 55 87 52 88
REMARK H PARENT 3 12 6 15 9 20 9 21 72 50 46 61
REMARK Flexibility Score: inf
ROOT
ATOM      1  C   UNL     1      -2.843  -0.598   1.911  1.00  0.00     0.188 C 
ENDROOT
BRANCH   1   2
ATOM      2  O   UNL     1      -3.854  -0.525   0.919  1.00  0.00    -0.376 OA
BRANCH   2   3
ATOM      3  C   UNL     1      -3.820   0.638   0.108  1.00  0.00     0.202 C 
BRANCH   3   4
ATOM      4  C   UNL     1      -2.877   0.564  -1.100  1.00  0.00     0.261 C 
BRANCH   4   5
ATOM      5  O   UNL     1      -1.456   0.831  -0.990  1.00  0.00    -0.461 OA
BRANCH   5   6
ATOM      6  C   UNL     1      -0.846   1.444   0.056  1.00  0.00     0.341 C 
ATOM      7  O   UNL     1      -1.404   1.725   1.107  1.00  0.00    -0.249 OA
BRANCH   6   8
ATOM      8  C   UNL     1       0.597   1.791  -0.258  1.00  0.00     0.232 C 
ATOM      9  C   UNL     1       1.303   0.469  -0.661  1.00  0.00     0.058 C 
BRANCH   8  10
ATOM     10  N   UNL     1       0.660   2.728  -1.426  1.00  0.00    -0.315 N 
ATOM     11  C   UNL     1       0.181   3.937  -1.748  1.00  0.00     0.316 C 
ATOM     12  H   UNL     1       1.201   2.352  -2.158  1.00  0.00     0.166 HD
ATOM     13  O   UNL     1       0.700   4.487  -2.721  1.00  0.00    -0.249 OA
ATOM     14  N   UNL     1      -0.835   4.564  -1.141  1.00  0.00    -0.329 N 
ATOM     15  H   UNL     1      -0.985   5.481  -1.465  1.00  0.00     0.165 HD
BRANCH  14  16
ATOM     16  C   UNL     1      -1.750   4.155  -0.107  1.00  0.00     0.217 C 
BRANCH  16  17
ATOM     17  C   UNL     1      -2.813   5.097   0.449  1.00  0.00     0.236 C 
ATOM     18  N   UNL     1      -4.012   4.489   0.726  1.00  0.00    -0.368 N 
ATOM     19  O   UNL     1      -2.620   6.276   0.714  1.00  0.00    -0.273 OA
ATOM     20  H   UNL     1      -4.146   3.540   0.504  1.00  0.00     0.159 HD
ATOM     21  H   UNL     1      -4.738   5.004   1.147  1.00  0.00     0.159 HD
ENDBRANCH  16  17
ENDBRANCH  14  16
ENDBRANCH   8  10
BRANCH   8  22
ATOM     22  C   UNL     1       1.292   2.274   1.028  1.00  0.00     0.422 C 
ATOM     23  F   UNL     1       1.170   1.371   2.033  1.00  0.00    -0.168 F 
ATOM     24  F   UNL     1       2.626   2.421   0.814  1.00  0.00    -0.168 F 
ATOM     25  F   UNL     1       0.843   3.458   1.486  1.00  0.00    -0.168 F 
ENDBRANCH   8  22
ENDBRANCH   6   8
ENDBRANCH   5   6
ENDBRANCH   4   5
ENDBRANCH   3   4
ENDBRANCH   2   3
ENDBRANCH   1   2
BRANCH   1  26
ATOM     26  C   UNL     1      -1.558  -1.275   1.423  1.00  0.00     0.188 C 
BRANCH  26  27
ATOM     27  O   UNL     1      -1.599  -2.225   0.378  1.00  0.00    -0.376 OA
BRANCH  27  28
ATOM     28  C   UNL     1      -2.694  -3.120   0.301  1.00  0.00     0.202 C 
BRANCH  28  29
ATOM     29  C   UNL     1      -3.216  -3.866   1.550  1.00  0.00     0.261 C 
BRANCH  29  30
ATOM     30  O   UNL     1      -2.829  -3.372   2.842  1.00  0.00    -0.460 OA
BRANCH  30  31
ATOM     31  C   UNL     1      -1.621  -3.777   3.317  1.00  0.00     0.338 C 
ATOM     32  O   UNL     1      -0.878  -4.583   2.811  1.00  0.00    -0.246 OA
BRANCH  31  33
ATOM     33  C   UNL     1      -1.238  -2.874   4.447  1.00  0.00     0.060 A 
ATOM     34  C   UNL     1       0.022  -2.253   4.393  1.00  0.00     0.016 A 
ATOM     35  C   UNL     1      -2.096  -2.607   5.515  1.00  0.00     0.016 A 
ATOM     36  C   UNL     1       0.444  -1.405   5.417  1.00  0.00     0.010 A 
ATOM     37  C   UNL     1      -1.652  -1.795   6.571  1.00  0.00     0.010 A 
ATOM     38  C   UNL     1      -0.361  -1.232   6.547  1.00  0.00    -0.014 A 
BRANCH  38  39
ATOM     39  C   UNL     1       0.275  -0.757   7.805  1.00  0.00     0.031 A 
ATOM     40  C   UNL     1       0.801  -1.808   8.750  1.00  0.00     0.074 A 
ATOM     41  C   UNL     1       0.451   0.545   8.091  1.00  0.00     0.049 A 
ATOM     42  N   UNL     1       1.372  -1.675   9.919  1.00  0.00    -0.248 NA
ATOM     43  C   UNL     1       0.660  -3.206   8.307  1.00  0.00     0.031 C 
ATOM     44  C   UNL     1       0.065   1.666   7.239  1.00  0.00     0.029 A 
ATOM     45  N   UNL     1       1.011   1.139   9.198  1.00  0.00    -0.354 N 
ATOM     46  C   UNL     1       1.647  -2.967  10.352  1.00  0.00     0.074 A 
ATOM     47  C   UNL     1       1.152  -3.871   9.339  1.00  0.00     0.031 C 
ATOM     48  C   UNL     1       0.390   2.816   7.860  1.00  0.00     0.029 A 
ATOM     49  C   UNL     1       0.979   2.511   9.165  1.00  0.00     0.049 A 
ATOM     50  H   UNL     1       1.399   0.627   9.944  1.00  0.00     0.167 HD
ATOM     51  C   UNL     1       2.265  -3.371  11.486  1.00  0.00     0.037 A 
ATOM     52  C   UNL     1       1.365   3.413  10.091  1.00  0.00     0.037 A 
ATOM     53  C   UNL     1       2.760  -2.479  12.498  1.00  0.00     0.049 A 
ATOM     54  C   UNL     1       1.962   2.938  11.393  1.00  0.00     0.074 A 
ATOM     55  C   UNL     1       3.406  -2.792  13.681  1.00  0.00     0.029 A 
ATOM     56  N   UNL     1       2.657  -1.098  12.451  1.00  0.00    -0.354 N 
ATOM     57  N   UNL     1       2.227   1.716  11.790  1.00  0.00    -0.248 NA
ATOM     58  C   UNL     1       2.315   3.973  12.377  1.00  0.00     0.031 C 
ATOM     59  C   UNL     1       3.643  -1.602  14.377  1.00  0.00     0.029 A 
ATOM     60  C   UNL     1       3.201  -0.545  13.598  1.00  0.00     0.049 A 
ATOM     61  H   UNL     1       2.256  -0.586  11.712  1.00  0.00     0.167 HD
ATOM     62  C   UNL     1       2.812   1.839  13.046  1.00  0.00     0.074 A 
ATOM     63  C   UNL     1       2.870   3.254  13.343  1.00  0.00     0.031 C 
ATOM     64  C   UNL     1       3.266   0.867  13.877  1.00  0.00     0.037 A 
BRANCH  51  65
ATOM     65  C   UNL     1       2.398  -4.850  11.704  1.00  0.00     0.057 A 
ATOM     66  C   UNL     1       3.262  -5.642  10.936  1.00  0.00     0.134 A 
ATOM     67  C   UNL     1       1.650  -5.490  12.700  1.00  0.00     0.134 A 
ATOM     68  F   UNL     1       3.990  -5.096   9.950  1.00  0.00    -0.206 F 
ATOM     69  C   UNL     1       3.355  -7.021  11.132  1.00  0.00     0.040 A 
ATOM     70  C   UNL     1       1.757  -6.862  12.926  1.00  0.00     0.040 A 
ATOM     71  F   UNL     1       0.803  -4.790  13.471  1.00  0.00    -0.206 F 
ATOM     72  C   UNL     1       2.605  -7.633  12.134  1.00  0.00     0.006 A 
ENDBRANCH  51  65
BRANCH  52  73
ATOM     73  C   UNL     1       1.193   4.869   9.839  1.00  0.00     0.057 A 
ATOM     74  C   UNL     1       2.297   5.716   9.691  1.00  0.00     0.134 A 
ATOM     75  C   UNL     1      -0.078   5.455   9.791  1.00  0.00     0.134 A 
ATOM     76  F   UNL     1       3.542   5.221   9.761  1.00  0.00    -0.206 F 
ATOM     77  C   UNL     1       2.147   7.094   9.522  1.00  0.00     0.040 A 
ATOM     78  C   UNL     1      -0.244   6.828   9.596  1.00  0.00     0.040 A 
ATOM     79  F   UNL     1      -1.178   4.702   9.936  1.00  0.00    -0.206 F 
ATOM     80  C   UNL     1       0.871   7.653   9.470  1.00  0.00     0.006 A 
ENDBRANCH  52  73
BRANCH  64  81
ATOM     81  C   UNL     1       3.914   1.298  15.163  1.00  0.00     0.057 A 
ATOM     82  C   UNL     1       3.181   1.853  16.220  1.00  0.00     0.134 A 
ATOM     83  C   UNL     1       5.290   1.117  15.360  1.00  0.00     0.134 A 
ATOM     84  F   UNL     1       1.861   2.062  16.096  1.00  0.00    -0.206 F 
ATOM     85  C   UNL     1       3.797   2.240  17.413  1.00  0.00     0.040 A 
ATOM     86  C   UNL     1       5.912   1.470  16.559  1.00  0.00     0.040 A 
ATOM     87  F   UNL     1       6.051   0.578  14.396  1.00  0.00    -0.206 F 
ATOM     88  C   UNL     1       5.165   2.042  17.586  1.00  0.00     0.006 A 
ENDBRANCH  64  81
ENDBRANCH  38  39
ENDBRANCH  31  33
ENDBRANCH  30  31
ENDBRANCH  29  30
ENDBRANCH  28  29
ENDBRANCH  27  28
ENDBRANCH  26  27
ENDBRANCH   1  26
TORSDOF 21
