REMARK SMILES Cc1cc([C@H]([NH3+])C(=O)OCCOCCOCCOC(=O)c2ccc(-c3c4nc(c(-c5c(F)cccc5F)c5ccc([nH]5)c(-c5c(F)cccc5F)c5nc(c(-c6c(F)cccc6F)c6ccc3[nH]6)C=C5)C=C4)cc2)ccc1Cl
REMARK SMILES IDX 14 1 13 2 12 3 11 4 10 5 9 6 7 7 8 8 5 9 4 10 1 11 2 12 3 13
REMARK SMILES IDX 77 14 76 15 78 16 75 17 6 18 15 22 16 23 17 24 18 25 19 26
REMARK SMILES IDX 20 27 21 28 22 29 74 30 23 31 73 32 24 33 25 34 26 35 67 36
REMARK SMILES IDX 27 37 72 38 66 39 68 40 28 41 71 42 65 43 64 44 29 46 55 47
REMARK SMILES IDX 38 48 54 49 39 50 42 51 53 52 69 53 40 54 41 55 52 57 70 58
REMARK SMILES IDX 43 59 30 60 31 61 36 62 32 63 33 64 35 65 37 66 34 67 56 68
REMARK SMILES IDX 57 69 62 70 58 71 59 72 61 73 63 74 60 75 44 76 45 77 50 78
REMARK SMILES IDX 46 79 47 80 49 81 51 82 48 83
REMARK H PARENT 6 19 6 20 6 21 68 45 42 56
REMARK Flexibility Score: inf
ROOT
ATOM      1  C   UNL     1      -2.840  -0.361   2.915  1.00  0.00     0.188 C 
ENDROOT
BRANCH   1   2
ATOM      2  C   UNL     1      -4.200   0.212   3.360  1.00  0.00     0.188 C 
BRANCH   2   3
ATOM      3  O   UNL     1      -5.110  -0.608   4.085  1.00  0.00    -0.376 OA
BRANCH   3   4
ATOM      4  C   UNL     1      -5.267  -1.972   3.721  1.00  0.00     0.202 C 
BRANCH   4   5
ATOM      5  C   UNL     1      -5.618  -2.325   2.267  1.00  0.00     0.261 C 
BRANCH   5   6
ATOM      6  O   UNL     1      -4.810  -1.701   1.249  1.00  0.00    -0.459 OA
BRANCH   6   7
ATOM      7  C   UNL     1      -5.440  -0.757   0.488  1.00  0.00     0.369 C 
ATOM      8  O   UNL     1      -6.618  -0.436   0.629  1.00  0.00    -0.245 OA
BRANCH   7   9
ATOM      9  C   UNL     1      -4.564  -0.163  -0.642  1.00  0.00     0.323 C 
BRANCH   9  10
ATOM     10  C   UNL     1      -4.813  -0.892  -1.939  1.00  0.00     0.021 A 
ATOM     11  C   UNL     1      -4.571  -4.448  -3.270  1.00  0.00     0.046 C 
ATOM     12  C   UNL     1      -4.829  -2.969  -3.224  1.00  0.00    -0.032 A 
ATOM     13  C   UNL     1      -4.549  -2.268  -2.046  1.00  0.00     0.015 A 
ATOM     14  C   UNL     1      -5.365  -2.262  -4.309  1.00  0.00     0.043 A 
ATOM     15  C   UNL     1      -5.603  -0.887  -4.220  1.00  0.00     0.021 A 
ATOM     16  Cl  UNL     1      -5.767  -3.054  -5.789  1.00  0.00    -0.084 Cl
ATOM     17  C   UNL     1      -5.325  -0.202  -3.040  1.00  0.00     0.012 A 
ENDBRANCH   9  10
BRANCH   9  18
ATOM     18  N   UNL     1      -3.113  -0.088  -0.378  1.00  0.00    -0.342 N 
ATOM     19  H   UNL     1      -2.732  -1.031  -0.306  1.00  0.00     0.345 HD
ATOM     20  H   UNL     1      -2.952   0.412   0.496  1.00  0.00     0.345 HD
ATOM     21  H   UNL     1      -2.654   0.407  -1.143  1.00  0.00     0.345 HD
ENDBRANCH   9  18
ENDBRANCH   7   9
ENDBRANCH   6   7
ENDBRANCH   5   6
ENDBRANCH   4   5
ENDBRANCH   3   4
ENDBRANCH   2   3
ENDBRANCH   1   2
BRANCH   1  22
ATOM     22  O   UNL     1      -2.595  -1.675   3.352  1.00  0.00    -0.376 OA
BRANCH  22  23
ATOM     23  C   UNL     1      -1.618  -1.888   4.348  1.00  0.00     0.202 C 
BRANCH  23  24
ATOM     24  C   UNL     1      -1.492  -0.966   5.576  1.00  0.00     0.261 C 
BRANCH  24  25
ATOM     25  O   UNL     1      -1.956   0.387   5.454  1.00  0.00    -0.460 OA
BRANCH  25  26
ATOM     26  C   UNL     1      -1.063   1.311   5.019  1.00  0.00     0.338 C 
ATOM     27  O   UNL     1       0.094   1.121   4.702  1.00  0.00    -0.246 OA
BRANCH  26  28
ATOM     28  C   UNL     1      -1.789   2.585   4.800  1.00  0.00     0.060 A 
ATOM     29  C   UNL     1      -1.895   3.096   3.497  1.00  0.00     0.016 A 
ATOM     30  C   UNL     1      -2.355   3.274   5.873  1.00  0.00     0.016 A 
ATOM     31  C   UNL     1      -2.546   4.313   3.269  1.00  0.00     0.010 A 
ATOM     32  C   UNL     1      -2.985   4.503   5.646  1.00  0.00     0.010 A 
ATOM     33  C   UNL     1      -3.058   5.044   4.349  1.00  0.00    -0.014 A 
BRANCH  33  34
ATOM     34  C   UNL     1      -3.494   6.452   4.167  1.00  0.00     0.031 A 
ATOM     35  C   UNL     1      -2.527   7.549   4.525  1.00  0.00     0.074 A 
ATOM     36  C   UNL     1      -4.720   6.764   3.712  1.00  0.00     0.049 A 
ATOM     37  N   UNL     1      -2.711   8.844   4.564  1.00  0.00    -0.248 NA
ATOM     38  C   UNL     1      -1.169   7.121   4.899  1.00  0.00     0.031 C 
ATOM     39  C   UNL     1      -5.736   5.805   3.287  1.00  0.00     0.029 A 
ATOM     40  N   UNL     1      -5.324   7.989   3.555  1.00  0.00    -0.354 N 
ATOM     41  C   UNL     1      -1.500   9.383   4.980  1.00  0.00     0.074 A 
ATOM     42  C   UNL     1      -0.597   8.275   5.206  1.00  0.00     0.031 C 
ATOM     43  C   UNL     1      -6.848   6.476   2.938  1.00  0.00     0.029 A 
ATOM     44  C   UNL     1      -6.635   7.908   3.152  1.00  0.00     0.049 A 
ATOM     45  H   UNL     1      -4.861   8.842   3.716  1.00  0.00     0.167 HD
ATOM     46  C   UNL     1      -1.167  10.684   5.156  1.00  0.00     0.037 A 
ATOM     47  C   UNL     1      -7.563   8.875   3.006  1.00  0.00     0.037 A 
ATOM     48  C   UNL     1      -2.065  11.786   4.937  1.00  0.00     0.049 A 
ATOM     49  C   UNL     1      -7.195  10.311   3.285  1.00  0.00     0.074 A 
ATOM     50  C   UNL     1      -1.815  13.141   5.071  1.00  0.00     0.029 A 
ATOM     51  N   UNL     1      -3.390  11.661   4.548  1.00  0.00    -0.354 N 
ATOM     52  N   UNL     1      -6.042  10.814   3.657  1.00  0.00    -0.248 NA
ATOM     53  C   UNL     1      -8.259  11.314   3.123  1.00  0.00     0.031 C 
ATOM     54  C   UNL     1      -3.004  13.832   4.819  1.00  0.00     0.029 A 
ATOM     55  C   UNL     1      -3.978  12.913   4.464  1.00  0.00     0.049 A 
ATOM     56  H   UNL     1      -3.845  10.809   4.359  1.00  0.00     0.167 HD
ATOM     57  C   UNL     1      -6.233  12.190   3.737  1.00  0.00     0.074 A 
ATOM     58  C   UNL     1      -7.609  12.443   3.368  1.00  0.00     0.031 C 
ATOM     59  C   UNL     1      -5.345  13.156   4.080  1.00  0.00     0.037 A 
BRANCH  46  60
ATOM     60  C   UNL     1       0.221  10.982   5.643  1.00  0.00     0.057 A 
ATOM     61  C   UNL     1       1.349  10.793   4.834  1.00  0.00     0.134 A 
ATOM     62  C   UNL     1       0.429  11.490   6.932  1.00  0.00     0.134 A 
ATOM     63  F   UNL     1       1.222  10.296   3.594  1.00  0.00    -0.206 F 
ATOM     64  C   UNL     1       2.636  11.075   5.298  1.00  0.00     0.040 A 
ATOM     65  C   UNL     1       1.707  11.804   7.396  1.00  0.00     0.040 A 
ATOM     66  F   UNL     1      -0.607  11.698   7.758  1.00  0.00    -0.206 F 
ATOM     67  C   UNL     1       2.816  11.589   6.580  1.00  0.00     0.006 A 
ENDBRANCH  46  60
BRANCH  47  68
ATOM     68  C   UNL     1      -8.947   8.525   2.590  1.00  0.00     0.057 A 
ATOM     69  C   UNL     1      -9.453   8.919   1.346  1.00  0.00     0.134 A 
ATOM     70  C   UNL     1      -9.807   7.818   3.439  1.00  0.00     0.134 A 
ATOM     71  F   UNL     1      -8.688   9.624   0.499  1.00  0.00    -0.206 F 
ATOM     72  C   UNL     1     -10.768   8.639   0.968  1.00  0.00     0.040 A 
ATOM     73  C   UNL     1     -11.115   7.507   3.063  1.00  0.00     0.040 A 
ATOM     74  F   UNL     1      -9.387   7.416   4.648  1.00  0.00    -0.206 F 
ATOM     75  C   UNL     1     -11.601   7.926   1.826  1.00  0.00     0.006 A 
ENDBRANCH  47  68
BRANCH  59  76
ATOM     76  C   UNL     1      -5.810  14.584   4.021  1.00  0.00     0.057 A 
ATOM     77  C   UNL     1      -6.715  15.114   4.950  1.00  0.00     0.134 A 
ATOM     78  C   UNL     1      -5.301  15.456   3.049  1.00  0.00     0.134 A 
ATOM     79  F   UNL     1      -7.249  14.333   5.901  1.00  0.00    -0.206 F 
ATOM     80  C   UNL     1      -7.113  16.452   4.900  1.00  0.00     0.040 A 
ATOM     81  C   UNL     1      -5.667  16.802   3.007  1.00  0.00     0.040 A 
ATOM     82  F   UNL     1      -4.421  15.018   2.136  1.00  0.00    -0.206 F 
ATOM     83  C   UNL     1      -6.581  17.302   3.932  1.00  0.00     0.006 A 
ENDBRANCH  59  76
ENDBRANCH  33  34
ENDBRANCH  26  28
ENDBRANCH  25  26
ENDBRANCH  24  25
ENDBRANCH  23  24
ENDBRANCH  22  23
ENDBRANCH   1  22
TORSDOF 19
