REMARK SMILES CC[C@H](NC(=O)c1ccc(C)nc1)C(=O)OCCOCCOCCOC(=O)c1ccc(-c2c3nc(c(-c4c(F)cccc4F)c4ccc([nH]4)c(-c4c(F)cccc4F)c4nc(c(-c5c(F)cccc5F)c5ccc2[nH]5)C=C4)C=C3)cc1
REMARK SMILES IDX 20 1 19 2 18 3 17 4 16 5 14 6 15 7 3 8 2 9 1 10 4 11 5 12
REMARK SMILES IDX 6 14 7 15 8 16 13 17 9 18 12 19 10 20 11 21 21 22 22 23
REMARK SMILES IDX 23 24 24 25 25 26 26 27 27 28 28 29 29 30 81 31 30 32 80 33
REMARK SMILES IDX 31 34 32 35 33 36 74 37 34 38 79 39 73 40 75 41 35 42 78 43
REMARK SMILES IDX 72 44 71 45 36 47 62 48 45 49 61 50 46 51 49 52 60 53 76 54
REMARK SMILES IDX 47 55 48 56 59 58 77 59 50 60 37 61 38 62 43 63 39 64 40 65
REMARK SMILES IDX 42 66 44 67 41 68 63 69 64 70 69 71 65 72 66 73 68 74 70 75
REMARK SMILES IDX 67 76 51 77 52 78 57 79 53 80 54 81 56 82 58 83 55 84
REMARK H PARENT 4 13 75 46 49 57
REMARK Flexibility Score: inf
ROOT
ATOM      1  C   UNL     1      -1.107  -0.199  -5.710  1.00  0.00     0.188 C 
ENDROOT
BRANCH   1   2
ATOM      2  O   UNL     1      -1.927  -1.216  -6.282  1.00  0.00    -0.376 OA
BRANCH   2   3
ATOM      3  C   UNL     1      -2.699  -2.011  -5.388  1.00  0.00     0.202 C 
BRANCH   3   4
ATOM      4  C   UNL     1      -1.938  -2.859  -4.359  1.00  0.00     0.261 C 
BRANCH   4   5
ATOM      5  O   UNL     1      -1.024  -2.111  -3.527  1.00  0.00    -0.462 OA
BRANCH   5   6
ATOM      6  C   UNL     1       0.157  -2.752  -3.285  1.00  0.00     0.328 C 
ATOM      7  O   UNL     1       0.442  -3.866  -3.719  1.00  0.00    -0.250 OA
BRANCH   6   8
ATOM      8  C   UNL     1       1.060  -2.050  -2.258  1.00  0.00     0.192 C 
BRANCH   8   9
ATOM      9  C   UNL     1       0.919  -2.813  -0.910  1.00  0.00     0.033 C 
ATOM     10  C   UNL     1       0.341  -2.036   0.270  1.00  0.00     0.007 C 
ENDBRANCH   8   9
BRANCH   8  11
ATOM     11  N   UNL     1       0.954  -0.605  -2.074  1.00  0.00    -0.339 N 
ATOM     12  C   UNL     1       1.806   0.359  -2.538  1.00  0.00     0.253 C 
ATOM     13  H   UNL     1       0.179  -0.288  -1.556  1.00  0.00     0.164 HD
ATOM     14  O   UNL     1       1.980   1.380  -1.879  1.00  0.00    -0.269 OA
BRANCH  12  15
ATOM     15  C   UNL     1       2.268   0.327  -3.929  1.00  0.00     0.058 A 
ATOM     16  C   UNL     1       1.605   1.189  -4.786  1.00  0.00     0.017 A 
ATOM     17  C   UNL     1       3.357  -0.343  -4.431  1.00  0.00     0.125 A 
ATOM     18  C   UNL     1       2.004   1.345  -6.104  1.00  0.00     0.024 A 
ATOM     19  N   UNL     1       3.781  -0.209  -5.724  1.00  0.00    -0.261 NA
ATOM     20  C   UNL     1       3.128   0.670  -6.528  1.00  0.00     0.037 A 
ATOM     21  C   UNL     1       3.670   0.971  -7.896  1.00  0.00     0.066 C 
ENDBRANCH  12  15
ENDBRANCH   8  11
ENDBRANCH   6   8
ENDBRANCH   5   6
ENDBRANCH   4   5
ENDBRANCH   3   4
ENDBRANCH   2   3
ENDBRANCH   1   2
BRANCH   1  22
ATOM     22  C   UNL     1      -1.792   0.812  -4.759  1.00  0.00     0.188 C 
BRANCH  22  23
ATOM     23  O   UNL     1      -2.366   1.961  -5.395  1.00  0.00    -0.376 OA
BRANCH  23  24
ATOM     24  C   UNL     1      -1.460   2.905  -5.984  1.00  0.00     0.202 C 
BRANCH  24  25
ATOM     25  C   UNL     1      -0.782   3.887  -5.000  1.00  0.00     0.261 C 
BRANCH  25  26
ATOM     26  O   UNL     1       0.631   4.032  -5.327  1.00  0.00    -0.460 OA
BRANCH  26  27
ATOM     27  C   UNL     1       1.397   4.586  -4.336  1.00  0.00     0.338 C 
ATOM     28  O   UNL     1       0.967   5.157  -3.359  1.00  0.00    -0.246 OA
BRANCH  27  29
ATOM     29  C   UNL     1       2.846   4.223  -4.501  1.00  0.00     0.060 A 
ATOM     30  C   UNL     1       3.533   3.761  -3.369  1.00  0.00     0.016 A 
ATOM     31  C   UNL     1       3.531   4.285  -5.719  1.00  0.00     0.016 A 
ATOM     32  C   UNL     1       4.874   3.343  -3.451  1.00  0.00     0.010 A 
ATOM     33  C   UNL     1       4.885   3.885  -5.797  1.00  0.00     0.010 A 
ATOM     34  C   UNL     1       5.576   3.416  -4.663  1.00  0.00    -0.014 A 
BRANCH  34  35
ATOM     35  C   UNL     1       7.062   3.204  -4.679  1.00  0.00     0.031 A 
ATOM     36  C   UNL     1       7.951   4.380  -4.375  1.00  0.00     0.074 A 
ATOM     37  C   UNL     1       7.654   2.014  -4.909  1.00  0.00     0.049 A 
ATOM     38  N   UNL     1       9.257   4.437  -4.285  1.00  0.00    -0.248 NA
ATOM     39  C   UNL     1       7.271   5.661  -4.135  1.00  0.00     0.031 C 
ATOM     40  C   UNL     1       6.958   0.770  -5.184  1.00  0.00     0.029 A 
ATOM     41  N   UNL     1       8.986   1.656  -4.947  1.00  0.00    -0.354 N 
ATOM     42  C   UNL     1       9.553   5.750  -3.952  1.00  0.00     0.074 A 
ATOM     43  C   UNL     1       8.294   6.465  -3.895  1.00  0.00     0.031 C 
ATOM     44  C   UNL     1       7.851  -0.219  -5.367  1.00  0.00     0.029 A 
ATOM     45  C   UNL     1       9.201   0.326  -5.238  1.00  0.00     0.049 A 
ATOM     46  H   UNL     1       9.718   2.293  -4.781  1.00  0.00     0.167 HD
ATOM     47  C   UNL     1      10.756   6.320  -3.707  1.00  0.00     0.037 A 
ATOM     48  C   UNL     1      10.344  -0.374  -5.392  1.00  0.00     0.037 A 
ATOM     49  C   UNL     1      12.027   5.656  -3.808  1.00  0.00     0.049 A 
ATOM     50  C   UNL     1      11.679   0.309  -5.228  1.00  0.00     0.074 A 
ATOM     51  C   UNL     1      13.292   6.184  -3.614  1.00  0.00     0.029 A 
ATOM     52  N   UNL     1      12.198   4.325  -4.151  1.00  0.00    -0.354 N 
ATOM     53  N   UNL     1      11.938   1.543  -4.874  1.00  0.00    -0.248 NA
ATOM     54  C   UNL     1      12.882  -0.501  -5.488  1.00  0.00     0.031 C 
ATOM     55  C   UNL     1      14.232   5.183  -3.882  1.00  0.00     0.029 A 
ATOM     56  C   UNL     1      13.550   4.022  -4.202  1.00  0.00     0.049 A 
ATOM     57  H   UNL     1      11.469   3.689  -4.332  1.00  0.00     0.167 HD
ATOM     58  C   UNL     1      13.325   1.647  -4.841  1.00  0.00     0.074 A 
ATOM     59  C   UNL     1      13.856   0.352  -5.200  1.00  0.00     0.031 C 
ATOM     60  C   UNL     1      14.084   2.728  -4.540  1.00  0.00     0.037 A 
BRANCH  47  61
ATOM     61  C   UNL     1      10.736   7.768  -3.335  1.00  0.00     0.057 A 
ATOM     62  C   UNL     1      10.325   8.188  -2.063  1.00  0.00     0.134 A 
ATOM     63  C   UNL     1      11.096   8.750  -4.264  1.00  0.00     0.134 A 
ATOM     64  F   UNL     1       9.947   7.291  -1.140  1.00  0.00    -0.206 F 
ATOM     65  C   UNL     1      10.244   9.542  -1.738  1.00  0.00     0.040 A 
ATOM     66  C   UNL     1      11.039  10.106  -3.943  1.00  0.00     0.040 A 
ATOM     67  F   UNL     1      11.495   8.408  -5.498  1.00  0.00    -0.206 F 
ATOM     68  C   UNL     1      10.603  10.505  -2.680  1.00  0.00     0.006 A 
ENDBRANCH  47  61
BRANCH  48  69
ATOM     69  C   UNL     1      10.311  -1.821  -5.744  1.00  0.00     0.057 A 
ATOM     70  C   UNL     1      10.742  -2.798  -4.837  1.00  0.00     0.134 A 
ATOM     71  C   UNL     1       9.934  -2.252  -7.021  1.00  0.00     0.134 A 
ATOM     72  F   UNL     1      11.153  -2.446  -3.610  1.00  0.00    -0.206 F 
ATOM     73  C   UNL     1      10.822  -4.146  -5.195  1.00  0.00     0.040 A 
ATOM     74  C   UNL     1       9.987  -3.599  -7.385  1.00  0.00     0.040 A 
ATOM     75  F   UNL     1       9.528  -1.365  -7.942  1.00  0.00    -0.206 F 
ATOM     76  C   UNL     1      10.441  -4.550  -6.473  1.00  0.00     0.006 A 
ENDBRANCH  48  69
BRANCH  60  77
ATOM     77  C   UNL     1      15.575   2.561  -4.547  1.00  0.00     0.057 A 
ATOM     78  C   UNL     1      16.303   2.462  -5.740  1.00  0.00     0.134 A 
ATOM     79  C   UNL     1      16.299   2.562  -3.348  1.00  0.00     0.134 A 
ATOM     80  F   UNL     1      15.671   2.442  -6.923  1.00  0.00    -0.206 F 
ATOM     81  C   UNL     1      17.696   2.360  -5.738  1.00  0.00     0.040 A 
ATOM     82  C   UNL     1      17.693   2.482  -3.334  1.00  0.00     0.040 A 
ATOM     83  F   UNL     1      15.664   2.659  -2.170  1.00  0.00    -0.206 F 
ATOM     84  C   UNL     1      18.395   2.379  -4.533  1.00  0.00     0.006 A 
ENDBRANCH  60  77
ENDBRANCH  34  35
ENDBRANCH  27  29
ENDBRANCH  26  27
ENDBRANCH  25  26
ENDBRANCH  24  25
ENDBRANCH  23  24
ENDBRANCH  22  23
ENDBRANCH   1  22
TORSDOF 20
