REMARK SMILES O=C(CCC(=O)N1Cc2[nH]cnc2C[C@H]1C(=O)NCc1ccccc1)OCCOCCOCCOC(=O)c1ccc(-c2c3nc(c(-c4c(F)cccc4F)c4ccc([nH]4)c(-c4c(F)cccc4F)c4nc(c(-c5c(F)cccc5F)c5ccc2[nH]5)C=C4)C=C3)cc1
REMARK SMILES IDX 28 1 27 2 26 3 2 4 1 5 3 6 4 7 5 8 6 9 7 10 8 11 15 12 9 13
REMARK SMILES IDX 14 14 10 15 13 16 11 17 12 19 16 20 17 21 18 22 19 24 20 25
REMARK SMILES IDX 21 26 25 27 22 28 24 29 23 30 29 31 30 32 31 33 32 34 33 35
REMARK SMILES IDX 34 36 35 37 36 38 37 39 38 40 39 41 91 42 40 43 90 44 41 45
REMARK SMILES IDX 42 46 43 47 84 48 44 49 89 50 83 51 85 52 45 53 88 54 82 55
REMARK SMILES IDX 81 56 46 58 72 59 55 60 71 61 56 62 59 63 70 64 86 65 57 66
REMARK SMILES IDX 58 67 69 69 87 70 60 71 47 72 48 73 53 74 49 75 50 76 52 77
REMARK SMILES IDX 54 78 51 79 73 80 74 81 79 82 75 83 76 84 78 85 80 86 77 87
REMARK SMILES IDX 61 88 62 89 67 90 63 91 64 92 66 93 68 94 65 95
REMARK H PARENT 10 18 18 23 85 57 59 68
REMARK Flexibility Score: inf
ROOT
ATOM      1  C   UNL     1       4.934   0.893  -1.893  1.00  0.00     0.202 C 
ENDROOT
BRANCH   1   2
ATOM      2  C   UNL     1       4.657   0.389  -0.472  1.00  0.00     0.261 C 
BRANCH   2   3
ATOM      3  O   UNL     1       3.257   0.373  -0.164  1.00  0.00    -0.463 OA
BRANCH   3   4
ATOM      4  C   UNL     1       2.623   1.200   0.682  1.00  0.00     0.306 C 
ATOM      5  O   UNL     1       1.430   1.457   0.545  1.00  0.00    -0.252 OA
BRANCH   4   6
ATOM      6  C   UNL     1       3.363   1.608   1.907  1.00  0.00     0.132 C 
BRANCH   6   7
ATOM      7  C   UNL     1       3.247   0.467   2.901  1.00  0.00     0.112 C 
BRANCH   7   8
ATOM      8  C   UNL     1       4.445  -0.456   2.868  1.00  0.00     0.224 C 
ATOM      9  O   UNL     1       5.556   0.017   3.135  1.00  0.00    -0.275 OA
BRANCH   8  10
ATOM     10  N   UNL     1       4.277  -1.817   2.611  1.00  0.00    -0.324 N 
ATOM     11  C   UNL     1       5.455  -2.614   2.986  1.00  0.00     0.176 C 
ATOM     12  C   UNL     1       3.226  -2.370   1.669  1.00  0.00     0.180 C 
ATOM     13  C   UNL     1       5.236  -4.033   2.709  1.00  0.00     0.058 A 
ATOM     14  C   UNL     1       3.575  -3.680   0.907  1.00  0.00     0.093 C 
ATOM     15  N   UNL     1       5.799  -5.110   3.327  1.00  0.00    -0.347 N 
ATOM     16  C   UNL     1       4.400  -4.549   1.759  1.00  0.00     0.066 A 
ATOM     17  C   UNL     1       5.272  -6.224   2.726  1.00  0.00     0.197 A 
ATOM     18  H   UNL     1       6.456  -5.091   4.060  1.00  0.00     0.167 HD
ATOM     19  N   UNL     1       4.414  -5.912   1.776  1.00  0.00    -0.242 NA
BRANCH  12  20
ATOM     20  C   UNL     1       1.752  -2.439   2.127  1.00  0.00     0.243 C 
ATOM     21  O   UNL     1       0.861  -2.052   1.361  1.00  0.00    -0.273 OA
ATOM     22  N   UNL     1       1.325  -2.991   3.285  1.00  0.00    -0.350 N 
ATOM     23  H   UNL     1       0.378  -2.819   3.491  1.00  0.00     0.163 HD
BRANCH  22  24
ATOM     24  C   UNL     1       2.012  -3.787   4.271  1.00  0.00     0.151 C 
BRANCH  24  25
ATOM     25  C   UNL     1       2.652  -3.014   5.393  1.00  0.00    -0.029 A 
ATOM     26  C   UNL     1       3.408  -3.718   6.341  1.00  0.00     0.005 A 
ATOM     27  C   UNL     1       2.512  -1.630   5.549  1.00  0.00     0.005 A 
ATOM     28  C   UNL     1       4.045  -3.049   7.387  1.00  0.00     0.000 A 
ATOM     29  C   UNL     1       3.176  -0.954   6.573  1.00  0.00     0.000 A 
ATOM     30  C   UNL     1       3.945  -1.664   7.490  1.00  0.00     0.000 A 
ENDBRANCH  24  25
ENDBRANCH  22  24
ENDBRANCH  12  20
ENDBRANCH   8  10
ENDBRANCH   7   8
ENDBRANCH   6   7
ENDBRANCH   4   6
ENDBRANCH   3   4
ENDBRANCH   2   3
ENDBRANCH   1   2
BRANCH   1  31
ATOM     31  O   UNL     1       3.900   1.489  -2.661  1.00  0.00    -0.376 OA
BRANCH  31  32
ATOM     32  C   UNL     1       2.581   0.948  -2.683  1.00  0.00     0.188 C 
BRANCH  32  33
ATOM     33  C   UNL     1       2.324  -0.575  -2.814  1.00  0.00     0.188 C 
BRANCH  33  34
ATOM     34  O   UNL     1       3.369  -1.409  -2.339  1.00  0.00    -0.376 OA
BRANCH  34  35
ATOM     35  C   UNL     1       4.126  -2.205  -3.247  1.00  0.00     0.202 C 
BRANCH  35  36
ATOM     36  C   UNL     1       4.093  -1.939  -4.751  1.00  0.00     0.261 C 
BRANCH  36  37
ATOM     37  O   UNL     1       4.324  -0.559  -5.034  1.00  0.00    -0.460 OA
BRANCH  37  38
ATOM     38  C   UNL     1       3.356   0.034  -5.774  1.00  0.00     0.338 C 
ATOM     39  O   UNL     1       2.391  -0.513  -6.281  1.00  0.00    -0.246 OA
BRANCH  38  40
ATOM     40  C   UNL     1       3.582   1.487  -5.860  1.00  0.00     0.060 A 
ATOM     41  C   UNL     1       2.552   2.253  -6.414  1.00  0.00     0.016 A 
ATOM     42  C   UNL     1       4.797   2.075  -5.480  1.00  0.00     0.016 A 
ATOM     43  C   UNL     1       2.810   3.558  -6.779  1.00  0.00     0.010 A 
ATOM     44  C   UNL     1       5.048   3.394  -5.816  1.00  0.00     0.010 A 
ATOM     45  C   UNL     1       4.097   4.070  -6.581  1.00  0.00    -0.014 A 
BRANCH  45  46
ATOM     46  C   UNL     1       4.505   5.104  -7.521  1.00  0.00     0.031 A 
ATOM     47  C   UNL     1       4.013   6.485  -7.346  1.00  0.00     0.074 A 
ATOM     48  C   UNL     1       5.254   4.753  -8.586  1.00  0.00     0.049 A 
ATOM     49  N   UNL     1       3.263   7.167  -8.151  1.00  0.00    -0.248 NA
ATOM     50  C   UNL     1       4.405   7.197  -6.125  1.00  0.00     0.031 C 
ATOM     51  C   UNL     1       6.006   3.508  -8.793  1.00  0.00     0.029 A 
ATOM     52  N   UNL     1       5.555   5.487  -9.693  1.00  0.00    -0.354 N 
ATOM     53  C   UNL     1       3.204   8.450  -7.620  1.00  0.00     0.074 A 
ATOM     54  C   UNL     1       3.868   8.399  -6.340  1.00  0.00     0.031 C 
ATOM     55  C   UNL     1       6.832   3.657  -9.848  1.00  0.00     0.029 A 
ATOM     56  C   UNL     1       6.564   4.942 -10.465  1.00  0.00     0.049 A 
ATOM     57  H   UNL     1       5.096   6.327  -9.922  1.00  0.00     0.167 HD
ATOM     58  C   UNL     1       2.748   9.518  -8.328  1.00  0.00     0.037 A 
ATOM     59  C   UNL     1       7.192   5.528 -11.506  1.00  0.00     0.037 A 
ATOM     60  C   UNL     1       1.966   9.142  -9.470  1.00  0.00     0.049 A 
ATOM     61  C   UNL     1       6.319   6.602 -12.028  1.00  0.00     0.074 A 
ATOM     62  C   UNL     1       0.766   8.486  -9.653  1.00  0.00     0.029 A 
ATOM     63  N   UNL     1       2.547   9.210 -10.711  1.00  0.00    -0.354 N 
ATOM     64  N   UNL     1       5.203   6.402 -12.671  1.00  0.00    -0.248 NA
ATOM     65  C   UNL     1       6.507   7.950 -11.514  1.00  0.00     0.031 C 
ATOM     66  C   UNL     1       0.886   7.813 -10.903  1.00  0.00     0.029 A 
ATOM     67  C   UNL     1       2.159   8.090 -11.402  1.00  0.00     0.049 A 
ATOM     68  H   UNL     1       3.132   9.928 -11.043  1.00  0.00     0.167 HD
ATOM     69  C   UNL     1       4.386   7.462 -12.307  1.00  0.00     0.074 A 
ATOM     70  C   UNL     1       5.281   8.441 -11.706  1.00  0.00     0.031 C 
ATOM     71  C   UNL     1       3.027   7.334 -12.277  1.00  0.00     0.037 A 
BRANCH  58  72
ATOM     72  C   UNL     1       3.222  10.920  -8.099  1.00  0.00     0.057 A 
ATOM     73  C   UNL     1       2.451  12.016  -8.517  1.00  0.00     0.134 A 
ATOM     74  C   UNL     1       4.535  11.217  -7.686  1.00  0.00     0.134 A 
ATOM     75  F   UNL     1       1.206  11.843  -8.983  1.00  0.00    -0.206 F 
ATOM     76  C   UNL     1       2.956  13.322  -8.520  1.00  0.00     0.040 A 
ATOM     77  C   UNL     1       5.035  12.521  -7.643  1.00  0.00     0.040 A 
ATOM     78  F   UNL     1       5.412  10.248  -7.387  1.00  0.00    -0.206 F 
ATOM     79  C   UNL     1       4.249  13.579  -8.075  1.00  0.00     0.006 A 
ENDBRANCH  58  72
BRANCH  59  80
ATOM     80  C   UNL     1       8.612   5.372 -11.876  1.00  0.00     0.057 A 
ATOM     81  C   UNL     1       9.074   5.700 -13.154  1.00  0.00     0.134 A 
ATOM     82  C   UNL     1       9.598   5.111 -10.905  1.00  0.00     0.134 A 
ATOM     83  F   UNL     1       8.210   6.013 -14.130  1.00  0.00    -0.206 F 
ATOM     84  C   UNL     1      10.441   5.769 -13.450  1.00  0.00     0.040 A 
ATOM     85  C   UNL     1      10.964   5.161 -11.191  1.00  0.00     0.040 A 
ATOM     86  F   UNL     1       9.271   4.876  -9.626  1.00  0.00    -0.206 F 
ATOM     87  C   UNL     1      11.390   5.503 -12.466  1.00  0.00     0.006 A 
ENDBRANCH  59  80
BRANCH  71  88
ATOM     88  C   UNL     1       2.428   6.130 -12.945  1.00  0.00     0.057 A 
ATOM     89  C   UNL     1       2.601   4.823 -12.469  1.00  0.00     0.134 A 
ATOM     90  C   UNL     1       1.528   6.309 -14.002  1.00  0.00     0.134 A 
ATOM     91  F   UNL     1       3.367   4.575 -11.397  1.00  0.00    -0.206 F 
ATOM     92  C   UNL     1       1.939   3.736 -13.047  1.00  0.00     0.040 A 
ATOM     93  C   UNL     1       0.840   5.235 -14.571  1.00  0.00     0.040 A 
ATOM     94  F   UNL     1       1.266   7.541 -14.467  1.00  0.00    -0.206 F 
ATOM     95  C   UNL     1       1.051   3.941 -14.100  1.00  0.00     0.006 A 
ENDBRANCH  71  88
ENDBRANCH  45  46
ENDBRANCH  38  40
ENDBRANCH  37  38
ENDBRANCH  36  37
ENDBRANCH  35  36
ENDBRANCH  34  35
ENDBRANCH  33  34
ENDBRANCH  32  33
ENDBRANCH  31  32
ENDBRANCH   1  31
TORSDOF 23
