REMARK SMILES Cc1ccc(Cl)c(Nc2ccccc2C(=O)NCC(=O)OCCOCCOCCOC(=O)c2ccc(-c3c4nc(c(-c5c(F)cccc5F)c5ccc([nH]5)c(-c5c(F)cccc5F)c5nc(c(-c6c(F)cccc6F)c6ccc3[nH]6)C=C5)C=C4)cc2)c1Cl
REMARK SMILES IDX 25 1 24 2 23 3 22 4 21 5 19 6 20 7 18 8 17 9 15 10 16 11
REMARK SMILES IDX 14 13 9 14 10 15 11 16 13 17 12 18 8 19 7 21 1 22 2 23 3 24
REMARK SMILES IDX 87 25 4 26 88 27 5 28 6 29 26 30 27 31 28 32 29 33 30 34
REMARK SMILES IDX 31 35 32 36 33 37 34 38 86 39 35 40 85 41 36 42 37 43 38 44
REMARK SMILES IDX 79 45 39 46 84 47 78 48 80 49 40 50 83 51 77 52 76 53 41 55
REMARK SMILES IDX 67 56 50 57 66 58 51 59 54 60 65 61 81 62 52 63 53 64 64 66
REMARK SMILES IDX 82 67 55 68 42 69 43 70 48 71 44 72 45 73 47 74 49 75 46 76
REMARK SMILES IDX 68 77 69 78 74 79 70 80 71 81 73 82 75 83 72 84 56 85 57 86
REMARK SMILES IDX 62 87 58 88 59 89 61 90 63 91 60 92
REMARK H PARENT 17 12 8 20 80 54 54 65
REMARK Flexibility Score: inf
ROOT
ATOM      1  C   UNL     1      -3.267   0.170   2.682  1.00  0.00     0.188 C 
ENDROOT
BRANCH   1   2
ATOM      2  O   UNL     1      -4.370  -0.149   3.502  1.00  0.00    -0.376 OA
BRANCH   2   3
ATOM      3  C   UNL     1      -5.057  -1.376   3.293  1.00  0.00     0.202 C 
BRANCH   3   4
ATOM      4  C   UNL     1      -4.393  -2.618   2.669  1.00  0.00     0.261 C 
BRANCH   4   5
ATOM      5  O   UNL     1      -2.963  -2.593   2.579  1.00  0.00    -0.462 OA
BRANCH   5   6
ATOM      6  C   UNL     1      -2.504  -2.875   1.336  1.00  0.00     0.325 C 
ATOM      7  O   UNL     1      -3.216  -3.250   0.404  1.00  0.00    -0.250 OA
BRANCH   6   8
ATOM      8  C   UNL     1      -1.085  -2.432   1.057  1.00  0.00     0.239 C 
BRANCH   8   9
ATOM      9  N   UNL     1       0.056  -2.316   1.935  1.00  0.00    -0.341 N 
ATOM     10  C   UNL     1       1.374  -2.421   1.516  1.00  0.00     0.253 C 
ATOM     11  O   UNL     1       2.273  -1.954   2.213  1.00  0.00    -0.269 OA
ATOM     12  H   UNL     1      -0.113  -2.151   2.890  1.00  0.00     0.164 HD
BRANCH  10  13
ATOM     13  C   UNL     1       1.719  -3.300   0.353  1.00  0.00     0.063 A 
ATOM     14  C   UNL     1       1.208  -3.224  -0.964  1.00  0.00     0.051 A 
ATOM     15  C   UNL     1       1.383  -4.352  -1.794  1.00  0.00     0.027 A 
ATOM     16  C   UNL     1       2.101  -5.474  -1.376  1.00  0.00     0.002 A 
ATOM     17  C   UNL     1       2.506  -4.406   0.736  1.00  0.00     0.016 A 
ATOM     18  C   UNL     1       2.699  -5.484  -0.124  1.00  0.00     0.001 A 
BRANCH  14  19
ATOM     19  N   UNL     1       0.542  -2.127  -1.561  1.00  0.00    -0.352 N 
ATOM     20  H   UNL     1      -0.072  -2.395  -2.282  1.00  0.00     0.167 HD
BRANCH  19  21
ATOM     21  C   UNL     1       0.568  -0.727  -1.348  1.00  0.00     0.077 A 
ATOM     22  C   UNL     1       2.793   2.115  -0.035  1.00  0.00     0.046 C 
ATOM     23  C   UNL     1       1.603   1.354  -0.552  1.00  0.00    -0.030 A 
ATOM     24  C   UNL     1       0.371   2.015  -0.664  1.00  0.00     0.006 A 
ATOM     25  C   UNL     1       1.701  -0.007  -0.920  1.00  0.00     0.069 A 
ATOM     26  C   UNL     1      -0.743   1.347  -1.158  1.00  0.00     0.023 A 
ATOM     27  Cl  UNL     1       3.283  -0.730  -0.996  1.00  0.00    -0.082 Cl
ATOM     28  C   UNL     1      -0.640  -0.001  -1.502  1.00  0.00     0.066 A 
ATOM     29  Cl  UNL     1      -2.074  -0.777  -2.098  1.00  0.00    -0.082 Cl
ENDBRANCH  19  21
ENDBRANCH  14  19
ENDBRANCH  10  13
ENDBRANCH   8   9
ENDBRANCH   6   8
ENDBRANCH   5   6
ENDBRANCH   4   5
ENDBRANCH   3   4
ENDBRANCH   2   3
ENDBRANCH   1   2
BRANCH   1  30
ATOM     30  C   UNL     1      -1.914   0.083   3.413  1.00  0.00     0.188 C 
BRANCH  30  31
ATOM     31  O   UNL     1      -1.703  -0.853   4.460  1.00  0.00    -0.376 OA
BRANCH  31  32
ATOM     32  C   UNL     1      -2.589  -0.829   5.580  1.00  0.00     0.202 C 
BRANCH  32  33
ATOM     33  C   UNL     1      -2.927   0.483   6.327  1.00  0.00     0.261 C 
BRANCH  33  34
ATOM     34  O   UNL     1      -3.059   1.662   5.517  1.00  0.00    -0.460 OA
BRANCH  34  35
ATOM     35  C   UNL     1      -2.037   2.550   5.619  1.00  0.00     0.338 C 
ATOM     36  O   UNL     1      -1.079   2.498   6.368  1.00  0.00    -0.246 OA
BRANCH  35  37
ATOM     37  C   UNL     1      -2.127   3.521   4.508  1.00  0.00     0.060 A 
ATOM     38  C   UNL     1      -1.122   3.501   3.526  1.00  0.00     0.016 A 
ATOM     39  C   UNL     1      -3.146   4.470   4.458  1.00  0.00     0.016 A 
ATOM     40  C   UNL     1      -1.132   4.429   2.488  1.00  0.00     0.010 A 
ATOM     41  C   UNL     1      -3.129   5.431   3.441  1.00  0.00     0.010 A 
ATOM     42  C   UNL     1      -2.110   5.427   2.469  1.00  0.00    -0.014 A 
BRANCH  42  43
ATOM     43  C   UNL     1      -1.944   6.595   1.573  1.00  0.00     0.031 A 
ATOM     44  C   UNL     1      -1.278   7.821   2.127  1.00  0.00     0.074 A 
ATOM     45  C   UNL     1      -2.375   6.575   0.301  1.00  0.00     0.049 A 
ATOM     46  N   UNL     1      -1.136   9.005   1.591  1.00  0.00    -0.248 NA
ATOM     47  C   UNL     1      -0.697   7.690   3.473  1.00  0.00     0.031 C 
ATOM     48  C   UNL     1      -2.975   5.428  -0.373  1.00  0.00     0.029 A 
ATOM     49  N   UNL     1      -2.391   7.572  -0.642  1.00  0.00    -0.354 N 
ATOM     50  C   UNL     1      -0.472   9.768   2.544  1.00  0.00     0.074 A 
ATOM     51  C   UNL     1      -0.251   8.917   3.693  1.00  0.00     0.031 C 
ATOM     52  C   UNL     1      -3.336   5.796  -1.615  1.00  0.00     0.029 A 
ATOM     53  C   UNL     1      -3.030   7.215  -1.803  1.00  0.00     0.049 A 
ATOM     54  H   UNL     1      -1.984   8.457  -0.500  1.00  0.00     0.167 HD
ATOM     55  C   UNL     1      -0.089  11.064   2.471  1.00  0.00     0.037 A 
ATOM     56  C   UNL     1      -3.368   7.961  -2.873  1.00  0.00     0.037 A 
ATOM     57  C   UNL     1      -0.321  11.911   1.331  1.00  0.00     0.049 A 
ATOM     58  C   UNL     1      -3.009   9.425  -2.903  1.00  0.00     0.074 A 
ATOM     59  C   UNL     1       0.043  13.233   1.150  1.00  0.00     0.029 A 
ATOM     60  N   UNL     1      -0.993  11.520   0.182  1.00  0.00    -0.354 N 
ATOM     61  N   UNL     1      -2.376  10.141  -2.005  1.00  0.00    -0.248 NA
ATOM     62  C   UNL     1      -3.414  10.184  -4.096  1.00  0.00     0.031 C 
ATOM     63  C   UNL     1      -0.463  13.660  -0.082  1.00  0.00     0.029 A 
ATOM     64  C   UNL     1      -1.084  12.585  -0.699  1.00  0.00     0.049 A 
ATOM     65  H   UNL     1      -1.352  10.618   0.017  1.00  0.00     0.167 HD
ATOM     66  C   UNL     1      -2.282  11.424  -2.534  1.00  0.00     0.074 A 
ATOM     67  C   UNL     1      -2.917  11.385  -3.835  1.00  0.00     0.031 C 
ATOM     68  C   UNL     1      -1.717  12.533  -1.994  1.00  0.00     0.037 A 
BRANCH  55  69
ATOM     69  C   UNL     1       0.567  11.653   3.686  1.00  0.00     0.057 A 
ATOM     70  C   UNL     1       1.850  11.274   4.101  1.00  0.00     0.134 A 
ATOM     71  C   UNL     1      -0.106  12.607   4.459  1.00  0.00     0.134 A 
ATOM     72  F   UNL     1       2.542  10.350   3.416  1.00  0.00    -0.206 F 
ATOM     73  C   UNL     1       2.425  11.796   5.261  1.00  0.00     0.040 A 
ATOM     74  C   UNL     1       0.471  13.159   5.604  1.00  0.00     0.040 A 
ATOM     75  F   UNL     1      -1.337  13.017   4.118  1.00  0.00    -0.206 F 
ATOM     76  C   UNL     1       1.736  12.745   6.013  1.00  0.00     0.006 A 
ENDBRANCH  55  69
BRANCH  56  77
ATOM     77  C   UNL     1      -4.121   7.342  -3.993  1.00  0.00     0.057 A 
ATOM     78  C   UNL     1      -3.528   7.143  -5.244  1.00  0.00     0.134 A 
ATOM     79  C   UNL     1      -5.453   6.937  -3.838  1.00  0.00     0.134 A 
ATOM     80  F   UNL     1      -2.264   7.535  -5.462  1.00  0.00    -0.206 F 
ATOM     81  C   UNL     1      -4.233   6.569  -6.304  1.00  0.00     0.040 A 
ATOM     82  C   UNL     1      -6.162   6.338  -4.881  1.00  0.00     0.040 A 
ATOM     83  F   UNL     1      -6.079   7.102  -2.663  1.00  0.00    -0.206 F 
ATOM     84  C   UNL     1      -5.552   6.157  -6.120  1.00  0.00     0.006 A 
ENDBRANCH  56  77
BRANCH  68  85
ATOM     85  C   UNL     1      -1.717  13.788  -2.821  1.00  0.00     0.057 A 
ATOM     86  C   UNL     1      -2.884  14.526  -3.056  1.00  0.00     0.134 A 
ATOM     87  C   UNL     1      -0.518  14.294  -3.343  1.00  0.00     0.134 A 
ATOM     88  F   UNL     1      -4.067  14.093  -2.593  1.00  0.00    -0.206 F 
ATOM     89  C   UNL     1      -2.862  15.709  -3.798  1.00  0.00     0.040 A 
ATOM     90  C   UNL     1      -0.480  15.490  -4.061  1.00  0.00     0.040 A 
ATOM     91  F   UNL     1       0.639  13.643  -3.146  1.00  0.00    -0.206 F 
ATOM     92  C   UNL     1      -1.656  16.198  -4.295  1.00  0.00     0.006 A 
ENDBRANCH  68  85
ENDBRANCH  42  43
ENDBRANCH  35  37
ENDBRANCH  34  35
ENDBRANCH  33  34
ENDBRANCH  32  33
ENDBRANCH  31  32
ENDBRANCH  30  31
ENDBRANCH   1  30
TORSDOF 21
