REMARK SMILES CS(=O)(=O)c1ccc(N2N=C(C(=O)OCCOCCOCCOC(=O)c3ccc(-c4c5nc(c(-c6c(F)cccc6F)c6ccc([nH]6)c(-c6c(F)cccc6F)c6nc(c(-c7c(F)cccc7F)c7ccc4[nH]7)C=C6)C=C5)cc3)C[C@H]2c2ccco2)cc1
REMARK SMILES IDX 18 1 17 2 16 3 15 4 14 5 12 6 13 7 11 8 9 9 10 10 81 11
REMARK SMILES IDX 80 12 8 13 5 14 6 15 88 16 7 17 87 18 2 19 1 20 3 21 4 22
REMARK SMILES IDX 82 23 83 24 86 25 84 26 85 27 19 28 20 29 21 30 22 31 23 32
REMARK SMILES IDX 24 33 25 34 26 35 27 36 79 37 28 38 78 39 29 40 30 41 31 42
REMARK SMILES IDX 72 43 32 44 77 45 71 46 73 47 33 48 76 49 70 50 69 51 34 53
REMARK SMILES IDX 60 54 43 55 59 56 44 57 47 58 58 59 74 60 45 61 46 62 57 64
REMARK SMILES IDX 75 65 48 66 35 67 36 68 41 69 37 70 38 71 40 72 42 73 39 74
REMARK SMILES IDX 61 75 62 76 67 77 63 78 64 79 66 80 68 81 65 82 49 83 50 84
REMARK SMILES IDX 55 85 51 86 52 87 54 88 56 89 53 90
REMARK H PARENT 73 52 47 63
REMARK Flexibility Score: inf
ROOT
ATOM      1  C   UNL     1      -0.584 -10.077  -2.979  1.00  0.00     0.188 C 
ENDROOT
BRANCH   1   2
ATOM      2  O   UNL     1      -0.790 -10.816  -4.180  1.00  0.00    -0.376 OA
BRANCH   2   3
ATOM      3  C   UNL     1       0.287 -11.562  -4.741  1.00  0.00     0.202 C 
BRANCH   3   4
ATOM      4  C   UNL     1       1.617 -10.838  -5.000  1.00  0.00     0.261 C 
BRANCH   4   5
ATOM      5  O   UNL     1       2.124 -10.165  -3.838  1.00  0.00    -0.459 OA
BRANCH   5   6
ATOM      6  C   UNL     1       2.523  -8.892  -4.032  1.00  0.00     0.354 C 
ATOM      7  O   UNL     1       2.688  -8.308  -5.087  1.00  0.00    -0.245 OA
BRANCH   6   8
ATOM      8  C   UNL     1       2.619  -8.195  -2.699  1.00  0.00     0.148 C 
ATOM      9  N   UNL     1       2.268  -6.801  -1.140  1.00  0.00    -0.254 N 
ATOM     10  N   UNL     1       1.878  -7.171  -2.396  1.00  0.00    -0.169 NA
ATOM     11  C   UNL     1       3.535  -7.448  -0.739  1.00  0.00     0.180 C 
ATOM     12  C   UNL     1       3.512  -8.710  -1.617  1.00  0.00     0.101 C 
BRANCH   9  13
ATOM     13  C   UNL     1       1.836  -5.572  -0.654  1.00  0.00     0.060 A 
ATOM     14  C   UNL     1       0.949  -3.102   0.366  1.00  0.00     0.067 A 
ATOM     15  C   UNL     1       0.262  -4.277   0.686  1.00  0.00     0.022 A 
ATOM     16  C   UNL     1       2.052  -3.145  -0.485  1.00  0.00     0.022 A 
ATOM     17  C   UNL     1       0.712  -5.502   0.180  1.00  0.00     0.029 A 
ATOM     18  C   UNL     1       2.471  -4.374  -1.004  1.00  0.00     0.029 A 
BRANCH  14  19
ATOM     19  S   UNL     1       0.376  -1.568   1.056  1.00  0.00     0.175 S 
ATOM     20  C   UNL     1       0.848  -0.290  -0.077  1.00  0.00     0.163 C 
ATOM     21  O   UNL     1       1.121  -1.371   2.285  1.00  0.00    -0.224 OA
ATOM     22  O   UNL     1      -1.073  -1.620   1.056  1.00  0.00    -0.224 OA
ENDBRANCH  14  19
ENDBRANCH   9  13
BRANCH  11  23
ATOM     23  C   UNL     1       4.809  -6.672  -0.934  1.00  0.00     0.128 A 
ATOM     24  C   UNL     1       5.446  -5.699  -0.187  1.00  0.00     0.048 A 
ATOM     25  O   UNL     1       5.546  -6.937  -2.056  1.00  0.00    -0.467 OA
ATOM     26  C   UNL     1       6.620  -5.349  -0.896  1.00  0.00     0.042 A 
ATOM     27  C   UNL     1       6.642  -6.141  -2.018  1.00  0.00     0.195 A 
ENDBRANCH  11  23
ENDBRANCH   6   8
ENDBRANCH   5   6
ENDBRANCH   4   5
ENDBRANCH   3   4
ENDBRANCH   2   3
ENDBRANCH   1   2
BRANCH   1  28
ATOM     28  C   UNL     1       0.144 -10.746  -1.793  1.00  0.00     0.188 C 
BRANCH  28  29
ATOM     29  O   UNL     1       0.555 -12.074  -2.045  1.00  0.00    -0.376 OA
BRANCH  29  30
ATOM     30  C   UNL     1      -0.115 -13.108  -1.339  1.00  0.00     0.202 C 
BRANCH  30  31
ATOM     31  C   UNL     1      -1.647 -13.218  -1.443  1.00  0.00     0.261 C 
BRANCH  31  32
ATOM     32  O   UNL     1      -2.393 -11.996  -1.339  1.00  0.00    -0.460 OA
BRANCH  32  33
ATOM     33  C   UNL     1      -2.575 -11.479  -0.103  1.00  0.00     0.338 C 
ATOM     34  O   UNL     1      -2.146 -11.915   0.948  1.00  0.00    -0.246 OA
BRANCH  33  35
ATOM     35  C   UNL     1      -3.242 -10.168  -0.266  1.00  0.00     0.060 A 
ATOM     36  C   UNL     1      -2.562  -9.004   0.116  1.00  0.00     0.016 A 
ATOM     37  C   UNL     1      -4.528 -10.092  -0.807  1.00  0.00     0.016 A 
ATOM     38  C   UNL     1      -3.179  -7.759  -0.022  1.00  0.00     0.010 A 
ATOM     39  C   UNL     1      -5.151  -8.846  -0.926  1.00  0.00     0.010 A 
ATOM     40  C   UNL     1      -4.490  -7.677  -0.511  1.00  0.00    -0.014 A 
BRANCH  40  41
ATOM     41  C   UNL     1      -5.233  -6.395  -0.436  1.00  0.00     0.031 A 
ATOM     42  C   UNL     1      -6.166  -6.171   0.720  1.00  0.00     0.074 A 
ATOM     43  C   UNL     1      -5.089  -5.448  -1.379  1.00  0.00     0.049 A 
ATOM     44  N   UNL     1      -6.964  -5.163   0.965  1.00  0.00    -0.248 NA
ATOM     45  C   UNL     1      -6.209  -7.235   1.736  1.00  0.00     0.031 C 
ATOM     46  C   UNL     1      -4.195  -5.529  -2.531  1.00  0.00     0.029 A 
ATOM     47  N   UNL     1      -5.712  -4.232  -1.517  1.00  0.00    -0.354 N 
ATOM     48  C   UNL     1      -7.605  -5.473   2.158  1.00  0.00     0.074 A 
ATOM     49  C   UNL     1      -7.129  -6.776   2.569  1.00  0.00     0.031 C 
ATOM     50  C   UNL     1      -4.340  -4.415  -3.271  1.00  0.00     0.029 A 
ATOM     51  C   UNL     1      -5.355  -3.559  -2.659  1.00  0.00     0.049 A 
ATOM     52  H   UNL     1      -6.353  -3.876  -0.859  1.00  0.00     0.167 HD
ATOM     53  C   UNL     1      -8.504  -4.736   2.852  1.00  0.00     0.037 A 
ATOM     54  C   UNL     1      -5.815  -2.397  -3.163  1.00  0.00     0.037 A 
ATOM     55  C   UNL     1      -8.981  -3.442   2.439  1.00  0.00     0.049 A 
ATOM     56  C   UNL     1      -6.865  -1.624  -2.411  1.00  0.00     0.074 A 
ATOM     57  C   UNL     1      -9.873  -2.605   3.086  1.00  0.00     0.029 A 
ATOM     58  N   UNL     1      -8.612  -2.804   1.264  1.00  0.00    -0.354 N 
ATOM     59  N   UNL     1      -7.447  -1.909  -1.271  1.00  0.00    -0.248 NA
ATOM     60  C   UNL     1      -7.322  -0.364  -3.016  1.00  0.00     0.031 C 
ATOM     61  C   UNL     1     -10.087  -1.485   2.275  1.00  0.00     0.029 A 
ATOM     62  C   UNL     1      -9.285  -1.598   1.150  1.00  0.00     0.049 A 
ATOM     63  H   UNL     1      -7.968  -3.155   0.609  1.00  0.00     0.167 HD
ATOM     64  C   UNL     1      -8.314  -0.856  -1.008  1.00  0.00     0.074 A 
ATOM     65  C   UNL     1      -8.178   0.080  -2.105  1.00  0.00     0.031 C 
ATOM     66  C   UNL     1      -9.143  -0.677   0.051  1.00  0.00     0.037 A 
BRANCH  53  67
ATOM     67  C   UNL     1      -9.055  -5.337   4.112  1.00  0.00     0.057 A 
ATOM     68  C   UNL     1      -8.274  -5.490   5.266  1.00  0.00     0.134 A 
ATOM     69  C   UNL     1     -10.386  -5.768   4.171  1.00  0.00     0.134 A 
ATOM     70  F   UNL     1      -6.986  -5.114   5.271  1.00  0.00    -0.206 F 
ATOM     71  C   UNL     1      -8.788  -6.080   6.422  1.00  0.00     0.040 A 
ATOM     72  C   UNL     1     -10.919  -6.334   5.330  1.00  0.00     0.040 A 
ATOM     73  F   UNL     1     -11.189  -5.649   3.104  1.00  0.00    -0.206 F 
ATOM     74  C   UNL     1     -10.117  -6.500   6.457  1.00  0.00     0.006 A 
ENDBRANCH  53  67
BRANCH  54  75
ATOM     75  C   UNL     1      -5.291  -1.900  -4.460  1.00  0.00     0.057 A 
ATOM     76  C   UNL     1      -4.463  -0.774  -4.527  1.00  0.00     0.134 A 
ATOM     77  C   UNL     1      -5.608  -2.541  -5.664  1.00  0.00     0.134 A 
ATOM     78  F   UNL     1      -4.145  -0.101  -3.412  1.00  0.00    -0.206 F 
ATOM     79  C   UNL     1      -3.974  -0.298  -5.746  1.00  0.00     0.040 A 
ATOM     80  C   UNL     1      -5.107  -2.090  -6.887  1.00  0.00     0.040 A 
ATOM     81  F   UNL     1      -6.401  -3.622  -5.668  1.00  0.00    -0.206 F 
ATOM     82  C   UNL     1      -4.290  -0.962  -6.930  1.00  0.00     0.006 A 
ENDBRANCH  54  75
BRANCH  66  83
ATOM     83  C   UNL     1      -9.950   0.590   0.091  1.00  0.00     0.057 A 
ATOM     84  C   UNL     1     -11.041   0.801  -0.761  1.00  0.00     0.134 A 
ATOM     85  C   UNL     1      -9.660   1.589   1.029  1.00  0.00     0.134 A 
ATOM     86  F   UNL     1     -11.366  -0.111  -1.690  1.00  0.00    -0.206 F 
ATOM     87  C   UNL     1     -11.802   1.971  -0.696  1.00  0.00     0.040 A 
ATOM     88  C   UNL     1     -10.429   2.750   1.122  1.00  0.00     0.040 A 
ATOM     89  F   UNL     1      -8.636   1.446   1.883  1.00  0.00    -0.206 F 
ATOM     90  C   UNL     1     -11.501   2.946   0.254  1.00  0.00     0.006 A 
ENDBRANCH  66  83
ENDBRANCH  40  41
ENDBRANCH  33  35
ENDBRANCH  32  33
ENDBRANCH  31  32
ENDBRANCH  30  31
ENDBRANCH  29  30
ENDBRANCH  28  29
ENDBRANCH   1  28
TORSDOF 20
