REMARK SMILES C[N@@H+]1CCN(C(=O)c2ccc3[nH]c4c(c3c2)CSCC4)C[C@H]1C(=O)OCCOCCOCCOC(=O)c1ccc(-c2c3nc(c(-c4c(F)cccc4F)c4ccc([nH]4)c(-c4c(F)cccc4F)c4nc(c(-c5c(F)cccc5F)c5ccc2[nH]5)C=C4)C=C3)cc1
REMARK SMILES IDX 29 1 28 2 27 3 26 4 25 5 23 6 24 7 22 8 1 9 2 10 3 11 4 13
REMARK SMILES IDX 21 14 5 15 6 16 7 17 8 18 9 19 16 20 10 21 15 22 11 23 14 24
REMARK SMILES IDX 12 25 13 26 17 27 20 29 18 30 19 31 30 32 31 33 32 34 33 35
REMARK SMILES IDX 34 36 35 37 36 38 37 39 38 40 90 41 39 42 89 43 40 44 41 45
REMARK SMILES IDX 42 46 83 47 43 48 88 49 82 50 84 51 44 52 87 53 81 54 80 55
REMARK SMILES IDX 45 57 71 58 54 59 70 60 55 61 58 62 69 63 85 64 56 65 57 66
REMARK SMILES IDX 68 68 86 69 59 70 46 71 47 72 52 73 48 74 49 75 51 76 53 77
REMARK SMILES IDX 50 78 72 79 73 80 78 81 74 82 75 83 77 84 79 85 76 86 60 87
REMARK SMILES IDX 61 88 66 89 62 90 63 91 65 92 67 93 64 94
REMARK H PARENT 2 12 12 28 84 56 58 67
REMARK Flexibility Score: inf
ROOT
ATOM      1  C   UNL     1       2.969  -4.274  -1.040  1.00  0.00     0.188 C 
ENDROOT
BRANCH   1   2
ATOM      2  O   UNL     1       2.675  -4.728  -2.334  1.00  0.00    -0.376 OA
BRANCH   2   3
ATOM      3  C   UNL     1       2.336  -3.767  -3.334  1.00  0.00     0.202 C 
BRANCH   3   4
ATOM      4  C   UNL     1       1.025  -2.937  -3.191  1.00  0.00     0.261 C 
BRANCH   4   5
ATOM      5  O   UNL     1       1.022  -1.487  -2.798  1.00  0.00    -0.459 OA
BRANCH   5   6
ATOM      6  C   UNL     1       0.840  -1.300  -1.471  1.00  0.00     0.366 C 
ATOM      7  O   UNL     1       1.006  -2.307  -0.781  1.00  0.00    -0.245 OA
BRANCH   6   8
ATOM      8  C   UNL     1       0.360   0.032  -0.734  1.00  0.00     0.314 C 
ATOM      9  C   UNL     1       2.300   1.427  -1.302  1.00  0.00     0.333 C 
ATOM     10  N   UNL     1       0.873   1.408  -0.961  1.00  0.00    -0.323 N 
ATOM     11  C   UNL     1       0.591   2.232   0.338  1.00  0.00     0.284 C 
ATOM     12  H   UNL     1       0.396   1.820  -1.763  1.00  0.00     0.348 HD
ATOM     13  C   UNL     1      -0.680   1.892   1.436  1.00  0.00     0.181 C 
ATOM     14  C   UNL     1      -1.063   0.225  -0.130  1.00  0.00     0.197 C 
ATOM     15  N   UNL     1      -1.136   0.463   1.417  1.00  0.00    -0.326 N 
BRANCH  15  16
ATOM     16  C   UNL     1      -1.843  -0.287   2.774  1.00  0.00     0.254 C 
ATOM     17  O   UNL     1      -2.212   0.575   3.604  1.00  0.00    -0.269 OA
BRANCH  16  18
ATOM     18  C   UNL     1      -2.225  -2.069   3.369  1.00  0.00     0.040 A 
ATOM     19  C   UNL     1      -1.747  -3.414   3.230  1.00  0.00     0.016 A 
ATOM     20  C   UNL     1      -3.513  -2.351   3.054  1.00  0.00     0.024 A 
ATOM     21  C   UNL     1      -2.375  -4.649   2.602  1.00  0.00     0.027 A 
ATOM     22  C   UNL     1      -4.365  -3.501   2.241  1.00  0.00     0.004 A 
ATOM     23  C   UNL     1      -3.715  -4.696   2.182  1.00  0.00     0.046 A 
ATOM     24  C   UNL     1      -5.614  -3.704   1.331  1.00  0.00    -0.009 A 
ATOM     25  N   UNL     1      -4.664  -5.640   1.824  1.00  0.00    -0.358 N 
ATOM     26  C   UNL     1      -5.859  -5.059   1.433  1.00  0.00     0.021 A 
ATOM     27  C   UNL     1      -6.622  -2.801   0.591  1.00  0.00     0.107 C 
ATOM     28  H   UNL     1      -4.507  -6.612   1.845  1.00  0.00     0.166 HD
ATOM     29  C   UNL     1      -7.169  -5.771   1.145  1.00  0.00     0.065 C 
ATOM     30  S   UNL     1      -7.864  -3.655  -0.442  1.00  0.00    -0.157 SA
ATOM     31  C   UNL     1      -8.358  -4.835   0.828  1.00  0.00     0.076 C 
ENDBRANCH  16  18
ENDBRANCH  15  16
ENDBRANCH   6   8
ENDBRANCH   5   6
ENDBRANCH   4   5
ENDBRANCH   3   4
ENDBRANCH   2   3
ENDBRANCH   1   2
BRANCH   1  32
ATOM     32  C   UNL     1       3.816  -3.018  -0.860  1.00  0.00     0.188 C 
BRANCH  32  33
ATOM     33  O   UNL     1       4.297  -2.213  -1.915  1.00  0.00    -0.376 OA
BRANCH  33  34
ATOM     34  C   UNL     1       5.702  -2.295  -2.119  1.00  0.00     0.202 C 
BRANCH  34  35
ATOM     35  C   UNL     1       6.670  -1.895  -0.963  1.00  0.00     0.261 C 
BRANCH  35  36
ATOM     36  O   UNL     1       6.206  -2.217   0.367  1.00  0.00    -0.460 OA
BRANCH  36  37
ATOM     37  C   UNL     1       5.883  -1.146   1.167  1.00  0.00     0.338 C 
ATOM     38  O   UNL     1       6.354  -0.067   1.111  1.00  0.00    -0.246 OA
BRANCH  37  39
ATOM     39  C   UNL     1       4.548  -1.454   1.815  1.00  0.00     0.060 A 
ATOM     40  C   UNL     1       4.017  -2.718   2.137  1.00  0.00     0.016 A 
ATOM     41  C   UNL     1       3.679  -0.393   1.752  1.00  0.00     0.016 A 
ATOM     42  C   UNL     1       2.599  -2.958   2.099  1.00  0.00     0.010 A 
ATOM     43  C   UNL     1       2.316  -0.664   1.706  1.00  0.00     0.010 A 
ATOM     44  C   UNL     1       1.710  -1.948   1.700  1.00  0.00    -0.014 A 
BRANCH  44  45
ATOM     45  C   UNL     1       0.134  -2.009   1.799  1.00  0.00     0.031 A 
ATOM     46  C   UNL     1       0.275  -1.547   3.553  1.00  0.00     0.074 A 
ATOM     47  C   UNL     1      -1.097  -2.151   0.832  1.00  0.00     0.049 A 
ATOM     48  N   UNL     1       0.252  -2.288   4.650  1.00  0.00    -0.248 NA
ATOM     49  C   UNL     1       0.648  -0.158   3.958  1.00  0.00     0.031 C 
ATOM     50  C   UNL     1      -1.752  -2.353  -0.621  1.00  0.00     0.029 A 
ATOM     51  N   UNL     1      -2.449  -2.012   1.190  1.00  0.00    -0.354 N 
ATOM     52  C   UNL     1       0.305  -1.449   5.779  1.00  0.00     0.074 A 
ATOM     53  C   UNL     1       0.802  -0.206   5.283  1.00  0.00     0.031 C 
ATOM     54  C   UNL     1      -3.116  -1.845  -0.707  1.00  0.00     0.029 A 
ATOM     55  C   UNL     1      -3.641  -1.426   0.662  1.00  0.00     0.049 A 
ATOM     56  H   UNL     1      -2.627  -2.443   2.058  1.00  0.00     0.167 HD
ATOM     57  C   UNL     1      -0.269  -1.692   7.003  1.00  0.00     0.037 A 
ATOM     58  C   UNL     1      -4.902  -0.925   1.446  1.00  0.00     0.037 A 
ATOM     59  C   UNL     1      -1.163  -2.821   7.005  1.00  0.00     0.049 A 
ATOM     60  C   UNL     1      -5.639  -1.398   3.193  1.00  0.00     0.074 A 
ATOM     61  C   UNL     1      -1.128  -4.106   7.481  1.00  0.00     0.029 A 
ATOM     62  N   UNL     1      -2.449  -2.562   6.571  1.00  0.00    -0.354 N 
ATOM     63  N   UNL     1      -5.897  -2.645   3.773  1.00  0.00    -0.248 NA
ATOM     64  C   UNL     1      -5.341  -0.523   4.395  1.00  0.00     0.031 C 
ATOM     65  C   UNL     1      -2.466  -4.599   7.372  1.00  0.00     0.029 A 
ATOM     66  C   UNL     1      -3.223  -3.696   6.589  1.00  0.00     0.049 A 
ATOM     67  H   UNL     1      -2.770  -1.677   6.284  1.00  0.00     0.167 HD
ATOM     68  C   UNL     1      -5.135  -2.814   5.050  1.00  0.00     0.074 A 
ATOM     69  C   UNL     1      -5.058  -1.379   5.420  1.00  0.00     0.031 C 
ATOM     70  C   UNL     1      -4.325  -3.926   5.582  1.00  0.00     0.037 A 
BRANCH  57  71
ATOM     71  C   UNL     1      -0.455  -0.806   8.253  1.00  0.00     0.057 A 
ATOM     72  C   UNL     1      -0.643   0.580   8.246  1.00  0.00     0.134 A 
ATOM     73  C   UNL     1      -0.831  -1.435   9.474  1.00  0.00     0.134 A 
ATOM     74  F   UNL     1      -0.285   1.343   7.210  1.00  0.00    -0.206 F 
ATOM     75  C   UNL     1      -1.283   1.260   9.299  1.00  0.00     0.040 A 
ATOM     76  C   UNL     1      -1.533  -0.781  10.495  1.00  0.00     0.040 A 
ATOM     77  F   UNL     1      -0.570  -2.732   9.700  1.00  0.00    -0.206 F 
ATOM     78  C   UNL     1      -1.789   0.573  10.394  1.00  0.00     0.006 A 
ENDBRANCH  57  71
BRANCH  58  79
ATOM     79  C   UNL     1      -5.581   0.363   0.989  1.00  0.00     0.057 A 
ATOM     80  C   UNL     1      -4.890   1.369   0.301  1.00  0.00     0.134 A 
ATOM     81  C   UNL     1      -6.860   0.730   1.447  1.00  0.00     0.134 A 
ATOM     82  F   UNL     1      -3.675   1.151  -0.205  1.00  0.00    -0.206 F 
ATOM     83  C   UNL     1      -5.397   2.666   0.138  1.00  0.00     0.040 A 
ATOM     84  C   UNL     1      -7.389   2.018   1.279  1.00  0.00     0.040 A 
ATOM     85  F   UNL     1      -7.632  -0.139   2.114  1.00  0.00    -0.206 F 
ATOM     86  C   UNL     1      -6.646   3.000   0.641  1.00  0.00     0.006 A 
ENDBRANCH  58  79
BRANCH  70  87
ATOM     87  C   UNL     1      -4.101  -5.493   5.085  1.00  0.00     0.057 A 
ATOM     88  C   UNL     1      -5.071  -6.486   5.002  1.00  0.00     0.134 A 
ATOM     89  C   UNL     1      -2.785  -6.066   4.845  1.00  0.00     0.134 A 
ATOM     90  F   UNL     1      -6.280  -6.293   5.539  1.00  0.00    -0.206 F 
ATOM     91  C   UNL     1      -4.809  -7.782   4.438  1.00  0.00     0.040 A 
ATOM     92  C   UNL     1      -2.518  -7.316   4.233  1.00  0.00     0.040 A 
ATOM     93  F   UNL     1      -1.651  -5.385   5.072  1.00  0.00    -0.206 F 
ATOM     94  C   UNL     1      -3.558  -8.157   3.947  1.00  0.00     0.006 A 
ENDBRANCH  70  87
ENDBRANCH  44  45
ENDBRANCH  37  39
ENDBRANCH  36  37
ENDBRANCH  35  36
ENDBRANCH  34  35
ENDBRANCH  33  34
ENDBRANCH  32  33
ENDBRANCH   1  32
TORSDOF 19
