REMARK SMILES O=C(COc1ccccc1/C=C1\C(=O)Nc2ccccc21)OCCOCCOCCOC(=O)c1ccc(-c2c3nc(c(-c4c(F)cccc4F)c4ccc([nH]4)c(-c4c(F)cccc4F)c4nc(c(-c5c(F)cccc5F)c5ccc2[nH]5)C=C4)C=C3)cc1
REMARK SMILES IDX 26 1 25 2 24 3 23 4 22 5 2 6 1 7 3 8 4 9 5 10 6 11 10 12
REMARK SMILES IDX 7 13 9 14 8 15 11 16 12 17 13 18 21 19 14 20 15 21 16 22
REMARK SMILES IDX 20 23 17 25 19 26 18 27 27 28 28 29 29 30 30 31 31 32 32 33
REMARK SMILES IDX 33 34 34 35 35 36 87 37 36 38 86 39 37 40 38 41 39 42 80 43
REMARK SMILES IDX 40 44 85 45 79 46 81 47 41 48 84 49 78 50 77 51 42 53 68 54
REMARK SMILES IDX 51 55 67 56 52 57 55 58 66 59 82 60 53 61 54 62 65 64 83 65
REMARK SMILES IDX 56 66 43 67 44 68 49 69 45 70 46 71 48 72 50 73 47 74 69 75
REMARK SMILES IDX 70 76 75 77 71 78 72 79 74 80 76 81 73 82 57 83 58 84 63 85
REMARK SMILES IDX 59 86 60 87 62 88 64 89 61 90
REMARK H PARENT 15 24 81 52 55 63
REMARK Flexibility Score: inf
ROOT
ATOM      1  C   UNL     1       3.516   0.493  -2.190  1.00  0.00     0.188 C 
ENDROOT
BRANCH   1   2
ATOM      2  O   UNL     1       4.779   0.014  -1.765  1.00  0.00    -0.376 OA
BRANCH   2   3
ATOM      3  C   UNL     1       4.990  -0.051  -0.369  1.00  0.00     0.202 C 
BRANCH   3   4
ATOM      4  C   UNL     1       4.070  -1.008   0.390  1.00  0.00     0.261 C 
BRANCH   4   5
ATOM      5  O   UNL     1       2.634  -0.864   0.190  1.00  0.00    -0.461 OA
BRANCH   5   6
ATOM      6  C   UNL     1       1.795   0.173   0.427  1.00  0.00     0.344 C 
ATOM      7  O   UNL     1       0.627   0.113   0.042  1.00  0.00    -0.248 OA
BRANCH   6   8
ATOM      8  C   UNL     1       2.314   1.422   1.088  1.00  0.00     0.351 C 
BRANCH   8   9
ATOM      9  O   UNL     1       3.402   1.143   1.943  1.00  0.00    -0.481 OA
BRANCH   9  10
ATOM     10  C   UNL     1       3.029   1.219   3.252  1.00  0.00     0.127 A 
ATOM     11  C   UNL     1       3.534   2.349   3.906  1.00  0.00     0.047 A 
ATOM     12  C   UNL     1       2.247   0.246   3.910  1.00  0.00     0.017 A 
ATOM     13  C   UNL     1       3.260   2.544   5.248  1.00  0.00     0.004 A 
ATOM     14  C   UNL     1       2.086   0.419   5.287  1.00  0.00     0.012 A 
ATOM     15  C   UNL     1       2.552   1.568   5.941  1.00  0.00     0.001 A 
BRANCH  12  16
ATOM     16  C   UNL     1       1.607  -0.915   3.228  1.00  0.00     0.026 C 
ATOM     17  C   UNL     1       0.310  -1.290   3.291  1.00  0.00     0.050 C 
ATOM     18  C   UNL     1      -0.747  -0.669   4.183  1.00  0.00     0.256 C 
ATOM     19  C   UNL     1      -0.368  -2.401   2.574  1.00  0.00     0.011 A 
ATOM     20  O   UNL     1      -0.698   0.341   4.848  1.00  0.00    -0.269 OA
ATOM     21  N   UNL     1      -1.840  -1.511   4.093  1.00  0.00    -0.321 N 
ATOM     22  C   UNL     1      -1.648  -2.497   3.139  1.00  0.00     0.049 A 
ATOM     23  C   UNL     1      -0.057  -3.212   1.493  1.00  0.00     0.011 A 
ATOM     24  H   UNL     1      -2.654  -1.421   4.639  1.00  0.00     0.170 HD
ATOM     25  C   UNL     1      -2.610  -3.401   2.726  1.00  0.00     0.027 A 
ATOM     26  C   UNL     1      -1.032  -4.119   1.029  1.00  0.00     0.001 A 
ATOM     27  C   UNL     1      -2.292  -4.222   1.649  1.00  0.00     0.002 A 
ENDBRANCH  12  16
ENDBRANCH   9  10
ENDBRANCH   8   9
ENDBRANCH   6   8
ENDBRANCH   5   6
ENDBRANCH   4   5
ENDBRANCH   3   4
ENDBRANCH   2   3
ENDBRANCH   1   2
BRANCH   1  28
ATOM     28  C   UNL     1       2.556  -0.603  -2.707  1.00  0.00     0.188 C 
BRANCH  28  29
ATOM     29  O   UNL     1       3.079  -1.868  -3.079  1.00  0.00    -0.376 OA
BRANCH  29  30
ATOM     30  C   UNL     1       4.319  -1.909  -3.763  1.00  0.00     0.202 C 
BRANCH  30  31
ATOM     31  C   UNL     1       4.482  -1.084  -5.055  1.00  0.00     0.261 C 
BRANCH  31  32
ATOM     32  O   UNL     1       4.127   0.316  -4.981  1.00  0.00    -0.460 OA
BRANCH  32  33
ATOM     33  C   UNL     1       2.957   0.686  -5.570  1.00  0.00     0.338 C 
ATOM     34  O   UNL     1       2.207  -0.031  -6.210  1.00  0.00    -0.246 OA
BRANCH  33  35
ATOM     35  C   UNL     1       2.583   2.074  -5.176  1.00  0.00     0.060 A 
ATOM     36  C   UNL     1       1.375   2.292  -4.488  1.00  0.00     0.016 A 
ATOM     37  C   UNL     1       3.376   3.165  -5.529  1.00  0.00     0.016 A 
ATOM     38  C   UNL     1       0.941   3.591  -4.191  1.00  0.00     0.010 A 
ATOM     39  C   UNL     1       2.925   4.468  -5.259  1.00  0.00     0.010 A 
ATOM     40  C   UNL     1       1.687   4.693  -4.622  1.00  0.00    -0.014 A 
BRANCH  40  41
ATOM     41  C   UNL     1       1.094   6.062  -4.607  1.00  0.00     0.031 A 
ATOM     42  C   UNL     1       0.519   6.609  -5.890  1.00  0.00     0.074 A 
ATOM     43  C   UNL     1       1.053   6.819  -3.494  1.00  0.00     0.049 A 
ATOM     44  N   UNL     1       0.051   7.803  -6.155  1.00  0.00    -0.248 NA
ATOM     45  C   UNL     1       0.474   5.680  -7.031  1.00  0.00     0.031 C 
ATOM     46  C   UNL     1       1.514   6.410  -2.171  1.00  0.00     0.029 A 
ATOM     47  N   UNL     1       0.614   8.111  -3.311  1.00  0.00    -0.354 N 
ATOM     48  C   UNL     1      -0.327   7.774  -7.493  1.00  0.00     0.074 A 
ATOM     49  C   UNL     1      -0.009   6.453  -7.992  1.00  0.00     0.031 C 
ATOM     50  C   UNL     1       1.357   7.437  -1.316  1.00  0.00     0.029 A 
ATOM     51  C   UNL     1       0.819   8.590  -2.039  1.00  0.00     0.049 A 
ATOM     52  H   UNL     1       0.192   8.642  -4.025  1.00  0.00     0.167 HD
ATOM     53  C   UNL     1      -0.892   8.752  -8.240  1.00  0.00     0.037 A 
ATOM     54  C   UNL     1       0.625   9.823  -1.524  1.00  0.00     0.037 A 
ATOM     55  C   UNL     1      -1.216  10.068  -7.752  1.00  0.00     0.049 A 
ATOM     56  C   UNL     1       0.075  10.924  -2.399  1.00  0.00     0.074 A 
ATOM     57  C   UNL     1      -1.809  11.117  -8.433  1.00  0.00     0.029 A 
ATOM     58  N   UNL     1      -0.967  10.518  -6.465  1.00  0.00    -0.354 N 
ATOM     59  N   UNL     1      -0.295  10.880  -3.656  1.00  0.00    -0.248 NA
ATOM     60  C   UNL     1      -0.086  12.250  -1.780  1.00  0.00     0.031 C 
ATOM     61  C   UNL     1      -1.860  12.222  -7.578  1.00  0.00     0.029 A 
ATOM     62  C   UNL     1      -1.365  11.839  -6.343  1.00  0.00     0.049 A 
ATOM     63  H   UNL     1      -0.566   9.979  -5.745  1.00  0.00     0.167 HD
ATOM     64  C   UNL     1      -0.767  12.153  -3.963  1.00  0.00     0.074 A 
ATOM     65  C   UNL     1      -0.646  12.945  -2.759  1.00  0.00     0.031 C 
ATOM     66  C   UNL     1      -1.258  12.621  -5.137  1.00  0.00     0.037 A 
BRANCH  53  67
ATOM     67  C   UNL     1      -1.173   8.451  -9.685  1.00  0.00     0.057 A 
ATOM     68  C   UNL     1      -2.188   7.569 -10.078  1.00  0.00     0.134 A 
ATOM     69  C   UNL     1      -0.451   9.095 -10.699  1.00  0.00     0.134 A 
ATOM     70  F   UNL     1      -2.910   6.910  -9.159  1.00  0.00    -0.206 F 
ATOM     71  C   UNL     1      -2.459   7.321 -11.425  1.00  0.00     0.040 A 
ATOM     72  C   UNL     1      -0.734   8.880 -12.048  1.00  0.00     0.040 A 
ATOM     73  F   UNL     1       0.529   9.959 -10.394  1.00  0.00    -0.206 F 
ATOM     74  C   UNL     1      -1.736   7.985 -12.415  1.00  0.00     0.006 A 
ENDBRANCH  53  67
BRANCH  54  75
ATOM     75  C   UNL     1       0.978  10.111  -0.107  1.00  0.00     0.057 A 
ATOM     76  C   UNL     1      -0.004  10.445   0.835  1.00  0.00     0.134 A 
ATOM     77  C   UNL     1       2.309  10.116   0.327  1.00  0.00     0.134 A 
ATOM     78  F   UNL     1      -1.295  10.491   0.476  1.00  0.00    -0.206 F 
ATOM     79  C   UNL     1       0.326  10.798   2.146  1.00  0.00     0.040 A 
ATOM     80  C   UNL     1       2.651  10.436   1.643  1.00  0.00     0.040 A 
ATOM     81  F   UNL     1       3.301   9.812  -0.523  1.00  0.00    -0.206 F 
ATOM     82  C   UNL     1       1.658  10.789   2.554  1.00  0.00     0.006 A 
ENDBRANCH  54  75
BRANCH  66  83
ATOM     83  C   UNL     1      -1.758  14.039  -5.172  1.00  0.00     0.057 A 
ATOM     84  C   UNL     1      -0.895  15.139  -5.096  1.00  0.00     0.134 A 
ATOM     85  C   UNL     1      -3.126  14.306  -5.331  1.00  0.00     0.134 A 
ATOM     86  F   UNL     1       0.425  14.959  -4.935  1.00  0.00    -0.206 F 
ATOM     87  C   UNL     1      -1.374  16.451  -5.150  1.00  0.00     0.040 A 
ATOM     88  C   UNL     1      -3.613  15.611  -5.418  1.00  0.00     0.040 A 
ATOM     89  F   UNL     1      -4.010  13.301  -5.424  1.00  0.00    -0.206 F 
ATOM     90  C   UNL     1      -2.737  16.689  -5.319  1.00  0.00     0.006 A 
ENDBRANCH  66  83
ENDBRANCH  40  41
ENDBRANCH  33  35
ENDBRANCH  32  33
ENDBRANCH  31  32
ENDBRANCH  30  31
ENDBRANCH  29  30
ENDBRANCH  28  29
ENDBRANCH   1  28
TORSDOF 20
