REMARK SMILES C[C@@H](C(=O)OCCOCCOCCOC(=O)c1ccc(-c2c3nc(c(-c4c(F)cccc4F)c4ccc([nH]4)c(-c4c(F)cccc4F)c4nc(c(-c5c(F)cccc5F)c5ccc2[nH]5)C=C4)C=C3)cc1)c1ccc(-c2cccc(OC(=O)NCCC3CCCCC3)c2)c(F)c1
REMARK SMILES IDX 7 1 6 2 5 3 3 4 4 5 2 6 1 7 71 8 72 9 95 10 73 11 93 12
REMARK SMILES IDX 74 13 94 14 75 15 76 16 92 17 77 18 79 19 78 20 80 21 81 22
REMARK SMILES IDX 82 23 83 24 84 26 85 27 86 28 87 29 91 30 88 31 90 32 89 33
REMARK SMILES IDX 8 34 9 35 10 36 11 37 12 38 13 39 14 40 15 41 16 42 17 43
REMARK SMILES IDX 18 44 70 45 19 46 69 47 20 48 21 49 22 50 63 51 23 52 68 53
REMARK SMILES IDX 62 54 64 55 24 56 67 57 61 58 60 59 25 61 51 62 34 63 50 64
REMARK SMILES IDX 35 65 38 66 49 67 65 68 36 69 37 70 48 72 66 73 39 74 26 75
REMARK SMILES IDX 27 76 32 77 28 78 29 79 31 80 33 81 30 82 52 83 53 84 58 85
REMARK SMILES IDX 54 86 55 87 57 88 59 89 56 90 40 91 41 92 46 93 42 94 43 95
REMARK SMILES IDX 45 96 47 97 44 98
REMARK H PARENT 83 25 64 60 38 71
REMARK Flexibility Score: inf
ROOT
ATOM      1  C   UNL     1       2.474  -4.523  -1.387  1.00  0.00     0.202 C 
ENDROOT
BRANCH   1   2
ATOM      2  C   UNL     1       2.328  -3.477  -2.497  1.00  0.00     0.261 C 
BRANCH   2   3
ATOM      3  O   UNL     1       1.846  -2.208  -2.012  1.00  0.00    -0.463 OA
BRANCH   3   4
ATOM      4  C   UNL     1       1.050  -1.508  -2.863  1.00  0.00     0.313 C 
ATOM      5  O   UNL     1       0.783  -1.875  -4.003  1.00  0.00    -0.252 OA
BRANCH   4   6
ATOM      6  C   UNL     1       0.453  -0.234  -2.248  1.00  0.00     0.126 C 
ATOM      7  C   UNL     1       1.291   0.391  -1.122  1.00  0.00     0.025 C 
BRANCH   6   8
ATOM      8  C   UNL     1      -1.042  -0.311  -1.906  1.00  0.00    -0.031 A 
ATOM      9  C   UNL     1      -1.712   0.840  -1.456  1.00  0.00     0.005 A 
ATOM     10  C   UNL     1      -1.819  -1.464  -2.099  1.00  0.00     0.044 A 
ATOM     11  C   UNL     1      -3.102   0.848  -1.249  1.00  0.00     0.012 A 
ATOM     12  C   UNL     1      -3.206  -1.452  -1.883  1.00  0.00     0.131 A 
ATOM     13  C   UNL     1      -3.882  -0.294  -1.483  1.00  0.00     0.018 A 
ATOM     14  F   UNL     1      -3.890  -2.579  -2.135  1.00  0.00    -0.206 F 
BRANCH  13  15
ATOM     15  C   UNL     1      -5.354  -0.215  -1.446  1.00  0.00    -0.012 A 
ATOM     16  C   UNL     1      -6.021   0.476  -2.477  1.00  0.00     0.009 A 
ATOM     17  C   UNL     1      -6.132  -0.817  -0.441  1.00  0.00     0.056 A 
ATOM     18  C   UNL     1      -7.414   0.579  -2.502  1.00  0.00     0.004 A 
ATOM     19  C   UNL     1      -7.531  -0.706  -0.470  1.00  0.00     0.133 A 
ATOM     20  C   UNL     1      -8.170  -0.009  -1.493  1.00  0.00     0.047 A 
BRANCH  19  21
ATOM     21  O   UNL     1      -8.382  -1.433   0.405  1.00  0.00    -0.410 OA
BRANCH  21  22
ATOM     22  C   UNL     1      -8.117  -1.495   1.758  1.00  0.00     0.412 C 
ATOM     23  O   UNL     1      -7.333  -0.721   2.316  1.00  0.00    -0.224 OA
ATOM     24  N   UNL     1      -8.672  -2.495   2.537  1.00  0.00    -0.321 N 
ATOM     25  H   UNL     1      -8.172  -2.373   3.377  1.00  0.00     0.167 HD
BRANCH  24  26
ATOM     26  C   UNL     1      -9.617  -3.723   2.928  1.00  0.00     0.119 C 
BRANCH  26  27
ATOM     27  C   UNL     1      -9.527  -5.242   2.776  1.00  0.00     0.025 C 
BRANCH  27  28
ATOM     28  C   UNL     1      -9.208  -6.016   4.084  1.00  0.00    -0.009 C 
ATOM     29  C   UNL     1     -10.024  -5.577   5.326  1.00  0.00     0.003 C 
ATOM     30  C   UNL     1      -9.478  -7.506   3.832  1.00  0.00     0.003 C 
ATOM     31  C   UNL     1      -9.735  -6.426   6.558  1.00  0.00     0.000 C 
ATOM     32  C   UNL     1      -9.172  -8.355   5.060  1.00  0.00     0.000 C 
ATOM     33  C   UNL     1      -9.966  -7.898   6.278  1.00  0.00     0.000 C 
ENDBRANCH  27  28
ENDBRANCH  26  27
ENDBRANCH  24  26
ENDBRANCH  21  22
ENDBRANCH  19  21
ENDBRANCH  13  15
ENDBRANCH   6   8
ENDBRANCH   4   6
ENDBRANCH   3   4
ENDBRANCH   2   3
ENDBRANCH   1   2
BRANCH   1  34
ATOM     34  O   UNL     1       1.287  -4.888  -0.685  1.00  0.00    -0.376 OA
BRANCH  34  35
ATOM     35  C   UNL     1       0.532  -3.868  -0.035  1.00  0.00     0.188 C 
BRANCH  35  36
ATOM     36  C   UNL     1       1.283  -2.811   0.792  1.00  0.00     0.188 C 
BRANCH  36  37
ATOM     37  O   UNL     1       2.622  -3.165   1.074  1.00  0.00    -0.376 OA
BRANCH  37  38
ATOM     38  C   UNL     1       2.954  -3.438   2.423  1.00  0.00     0.202 C 
BRANCH  38  39
ATOM     39  C   UNL     1       2.249  -4.638   3.068  1.00  0.00     0.261 C 
BRANCH  39  40
ATOM     40  O   UNL     1       0.812  -4.619   3.042  1.00  0.00    -0.460 OA
BRANCH  40  41
ATOM     41  C   UNL     1       0.188  -3.672   3.781  1.00  0.00     0.338 C 
ATOM     42  O   UNL     1       0.706  -2.805   4.454  1.00  0.00    -0.246 OA
BRANCH  41  43
ATOM     43  C   UNL     1      -1.260  -3.766   3.491  1.00  0.00     0.060 A 
ATOM     44  C   UNL     1      -1.931  -2.639   3.005  1.00  0.00     0.016 A 
ATOM     45  C   UNL     1      -1.949  -4.965   3.702  1.00  0.00     0.016 A 
ATOM     46  C   UNL     1      -3.302  -2.708   2.748  1.00  0.00     0.010 A 
ATOM     47  C   UNL     1      -3.326  -5.026   3.465  1.00  0.00     0.010 A 
ATOM     48  C   UNL     1      -4.011  -3.893   3.004  1.00  0.00    -0.014 A 
BRANCH  48  49
ATOM     49  C   UNL     1      -5.493  -3.883   2.895  1.00  0.00     0.031 A 
ATOM     50  C   UNL     1      -6.232  -3.376   4.197  1.00  0.00     0.074 A 
ATOM     51  C   UNL     1      -6.031  -4.170   1.662  1.00  0.00     0.049 A 
ATOM     52  N   UNL     1      -7.501  -3.134   4.380  1.00  0.00    -0.248 NA
ATOM     53  C   UNL     1      -5.498  -3.030   5.426  1.00  0.00     0.031 C 
ATOM     54  C   UNL     1      -5.345  -4.491   0.400  1.00  0.00     0.029 A 
ATOM     55  N   UNL     1      -7.330  -4.137   1.215  1.00  0.00    -0.354 N 
ATOM     56  C   UNL     1      -7.765  -2.482   5.572  1.00  0.00     0.074 A 
ATOM     57  C   UNL     1      -6.457  -2.529   6.224  1.00  0.00     0.031 C 
ATOM     58  C   UNL     1      -6.240  -4.524  -0.626  1.00  0.00     0.029 A 
ATOM     59  C   UNL     1      -7.600  -4.247  -0.135  1.00  0.00     0.049 A 
ATOM     60  H   UNL     1      -8.069  -4.035   1.857  1.00  0.00     0.167 HD
ATOM     61  C   UNL     1      -8.963  -1.925   6.009  1.00  0.00     0.037 A 
ATOM     62  C   UNL     1      -8.774  -4.066  -0.841  1.00  0.00     0.037 A 
ATOM     63  C   UNL     1     -10.328  -1.866   5.311  1.00  0.00     0.049 A 
ATOM     64  C   UNL     1     -10.178  -3.600  -0.243  1.00  0.00     0.074 A 
ATOM     65  C   UNL     1     -11.585  -2.163   5.837  1.00  0.00     0.029 A 
ATOM     66  N   UNL     1     -10.668  -1.471   3.963  1.00  0.00    -0.354 N 
ATOM     67  N   UNL     1     -10.461  -2.748   0.716  1.00  0.00    -0.248 NA
ATOM     68  C   UNL     1     -11.426  -4.061  -0.877  1.00  0.00     0.031 C 
ATOM     69  C   UNL     1     -12.538  -2.283   4.784  1.00  0.00     0.029 A 
ATOM     70  C   UNL     1     -11.938  -2.004   3.555  1.00  0.00     0.049 A 
ATOM     71  H   UNL     1     -10.099  -0.905   3.393  1.00  0.00     0.167 HD
ATOM     72  C   UNL     1     -11.824  -2.712   0.984  1.00  0.00     0.074 A 
ATOM     73  C   UNL     1     -12.375  -3.422  -0.174  1.00  0.00     0.031 C 
ATOM     74  C   UNL     1     -12.493  -2.349   2.155  1.00  0.00     0.037 A 
BRANCH  61  75
ATOM     75  C   UNL     1      -8.926  -1.669   7.501  1.00  0.00     0.057 A 
ATOM     76  C   UNL     1      -8.263  -0.575   8.065  1.00  0.00     0.134 A 
ATOM     77  C   UNL     1      -9.443  -2.623   8.396  1.00  0.00     0.134 A 
ATOM     78  F   UNL     1      -7.688   0.347   7.279  1.00  0.00    -0.206 F 
ATOM     79  C   UNL     1      -8.099  -0.453   9.451  1.00  0.00     0.040 A 
ATOM     80  C   UNL     1      -9.312  -2.499   9.780  1.00  0.00     0.040 A 
ATOM     81  F   UNL     1     -10.062  -3.721   7.942  1.00  0.00    -0.206 F 
ATOM     82  C   UNL     1      -8.625  -1.415  10.313  1.00  0.00     0.006 A 
ENDBRANCH  61  75
BRANCH  62  83
ATOM     83  C   UNL     1      -8.766  -4.239  -2.333  1.00  0.00     0.057 A 
ATOM     84  C   UNL     1      -9.267  -3.229  -3.170  1.00  0.00     0.134 A 
ATOM     85  C   UNL     1      -8.341  -5.415  -2.967  1.00  0.00     0.134 A 
ATOM     86  F   UNL     1      -9.779  -2.107  -2.648  1.00  0.00    -0.206 F 
ATOM     87  C   UNL     1      -9.316  -3.363  -4.560  1.00  0.00     0.040 A 
ATOM     88  C   UNL     1      -8.374  -5.560  -4.359  1.00  0.00     0.040 A 
ATOM     89  F   UNL     1      -7.907  -6.459  -2.246  1.00  0.00    -0.206 F 
ATOM     90  C   UNL     1      -8.861  -4.530  -5.161  1.00  0.00     0.006 A 
ENDBRANCH  62  83
BRANCH  74  91
ATOM     91  C   UNL     1     -13.983  -2.626   2.123  1.00  0.00     0.057 A 
ATOM     92  C   UNL     1     -14.526  -3.921   2.019  1.00  0.00     0.134 A 
ATOM     93  C   UNL     1     -14.887  -1.571   2.268  1.00  0.00     0.134 A 
ATOM     94  F   UNL     1     -13.726  -4.995   1.921  1.00  0.00    -0.206 F 
ATOM     95  C   UNL     1     -15.907  -4.142   1.979  1.00  0.00     0.040 A 
ATOM     96  C   UNL     1     -16.269  -1.783   2.266  1.00  0.00     0.040 A 
ATOM     97  F   UNL     1     -14.442  -0.316   2.425  1.00  0.00    -0.206 F 
ATOM     98  C   UNL     1     -16.783  -3.068   2.103  1.00  0.00     0.006 A 
ENDBRANCH  74  91
ENDBRANCH  48  49
ENDBRANCH  41  43
ENDBRANCH  40  41
ENDBRANCH  39  40
ENDBRANCH  38  39
ENDBRANCH  37  38
ENDBRANCH  36  37
ENDBRANCH  35  36
ENDBRANCH  34  35
ENDBRANCH   1  34
TORSDOF 24
