REMARK SMILES CC1(C)CCCC[C@@]1(CC(=O)OCCOCCOCCOC(=O)c1ccc(-c2c3nc(c(-c4c(F)cccc4F)c4ccc([nH]4)c(-c4c(F)cccc4F)c4nc(c(-c5c(F)cccc5F)c5ccc2[nH]5)C=C4)C=C3)cc1)[NH+]1CCCCCC1
REMARK SMILES IDX 15 1 14 2 13 3 12 4 10 5 11 6 9 7 8 8 1 9 2 10 3 11 4 12
REMARK SMILES IDX 5 13 7 14 6 15 78 16 79 18 80 19 81 20 84 22 83 23 82 24
REMARK SMILES IDX 16 26 17 27 18 28 19 29 20 30 21 31 22 32 23 33 24 34 25 35
REMARK SMILES IDX 77 36 26 37 76 38 27 39 28 40 29 41 70 42 30 43 75 44 69 45
REMARK SMILES IDX 71 46 31 47 74 48 68 49 67 50 32 52 58 53 41 54 57 55 42 56
REMARK SMILES IDX 45 57 56 58 72 59 43 60 44 61 55 63 73 64 46 65 33 66 34 67
REMARK SMILES IDX 39 68 35 69 36 70 38 71 40 72 37 73 59 74 60 75 65 76 61 77
REMARK SMILES IDX 62 78 64 79 66 80 63 81 47 82 48 83 53 84 49 85 50 86 52 87
REMARK SMILES IDX 54 88 51 89
REMARK H PARENT 78 17 71 51 45 62
REMARK Flexibility Score: 90.00
ROOT
ATOM      1  O   UNL     1       2.685   3.432  -5.980  1.00  0.00    -0.376 OA
ENDROOT
BRANCH   1   2
ATOM      2  C   UNL     1       3.609   4.339  -5.381  1.00  0.00     0.202 C 
BRANCH   2   3
ATOM      3  C   UNL     1       2.928   5.431  -4.540  1.00  0.00     0.261 C 
BRANCH   3   4
ATOM      4  O   UNL     1       2.391   4.883  -3.315  1.00  0.00    -0.463 OA
BRANCH   4   5
ATOM      5  C   UNL     1       1.064   4.743  -3.180  1.00  0.00     0.312 C 
ATOM      6  O   UNL     1       0.259   5.280  -3.940  1.00  0.00    -0.252 OA
BRANCH   5   7
ATOM      7  C   UNL     1       0.563   3.773  -2.095  1.00  0.00     0.191 C 
BRANCH   7   8
ATOM      8  C   UNL     1       1.272   2.821  -0.969  1.00  0.00     0.113 C 
ATOM      9  C   UNL     1       0.593   0.427   0.301  1.00  0.00     0.018 C 
ATOM     10  C   UNL     1       0.220   1.525  -0.745  1.00  0.00     0.020 C 
ATOM     11  C   UNL     1      -0.015   0.715  -2.044  1.00  0.00     0.018 C 
ATOM     12  C   UNL     1      -1.159   2.060  -0.245  1.00  0.00     0.013 C 
ATOM     13  C   UNL     1      -1.039   2.814   1.078  1.00  0.00     0.001 C 
ATOM     14  C   UNL     1       1.260   3.657   0.364  1.00  0.00     0.070 C 
ATOM     15  C   UNL     1      -0.110   4.006   0.958  1.00  0.00     0.006 C 
BRANCH   8  16
ATOM     16  N   UNL     1       2.696   2.454  -1.291  1.00  0.00    -0.329 N 
ATOM     17  H   UNL     1       2.328   2.114  -2.179  1.00  0.00     0.348 HD
BRANCH  16  18
ATOM     18  C   UNL     1       3.365   1.254  -0.788  1.00  0.00     0.262 C 
BRANCH  18  19
ATOM     19  C   UNL     1       3.688   1.189   0.715  1.00  0.00     0.061 C 
BRANCH  19  20
ATOM     20  C   UNL     1       4.770   2.108   1.283  1.00  0.00     0.006 CG0
ATOM     21  G   UNL     1       4.840   3.530   0.751  1.00  0.00     0.000 G0
ENDBRANCH  19  20
ENDBRANCH  18  19
ENDBRANCH  16  18
BRANCH  16  22
ATOM     22  C   UNL     1       3.668   3.535  -1.495  1.00  0.00     0.262 C 
BRANCH  22  23
ATOM     23  C   UNL     1       5.008   3.567  -0.754  1.00  0.00     0.061 C 
BRANCH  23  24
ATOM     24  C   UNL     1       4.840   3.530   0.751  1.00  0.00     0.006 CG0
ATOM     25  G   UNL     1       4.770   2.108   1.283  1.00  0.00     0.000 G0
ENDBRANCH  23  24
ENDBRANCH  22  23
ENDBRANCH  16  22
ENDBRANCH   8  16
ENDBRANCH   7   8
ENDBRANCH   5   7
ENDBRANCH   4   5
ENDBRANCH   3   4
ENDBRANCH   2   3
ENDBRANCH   1   2
BRANCH   1  26
ATOM     26  C   UNL     1       2.204   2.413  -5.112  1.00  0.00     0.188 C 
BRANCH  26  27
ATOM     27  C   UNL     1       3.134   1.223  -4.997  1.00  0.00     0.188 C 
BRANCH  27  28
ATOM     28  O   UNL     1       4.271   1.420  -4.164  1.00  0.00    -0.376 OA
BRANCH  28  29
ATOM     29  C   UNL     1       5.486   0.913  -4.710  1.00  0.00     0.202 C 
BRANCH  29  30
ATOM     30  C   UNL     1       5.594  -0.607  -4.963  1.00  0.00     0.261 C 
BRANCH  30  31
ATOM     31  O   UNL     1       4.444  -1.192  -5.604  1.00  0.00    -0.460 OA
BRANCH  31  32
ATOM     32  C   UNL     1       3.579  -1.825  -4.764  1.00  0.00     0.338 C 
ATOM     33  O   UNL     1       3.746  -2.056  -3.583  1.00  0.00    -0.246 OA
BRANCH  32  34
ATOM     34  C   UNL     1       2.259  -1.982  -5.434  1.00  0.00     0.060 A 
ATOM     35  C   UNL     1       1.125  -1.603  -4.701  1.00  0.00     0.016 A 
ATOM     36  C   UNL     1       2.114  -2.455  -6.735  1.00  0.00     0.016 A 
ATOM     37  C   UNL     1      -0.151  -1.671  -5.252  1.00  0.00     0.010 A 
ATOM     38  C   UNL     1       0.826  -2.588  -7.272  1.00  0.00     0.010 A 
ATOM     39  C   UNL     1      -0.312  -2.218  -6.525  1.00  0.00    -0.014 A 
BRANCH  39  40
ATOM     40  C   UNL     1      -1.659  -2.672  -6.949  1.00  0.00     0.031 A 
ATOM     41  C   UNL     1      -1.976  -4.131  -6.773  1.00  0.00     0.074 A 
ATOM     42  C   UNL     1      -2.595  -1.833  -7.424  1.00  0.00     0.049 A 
ATOM     43  N   UNL     1      -2.982  -4.830  -7.227  1.00  0.00    -0.248 NA
ATOM     44  C   UNL     1      -1.012  -4.908  -5.974  1.00  0.00     0.031 C 
ATOM     45  C   UNL     1      -2.467  -0.381  -7.522  1.00  0.00     0.029 A 
ATOM     46  N   UNL     1      -3.846  -2.097  -7.928  1.00  0.00    -0.354 N 
ATOM     47  C   UNL     1      -2.748  -6.134  -6.808  1.00  0.00     0.074 A 
ATOM     48  C   UNL     1      -1.505  -6.132  -6.070  1.00  0.00     0.031 C 
ATOM     49  C   UNL     1      -3.586   0.117  -8.080  1.00  0.00     0.029 A 
ATOM     50  C   UNL     1      -4.479  -0.986  -8.431  1.00  0.00     0.049 A 
ATOM     51  H   UNL     1      -4.249  -2.995  -7.928  1.00  0.00     0.167 HD
ATOM     52  C   UNL     1      -3.502  -7.236  -7.025  1.00  0.00     0.037 A 
ATOM     53  C   UNL     1      -5.623  -0.887  -9.138  1.00  0.00     0.037 A 
ATOM     54  C   UNL     1      -4.746  -7.223  -7.743  1.00  0.00     0.049 A 
ATOM     55  C   UNL     1      -6.398  -2.142  -9.463  1.00  0.00     0.074 A 
ATOM     56  C   UNL     1      -5.584  -8.282  -8.038  1.00  0.00     0.029 A 
ATOM     57  N   UNL     1      -5.333  -6.084  -8.277  1.00  0.00    -0.354 N 
ATOM     58  N   UNL     1      -6.149  -3.384  -9.119  1.00  0.00    -0.248 NA
ATOM     59  C   UNL     1      -7.608  -1.983 -10.283  1.00  0.00     0.031 C 
ATOM     60  C   UNL     1      -6.652  -7.793  -8.796  1.00  0.00     0.029 A 
ATOM     61  C   UNL     1      -6.513  -6.419  -8.916  1.00  0.00     0.049 A 
ATOM     62  H   UNL     1      -4.964  -5.174  -8.210  1.00  0.00     0.167 HD
ATOM     63  C   UNL     1      -7.187  -4.144  -9.646  1.00  0.00     0.074 A 
ATOM     64  C   UNL     1      -8.071  -3.224 -10.329  1.00  0.00     0.031 C 
ATOM     65  C   UNL     1      -7.393  -5.482  -9.569  1.00  0.00     0.037 A 
BRANCH  52  66
ATOM     66  C   UNL     1      -2.964  -8.547  -6.532  1.00  0.00     0.057 A 
ATOM     67  C   UNL     1      -2.886  -8.862  -5.169  1.00  0.00     0.134 A 
ATOM     68  C   UNL     1      -2.514  -9.511  -7.443  1.00  0.00     0.134 A 
ATOM     69  F   UNL     1      -3.277  -7.974  -4.242  1.00  0.00    -0.206 F 
ATOM     70  C   UNL     1      -2.355 -10.076  -4.730  1.00  0.00     0.040 A 
ATOM     71  C   UNL     1      -2.010 -10.741  -7.018  1.00  0.00     0.040 A 
ATOM     72  F   UNL     1      -2.557  -9.275  -8.763  1.00  0.00    -0.206 F 
ATOM     73  C   UNL     1      -1.921 -11.023  -5.656  1.00  0.00     0.006 A 
ENDBRANCH  52  66
BRANCH  53  74
ATOM     74  C   UNL     1      -6.087   0.434  -9.639  1.00  0.00     0.057 A 
ATOM     75  C   UNL     1      -7.276   1.012  -9.178  1.00  0.00     0.134 A 
ATOM     76  C   UNL     1      -5.375   1.134 -10.622  1.00  0.00     0.134 A 
ATOM     77  F   UNL     1      -8.023   0.379  -8.261  1.00  0.00    -0.206 F 
ATOM     78  C   UNL     1      -7.748   2.225  -9.685  1.00  0.00     0.040 A 
ATOM     79  C   UNL     1      -5.819   2.362 -11.117  1.00  0.00     0.040 A 
ATOM     80  F   UNL     1      -4.232   0.634 -11.116  1.00  0.00    -0.206 F 
ATOM     81  C   UNL     1      -7.014   2.907 -10.654  1.00  0.00     0.006 A 
ENDBRANCH  53  74
BRANCH  65  82
ATOM     82  C   UNL     1      -8.653  -6.029 -10.177  1.00  0.00     0.057 A 
ATOM     83  C   UNL     1      -8.839  -6.114 -11.562  1.00  0.00     0.134 A 
ATOM     84  C   UNL     1      -9.668  -6.539  -9.355  1.00  0.00     0.134 A 
ATOM     85  F   UNL     1      -7.910  -5.637 -12.404  1.00  0.00    -0.206 F 
ATOM     86  C   UNL     1      -9.999  -6.667 -12.108  1.00  0.00     0.040 A 
ATOM     87  C   UNL     1     -10.817  -7.122  -9.889  1.00  0.00     0.040 A 
ATOM     88  F   UNL     1      -9.547  -6.501  -8.020  1.00  0.00    -0.206 F 
ATOM     89  C   UNL     1     -10.988  -7.182 -11.270  1.00  0.00     0.006 A 
ENDBRANCH  65  82
ENDBRANCH  39  40
ENDBRANCH  32  34
ENDBRANCH  31  32
ENDBRANCH  30  31
ENDBRANCH  29  30
ENDBRANCH  28  29
ENDBRANCH  27  28
ENDBRANCH  26  27
ENDBRANCH   1  26
TORSDOF 19
