REMARK SMILES COc1cc(C=O)cc(OC)c1O[C@H](C)C(=O)OCCOCCOCCOC(=O)c1ccc(-c2c3nc(c(-c4c(F)cccc4F)c4ccc([nH]4)c(-c4c(F)cccc4F)c4nc(c(-c5c(F)cccc5F)c5ccc2[nH]5)C=C4)C=C3)cc1
REMARK SMILES IDX 22 1 21 2 20 3 19 4 18 5 16 6 17 7 14 8 15 9 13 10 12 11
REMARK SMILES IDX 3 12 4 13 5 14 9 15 8 16 2 17 1 18 6 19 7 20 10 21 11 22
REMARK SMILES IDX 23 23 24 24 25 25 26 26 27 27 28 28 29 29 30 30 31 31 83 32
REMARK SMILES IDX 32 33 82 34 33 35 34 36 35 37 76 38 36 39 81 40 75 41 77 42
REMARK SMILES IDX 37 43 80 44 74 45 73 46 38 48 64 49 47 50 63 51 48 52 51 53
REMARK SMILES IDX 62 54 78 55 49 56 50 57 61 59 79 60 52 61 39 62 40 63 45 64
REMARK SMILES IDX 41 65 42 66 44 67 46 68 43 69 65 70 66 71 71 72 67 73 68 74
REMARK SMILES IDX 70 75 72 76 69 77 53 78 54 79 59 80 55 81 56 82 58 83 60 84
REMARK SMILES IDX 57 85
REMARK H PARENT 77 47 51 58
REMARK Flexibility Score: inf
ROOT
ATOM      1  C   UNL     1       3.222  -2.291  -2.923  1.00  0.00     0.188 C 
ENDROOT
BRANCH   1   2
ATOM      2  O   UNL     1       2.121  -3.159  -3.123  1.00  0.00    -0.376 OA
BRANCH   2   3
ATOM      3  C   UNL     1       0.878  -2.527  -3.409  1.00  0.00     0.202 C 
BRANCH   3   4
ATOM      4  C   UNL     1       0.191  -1.756  -2.265  1.00  0.00     0.261 C 
BRANCH   4   5
ATOM      5  O   UNL     1       1.003  -0.786  -1.557  1.00  0.00    -0.461 OA
BRANCH   5   6
ATOM      6  C   UNL     1       1.448  -1.188  -0.332  1.00  0.00     0.347 C 
ATOM      7  O   UNL     1       1.226  -2.303   0.136  1.00  0.00    -0.248 OA
BRANCH   6   8
ATOM      8  C   UNL     1       2.296  -0.144   0.444  1.00  0.00     0.279 C 
ATOM      9  C   UNL     1       3.634   0.322  -0.141  1.00  0.00     0.066 C 
BRANCH   8  10
ATOM     10  O   UNL     1       1.713   0.877   1.232  1.00  0.00    -0.471 OA
BRANCH  10  11
ATOM     11  C   UNL     1       0.697   1.659   0.771  1.00  0.00     0.204 A 
ATOM     12  C   UNL     1      -0.412   1.833   1.623  1.00  0.00     0.165 A 
ATOM     13  C   UNL     1      -1.325   2.866   1.372  1.00  0.00     0.062 A 
ATOM     14  C   UNL     1      -1.131   3.741   0.305  1.00  0.00     0.022 A 
ATOM     15  C   UNL     1       0.828   2.493  -0.357  1.00  0.00     0.165 A 
ATOM     16  C   UNL     1      -0.075   3.541  -0.581  1.00  0.00     0.062 A 
BRANCH  12  17
ATOM     17  O   UNL     1      -0.741   1.131   2.755  1.00  0.00    -0.493 OA
ATOM     18  C   UNL     1       0.190   0.211   3.304  1.00  0.00     0.278 C 
ENDBRANCH  12  17
BRANCH  14  19
ATOM     19  C   UNL     1      -1.990   4.934   0.163  1.00  0.00     0.260 C 
ATOM     20  O   UNL     1      -2.900   5.181   0.944  1.00  0.00    -0.298 OA
ENDBRANCH  14  19
BRANCH  15  21
ATOM     21  O   UNL     1       1.956   2.458  -1.131  1.00  0.00    -0.493 OA
ATOM     22  C   UNL     1       1.716   2.034  -2.473  1.00  0.00     0.278 C 
ENDBRANCH  15  21
ENDBRANCH  10  11
ENDBRANCH   8  10
ENDBRANCH   6   8
ENDBRANCH   5   6
ENDBRANCH   4   5
ENDBRANCH   3   4
ENDBRANCH   2   3
ENDBRANCH   1   2
BRANCH   1  23
ATOM     23  C   UNL     1       3.659  -1.440  -4.111  1.00  0.00     0.188 C 
BRANCH  23  24
ATOM     24  O   UNL     1       2.652  -0.681  -4.760  1.00  0.00    -0.376 OA
BRANCH  24  25
ATOM     25  C   UNL     1       3.104   0.223  -5.776  1.00  0.00     0.202 C 
BRANCH  25  26
ATOM     26  C   UNL     1       4.226  -0.230  -6.738  1.00  0.00     0.261 C 
BRANCH  26  27
ATOM     27  O   UNL     1       5.436  -0.734  -6.131  1.00  0.00    -0.460 OA
BRANCH  27  28
ATOM     28  C   UNL     1       6.100   0.064  -5.257  1.00  0.00     0.338 C 
ATOM     29  O   UNL     1       5.892   1.243  -5.062  1.00  0.00    -0.246 OA
BRANCH  28  30
ATOM     30  C   UNL     1       6.928  -0.812  -4.367  1.00  0.00     0.060 A 
ATOM     31  C   UNL     1       7.018  -0.480  -3.006  1.00  0.00     0.016 A 
ATOM     32  C   UNL     1       7.528  -1.991  -4.824  1.00  0.00     0.016 A 
ATOM     33  C   UNL     1       7.739  -1.290  -2.120  1.00  0.00     0.010 A 
ATOM     34  C   UNL     1       8.258  -2.797  -3.938  1.00  0.00     0.010 A 
ATOM     35  C   UNL     1       8.401  -2.433  -2.586  1.00  0.00    -0.014 A 
BRANCH  35  36
ATOM     36  C   UNL     1       9.404  -3.119  -1.722  1.00  0.00     0.031 A 
ATOM     37  C   UNL     1      10.862  -2.796  -1.932  1.00  0.00     0.074 A 
ATOM     38  C   UNL     1       9.054  -3.984  -0.751  1.00  0.00     0.049 A 
ATOM     39  N   UNL     1      11.920  -3.278  -1.330  1.00  0.00    -0.248 NA
ATOM     40  C   UNL     1      11.165  -1.791  -2.964  1.00  0.00     0.031 C 
ATOM     41  C   UNL     1       7.689  -4.370  -0.406  1.00  0.00     0.029 A 
ATOM     42  N   UNL     1       9.837  -4.705   0.122  1.00  0.00    -0.354 N 
ATOM     43  C   UNL     1      13.010  -2.645  -1.916  1.00  0.00     0.074 A 
ATOM     44  C   UNL     1      12.488  -1.766  -2.940  1.00  0.00     0.031 C 
ATOM     45  C   UNL     1       7.729  -5.268   0.596  1.00  0.00     0.029 A 
ATOM     46  C   UNL     1       9.123  -5.543   0.946  1.00  0.00     0.049 A 
ATOM     47  H   UNL     1      10.818  -4.627   0.155  1.00  0.00     0.167 HD
ATOM     48  C   UNL     1      14.326  -2.772  -1.626  1.00  0.00     0.037 A 
ATOM     49  C   UNL     1       9.545  -6.445   1.857  1.00  0.00     0.037 A 
ATOM     50  C   UNL     1      14.858  -3.637  -0.606  1.00  0.00     0.049 A 
ATOM     51  C   UNL     1      11.023  -6.618   2.116  1.00  0.00     0.074 A 
ATOM     52  C   UNL     1      16.178  -3.803  -0.223  1.00  0.00     0.029 A 
ATOM     53  N   UNL     1      14.103  -4.488   0.183  1.00  0.00    -0.354 N 
ATOM     54  N   UNL     1      12.040  -5.983   1.584  1.00  0.00    -0.248 NA
ATOM     55  C   UNL     1      11.411  -7.633   3.109  1.00  0.00     0.031 C 
ATOM     56  C   UNL     1      16.228  -4.801   0.754  1.00  0.00     0.029 A 
ATOM     57  C   UNL     1      14.933  -5.208   1.028  1.00  0.00     0.049 A 
ATOM     58  H   UNL     1      13.122  -4.570   0.149  1.00  0.00     0.167 HD
ATOM     59  C   UNL     1      13.178  -6.498   2.197  1.00  0.00     0.074 A 
ATOM     60  C   UNL     1      12.727  -7.484   3.155  1.00  0.00     0.031 C 
ATOM     61  C   UNL     1      14.480  -6.184   1.986  1.00  0.00     0.037 A 
BRANCH  48  62
ATOM     62  C   UNL     1      15.298  -1.975  -2.447  1.00  0.00     0.057 A 
ATOM     63  C   UNL     1      15.419  -0.586  -2.316  1.00  0.00     0.134 A 
ATOM     64  C   UNL     1      16.159  -2.617  -3.346  1.00  0.00     0.134 A 
ATOM     65  F   UNL     1      14.613   0.092  -1.485  1.00  0.00    -0.206 F 
ATOM     66  C   UNL     1      16.350   0.138  -3.063  1.00  0.00     0.040 A 
ATOM     67  C   UNL     1      17.113  -1.909  -4.077  1.00  0.00     0.040 A 
ATOM     68  F   UNL     1      16.097  -3.947  -3.517  1.00  0.00    -0.206 F 
ATOM     69  C   UNL     1      17.207  -0.526  -3.939  1.00  0.00     0.006 A 
ENDBRANCH  48  62
BRANCH  49  70
ATOM     70  C   UNL     1       8.564  -7.295   2.585  1.00  0.00     0.057 A 
ATOM     71  C   UNL     1       8.385  -7.187   3.970  1.00  0.00     0.134 A 
ATOM     72  C   UNL     1       7.827  -8.284   1.920  1.00  0.00     0.134 A 
ATOM     73  F   UNL     1       9.086  -6.284   4.673  1.00  0.00    -0.206 F 
ATOM     74  C   UNL     1       7.533  -8.045   4.669  1.00  0.00     0.040 A 
ATOM     75  C   UNL     1       6.948  -9.127   2.601  1.00  0.00     0.040 A 
ATOM     76  F   UNL     1       7.957  -8.448   0.595  1.00  0.00    -0.206 F 
ATOM     77  C   UNL     1       6.808  -9.017   3.983  1.00  0.00     0.006 A 
ENDBRANCH  49  70
BRANCH  61  78
ATOM     78  C   UNL     1      15.513  -6.878   2.831  1.00  0.00     0.057 A 
ATOM     79  C   UNL     1      15.806  -8.239   2.681  1.00  0.00     0.134 A 
ATOM     80  C   UNL     1      16.249  -6.163   3.786  1.00  0.00     0.134 A 
ATOM     81  F   UNL     1      15.136  -8.986   1.790  1.00  0.00    -0.206 F 
ATOM     82  C   UNL     1      16.770  -8.871   3.471  1.00  0.00     0.040 A 
ATOM     83  C   UNL     1      17.236  -6.777   4.559  1.00  0.00     0.040 A 
ATOM     84  F   UNL     1      16.032  -4.853   3.974  1.00  0.00    -0.206 F 
ATOM     85  C   UNL     1      17.492  -8.137   4.410  1.00  0.00     0.006 A 
ENDBRANCH  61  78
ENDBRANCH  35  36
ENDBRANCH  28  30
ENDBRANCH  27  28
ENDBRANCH  26  27
ENDBRANCH  25  26
ENDBRANCH  24  25
ENDBRANCH  23  24
ENDBRANCH   1  23
TORSDOF 22
