REMARK SMILES COCCNC(=O)N[C@H]1CCCCC[C@@H]1C(=O)OCCOCCOCCOC(=O)c1ccc(-c2c3nc(c(-c4c(F)cccc4F)c4ccc([nH]4)c(-c4c(F)cccc4F)c4nc(c(-c5c(F)cccc5F)c5ccc2[nH]5)C=C4)C=C3)cc1
REMARK SMILES IDX 21 1 20 2 19 3 18 4 16 5 17 6 15 7 9 8 8 9 5 10 6 11 7 13
REMARK SMILES IDX 4 15 3 16 2 17 1 18 10 19 11 20 14 22 13 23 12 24 22 26
REMARK SMILES IDX 23 27 24 28 25 29 26 30 27 31 28 32 29 33 30 34 31 35 83 36
REMARK SMILES IDX 32 37 82 38 33 39 34 40 35 41 76 42 36 43 81 44 75 45 77 46
REMARK SMILES IDX 37 47 80 48 74 49 73 50 38 52 64 53 47 54 63 55 48 56 51 57
REMARK SMILES IDX 62 58 78 59 49 60 50 61 61 63 79 64 52 65 39 66 40 67 45 68
REMARK SMILES IDX 41 69 42 70 44 71 46 72 43 73 65 74 66 75 71 76 67 77 68 78
REMARK SMILES IDX 70 79 72 80 69 81 53 82 54 83 59 84 55 85 56 86 58 87 60 88
REMARK SMILES IDX 57 89
REMARK H PARENT 5 12 8 14 77 51 51 62
REMARK Flexibility Score: 100.00
ROOT
ATOM      1  O   UNL     1       6.165   0.059  -8.025  1.00  0.00    -0.376 OA
ENDROOT
BRANCH   1   2
ATOM      2  C   UNL     1       6.784   0.712  -6.915  1.00  0.00     0.202 C 
BRANCH   2   3
ATOM      3  C   UNL     1       5.902   1.370  -5.838  1.00  0.00     0.261 C 
BRANCH   3   4
ATOM      4  O   UNL     1       5.050   0.441  -5.142  1.00  0.00    -0.463 OA
BRANCH   4   5
ATOM      5  C   UNL     1       3.716   0.688  -5.167  1.00  0.00     0.311 C 
ATOM      6  O   UNL     1       3.218   1.699  -5.650  1.00  0.00    -0.252 OA
BRANCH   5   7
ATOM      7  C   UNL     1       2.873  -0.517  -4.726  1.00  0.00     0.121 C 
BRANCH   7   8
ATOM      8  C   UNL     1       1.472  -0.004  -4.268  1.00  0.00     0.098 C 
BRANCH   8   9
ATOM      9  N   UNL     1       0.636   0.118  -5.506  1.00  0.00    -0.335 N 
ATOM     10  N   UNL     1      -1.735  -0.088  -5.458  1.00  0.00    -0.336 N 
ATOM     11  C   UNL     1      -0.579   0.222  -6.028  1.00  0.00     0.315 C 
ATOM     12  H   UNL     1      -2.518   0.220  -5.969  1.00  0.00     0.165 HD
ATOM     13  O   UNL     1      -0.635   0.631  -7.194  1.00  0.00    -0.249 OA
ATOM     14  H   UNL     1       1.264   0.125  -6.265  1.00  0.00     0.165 HD
BRANCH  10  15
ATOM     15  C   UNL     1      -2.078  -0.781  -4.249  1.00  0.00     0.146 C 
BRANCH  15  16
ATOM     16  C   UNL     1      -2.688   0.115  -3.177  1.00  0.00     0.181 C 
BRANCH  16  17
ATOM     17  O   UNL     1      -4.022  -0.267  -2.842  1.00  0.00    -0.383 OA
ATOM     18  C   UNL     1      -4.918  -0.198  -3.942  1.00  0.00     0.194 C 
ENDBRANCH  16  17
ENDBRANCH  15  16
ENDBRANCH  10  15
ENDBRANCH   8   9
BRANCH   8  19
ATOM     19  C   UNL     1       0.949  -0.728  -3.024  1.00  0.00     0.026 C 
BRANCH  19  20
ATOM     20  C   UNL     1       0.679  -2.232  -3.167  1.00  0.00     0.002 CG0
ATOM     21  G   UNL     1       1.858  -3.139  -2.883  1.00  0.00     0.000 G0
ENDBRANCH  19  20
ENDBRANCH   8  19
ENDBRANCH   7   8
BRANCH   7  22
ATOM     22  C   UNL     1       3.593  -1.509  -3.784  1.00  0.00     0.017 C 
BRANCH  22  23
ATOM     23  C   UNL     1       2.999  -2.925  -3.857  1.00  0.00     0.001 C 
BRANCH  23  24
ATOM     24  C   UNL     1       1.858  -3.139  -2.883  1.00  0.00     0.000 CG0
ATOM     25  G   UNL     1       0.679  -2.232  -3.167  1.00  0.00     0.000 G0
ENDBRANCH  23  24
ENDBRANCH  22  23
ENDBRANCH   7  22
ENDBRANCH   5   7
ENDBRANCH   4   5
ENDBRANCH   3   4
ENDBRANCH   2   3
ENDBRANCH   1   2
BRANCH   1  26
ATOM     26  C   UNL     1       5.102  -0.853  -7.788  1.00  0.00     0.188 C 
BRANCH  26  27
ATOM     27  C   UNL     1       5.317  -1.984  -6.773  1.00  0.00     0.188 C 
BRANCH  27  28
ATOM     28  O   UNL     1       6.444  -1.817  -5.951  1.00  0.00    -0.376 OA
BRANCH  28  29
ATOM     29  C   UNL     1       7.493  -2.765  -6.017  1.00  0.00     0.202 C 
BRANCH  29  30
ATOM     30  C   UNL     1       8.010  -3.317  -7.363  1.00  0.00     0.261 C 
BRANCH  30  31
ATOM     31  O   UNL     1       7.065  -3.492  -8.430  1.00  0.00    -0.460 OA
BRANCH  31  32
ATOM     32  C   UNL     1       6.277  -4.592  -8.394  1.00  0.00     0.338 C 
ATOM     33  O   UNL     1       6.282  -5.473  -7.545  1.00  0.00    -0.246 OA
BRANCH  32  34
ATOM     34  C   UNL     1       5.224  -4.419  -9.421  1.00  0.00     0.060 A 
ATOM     35  C   UNL     1       3.877  -4.351  -9.028  1.00  0.00     0.016 A 
ATOM     36  C   UNL     1       5.571  -4.297 -10.766  1.00  0.00     0.016 A 
ATOM     37  C   UNL     1       2.872  -4.187  -9.985  1.00  0.00     0.010 A 
ATOM     38  C   UNL     1       4.564  -4.163 -11.724  1.00  0.00     0.010 A 
ATOM     39  C   UNL     1       3.209  -4.140 -11.342  1.00  0.00    -0.014 A 
BRANCH  39  40
ATOM     40  C   UNL     1       2.168  -4.289 -12.388  1.00  0.00     0.031 A 
ATOM     41  C   UNL     1       1.972  -5.652 -12.993  1.00  0.00     0.074 A 
ATOM     42  C   UNL     1       1.441  -3.246 -12.825  1.00  0.00     0.049 A 
ATOM     43  N   UNL     1       1.256  -6.012 -14.026  1.00  0.00    -0.248 NA
ATOM     44  C   UNL     1       2.697  -6.758 -12.345  1.00  0.00     0.031 C 
ATOM     45  C   UNL     1       1.494  -1.889 -12.287  1.00  0.00     0.029 A 
ATOM     46  N   UNL     1       0.530  -3.169 -13.851  1.00  0.00    -0.354 N 
ATOM     47  C   UNL     1       1.463  -7.378 -14.166  1.00  0.00     0.074 A 
ATOM     48  C   UNL     1       2.387  -7.779 -13.128  1.00  0.00     0.031 C 
ATOM     49  C   UNL     1       0.671  -1.105 -13.007  1.00  0.00     0.029 A 
ATOM     50  C   UNL     1       0.071  -1.895 -14.081  1.00  0.00     0.049 A 
ATOM     51  H   UNL     1       0.235  -3.952 -14.370  1.00  0.00     0.167 HD
ATOM     52  C   UNL     1       0.928  -8.224 -15.078  1.00  0.00     0.037 A 
ATOM     53  C   UNL     1      -0.712  -1.420 -15.070  1.00  0.00     0.037 A 
ATOM     54  C   UNL     1       0.011  -7.821 -16.109  1.00  0.00     0.049 A 
ATOM     55  C   UNL     1      -1.230  -2.364 -16.127  1.00  0.00     0.074 A 
ATOM     56  C   UNL     1      -0.601  -8.604 -17.072  1.00  0.00     0.029 A 
ATOM     57  N   UNL     1      -0.419  -6.519 -16.318  1.00  0.00    -0.354 N 
ATOM     58  N   UNL     1      -1.044  -3.657 -16.248  1.00  0.00    -0.248 NA
ATOM     59  C   UNL     1      -2.067  -1.782 -17.187  1.00  0.00     0.031 C 
ATOM     60  C   UNL     1      -1.353  -7.767 -17.901  1.00  0.00     0.029 A 
ATOM     61  C   UNL     1      -1.266  -6.473 -17.412  1.00  0.00     0.049 A 
ATOM     62  H   UNL     1      -0.160  -5.743 -15.771  1.00  0.00     0.167 HD
ATOM     63  C   UNL     1      -1.771  -4.047 -17.368  1.00  0.00     0.074 A 
ATOM     64  C   UNL     1      -2.404  -2.855 -17.890  1.00  0.00     0.031 C 
ATOM     65  C   UNL     1      -1.906  -5.282 -17.911  1.00  0.00     0.037 A 
BRANCH  52  66
ATOM     66  C   UNL     1       1.355  -9.662 -15.022  1.00  0.00     0.057 A 
ATOM     67  C   UNL     1       0.964 -10.515 -13.982  1.00  0.00     0.134 A 
ATOM     68  C   UNL     1       2.147 -10.207 -16.041  1.00  0.00     0.134 A 
ATOM     69  F   UNL     1       0.219 -10.053 -12.966  1.00  0.00    -0.206 F 
ATOM     70  C   UNL     1       1.367 -11.851 -13.944  1.00  0.00     0.040 A 
ATOM     71  C   UNL     1       2.530 -11.549 -16.030  1.00  0.00     0.040 A 
ATOM     72  F   UNL     1       2.555  -9.447 -17.068  1.00  0.00    -0.206 F 
ATOM     73  C   UNL     1       2.146 -12.373 -14.975  1.00  0.00     0.006 A 
ENDBRANCH  52  66
BRANCH  53  74
ATOM     74  C   UNL     1      -1.041   0.029 -15.132  1.00  0.00     0.057 A 
ATOM     75  C   UNL     1      -2.349   0.485 -14.931  1.00  0.00     0.134 A 
ATOM     76  C   UNL     1      -0.063   0.988 -15.424  1.00  0.00     0.134 A 
ATOM     77  F   UNL     1      -3.336  -0.386 -14.678  1.00  0.00    -0.206 F 
ATOM     78  C   UNL     1      -2.677   1.838 -15.037  1.00  0.00     0.040 A 
ATOM     79  C   UNL     1      -0.371   2.347 -15.504  1.00  0.00     0.040 A 
ATOM     80  F   UNL     1       1.209   0.618 -15.633  1.00  0.00    -0.206 F 
ATOM     81  C   UNL     1      -1.684   2.775 -15.319  1.00  0.00     0.006 A 
ENDBRANCH  53  74
BRANCH  65  82
ATOM     82  C   UNL     1      -2.819  -5.430 -19.095  1.00  0.00     0.057 A 
ATOM     83  C   UNL     1      -2.484  -4.941 -20.363  1.00  0.00     0.134 A 
ATOM     84  C   UNL     1      -4.025  -6.135 -18.973  1.00  0.00     0.134 A 
ATOM     85  F   UNL     1      -1.349  -4.250 -20.548  1.00  0.00    -0.206 F 
ATOM     86  C   UNL     1      -3.323  -5.132 -21.463  1.00  0.00     0.040 A 
ATOM     87  C   UNL     1      -4.857  -6.358 -20.071  1.00  0.00     0.040 A 
ATOM     88  F   UNL     1      -4.402  -6.642 -17.790  1.00  0.00    -0.206 F 
ATOM     89  C   UNL     1      -4.508  -5.851 -21.321  1.00  0.00     0.006 A 
ENDBRANCH  65  82
ENDBRANCH  39  40
ENDBRANCH  32  34
ENDBRANCH  31  32
ENDBRANCH  30  31
ENDBRANCH  29  30
ENDBRANCH  28  29
ENDBRANCH  27  28
ENDBRANCH  26  27
ENDBRANCH   1  26
TORSDOF 21
