REMARK SMILES [NH3+][C@@H]1CCCCC[C@H]1C(=O)Nc1cncc(C(=O)OCCOCCOCCOC(=O)c2ccc(-c3c4nc(c(-c5c(F)cccc5F)c5ccc([nH]5)c(-c5c(F)cccc5F)c5nc(c(-c6c(F)cccc6F)c6ccc3[nH]6)C=C5)C=C4)cc2)c1
REMARK SMILES IDX 22 1 21 2 20 3 19 4 17 5 18 6 16 7 12 8 13 9 85 10 14 11
REMARK SMILES IDX 15 12 11 13 9 14 10 15 8 17 2 18 1 19 3 23 4 24 7 26 6 27
REMARK SMILES IDX 5 28 23 30 24 31 25 32 26 33 27 34 28 35 29 36 30 37 31 38
REMARK SMILES IDX 32 39 84 40 33 41 83 42 34 43 35 44 36 45 77 46 37 47 82 48
REMARK SMILES IDX 76 49 78 50 38 51 81 52 75 53 74 54 39 56 65 57 48 58 64 59
REMARK SMILES IDX 49 60 52 61 63 62 79 63 50 64 51 65 62 67 80 68 53 69 40 70
REMARK SMILES IDX 41 71 46 72 42 73 43 74 45 75 47 76 44 77 66 78 67 79 72 80
REMARK SMILES IDX 68 81 69 82 71 83 73 84 70 85 54 86 55 87 60 88 56 89 57 90
REMARK SMILES IDX 59 91 61 92 58 93
REMARK H PARENT 11 16 1 20 1 21 1 22 78 55 52 66
REMARK Flexibility Score: 90.00
ROOT
ATOM      1  O   UNL     1      -1.722  -2.110  -5.881  1.00  0.00    -0.376 OA
ENDROOT
BRANCH   1   2
ATOM      2  C   UNL     1      -0.376  -1.745  -5.647  1.00  0.00     0.202 C 
BRANCH   2   3
ATOM      3  C   UNL     1       0.043  -0.425  -4.987  1.00  0.00     0.261 C 
BRANCH   3   4
ATOM      4  O   UNL     1      -0.815   0.080  -3.958  1.00  0.00    -0.460 OA
BRANCH   4   5
ATOM      5  C   UNL     1      -1.588   1.150  -4.281  1.00  0.00     0.339 C 
ATOM      6  O   UNL     1      -1.660   1.686  -5.373  1.00  0.00    -0.246 OA
BRANCH   5   7
ATOM      7  C   UNL     1      -2.369   1.601  -3.107  1.00  0.00     0.080 A 
ATOM      8  C   UNL     1      -2.532   1.964  -0.734  1.00  0.00     0.060 A 
ATOM      9  C   UNL     1      -3.652   2.744  -0.984  1.00  0.00     0.137 A 
ATOM     10  C   UNL     1      -2.013   1.264  -1.805  1.00  0.00     0.045 A 
ATOM     11  N   UNL     1      -4.132   2.987  -2.231  1.00  0.00    -0.262 NA
ATOM     12  C   UNL     1      -3.437   2.462  -3.271  1.00  0.00     0.126 A 
BRANCH   8  13
ATOM     13  N   UNL     1      -1.937   1.942   0.534  1.00  0.00    -0.324 N 
ATOM     14  C   UNL     1      -0.620   2.051   0.914  1.00  0.00     0.233 C 
ATOM     15  O   UNL     1      -0.418   2.039   2.137  1.00  0.00    -0.274 OA
ATOM     16  H   UNL     1      -2.570   1.829   1.280  1.00  0.00     0.169 HD
BRANCH  14  17
ATOM     17  C   UNL     1       0.565   2.365  -0.046  1.00  0.00     0.137 C 
BRANCH  17  18
ATOM     18  C   UNL     1       1.139   1.139  -0.794  1.00  0.00     0.193 C 
BRANCH  18  19
ATOM     19  N   UNL     1       1.643   0.137   0.154  1.00  0.00    -0.354 N 
ATOM     20  H   UNL     1       2.016  -0.661  -0.360  1.00  0.00     0.344 HD
ATOM     21  H   UNL     1       0.881  -0.173   0.757  1.00  0.00     0.344 HD
ATOM     22  H   UNL     1       2.381   0.550   0.724  1.00  0.00     0.344 HD
ENDBRANCH  18  19
BRANCH  18  23
ATOM     23  C   UNL     1       2.202   1.410  -1.876  1.00  0.00     0.066 C 
BRANCH  23  24
ATOM     24  C   UNL     1       1.651   2.196  -3.063  1.00  0.00     0.006 CG0
ATOM     25  G   UNL     1       1.748   3.707  -2.944  1.00  0.00     0.000 G0
ENDBRANCH  23  24
ENDBRANCH  18  23
ENDBRANCH  17  18
BRANCH  17  26
ATOM     26  C   UNL     1       0.256   3.639  -0.867  1.00  0.00     0.020 C 
BRANCH  26  27
ATOM     27  C   UNL     1       1.469   4.265  -1.554  1.00  0.00     0.001 C 
BRANCH  27  28
ATOM     28  C   UNL     1       1.748   3.707  -2.944  1.00  0.00     0.000 CG0
ATOM     29  G   UNL     1       1.651   2.196  -3.063  1.00  0.00     0.000 G0
ENDBRANCH  27  28
ENDBRANCH  26  27
ENDBRANCH  17  26
ENDBRANCH  14  17
ENDBRANCH   8  13
ENDBRANCH   5   7
ENDBRANCH   4   5
ENDBRANCH   3   4
ENDBRANCH   2   3
ENDBRANCH   1   2
BRANCH   1  30
ATOM     30  C   UNL     1      -2.759  -1.665  -5.033  1.00  0.00     0.188 C 
BRANCH  30  31
ATOM     31  C   UNL     1      -2.723  -1.994  -3.526  1.00  0.00     0.188 C 
BRANCH  31  32
ATOM     32  O   UNL     1      -1.711  -2.822  -3.005  1.00  0.00    -0.376 OA
BRANCH  32  33
ATOM     33  C   UNL     1      -1.605  -4.158  -3.466  1.00  0.00     0.202 C 
BRANCH  33  34
ATOM     34  C   UNL     1      -2.809  -5.006  -3.931  1.00  0.00     0.261 C 
BRANCH  34  35
ATOM     35  O   UNL     1      -3.891  -4.324  -4.581  1.00  0.00    -0.460 OA
BRANCH  35  36
ATOM     36  C   UNL     1      -5.032  -4.186  -3.858  1.00  0.00     0.338 C 
ATOM     37  O   UNL     1      -5.243  -4.601  -2.728  1.00  0.00    -0.246 OA
BRANCH  36  38
ATOM     38  C   UNL     1      -5.935  -3.239  -4.550  1.00  0.00     0.060 A 
ATOM     39  C   UNL     1      -6.240  -2.014  -3.932  1.00  0.00     0.016 A 
ATOM     40  C   UNL     1      -6.474  -3.547  -5.799  1.00  0.00     0.016 A 
ATOM     41  C   UNL     1      -7.091  -1.100  -4.555  1.00  0.00     0.010 A 
ATOM     42  C   UNL     1      -7.356  -2.645  -6.405  1.00  0.00     0.010 A 
ATOM     43  C   UNL     1      -7.688  -1.429  -5.777  1.00  0.00    -0.014 A 
BRANCH  43  44
ATOM     44  C   UNL     1      -8.800  -0.603  -6.310  1.00  0.00     0.031 A 
ATOM     45  C   UNL     1     -10.211  -1.049  -6.049  1.00  0.00     0.074 A 
ATOM     46  C   UNL     1      -8.572   0.514  -7.024  1.00  0.00     0.049 A 
ATOM     47  N   UNL     1     -11.338  -0.554  -6.492  1.00  0.00    -0.248 NA
ATOM     48  C   UNL     1     -10.369  -2.222  -5.173  1.00  0.00     0.031 C 
ATOM     49  C   UNL     1      -7.257   1.079  -7.316  1.00  0.00     0.029 A 
ATOM     50  N   UNL     1      -9.452   1.360  -7.654  1.00  0.00    -0.354 N 
ATOM     51  C   UNL     1     -12.337  -1.365  -5.966  1.00  0.00     0.074 A 
ATOM     52  C   UNL     1     -11.681  -2.396  -5.191  1.00  0.00     0.031 C 
ATOM     53  C   UNL     1      -7.415   2.165  -8.093  1.00  0.00     0.029 A 
ATOM     54  C   UNL     1      -8.837   2.348  -8.383  1.00  0.00     0.049 A 
ATOM     55  H   UNL     1     -10.430   1.267  -7.588  1.00  0.00     0.167 HD
ATOM     56  C   UNL     1     -13.678  -1.261  -6.116  1.00  0.00     0.037 A 
ATOM     57  C   UNL     1      -9.360   3.271  -9.215  1.00  0.00     0.037 A 
ATOM     58  C   UNL     1     -14.330  -0.236  -6.889  1.00  0.00     0.049 A 
ATOM     59  C   UNL     1     -10.852   3.328  -9.424  1.00  0.00     0.074 A 
ATOM     60  C   UNL     1     -15.685  -0.023  -7.067  1.00  0.00     0.029 A 
ATOM     61  N   UNL     1     -13.672   0.735  -7.628  1.00  0.00    -0.354 N 
ATOM     62  N   UNL     1     -11.792   2.583  -8.894  1.00  0.00    -0.248 NA
ATOM     63  C   UNL     1     -11.356   4.357 -10.347  1.00  0.00     0.031 C 
ATOM     64  C   UNL     1     -15.847   1.036  -7.966  1.00  0.00     0.029 A 
ATOM     65  C   UNL     1     -14.593   1.526  -8.296  1.00  0.00     0.049 A 
ATOM     66  H   UNL     1     -12.694   0.847  -7.671  1.00  0.00     0.167 HD
ATOM     67  C   UNL     1     -12.995   3.066  -9.398  1.00  0.00     0.074 A 
ATOM     68  C   UNL     1     -12.667   4.178 -10.265  1.00  0.00     0.031 C 
ATOM     69  C   UNL     1     -14.257   2.629  -9.161  1.00  0.00     0.037 A 
BRANCH  56  70
ATOM     70  C   UNL     1     -14.529  -2.313  -5.465  1.00  0.00     0.057 A 
ATOM     71  C   UNL     1     -14.675  -2.402  -4.074  1.00  0.00     0.134 A 
ATOM     72  C   UNL     1     -15.226  -3.244  -6.247  1.00  0.00     0.134 A 
ATOM     73  F   UNL     1     -14.023  -1.552  -3.266  1.00  0.00    -0.206 F 
ATOM     74  C   UNL     1     -15.457  -3.397  -3.485  1.00  0.00     0.040 A 
ATOM     75  C   UNL     1     -16.036  -4.223  -5.671  1.00  0.00     0.040 A 
ATOM     76  F   UNL     1     -15.135  -3.213  -7.585  1.00  0.00    -0.206 F 
ATOM     77  C   UNL     1     -16.146  -4.307  -4.285  1.00  0.00     0.006 A 
ENDBRANCH  56  70
BRANCH  57  78
ATOM     78  C   UNL     1      -8.460   4.202  -9.944  1.00  0.00     0.057 A 
ATOM     79  C   UNL     1      -8.438   5.571  -9.655  1.00  0.00     0.134 A 
ATOM     80  C   UNL     1      -7.607   3.745 -10.956  1.00  0.00     0.134 A 
ATOM     81  F   UNL     1      -9.253   6.076  -8.716  1.00  0.00    -0.206 F 
ATOM     82  C   UNL     1      -7.610   6.453 -10.351  1.00  0.00     0.040 A 
ATOM     83  C   UNL     1      -6.754   4.611 -11.642  1.00  0.00     0.040 A 
ATOM     84  F   UNL     1      -7.583   2.445 -11.286  1.00  0.00    -0.206 F 
ATOM     85  C   UNL     1      -6.758   5.971 -11.344  1.00  0.00     0.006 A 
ENDBRANCH  57  78
BRANCH  69  86
ATOM     86  C   UNL     1     -15.386   3.368  -9.825  1.00  0.00     0.057 A 
ATOM     87  C   UNL     1     -15.623   3.280 -11.203  1.00  0.00     0.134 A 
ATOM     88  C   UNL     1     -16.278   4.138  -9.066  1.00  0.00     0.134 A 
ATOM     89  F   UNL     1     -14.803   2.568 -11.990  1.00  0.00    -0.206 F 
ATOM     90  C   UNL     1     -16.693   3.947 -11.804  1.00  0.00     0.040 A 
ATOM     91  C   UNL     1     -17.368   4.785  -9.651  1.00  0.00     0.040 A 
ATOM     92  F   UNL     1     -16.117   4.257  -7.739  1.00  0.00    -0.206 F 
ATOM     93  C   UNL     1     -17.574   4.696 -11.026  1.00  0.00     0.006 A 
ENDBRANCH  69  86
ENDBRANCH  43  44
ENDBRANCH  36  38
ENDBRANCH  35  36
ENDBRANCH  34  35
ENDBRANCH  33  34
ENDBRANCH  32  33
ENDBRANCH  31  32
ENDBRANCH  30  31
ENDBRANCH   1  30
TORSDOF 20
