REMARK SMILES O=C(OCCOCCOCCOC(=O)c1cc(S(=O)(=O)Nc2cc(F)ccc2F)cc2c1OCCO2)c1ccc(-c2c3nc(c(-c4c(F)cccc4F)c4ccc([nH]4)c(-c4c(F)cccc4F)c4nc(c(-c5c(F)cccc5F)c5ccc2[nH]5)C=C4)C=C3)cc1
REMARK SMILES IDX 8 1 7 2 6 3 5 4 4 5 3 6 2 7 1 8 37 9 38 10 90 11 39 12 89 13
REMARK SMILES IDX 40 14 41 15 42 16 83 17 43 18 88 19 82 20 84 21 44 22 87 23
REMARK SMILES IDX 81 24 80 25 45 27 71 28 54 29 70 30 55 31 58 32 69 33 85 34
REMARK SMILES IDX 56 35 57 36 68 38 86 39 59 40 46 41 47 42 52 43 48 44 49 45
REMARK SMILES IDX 51 46 53 47 50 48 72 49 73 50 78 51 74 52 75 53 77 54 79 55
REMARK SMILES IDX 76 56 60 57 61 58 66 59 62 60 63 61 65 62 67 63 64 64 9 65
REMARK SMILES IDX 10 66 11 67 12 68 13 69 14 70 15 71 16 72 32 73 17 74 31 75
REMARK SMILES IDX 33 76 30 77 36 78 34 79 35 80 18 81 19 82 20 83 21 84 22 86
REMARK SMILES IDX 23 87 28 88 24 89 27 90 29 91 25 92 26 93
REMARK H PARENT 84 26 58 37 21 85
REMARK Flexibility Score: inf
ROOT
ATOM      1  C   UNL     1       2.564   0.605  -3.109  1.00  0.00     0.188 C 
ENDROOT
BRANCH   1   2
ATOM      2  C   UNL     1       3.142   0.484  -1.690  1.00  0.00     0.188 C 
BRANCH   2   3
ATOM      3  O   UNL     1       4.553   0.481  -1.501  1.00  0.00    -0.376 OA
BRANCH   3   4
ATOM      4  C   UNL     1       5.149  -0.819  -1.491  1.00  0.00     0.202 C 
BRANCH   4   5
ATOM      5  C   UNL     1       4.971  -1.645  -0.198  1.00  0.00     0.261 C 
BRANCH   5   6
ATOM      6  O   UNL     1       3.658  -1.541   0.369  1.00  0.00    -0.460 OA
BRANCH   6   7
ATOM      7  C   UNL     1       3.458  -1.102   1.638  1.00  0.00     0.338 C 
ATOM      8  O   UNL     1       2.804  -1.766   2.435  1.00  0.00    -0.246 OA
BRANCH   7   9
ATOM      9  C   UNL     1       3.795   0.323   1.956  1.00  0.00     0.060 A 
ATOM     10  C   UNL     1       4.923   0.982   1.476  1.00  0.00     0.016 A 
ATOM     11  C   UNL     1       2.933   1.018   2.832  1.00  0.00     0.016 A 
ATOM     12  C   UNL     1       5.250   2.252   1.928  1.00  0.00     0.010 A 
ATOM     13  C   UNL     1       3.231   2.315   3.261  1.00  0.00     0.010 A 
ATOM     14  C   UNL     1       4.449   2.885   2.881  1.00  0.00    -0.014 A 
BRANCH  14  15
ATOM     15  C   UNL     1       5.126   3.908   3.707  1.00  0.00     0.031 A 
ATOM     16  C   UNL     1       5.707   3.445   5.018  1.00  0.00     0.074 A 
ATOM     17  C   UNL     1       5.421   5.113   3.193  1.00  0.00     0.049 A 
ATOM     18  N   UNL     1       6.513   4.066   5.837  1.00  0.00    -0.248 NA
ATOM     19  C   UNL     1       5.354   2.081   5.451  1.00  0.00     0.031 C 
ATOM     20  C   UNL     1       4.983   5.603   1.887  1.00  0.00     0.029 A 
ATOM     21  N   UNL     1       6.209   6.119   3.686  1.00  0.00    -0.354 N 
ATOM     22  C   UNL     1       6.746   3.173   6.877  1.00  0.00     0.074 A 
ATOM     23  C   UNL     1       5.980   1.983   6.609  1.00  0.00     0.031 C 
ATOM     24  C   UNL     1       5.540   6.806   1.667  1.00  0.00     0.029 A 
ATOM     25  C   UNL     1       6.353   7.176   2.821  1.00  0.00     0.049 A 
ATOM     26  H   UNL     1       6.631   6.088   4.575  1.00  0.00     0.167 HD
ATOM     27  C   UNL     1       7.541   3.326   7.960  1.00  0.00     0.037 A 
ATOM     28  C   UNL     1       7.071   8.307   2.955  1.00  0.00     0.037 A 
ATOM     29  C   UNL     1       8.299   4.516   8.216  1.00  0.00     0.049 A 
ATOM     30  C   UNL     1       7.889   8.487   4.208  1.00  0.00     0.074 A 
ATOM     31  C   UNL     1       9.092   4.821   9.303  1.00  0.00     0.029 A 
ATOM     32  N   UNL     1       8.346   5.605   7.356  1.00  0.00    -0.354 N 
ATOM     33  N   UNL     1       8.082   7.649   5.200  1.00  0.00    -0.248 NA
ATOM     34  C   UNL     1       8.588   9.769   4.362  1.00  0.00     0.031 C 
ATOM     35  C   UNL     1       9.585   6.118   9.123  1.00  0.00     0.029 A 
ATOM     36  C   UNL     1       9.144   6.595   7.897  1.00  0.00     0.049 A 
ATOM     37  H   UNL     1       7.881   5.664   6.491  1.00  0.00     0.167 HD
ATOM     38  C   UNL     1       8.943   8.289   6.081  1.00  0.00     0.074 A 
ATOM     39  C   UNL     1       9.249   9.579   5.495  1.00  0.00     0.031 C 
ATOM     40  C   UNL     1       9.437   7.859   7.269  1.00  0.00     0.037 A 
BRANCH  27  41
ATOM     41  C   UNL     1       7.548   2.204   8.956  1.00  0.00     0.057 A 
ATOM     42  C   UNL     1       8.148   0.966   8.688  1.00  0.00     0.134 A 
ATOM     43  C   UNL     1       6.877   2.345  10.177  1.00  0.00     0.134 A 
ATOM     44  F   UNL     1       8.775   0.753   7.520  1.00  0.00    -0.206 F 
ATOM     45  C   UNL     1       8.049  -0.102   9.582  1.00  0.00     0.040 A 
ATOM     46  C   UNL     1       6.794   1.293  11.091  1.00  0.00     0.040 A 
ATOM     47  F   UNL     1       6.272   3.499  10.492  1.00  0.00    -0.206 F 
ATOM     48  C   UNL     1       7.371   0.061  10.789  1.00  0.00     0.006 A 
ENDBRANCH  27  41
BRANCH  28  49
ATOM     49  C   UNL     1       7.052   9.347   1.893  1.00  0.00     0.057 A 
ATOM     50  C   UNL     1       8.204   9.680   1.169  1.00  0.00     0.134 A 
ATOM     51  C   UNL     1       5.884  10.061   1.595  1.00  0.00     0.134 A 
ATOM     52  F   UNL     1       9.362   9.049   1.414  1.00  0.00    -0.206 F 
ATOM     53  C   UNL     1       8.201  10.694   0.208  1.00  0.00     0.040 A 
ATOM     54  C   UNL     1       5.859  11.058   0.617  1.00  0.00     0.040 A 
ATOM     55  F   UNL     1       4.744   9.796   2.249  1.00  0.00    -0.206 F 
ATOM     56  C   UNL     1       7.023  11.384  -0.073  1.00  0.00     0.006 A 
ENDBRANCH  28  49
BRANCH  40  57
ATOM     57  C   UNL     1      10.391   8.769   7.981  1.00  0.00     0.057 A 
ATOM     58  C   UNL     1       9.964   9.945   8.609  1.00  0.00     0.134 A 
ATOM     59  C   UNL     1      11.746   8.431   8.083  1.00  0.00     0.134 A 
ATOM     60  F   UNL     1       8.680  10.327   8.540  1.00  0.00    -0.206 F 
ATOM     61  C   UNL     1      10.859  10.768   9.293  1.00  0.00     0.040 A 
ATOM     62  C   UNL     1      12.644   9.229   8.789  1.00  0.00     0.040 A 
ATOM     63  F   UNL     1      12.213   7.309   7.515  1.00  0.00    -0.206 F 
ATOM     64  C   UNL     1      12.202  10.406   9.391  1.00  0.00     0.006 A 
ENDBRANCH  40  57
ENDBRANCH  14  15
ENDBRANCH   7   9
ENDBRANCH   6   7
ENDBRANCH   5   6
ENDBRANCH   4   5
ENDBRANCH   3   4
ENDBRANCH   2   3
ENDBRANCH   1   2
BRANCH   1  65
ATOM     65  O   UNL     1       3.386   0.335  -4.225  1.00  0.00    -0.376 OA
BRANCH  65  66
ATOM     66  C   UNL     1       4.559   1.122  -4.385  1.00  0.00     0.202 C 
BRANCH  66  67
ATOM     67  C   UNL     1       4.435   2.651  -4.436  1.00  0.00     0.261 C 
BRANCH  67  68
ATOM     68  O   UNL     1       3.847   3.278  -3.280  1.00  0.00    -0.460 OA
BRANCH  68  69
ATOM     69  C   UNL     1       2.676   3.930  -3.509  1.00  0.00     0.342 C 
ATOM     70  O   UNL     1       1.962   3.842  -4.495  1.00  0.00    -0.246 OA
BRANCH  69  71
ATOM     71  C   UNL     1       2.308   4.780  -2.363  1.00  0.00     0.107 A 
ATOM     72  C   UNL     1       1.112   4.526  -1.661  1.00  0.00     0.042 A 
ATOM     73  C   UNL     1       3.057   5.933  -2.108  1.00  0.00     0.175 A 
ATOM     74  C   UNL     1       0.711   5.406  -0.647  1.00  0.00     0.092 A 
ATOM     75  C   UNL     1       2.599   6.837  -1.145  1.00  0.00     0.163 A 
ATOM     76  O   UNL     1       4.173   6.171  -2.871  1.00  0.00    -0.485 OA
ATOM     77  C   UNL     1       1.460   6.561  -0.391  1.00  0.00     0.072 A 
ATOM     78  O   UNL     1       3.200   8.049  -0.914  1.00  0.00    -0.486 OA
ATOM     79  C   UNL     1       4.914   7.317  -2.438  1.00  0.00     0.271 C 
ATOM     80  C   UNL     1       3.973   8.444  -2.052  1.00  0.00     0.271 C 
BRANCH  74  81
ATOM     81  S   UNL     1      -0.749   5.201   0.362  1.00  0.00     0.262 S 
ATOM     82  O   UNL     1      -0.291   4.875   1.696  1.00  0.00    -0.201 OA
ATOM     83  O   UNL     1      -1.570   6.367   0.116  1.00  0.00    -0.201 OA
BRANCH  81  84
ATOM     84  N   UNL     1      -1.623   3.923  -0.241  1.00  0.00    -0.277 N 
ATOM     85  H   UNL     1      -2.489   4.138  -0.657  1.00  0.00     0.180 HD
BRANCH  84  86
ATOM     86  C   UNL     1      -1.249   2.551  -0.218  1.00  0.00     0.087 A 
ATOM     87  C   UNL     1      -0.101   2.079   0.398  1.00  0.00     0.069 A 
ATOM     88  C   UNL     1      -2.031   1.655  -0.966  1.00  0.00     0.147 A 
ATOM     89  C   UNL     1       0.269   0.758   0.190  1.00  0.00     0.125 A 
ATOM     90  C   UNL     1      -1.643   0.332  -1.168  1.00  0.00     0.044 A 
ATOM     91  F   UNL     1      -3.161   2.089  -1.545  1.00  0.00    -0.205 F 
ATOM     92  F   UNL     1       1.410   0.326   0.707  1.00  0.00    -0.207 F 
ATOM     93  C   UNL     1      -0.463  -0.116  -0.599  1.00  0.00     0.042 A 
ENDBRANCH  84  86
ENDBRANCH  81  84
ENDBRANCH  74  81
ENDBRANCH  69  71
ENDBRANCH  68  69
ENDBRANCH  67  68
ENDBRANCH  66  67
ENDBRANCH  65  66
ENDBRANCH   1  65
TORSDOF 20
