REMARK SMILES Cc1ccccc1OCC(=O)c1nc(C)c(C(=O)OCCOCCOCCOC(=O)c2ccc(-c3c4nc(c(-c5c(F)cccc5F)c5ccc([nH]5)c(-c5c(F)cccc5F)c5nc(c(-c6c(F)cccc6F)c6ccc3[nH]6)C=C5)C=C4)cc2)s1
REMARK SMILES IDX 23 1 22 2 21 3 20 4 19 5 17 6 18 7 16 8 12 9 13 10 85 11
REMARK SMILES IDX 14 12 15 13 10 14 11 15 9 16 8 17 7 18 1 19 2 20 3 21 4 22
REMARK SMILES IDX 6 23 5 24 24 25 25 26 26 27 27 28 28 29 29 30 30 31 31 32
REMARK SMILES IDX 32 33 84 34 33 35 83 36 34 37 35 38 36 39 77 40 37 41 82 42
REMARK SMILES IDX 76 43 78 44 38 45 81 46 75 47 74 48 39 50 65 51 48 52 64 53
REMARK SMILES IDX 49 54 52 55 63 56 79 57 50 58 51 59 62 61 80 62 53 63 40 64
REMARK SMILES IDX 41 65 46 66 42 67 43 68 45 69 47 70 44 71 66 72 67 73 72 74
REMARK SMILES IDX 68 75 69 76 71 77 73 78 70 79 54 80 55 81 60 82 56 83 57 84
REMARK SMILES IDX 59 85 61 86 58 87
REMARK H PARENT 78 49 52 60
REMARK Flexibility Score: inf
ROOT
ATOM      1  C   UNL     1      -2.028   8.124   5.399  1.00  0.00     0.188 C 
ENDROOT
BRANCH   1   2
ATOM      2  O   UNL     1      -2.616   7.192   6.292  1.00  0.00    -0.376 OA
BRANCH   2   3
ATOM      3  C   UNL     1      -1.781   6.133   6.755  1.00  0.00     0.202 C 
BRANCH   3   4
ATOM      4  C   UNL     1      -0.544   5.777   5.913  1.00  0.00     0.261 C 
BRANCH   4   5
ATOM      5  O   UNL     1      -0.686   4.669   4.983  1.00  0.00    -0.459 OA
BRANCH   5   6
ATOM      6  C   UNL     1       0.298   4.586   4.030  1.00  0.00     0.350 C 
ATOM      7  O   UNL     1       0.957   5.539   3.641  1.00  0.00    -0.245 OA
BRANCH   6   8
ATOM      8  C   UNL     1       0.431   3.243   3.504  1.00  0.00     0.136 A 
ATOM      9  C   UNL     1       0.947   1.712   1.752  1.00  0.00     0.164 A 
ATOM     10  N   UNL     1       0.944   1.082   2.898  1.00  0.00    -0.237 NA
ATOM     11  S   UNL     1      -0.069   3.091   1.829  1.00  0.00    -0.103 S 
ATOM     12  C   UNL     1       1.195   2.094   3.783  1.00  0.00     0.064 A 
ATOM     13  C   UNL     1       2.405   1.798   4.597  1.00  0.00     0.068 C 
BRANCH   9  14
ATOM     14  C   UNL     1       2.070   1.612   0.837  1.00  0.00     0.228 C 
ATOM     15  O   UNL     1       3.162   1.128   1.163  1.00  0.00    -0.288 OA
BRANCH  14  16
ATOM     16  C   UNL     1       1.908   2.235  -0.545  1.00  0.00     0.313 C 
BRANCH  16  17
ATOM     17  O   UNL     1       0.899   1.804  -1.447  1.00  0.00    -0.485 OA
BRANCH  17  18
ATOM     18  C   UNL     1       0.217   0.682  -1.057  1.00  0.00     0.122 A 
ATOM     19  C   UNL     1       2.256  -0.875  -1.154  1.00  0.00     0.048 C 
ATOM     20  C   UNL     1       0.807  -0.579  -0.889  1.00  0.00    -0.009 A 
ATOM     21  C   UNL     1       0.007  -1.626  -0.404  1.00  0.00     0.007 A 
ATOM     22  C   UNL     1      -1.347  -1.430  -0.127  1.00  0.00     0.001 A 
ATOM     23  C   UNL     1      -1.149   0.868  -0.812  1.00  0.00     0.047 A 
ATOM     24  C   UNL     1      -1.927  -0.183  -0.335  1.00  0.00     0.004 A 
ENDBRANCH  17  18
ENDBRANCH  16  17
ENDBRANCH  14  16
ENDBRANCH   9  14
ENDBRANCH   6   8
ENDBRANCH   5   6
ENDBRANCH   4   5
ENDBRANCH   3   4
ENDBRANCH   2   3
ENDBRANCH   1   2
BRANCH   1  25
ATOM     25  C   UNL     1      -0.828   8.968   5.893  1.00  0.00     0.188 C 
BRANCH  25  26
ATOM     26  O   UNL     1      -0.249   8.525   7.121  1.00  0.00    -0.376 OA
BRANCH  26  27
ATOM     27  C   UNL     1       0.350   9.579   7.887  1.00  0.00     0.202 C 
BRANCH  27  28
ATOM     28  C   UNL     1       1.635  10.150   7.270  1.00  0.00     0.261 C 
BRANCH  28  29
ATOM     29  O   UNL     1       2.684   9.191   7.472  1.00  0.00    -0.460 OA
BRANCH  29  30
ATOM     30  C   UNL     1       2.975   8.430   6.392  1.00  0.00     0.338 C 
ATOM     31  O   UNL     1       3.030   8.815   5.239  1.00  0.00    -0.246 OA
BRANCH  30  32
ATOM     32  C   UNL     1       2.968   7.001   6.808  1.00  0.00     0.060 A 
ATOM     33  C   UNL     1       3.030   6.034   5.815  1.00  0.00     0.016 A 
ATOM     34  C   UNL     1       2.674   6.604   8.117  1.00  0.00     0.016 A 
ATOM     35  C   UNL     1       2.645   4.718   6.104  1.00  0.00     0.010 A 
ATOM     36  C   UNL     1       2.258   5.294   8.384  1.00  0.00     0.010 A 
ATOM     37  C   UNL     1       2.145   4.348   7.358  1.00  0.00    -0.014 A 
BRANCH  37  38
ATOM     38  C   UNL     1       1.479   3.067   7.718  1.00  0.00     0.031 A 
ATOM     39  C   UNL     1       2.300   1.886   8.118  1.00  0.00     0.074 A 
ATOM     40  C   UNL     1       0.141   2.819   7.801  1.00  0.00     0.049 A 
ATOM     41  N   UNL     1       1.840   0.671   8.201  1.00  0.00    -0.248 NA
ATOM     42  C   UNL     1       3.749   1.962   8.288  1.00  0.00     0.031 C 
ATOM     43  C   UNL     1      -0.450   1.980   8.843  1.00  0.00     0.029 A 
ATOM     44  N   UNL     1      -0.947   3.091   6.973  1.00  0.00    -0.354 N 
ATOM     45  C   UNL     1       2.801  -0.054   8.853  1.00  0.00     0.074 A 
ATOM     46  C   UNL     1       4.011   0.688   8.600  1.00  0.00     0.031 C 
ATOM     47  C   UNL     1      -1.703   1.659   8.507  1.00  0.00     0.029 A 
ATOM     48  C   UNL     1      -1.998   2.193   7.189  1.00  0.00     0.049 A 
ATOM     49  H   UNL     1      -0.973   3.825   6.317  1.00  0.00     0.167 HD
ATOM     50  C   UNL     1       2.432  -1.003   9.763  1.00  0.00     0.037 A 
ATOM     51  C   UNL     1      -2.910   1.702   6.299  1.00  0.00     0.037 A 
ATOM     52  C   UNL     1       1.002  -1.368   9.690  1.00  0.00     0.049 A 
ATOM     53  C   UNL     1      -3.046   0.199   6.375  1.00  0.00     0.074 A 
ATOM     54  C   UNL     1      -0.057  -1.243  10.578  1.00  0.00     0.029 A 
ATOM     55  N   UNL     1       0.444  -1.871   8.518  1.00  0.00    -0.354 N 
ATOM     56  N   UNL     1      -2.436  -0.503   7.281  1.00  0.00    -0.248 NA
ATOM     57  C   UNL     1      -3.708  -0.653   5.381  1.00  0.00     0.031 C 
ATOM     58  C   UNL     1      -1.226  -1.775   9.973  1.00  0.00     0.029 A 
ATOM     59  C   UNL     1      -0.897  -2.185   8.695  1.00  0.00     0.049 A 
ATOM     60  H   UNL     1       0.936  -1.989   7.674  1.00  0.00     0.167 HD
ATOM     61  C   UNL     1      -2.450  -1.815   6.924  1.00  0.00     0.074 A 
ATOM     62  C   UNL     1      -3.287  -1.877   5.746  1.00  0.00     0.031 C 
ATOM     63  C   UNL     1      -1.690  -2.719   7.594  1.00  0.00     0.037 A 
BRANCH  50  64
ATOM     64  C   UNL     1       3.287  -1.394  10.980  1.00  0.00     0.057 A 
ATOM     65  C   UNL     1       2.749  -2.247  11.971  1.00  0.00     0.134 A 
ATOM     66  C   UNL     1       4.554  -0.878  11.328  1.00  0.00     0.134 A 
ATOM     67  F   UNL     1       1.612  -2.928  11.776  1.00  0.00    -0.206 F 
ATOM     68  C   UNL     1       3.346  -2.451  13.225  1.00  0.00     0.040 A 
ATOM     69  C   UNL     1       5.178  -1.104  12.563  1.00  0.00     0.040 A 
ATOM     70  F   UNL     1       5.287  -0.115  10.518  1.00  0.00    -0.206 F 
ATOM     71  C   UNL     1       4.559  -1.864  13.534  1.00  0.00     0.006 A 
ENDBRANCH  50  64
BRANCH  51  72
ATOM     72  C   UNL     1      -3.338   2.510   5.134  1.00  0.00     0.057 A 
ATOM     73  C   UNL     1      -4.018   3.717   5.365  1.00  0.00     0.134 A 
ATOM     74  C   UNL     1      -3.092   2.188   3.798  1.00  0.00     0.134 A 
ATOM     75  F   UNL     1      -4.393   4.047   6.611  1.00  0.00    -0.206 F 
ATOM     76  C   UNL     1      -4.320   4.617   4.340  1.00  0.00     0.040 A 
ATOM     77  C   UNL     1      -3.442   3.054   2.752  1.00  0.00     0.040 A 
ATOM     78  F   UNL     1      -2.487   1.039   3.470  1.00  0.00    -0.206 F 
ATOM     79  C   UNL     1      -4.016   4.292   3.024  1.00  0.00     0.006 A 
ENDBRANCH  51  72
BRANCH  63  80
ATOM     80  C   UNL     1      -1.676  -4.171   7.259  1.00  0.00     0.057 A 
ATOM     81  C   UNL     1      -2.849  -4.905   7.029  1.00  0.00     0.134 A 
ATOM     82  C   UNL     1      -0.478  -4.902   7.277  1.00  0.00     0.134 A 
ATOM     83  F   UNL     1      -4.051  -4.309   7.037  1.00  0.00    -0.206 F 
ATOM     84  C   UNL     1      -2.828  -6.285   6.806  1.00  0.00     0.040 A 
ATOM     85  C   UNL     1      -0.448  -6.286   7.094  1.00  0.00     0.040 A 
ATOM     86  F   UNL     1       0.704  -4.293   7.460  1.00  0.00    -0.206 F 
ATOM     87  C   UNL     1      -1.626  -6.982   6.853  1.00  0.00     0.006 A 
ENDBRANCH  63  80
ENDBRANCH  37  38
ENDBRANCH  30  32
ENDBRANCH  29  30
ENDBRANCH  28  29
ENDBRANCH  27  28
ENDBRANCH  26  27
ENDBRANCH  25  26
ENDBRANCH   1  25
TORSDOF 21
