REMARK SMILES O=C(OCCOCCOCCOC(=O)[C@@H]1CCCN(C(=O)[C@H]2CC=CCC2)C1)c1ccc(-c2c3nc(c(-c4c(F)cccc4F)c4ccc([nH]4)c(-c4c(F)cccc4F)c4nc(c(-c5c(F)cccc5F)c5ccc2[nH]5)C=C4)C=C3)cc1
REMARK SMILES IDX 7 1 6 2 5 3 4 4 3 5 2 6 1 7 29 8 30 9 82 10 31 11 81 12
REMARK SMILES IDX 32 13 33 14 34 15 75 16 35 17 80 18 74 19 76 20 36 21 79 22
REMARK SMILES IDX 73 23 72 24 37 26 63 27 46 28 62 29 47 30 50 31 61 32 77 33
REMARK SMILES IDX 48 34 49 35 60 37 78 38 51 39 38 40 39 41 44 42 40 43 41 44
REMARK SMILES IDX 43 45 45 46 42 47 64 48 65 49 70 50 66 51 67 52 69 53 71 54
REMARK SMILES IDX 68 55 52 56 53 57 58 58 54 59 55 60 57 61 59 62 56 63 8 64
REMARK SMILES IDX 9 65 10 66 11 67 12 68 13 69 14 70 15 71 16 72 28 73 17 74
REMARK SMILES IDX 19 75 18 76 20 77 21 78 22 79 23 80 27 81 24 82 26 83 25 84
REMARK H PARENT 76 25 50 36
REMARK Flexibility Score: inf
ROOT
ATOM      1  C   UNL     1       3.175   2.373  -0.932  1.00  0.00     0.188 C 
ENDROOT
BRANCH   1   2
ATOM      2  O   UNL     1       4.537   2.523  -0.537  1.00  0.00    -0.376 OA
BRANCH   2   3
ATOM      3  C   UNL     1       5.535   2.034  -1.435  1.00  0.00     0.202 C 
BRANCH   3   4
ATOM      4  C   UNL     1       5.434   0.554  -1.811  1.00  0.00     0.261 C 
BRANCH   4   5
ATOM      5  O   UNL     1       5.743  -0.211  -0.651  1.00  0.00    -0.460 OA
BRANCH   5   6
ATOM      6  C   UNL     1       4.748  -0.185   0.257  1.00  0.00     0.338 C 
ATOM      7  O   UNL     1       3.566  -0.044   0.057  1.00  0.00    -0.246 OA
BRANCH   6   8
ATOM      8  C   UNL     1       5.323  -0.398   1.572  1.00  0.00     0.060 A 
ATOM      9  C   UNL     1       6.543   0.122   1.962  1.00  0.00     0.016 A 
ATOM     10  C   UNL     1       4.548  -1.113   2.456  1.00  0.00     0.016 A 
ATOM     11  C   UNL     1       7.006  -0.184   3.230  1.00  0.00     0.010 A 
ATOM     12  C   UNL     1       4.975  -1.431   3.705  1.00  0.00     0.010 A 
ATOM     13  C   UNL     1       6.224  -0.990   4.067  1.00  0.00    -0.014 A 
BRANCH  13  14
ATOM     14  C   UNL     1       6.632  -1.404   5.387  1.00  0.00     0.031 A 
ATOM     15  C   UNL     1       6.994  -2.817   5.592  1.00  0.00     0.074 A 
ATOM     16  C   UNL     1       6.388  -0.550   6.385  1.00  0.00     0.049 A 
ATOM     17  N   UNL     1       7.359  -3.382   6.696  1.00  0.00    -0.248 NA
ATOM     18  C   UNL     1       6.780  -3.748   4.464  1.00  0.00     0.031 C 
ATOM     19  C   UNL     1       5.523   0.605   6.256  1.00  0.00     0.029 A 
ATOM     20  N   UNL     1       6.796  -0.484   7.666  1.00  0.00    -0.354 N 
ATOM     21  C   UNL     1       7.479  -4.718   6.379  1.00  0.00     0.074 A 
ATOM     22  C   UNL     1       6.922  -4.919   5.065  1.00  0.00     0.031 C 
ATOM     23  C   UNL     1       5.637   1.410   7.312  1.00  0.00     0.029 A 
ATOM     24  C   UNL     1       6.515   0.736   8.243  1.00  0.00     0.049 A 
ATOM     25  H   UNL     1       7.244  -1.223   8.137  1.00  0.00     0.167 HD
ATOM     26  C   UNL     1       8.158  -5.630   7.102  1.00  0.00     0.037 A 
ATOM     27  C   UNL     1       6.964   1.219   9.407  1.00  0.00     0.037 A 
ATOM     28  C   UNL     1       8.754  -5.255   8.356  1.00  0.00     0.049 A 
ATOM     29  C   UNL     1       7.843   0.258  10.141  1.00  0.00     0.074 A 
ATOM     30  C   UNL     1       9.569  -5.979   9.194  1.00  0.00     0.029 A 
ATOM     31  N   UNL     1       8.604  -3.985   8.930  1.00  0.00    -0.354 N 
ATOM     32  N   UNL     1       8.133  -0.983   9.805  1.00  0.00    -0.248 NA
ATOM     33  C   UNL     1       8.451   0.713  11.382  1.00  0.00     0.031 C 
ATOM     34  C   UNL     1       9.914  -5.145  10.267  1.00  0.00     0.029 A 
ATOM     35  C   UNL     1       9.335  -3.890  10.095  1.00  0.00     0.049 A 
ATOM     36  H   UNL     1       8.054  -3.261   8.554  1.00  0.00     0.167 HD
ATOM     37  C   UNL     1       8.945  -1.477  10.795  1.00  0.00     0.074 A 
ATOM     38  C   UNL     1       9.140  -0.369  11.726  1.00  0.00     0.031 C 
ATOM     39  C   UNL     1       9.463  -2.723  10.945  1.00  0.00     0.037 A 
BRANCH  26  40
ATOM     40  C   UNL     1       8.364  -6.966   6.458  1.00  0.00     0.057 A 
ATOM     41  C   UNL     1       9.082  -7.086   5.252  1.00  0.00     0.134 A 
ATOM     42  C   UNL     1       7.781  -8.128   6.968  1.00  0.00     0.134 A 
ATOM     43  F   UNL     1       9.646  -6.007   4.686  1.00  0.00    -0.206 F 
ATOM     44  C   UNL     1       9.163  -8.292   4.556  1.00  0.00     0.040 A 
ATOM     45  C   UNL     1       7.886  -9.351   6.297  1.00  0.00     0.040 A 
ATOM     46  F   UNL     1       7.072  -8.092   8.105  1.00  0.00    -0.206 F 
ATOM     47  C   UNL     1       8.565  -9.432   5.081  1.00  0.00     0.006 A 
ENDBRANCH  26  40
BRANCH  27  48
ATOM     48  C   UNL     1       6.647   2.604   9.829  1.00  0.00     0.057 A 
ATOM     49  C   UNL     1       7.638   3.589   9.906  1.00  0.00     0.134 A 
ATOM     50  C   UNL     1       5.327   3.015  10.068  1.00  0.00     0.134 A 
ATOM     51  F   UNL     1       8.919   3.280   9.655  1.00  0.00    -0.206 F 
ATOM     52  C   UNL     1       7.337   4.914  10.238  1.00  0.00     0.040 A 
ATOM     53  C   UNL     1       5.006   4.340  10.369  1.00  0.00     0.040 A 
ATOM     54  F   UNL     1       4.316   2.139   9.960  1.00  0.00    -0.206 F 
ATOM     55  C   UNL     1       6.016   5.293  10.467  1.00  0.00     0.006 A 
ENDBRANCH  27  48
BRANCH  39  56
ATOM     56  C   UNL     1      10.294  -2.890  12.166  1.00  0.00     0.057 A 
ATOM     57  C   UNL     1       9.707  -2.980  13.432  1.00  0.00     0.134 A 
ATOM     58  C   UNL     1      11.685  -2.973  12.062  1.00  0.00     0.134 A 
ATOM     59  F   UNL     1       8.376  -2.877  13.575  1.00  0.00    -0.206 F 
ATOM     60  C   UNL     1      10.489  -3.122  14.571  1.00  0.00     0.040 A 
ATOM     61  C   UNL     1      12.474  -3.151  13.191  1.00  0.00     0.040 A 
ATOM     62  F   UNL     1      12.286  -2.895  10.865  1.00  0.00    -0.206 F 
ATOM     63  C   UNL     1      11.876  -3.216  14.449  1.00  0.00     0.006 A 
ENDBRANCH  39  56
ENDBRANCH  13  14
ENDBRANCH   6   8
ENDBRANCH   5   6
ENDBRANCH   4   5
ENDBRANCH   3   4
ENDBRANCH   2   3
ENDBRANCH   1   2
BRANCH   1  64
ATOM     64  C   UNL     1       2.342   3.614  -1.269  1.00  0.00     0.188 C 
BRANCH  64  65
ATOM     65  O   UNL     1       2.966   4.834  -1.612  1.00  0.00    -0.376 OA
BRANCH  65  66
ATOM     66  C   UNL     1       4.143   5.200  -0.914  1.00  0.00     0.202 C 
BRANCH  66  67
ATOM     67  C   UNL     1       4.131   5.273   0.626  1.00  0.00     0.261 C 
BRANCH  67  68
ATOM     68  O   UNL     1       3.500   4.181   1.340  1.00  0.00    -0.463 OA
BRANCH  68  69
ATOM     69  C   UNL     1       2.220   4.364   1.770  1.00  0.00     0.310 C 
ATOM     70  O   UNL     1       1.555   5.363   1.518  1.00  0.00    -0.252 OA
BRANCH  69  71
ATOM     71  C   UNL     1       1.714   3.255   2.709  1.00  0.00     0.119 C 
ATOM     72  C   UNL     1       2.749   3.065   3.807  1.00  0.00     0.019 C 
ATOM     73  C   UNL     1       1.063   1.920   2.119  1.00  0.00     0.134 C 
ATOM     74  C   UNL     1       3.463   1.763   3.547  1.00  0.00     0.022 C 
ATOM     75  N   UNL     1       1.719   0.563   2.358  1.00  0.00    -0.342 N 
ATOM     76  C   UNL     1       2.440   0.615   3.627  1.00  0.00     0.119 C 
BRANCH  75  77
ATOM     77  C   UNL     1       1.087  -0.597   1.800  1.00  0.00     0.226 C 
ATOM     78  O   UNL     1      -0.130  -0.442   1.554  1.00  0.00    -0.275 OA
BRANCH  77  79
ATOM     79  C   UNL     1       1.663  -2.170   1.365  1.00  0.00     0.083 C 
ATOM     80  C   UNL     1       2.432  -2.523   0.033  1.00  0.00     0.040 C 
ATOM     81  C   UNL     1       1.900  -3.344   2.376  1.00  0.00     0.018 C 
ATOM     82  C   UNL     1       3.814  -3.133   0.162  1.00  0.00    -0.030 C 
ATOM     83  C   UNL     1       3.265  -4.097   2.381  1.00  0.00     0.028 C 
ATOM     84  C   UNL     1       4.186  -3.850   1.228  1.00  0.00    -0.031 C 
ENDBRANCH  77  79
ENDBRANCH  75  77
ENDBRANCH  69  71
ENDBRANCH  68  69
ENDBRANCH  67  68
ENDBRANCH  66  67
ENDBRANCH  65  66
ENDBRANCH  64  65
ENDBRANCH   1  64
TORSDOF 19
