REMARK SMILES C[C@@H](C(=O)OCCOCCOCCOC(=O)c1ccc(-c2c3nc(c(-c4c(F)cccc4F)c4ccc([nH]4)c(-c4c(F)cccc4F)c4nc(c(-c5c(F)cccc5F)c5ccc2[nH]5)C=C4)C=C3)cc1)c1ccc(-c2cccc(OC(=O)Nc3ccccc3)c2)c(F)c1
REMARK SMILES IDX 8 1 7 2 6 3 5 4 3 5 4 6 2 7 1 8 71 9 72 10 93 11 73 12 91 13
REMARK SMILES IDX 74 14 92 15 75 16 76 17 90 18 77 19 79 20 78 21 80 22 81 23
REMARK SMILES IDX 82 24 83 25 84 27 85 28 89 29 86 30 88 31 87 32 9 33 10 34
REMARK SMILES IDX 11 35 12 36 13 37 14 38 15 39 16 40 17 41 18 42 70 43 19 44
REMARK SMILES IDX 69 45 20 46 21 47 22 48 63 49 23 50 68 51 62 52 64 53 24 54
REMARK SMILES IDX 67 55 61 56 60 57 25 59 51 60 34 61 50 62 35 63 38 64 49 65
REMARK SMILES IDX 65 66 36 67 37 68 48 70 66 71 39 72 26 73 27 74 32 75 28 76
REMARK SMILES IDX 29 77 31 78 33 79 30 80 52 81 53 82 58 83 54 84 55 85 57 86
REMARK SMILES IDX 59 87 56 88 40 89 41 90 46 91 42 92 43 93 45 94 47 95 44 96
REMARK H PARENT 83 26 64 58 38 69
REMARK Flexibility Score: inf
ROOT
ATOM      1  O   UNL     1       1.898   4.208   2.677  1.00  0.00    -0.376 OA
ENDROOT
BRANCH   1   2
ATOM      2  C   UNL     1       2.961   3.368   3.117  1.00  0.00     0.202 C 
BRANCH   2   3
ATOM      3  C   UNL     1       2.613   1.996   3.702  1.00  0.00     0.261 C 
BRANCH   3   4
ATOM      4  O   UNL     1       2.170   1.059   2.696  1.00  0.00    -0.463 OA
BRANCH   4   5
ATOM      5  C   UNL     1       1.170   0.214   3.068  1.00  0.00     0.313 C 
ATOM      6  O   UNL     1       0.666   0.218   4.187  1.00  0.00    -0.252 OA
BRANCH   5   7
ATOM      7  C   UNL     1       0.708  -0.750   1.960  1.00  0.00     0.126 C 
ATOM      8  C   UNL     1       1.458  -0.726   0.626  1.00  0.00     0.025 C 
BRANCH   7   9
ATOM      9  C   UNL     1      -0.798  -0.693   1.714  1.00  0.00    -0.031 A 
ATOM     10  C   UNL     1      -1.519   0.508   1.761  1.00  0.00     0.005 A 
ATOM     11  C   UNL     1      -1.505  -1.869   1.435  1.00  0.00     0.044 A 
ATOM     12  C   UNL     1      -2.909   0.527   1.613  1.00  0.00     0.012 A 
ATOM     13  C   UNL     1      -2.894  -1.844   1.290  1.00  0.00     0.131 A 
ATOM     14  C   UNL     1      -3.624  -0.655   1.406  1.00  0.00     0.018 A 
ATOM     15  F   UNL     1      -3.529  -3.007   1.083  1.00  0.00    -0.206 F 
BRANCH  14  16
ATOM     16  C   UNL     1      -5.088  -0.650   1.473  1.00  0.00    -0.012 A 
ATOM     17  C   UNL     1      -5.890  -0.029   0.507  1.00  0.00     0.009 A 
ATOM     18  C   UNL     1      -5.707  -1.230   2.594  1.00  0.00     0.056 A 
ATOM     19  C   UNL     1      -7.280  -0.005   0.651  1.00  0.00     0.004 A 
ATOM     20  C   UNL     1      -7.086  -1.183   2.751  1.00  0.00     0.133 A 
ATOM     21  C   UNL     1      -7.878  -0.587   1.770  1.00  0.00     0.047 A 
BRANCH  20  22
ATOM     22  O   UNL     1      -7.772  -1.699   3.879  1.00  0.00    -0.410 OA
BRANCH  22  23
ATOM     23  C   UNL     1      -7.181  -2.110   5.073  1.00  0.00     0.417 C 
ATOM     24  O   UNL     1      -5.974  -2.130   5.310  1.00  0.00    -0.224 OA
ATOM     25  N   UNL     1      -8.047  -2.428   6.087  1.00  0.00    -0.291 N 
ATOM     26  H   UNL     1      -7.607  -2.635   6.944  1.00  0.00     0.173 HD
BRANCH  25  27
ATOM     27  C   UNL     1      -9.445  -2.512   6.123  1.00  0.00     0.044 A 
ATOM     28  C   UNL     1     -10.041  -2.473   7.391  1.00  0.00     0.026 A 
ATOM     29  C   UNL     1     -10.258  -2.615   4.995  1.00  0.00     0.026 A 
ATOM     30  C   UNL     1     -11.431  -2.479   7.524  1.00  0.00     0.002 A 
ATOM     31  C   UNL     1     -11.649  -2.639   5.130  1.00  0.00     0.002 A 
ATOM     32  C   UNL     1     -12.235  -2.559   6.392  1.00  0.00     0.000 A 
ENDBRANCH  25  27
ENDBRANCH  22  23
ENDBRANCH  20  22
ENDBRANCH  14  16
ENDBRANCH   7   9
ENDBRANCH   5   7
ENDBRANCH   4   5
ENDBRANCH   3   4
ENDBRANCH   2   3
ENDBRANCH   1   2
BRANCH   1  33
ATOM     33  C   UNL     1       0.884   3.652   1.863  1.00  0.00     0.188 C 
BRANCH  33  34
ATOM     34  C   UNL     1       1.268   2.916   0.570  1.00  0.00     0.188 C 
BRANCH  34  35
ATOM     35  O   UNL     1       2.509   3.114  -0.077  1.00  0.00    -0.376 OA
BRANCH  35  36
ATOM     36  C   UNL     1       3.032   4.422  -0.201  1.00  0.00     0.202 C 
BRANCH  36  37
ATOM     37  C   UNL     1       2.225   5.503  -0.926  1.00  0.00     0.261 C 
BRANCH  37  38
ATOM     38  O   UNL     1       0.808   5.444  -0.735  1.00  0.00    -0.460 OA
BRANCH  38  39
ATOM     39  C   UNL     1       0.116   4.889  -1.761  1.00  0.00     0.338 C 
ATOM     40  O   UNL     1       0.560   4.452  -2.807  1.00  0.00    -0.246 OA
BRANCH  39  41
ATOM     41  C   UNL     1      -1.296   4.740  -1.355  1.00  0.00     0.060 A 
ATOM     42  C   UNL     1      -1.888   3.474  -1.452  1.00  0.00     0.016 A 
ATOM     43  C   UNL     1      -2.038   5.838  -0.915  1.00  0.00     0.016 A 
ATOM     44  C   UNL     1      -3.233   3.307  -1.128  1.00  0.00     0.010 A 
ATOM     45  C   UNL     1      -3.393   5.675  -0.616  1.00  0.00     0.010 A 
ATOM     46  C   UNL     1      -4.002   4.415  -0.746  1.00  0.00    -0.014 A 
BRANCH  46  47
ATOM     47  C   UNL     1      -5.477   4.293  -0.665  1.00  0.00     0.031 A 
ATOM     48  C   UNL     1      -6.286   4.579  -1.897  1.00  0.00     0.074 A 
ATOM     49  C   UNL     1      -6.088   3.927   0.475  1.00  0.00     0.049 A 
ATOM     50  N   UNL     1      -7.583   4.557  -2.062  1.00  0.00    -0.248 NA
ATOM     51  C   UNL     1      -5.528   4.946  -3.105  1.00  0.00     0.031 C 
ATOM     52  C   UNL     1      -5.408   3.602   1.724  1.00  0.00     0.029 A 
ATOM     53  N   UNL     1      -7.420   3.757   0.761  1.00  0.00    -0.354 N 
ATOM     54  C   UNL     1      -7.798   4.929  -3.383  1.00  0.00     0.074 A 
ATOM     55  C   UNL     1      -6.501   5.173  -3.974  1.00  0.00     0.031 C 
ATOM     56  C   UNL     1      -6.324   3.234   2.636  1.00  0.00     0.029 A 
ATOM     57  C   UNL     1      -7.661   3.359   2.055  1.00  0.00     0.049 A 
ATOM     58  H   UNL     1      -8.136   3.907   0.102  1.00  0.00     0.167 HD
ATOM     59  C   UNL     1      -8.973   5.064  -4.041  1.00  0.00     0.037 A 
ATOM     60  C   UNL     1      -8.828   3.136   2.695  1.00  0.00     0.037 A 
ATOM     61  C   UNL     1     -10.264   4.835  -3.450  1.00  0.00     0.049 A 
ATOM     62  C   UNL     1     -10.123   3.325   1.940  1.00  0.00     0.074 A 
ATOM     63  C   UNL     1     -11.513   4.958  -4.033  1.00  0.00     0.029 A 
ATOM     64  N   UNL     1     -10.471   4.443  -2.136  1.00  0.00    -0.354 N 
ATOM     65  N   UNL     1     -10.313   3.623   0.676  1.00  0.00    -0.248 NA
ATOM     66  C   UNL     1     -11.369   3.151   2.703  1.00  0.00     0.031 C 
ATOM     67  C   UNL     1     -12.478   4.682  -3.059  1.00  0.00     0.029 A 
ATOM     68  C   UNL     1     -11.828   4.340  -1.884  1.00  0.00     0.049 A 
ATOM     69  H   UNL     1      -9.759   4.264  -1.481  1.00  0.00     0.167 HD
ATOM     70  C   UNL     1     -11.691   3.650   0.492  1.00  0.00     0.074 A 
ATOM     71  C   UNL     1     -12.290   3.297   1.761  1.00  0.00     0.031 C 
ATOM     72  C   UNL     1     -12.403   3.956  -0.621  1.00  0.00     0.037 A 
BRANCH  59  73
ATOM     73  C   UNL     1      -8.912   5.528  -5.464  1.00  0.00     0.057 A 
ATOM     74  C   UNL     1      -8.467   4.694  -6.497  1.00  0.00     0.134 A 
ATOM     75  C   UNL     1      -9.320   6.824  -5.807  1.00  0.00     0.134 A 
ATOM     76  F   UNL     1      -8.043   3.449  -6.231  1.00  0.00    -0.206 F 
ATOM     77  C   UNL     1      -8.411   5.139  -7.819  1.00  0.00     0.040 A 
ATOM     78  C   UNL     1      -9.292   7.271  -7.128  1.00  0.00     0.040 A 
ATOM     79  F   UNL     1      -9.756   7.672  -4.864  1.00  0.00    -0.206 F 
ATOM     80  C   UNL     1      -8.831   6.429  -8.138  1.00  0.00     0.006 A 
ENDBRANCH  59  73
BRANCH  60  81
ATOM     81  C   UNL     1      -8.843   2.720   4.126  1.00  0.00     0.057 A 
ATOM     82  C   UNL     1      -9.422   1.510   4.525  1.00  0.00     0.134 A 
ATOM     83  C   UNL     1      -8.331   3.541   5.140  1.00  0.00     0.134 A 
ATOM     84  F   UNL     1      -9.991   0.700   3.621  1.00  0.00    -0.206 F 
ATOM     85  C   UNL     1      -9.503   1.141   5.868  1.00  0.00     0.040 A 
ATOM     86  C   UNL     1      -8.365   3.161   6.484  1.00  0.00     0.040 A 
ATOM     87  F   UNL     1      -7.791   4.732   4.842  1.00  0.00    -0.206 F 
ATOM     88  C   UNL     1      -8.958   1.958   6.852  1.00  0.00     0.006 A 
ENDBRANCH  60  81
BRANCH  72  89
ATOM     89  C   UNL     1     -13.901   3.886  -0.527  1.00  0.00     0.057 A 
ATOM     90  C   UNL     1     -14.642   4.831   0.194  1.00  0.00     0.134 A 
ATOM     91  C   UNL     1     -14.613   2.889  -1.206  1.00  0.00     0.134 A 
ATOM     92  F   UNL     1     -14.021   5.806   0.875  1.00  0.00    -0.206 F 
ATOM     93  C   UNL     1     -16.035   4.773   0.256  1.00  0.00     0.040 A 
ATOM     94  C   UNL     1     -16.008   2.837  -1.175  1.00  0.00     0.040 A 
ATOM     95  F   UNL     1     -13.966   1.959  -1.925  1.00  0.00    -0.206 F 
ATOM     96  C   UNL     1     -16.722   3.778  -0.436  1.00  0.00     0.006 A 
ENDBRANCH  72  89
ENDBRANCH  46  47
ENDBRANCH  39  41
ENDBRANCH  38  39
ENDBRANCH  37  38
ENDBRANCH  36  37
ENDBRANCH  35  36
ENDBRANCH  34  35
ENDBRANCH  33  34
ENDBRANCH   1  33
TORSDOF 22
