REMARK SMILES O=C(OCCOCCOCCOC(=O)c1cc(/C=C/c2cc(O)cc(O)c2)ccc1O)c1ccc(-c2c3nc(c(-c4c(F)cccc4F)c4ccc([nH]4)c(-c4c(F)cccc4F)c4nc(c(-c5c(F)cccc5F)c5ccc2[nH]5)C=C4)C=C3)cc1
REMARK SMILES IDX 8 1 7 2 6 3 5 4 4 5 3 6 2 7 1 8 32 9 33 10 85 11 34 12 84 13
REMARK SMILES IDX 35 14 36 15 37 16 78 17 38 18 83 19 77 20 79 21 39 22 82 23
REMARK SMILES IDX 76 24 75 25 40 27 66 28 49 29 65 30 50 31 53 32 64 33 80 34
REMARK SMILES IDX 51 35 52 36 63 38 81 39 54 40 41 41 42 42 47 43 43 44 44 45
REMARK SMILES IDX 46 46 48 47 45 48 67 49 68 50 73 51 69 52 70 53 72 54 74 55
REMARK SMILES IDX 71 56 55 57 56 58 61 59 57 60 58 61 60 62 62 63 59 64 9 65
REMARK SMILES IDX 10 66 11 67 12 68 13 69 14 70 15 71 16 72 30 73 17 74 29 75
REMARK SMILES IDX 28 76 31 77 18 79 19 80 20 81 21 82 27 83 22 84 25 85 24 86
REMARK SMILES IDX 23 87 26 89
REMARK H PARENT 79 26 53 37 31 78 23 88 26 90
REMARK Flexibility Score: inf
ROOT
ATOM      1  C   UNL     1       1.927  -3.289   0.494  1.00  0.00     0.188 C 
ENDROOT
BRANCH   1   2
ATOM      2  C   UNL     1       2.453  -1.991   1.112  1.00  0.00     0.188 C 
BRANCH   2   3
ATOM      3  O   UNL     1       3.714  -1.627   0.534  1.00  0.00    -0.376 OA
BRANCH   3   4
ATOM      4  C   UNL     1       4.593  -0.964   1.448  1.00  0.00     0.202 C 
BRANCH   4   5
ATOM      5  C   UNL     1       4.445   0.561   1.451  1.00  0.00     0.261 C 
BRANCH   5   6
ATOM      6  O   UNL     1       3.078   0.968   1.278  1.00  0.00    -0.460 OA
BRANCH   6   7
ATOM      7  C   UNL     1       2.453   1.308   0.123  1.00  0.00     0.338 C 
ATOM      8  O   UNL     1       1.269   1.644   0.169  1.00  0.00    -0.246 OA
BRANCH   7   9
ATOM      9  C   UNL     1       3.131   1.362  -1.209  1.00  0.00     0.060 A 
ATOM     10  C   UNL     1       4.223   0.586  -1.602  1.00  0.00     0.016 A 
ATOM     11  C   UNL     1       2.575   2.237  -2.158  1.00  0.00     0.016 A 
ATOM     12  C   UNL     1       4.822   0.760  -2.847  1.00  0.00     0.010 A 
ATOM     13  C   UNL     1       3.119   2.358  -3.438  1.00  0.00     0.010 A 
ATOM     14  C   UNL     1       4.281   1.654  -3.768  1.00  0.00    -0.014 A 
BRANCH  14  15
ATOM     15  C   UNL     1       5.006   1.940  -5.022  1.00  0.00     0.031 A 
ATOM     16  C   UNL     1       5.681   3.267  -5.175  1.00  0.00     0.074 A 
ATOM     17  C   UNL     1       5.120   1.002  -5.977  1.00  0.00     0.049 A 
ATOM     18  N   UNL     1       6.308   3.762  -6.208  1.00  0.00    -0.248 NA
ATOM     19  C   UNL     1       5.665   4.148  -3.996  1.00  0.00     0.031 C 
ATOM     20  C   UNL     1       4.608  -0.362  -5.877  1.00  0.00     0.029 A 
ATOM     21  N   UNL     1       5.707   1.051  -7.214  1.00  0.00    -0.354 N 
ATOM     22  C   UNL     1       6.755   5.013  -5.807  1.00  0.00     0.074 A 
ATOM     23  C   UNL     1       6.302   5.216  -4.449  1.00  0.00     0.031 C 
ATOM     24  C   UNL     1       4.885  -1.014  -7.015  1.00  0.00     0.029 A 
ATOM     25  C   UNL     1       5.526  -0.097  -7.944  1.00  0.00     0.049 A 
ATOM     26  H   UNL     1       6.207   1.831  -7.546  1.00  0.00     0.167 HD
ATOM     27  C   UNL     1       7.490   5.905  -6.509  1.00  0.00     0.037 A 
ATOM     28  C   UNL     1       5.802  -0.366  -9.233  1.00  0.00     0.037 A 
ATOM     29  C   UNL     1       7.928   5.689  -7.860  1.00  0.00     0.049 A 
ATOM     30  C   UNL     1       6.498   0.685 -10.044  1.00  0.00     0.074 A 
ATOM     31  C   UNL     1       8.655   6.529  -8.681  1.00  0.00     0.029 A 
ATOM     32  N   UNL     1       7.665   4.538  -8.592  1.00  0.00    -0.354 N 
ATOM     33  N   UNL     1       6.896   1.876  -9.668  1.00  0.00    -0.248 NA
ATOM     34  C   UNL     1       6.794   0.360 -11.444  1.00  0.00     0.031 C 
ATOM     35  C   UNL     1       8.799   5.901  -9.924  1.00  0.00     0.029 A 
ATOM     36  C   UNL     1       8.193   4.655  -9.865  1.00  0.00     0.049 A 
ATOM     37  H   UNL     1       7.174   3.754  -8.254  1.00  0.00     0.167 HD
ATOM     38  C   UNL     1       7.513   2.438 -10.774  1.00  0.00     0.074 A 
ATOM     39  C   UNL     1       7.436   1.453 -11.837  1.00  0.00     0.031 C 
ATOM     40  C   UNL     1       8.098   3.654 -10.898  1.00  0.00     0.037 A 
BRANCH  27  41
ATOM     41  C   UNL     1       7.802   7.199  -5.822  1.00  0.00     0.057 A 
ATOM     42  C   UNL     1       8.734   7.279  -4.778  1.00  0.00     0.134 A 
ATOM     43  C   UNL     1       7.110   8.367  -6.163  1.00  0.00     0.134 A 
ATOM     44  F   UNL     1       9.406   6.187  -4.382  1.00  0.00    -0.206 F 
ATOM     45  C   UNL     1       8.939   8.467  -4.074  1.00  0.00     0.040 A 
ATOM     46  C   UNL     1       7.322   9.565  -5.481  1.00  0.00     0.040 A 
ATOM     47  F   UNL     1       6.199   8.355  -7.147  1.00  0.00    -0.206 F 
ATOM     48  C   UNL     1       8.231   9.614  -4.425  1.00  0.00     0.006 A 
ENDBRANCH  27  41
BRANCH  28  49
ATOM     49  C   UNL     1       5.366  -1.657  -9.822  1.00  0.00     0.057 A 
ATOM     50  C   UNL     1       6.281  -2.658 -10.160  1.00  0.00     0.134 A 
ATOM     51  C   UNL     1       4.006  -1.933 -10.024  1.00  0.00     0.134 A 
ATOM     52  F   UNL     1       7.596  -2.453 -10.000  1.00  0.00    -0.206 F 
ATOM     53  C   UNL     1       5.862  -3.885 -10.682  1.00  0.00     0.040 A 
ATOM     54  C   UNL     1       3.571  -3.160 -10.527  1.00  0.00     0.040 A 
ATOM     55  F   UNL     1       3.074  -1.023  -9.703  1.00  0.00    -0.206 F 
ATOM     56  C   UNL     1       4.502  -4.141 -10.861  1.00  0.00     0.006 A 
ENDBRANCH  28  49
BRANCH  40  57
ATOM     57  C   UNL     1       8.722   3.970 -12.221  1.00  0.00     0.057 A 
ATOM     58  C   UNL     1       7.948   4.334 -13.328  1.00  0.00     0.134 A 
ATOM     59  C   UNL     1      10.114   3.958 -12.370  1.00  0.00     0.134 A 
ATOM     60  F   UNL     1       6.609   4.345 -13.247  1.00  0.00    -0.206 F 
ATOM     61  C   UNL     1       8.539   4.669 -14.546  1.00  0.00     0.040 A 
ATOM     62  C   UNL     1      10.717   4.311 -13.576  1.00  0.00     0.040 A 
ATOM     63  F   UNL     1      10.906   3.620 -11.341  1.00  0.00    -0.206 F 
ATOM     64  C   UNL     1       9.928   4.666 -14.669  1.00  0.00     0.006 A 
ENDBRANCH  40  57
ENDBRANCH  14  15
ENDBRANCH   7   9
ENDBRANCH   6   7
ENDBRANCH   5   6
ENDBRANCH   4   5
ENDBRANCH   3   4
ENDBRANCH   2   3
ENDBRANCH   1   2
BRANCH   1  65
ATOM     65  O   UNL     1       2.633  -4.469   0.879  1.00  0.00    -0.376 OA
BRANCH  65  66
ATOM     66  C   UNL     1       3.999  -4.565   0.485  1.00  0.00     0.202 C 
BRANCH  66  67
ATOM     67  C   UNL     1       4.274  -4.894  -0.987  1.00  0.00     0.261 C 
BRANCH  67  68
ATOM     68  O   UNL     1       3.750  -3.950  -1.938  1.00  0.00    -0.460 OA
BRANCH  68  69
ATOM     69  C   UNL     1       2.697  -4.413  -2.655  1.00  0.00     0.342 C 
ATOM     70  O   UNL     1       2.058  -5.440  -2.456  1.00  0.00    -0.246 OA
BRANCH  69  71
ATOM     71  C   UNL     1       2.387  -3.518  -3.776  1.00  0.00     0.102 A 
ATOM     72  C   UNL     1       1.512  -2.432  -3.596  1.00  0.00     0.027 A 
ATOM     73  C   UNL     1       2.819  -3.879  -5.054  1.00  0.00     0.130 A 
ATOM     74  C   UNL     1       1.055  -1.706  -4.705  1.00  0.00    -0.025 A 
ATOM     75  C   UNL     1       2.346  -3.190  -6.162  1.00  0.00     0.048 A 
ATOM     76  C   UNL     1       1.476  -2.110  -5.985  1.00  0.00     0.012 A 
BRANCH  73  77
ATOM     77  O   UNL     1       3.705  -4.906  -5.214  1.00  0.00    -0.507 OA
ATOM     78  H   UNL     1       4.024  -5.371  -4.466  1.00  0.00     0.293 HD
ENDBRANCH  73  77
BRANCH  74  79
ATOM     79  C   UNL     1       0.107  -0.578  -4.638  1.00  0.00     0.009 C 
ATOM     80  C   UNL     1      -0.408   0.008  -3.544  1.00  0.00     0.009 C 
BRANCH  80  81
ATOM     81  C   UNL     1      -1.380   1.115  -3.635  1.00  0.00    -0.018 A 
ATOM     82  C   UNL     1      -2.422   1.110  -4.578  1.00  0.00     0.054 A 
ATOM     83  C   UNL     1      -1.294   2.183  -2.732  1.00  0.00     0.054 A 
ATOM     84  C   UNL     1      -3.317   2.177  -4.641  1.00  0.00     0.119 A 
ATOM     85  C   UNL     1      -2.192   3.248  -2.821  1.00  0.00     0.119 A 
ATOM     86  C   UNL     1      -3.200   3.256  -3.776  1.00  0.00     0.092 A 
BRANCH  84  87
ATOM     87  O   UNL     1      -4.337   2.195  -5.547  1.00  0.00    -0.508 OA
ATOM     88  H   UNL     1      -4.444   1.482  -6.146  1.00  0.00     0.293 HD
ENDBRANCH  84  87
BRANCH  85  89
ATOM     89  O   UNL     1      -2.110   4.315  -1.973  1.00  0.00    -0.508 OA
ATOM     90  H   UNL     1      -2.721   5.021  -2.048  1.00  0.00     0.293 HD
ENDBRANCH  85  89
ENDBRANCH  80  81
ENDBRANCH  74  79
ENDBRANCH  69  71
ENDBRANCH  68  69
ENDBRANCH  67  68
ENDBRANCH  66  67
ENDBRANCH  65  66
ENDBRANCH   1  65
TORSDOF 22
