REMARK SMILES CC(C)CCOCC[N@H+]1CC[C@@H](C(=O)OCCOCCOCCOC(=O)c2ccc(-c3c4nc(c(-c5c(F)cccc5F)c5ccc([nH]5)c(-c5c(F)cccc5F)c5nc(c(-c6c(F)cccc6F)c6ccc3[nH]6)C=C5)C=C4)cc2)[C@@H]1C
REMARK SMILES IDX 17 1 16 2 15 3 13 4 14 5 12 6 9 7 10 8 81 9 11 11 82 12 8 13
REMARK SMILES IDX 7 14 6 15 5 16 4 17 2 18 1 19 3 20 18 21 19 22 20 23 21 24
REMARK SMILES IDX 22 25 23 26 24 27 25 28 26 29 27 30 28 31 80 32 29 33 79 34
REMARK SMILES IDX 30 35 31 36 32 37 73 38 33 39 78 40 72 41 74 42 34 43 77 44
REMARK SMILES IDX 71 45 70 46 35 48 61 49 44 50 60 51 45 52 48 53 59 54 75 55
REMARK SMILES IDX 46 56 47 57 58 59 76 60 49 61 36 62 37 63 42 64 38 65 39 66
REMARK SMILES IDX 41 67 43 68 40 69 62 70 63 71 68 72 64 73 65 74 67 75 69 76
REMARK SMILES IDX 66 77 50 78 51 79 56 80 52 81 53 82 55 83 57 84 54 85
REMARK H PARENT 9 10 74 47 48 58
REMARK Flexibility Score: inf
ROOT
ATOM      1  C   UNL     1      -5.106  -0.565   3.158  1.00  0.00     0.202 C 
ENDROOT
BRANCH   1   2
ATOM      2  C   UNL     1      -4.378  -1.840   2.702  1.00  0.00     0.261 C 
BRANCH   2   3
ATOM      3  O   UNL     1      -3.327  -1.670   1.730  1.00  0.00    -0.463 OA
BRANCH   3   4
ATOM      4  C   UNL     1      -3.654  -2.016   0.456  1.00  0.00     0.315 C 
ATOM      5  O   UNL     1      -4.784  -2.325   0.091  1.00  0.00    -0.252 OA
BRANCH   4   6
ATOM      6  C   UNL     1      -2.474  -2.099  -0.494  1.00  0.00     0.162 C 
ATOM      7  N   UNL     1      -0.087  -2.078   0.036  1.00  0.00    -0.330 N 
ATOM      8  C   UNL     1      -0.415  -3.276  -0.777  1.00  0.00     0.263 C 
ATOM      9  C   UNL     1      -1.263  -1.194  -0.224  1.00  0.00     0.195 C 
ATOM     10  H   UNL     1       0.784  -1.598  -0.191  1.00  0.00     0.348 HD
ATOM     11  C   UNL     1      -1.898  -3.507  -0.540  1.00  0.00     0.083 C 
ATOM     12  C   UNL     1      -0.996  -0.331  -1.477  1.00  0.00     0.076 C 
BRANCH   7  13
ATOM     13  C   UNL     1       0.084  -2.497   1.466  1.00  0.00     0.291 C 
BRANCH  13  14
ATOM     14  C   UNL     1       1.143  -1.782   2.353  1.00  0.00     0.221 C 
BRANCH  14  15
ATOM     15  O   UNL     1       0.781  -0.716   3.217  1.00  0.00    -0.376 OA
BRANCH  15  16
ATOM     16  C   UNL     1      -0.217   0.182   2.807  1.00  0.00     0.160 C 
BRANCH  16  17
ATOM     17  C   UNL     1       0.200   1.367   1.920  1.00  0.00     0.031 C 
BRANCH  17  18
ATOM     18  C   UNL     1       1.655   1.588   1.478  1.00  0.00    -0.015 C 
ATOM     19  C   UNL     1       2.118   0.764   0.280  1.00  0.00     0.007 C 
ATOM     20  C   UNL     1       1.808   3.061   1.057  1.00  0.00     0.007 C 
ENDBRANCH  17  18
ENDBRANCH  16  17
ENDBRANCH  15  16
ENDBRANCH  14  15
ENDBRANCH  13  14
ENDBRANCH   7  13
ENDBRANCH   4   6
ENDBRANCH   3   4
ENDBRANCH   2   3
ENDBRANCH   1   2
BRANCH   1  21
ATOM     21  O   UNL     1      -5.557   0.320   2.140  1.00  0.00    -0.376 OA
BRANCH  21  22
ATOM     22  C   UNL     1      -4.552   1.136   1.560  1.00  0.00     0.188 C 
BRANCH  22  23
ATOM     23  C   UNL     1      -4.007   2.288   2.410  1.00  0.00     0.188 C 
BRANCH  23  24
ATOM     24  O   UNL     1      -3.592   1.963   3.731  1.00  0.00    -0.376 OA
BRANCH  24  25
ATOM     25  C   UNL     1      -2.574   2.817   4.271  1.00  0.00     0.202 C 
BRANCH  25  26
ATOM     26  C   UNL     1      -2.859   4.328   4.299  1.00  0.00     0.261 C 
BRANCH  26  27
ATOM     27  O   UNL     1      -3.137   4.903   3.006  1.00  0.00    -0.460 OA
BRANCH  27  28
ATOM     28  C   UNL     1      -2.146   4.896   2.081  1.00  0.00     0.338 C 
ATOM     29  O   UNL     1      -0.979   4.604   2.265  1.00  0.00    -0.246 OA
BRANCH  28  30
ATOM     30  C   UNL     1      -2.780   5.046   0.745  1.00  0.00     0.060 A 
ATOM     31  C   UNL     1      -2.370   4.215  -0.310  1.00  0.00     0.016 A 
ATOM     32  C   UNL     1      -3.841   5.934   0.560  1.00  0.00     0.016 A 
ATOM     33  C   UNL     1      -3.014   4.283  -1.552  1.00  0.00     0.010 A 
ATOM     34  C   UNL     1      -4.476   6.008  -0.680  1.00  0.00     0.010 A 
ATOM     35  C   UNL     1      -4.056   5.198  -1.750  1.00  0.00    -0.014 A 
BRANCH  35  36
ATOM     36  C   UNL     1      -4.624   5.456  -3.097  1.00  0.00     0.031 A 
ATOM     37  C   UNL     1      -4.157   6.675  -3.843  1.00  0.00     0.074 A 
ATOM     38  C   UNL     1      -5.577   4.671  -3.631  1.00  0.00     0.049 A 
ATOM     39  N   UNL     1      -4.625   7.211  -4.941  1.00  0.00    -0.248 NA
ATOM     40  C   UNL     1      -3.010   7.391  -3.261  1.00  0.00     0.031 C 
ATOM     41  C   UNL     1      -6.093   3.439  -3.041  1.00  0.00     0.029 A 
ATOM     42  N   UNL     1      -6.301   4.820  -4.790  1.00  0.00    -0.354 N 
ATOM     43  C   UNL     1      -3.842   8.335  -5.172  1.00  0.00     0.074 A 
ATOM     44  C   UNL     1      -2.884   8.416  -4.090  1.00  0.00     0.031 C 
ATOM     45  C   UNL     1      -7.067   2.953  -3.832  1.00  0.00     0.029 A 
ATOM     46  C   UNL     1      -7.275   3.865  -4.957  1.00  0.00     0.049 A 
ATOM     47  H   UNL     1      -6.138   5.543  -5.438  1.00  0.00     0.167 HD
ATOM     48  C   UNL     1      -3.912   9.219  -6.194  1.00  0.00     0.037 A 
ATOM     49  C   UNL     1      -8.245   3.762  -5.887  1.00  0.00     0.037 A 
ATOM     50  C   UNL     1      -4.862   9.144  -7.270  1.00  0.00     0.049 A 
ATOM     51  C   UNL     1      -8.366   4.813  -6.963  1.00  0.00     0.074 A 
ATOM     52  C   UNL     1      -4.995   9.985  -8.362  1.00  0.00     0.029 A 
ATOM     53  N   UNL     1      -5.848   8.178  -7.387  1.00  0.00    -0.354 N 
ATOM     54  N   UNL     1      -7.614   5.864  -7.184  1.00  0.00    -0.248 NA
ATOM     55  C   UNL     1      -9.481   4.668  -7.913  1.00  0.00     0.031 C 
ATOM     56  C   UNL     1      -6.096   9.557  -9.111  1.00  0.00     0.029 A 
ATOM     57  C   UNL     1      -6.614   8.419  -8.515  1.00  0.00     0.049 A 
ATOM     58  H   UNL     1      -5.984   7.430  -6.760  1.00  0.00     0.167 HD
ATOM     59  C   UNL     1      -8.147   6.486  -8.309  1.00  0.00     0.074 A 
ATOM     60  C   UNL     1      -9.279   5.691  -8.732  1.00  0.00     0.031 C 
ATOM     61  C   UNL     1      -7.734   7.616  -8.934  1.00  0.00     0.037 A 
BRANCH  48  62
ATOM     62  C   UNL     1      -2.947  10.367  -6.177  1.00  0.00     0.057 A 
ATOM     63  C   UNL     1      -1.583  10.191  -6.442  1.00  0.00     0.134 A 
ATOM     64  C   UNL     1      -3.394  11.668  -5.919  1.00  0.00     0.134 A 
ATOM     65  F   UNL     1      -1.089   8.966  -6.680  1.00  0.00    -0.206 F 
ATOM     66  C   UNL     1      -0.694  11.267  -6.429  1.00  0.00     0.040 A 
ATOM     67  C   UNL     1      -2.520  12.755  -5.929  1.00  0.00     0.040 A 
ATOM     68  F   UNL     1      -4.689  11.905  -5.660  1.00  0.00    -0.206 F 
ATOM     69  C   UNL     1      -1.164  12.555  -6.179  1.00  0.00     0.006 A 
ENDBRANCH  48  62
BRANCH  49  70
ATOM     70  C   UNL     1      -9.217   2.639  -5.834  1.00  0.00     0.057 A 
ATOM     71  C   UNL     1      -9.230   1.646  -6.820  1.00  0.00     0.134 A 
ATOM     72  C   UNL     1     -10.181   2.554  -4.822  1.00  0.00     0.134 A 
ATOM     73  F   UNL     1      -8.353   1.690  -7.834  1.00  0.00    -0.206 F 
ATOM     74  C   UNL     1     -10.175   0.618  -6.812  1.00  0.00     0.040 A 
ATOM     75  C   UNL     1     -11.115   1.517  -4.787  1.00  0.00     0.040 A 
ATOM     76  F   UNL     1     -10.229   3.479  -3.852  1.00  0.00    -0.206 F 
ATOM     77  C   UNL     1     -11.118   0.549  -5.789  1.00  0.00     0.006 A 
ENDBRANCH  49  70
BRANCH  61  78
ATOM     78  C   UNL     1      -8.481   8.047 -10.163  1.00  0.00     0.057 A 
ATOM     79  C   UNL     1      -9.761   8.612 -10.092  1.00  0.00     0.134 A 
ATOM     80  C   UNL     1      -7.886   7.956 -11.429  1.00  0.00     0.134 A 
ATOM     81  F   UNL     1     -10.392   8.719  -8.913  1.00  0.00    -0.206 F 
ATOM     82  C   UNL     1     -10.427   9.057 -11.236  1.00  0.00     0.040 A 
ATOM     83  C   UNL     1      -8.531   8.420 -12.576  1.00  0.00     0.040 A 
ATOM     84  F   UNL     1      -6.657   7.434 -11.567  1.00  0.00    -0.206 F 
ATOM     85  C   UNL     1      -9.807   8.970 -12.481  1.00  0.00     0.006 A 
ENDBRANCH  61  78
ENDBRANCH  35  36
ENDBRANCH  28  30
ENDBRANCH  27  28
ENDBRANCH  26  27
ENDBRANCH  25  26
ENDBRANCH  24  25
ENDBRANCH  23  24
ENDBRANCH  22  23
ENDBRANCH  21  22
ENDBRANCH   1  21
TORSDOF 23
