REMARK SMILES C[C@H](NC(=O)c1ccncc1/C=C/C(=O)OCCOCCOCCOC(=O)c1ccc(-c2c3nc(c(-c4c(F)cccc4F)c4ccc([nH]4)c(-c4c(F)cccc4F)c4nc(c(-c5c(F)cccc5F)c5ccc2[nH]5)C=C4)C=C3)cc1)c1ccco1
REMARK SMILES IDX 20 1 19 2 18 3 17 4 16 5 14 6 15 7 13 8 12 9 11 10 6 11 7 12
REMARK SMILES IDX 8 13 10 14 9 15 4 16 3 17 5 19 2 20 1 21 82 22 83 23 86 24
REMARK SMILES IDX 84 25 85 26 21 27 22 28 23 29 24 30 25 31 26 32 27 33 28 34
REMARK SMILES IDX 29 35 81 36 30 37 80 38 31 39 32 40 33 41 74 42 34 43 79 44
REMARK SMILES IDX 73 45 75 46 35 47 78 48 72 49 71 50 36 52 62 53 45 54 61 55
REMARK SMILES IDX 46 56 49 57 60 58 76 59 47 60 48 61 59 63 77 64 50 65 37 66
REMARK SMILES IDX 38 67 43 68 39 69 40 70 42 71 44 72 41 73 63 74 64 75 69 76
REMARK SMILES IDX 65 77 66 78 68 79 70 80 67 81 51 82 52 83 57 84 53 85 54 86
REMARK SMILES IDX 56 87 58 88 55 89
REMARK H PARENT 3 18 75 51 49 62
REMARK Flexibility Score: inf
ROOT
ATOM      1  C   UNL     1      -2.559  -4.910   4.600  1.00  0.00     0.188 C 
ENDROOT
BRANCH   1   2
ATOM      2  O   UNL     1      -2.688  -4.749   6.005  1.00  0.00    -0.376 OA
BRANCH   2   3
ATOM      3  C   UNL     1      -1.989  -3.701   6.665  1.00  0.00     0.202 C 
BRANCH   3   4
ATOM      4  C   UNL     1      -0.499  -3.447   6.389  1.00  0.00     0.261 C 
BRANCH   4   5
ATOM      5  O   UNL     1      -0.132  -3.403   5.001  1.00  0.00    -0.460 OA
BRANCH   5   6
ATOM      6  C   UNL     1       0.747  -4.352   4.609  1.00  0.00     0.330 C 
ATOM      7  O   UNL     1       1.251  -5.212   5.319  1.00  0.00    -0.247 OA
BRANCH   6   8
ATOM      8  C   UNL     1       0.977  -4.363   3.150  1.00  0.00     0.094 C 
ATOM      9  C   UNL     1       0.621  -3.438   2.240  1.00  0.00     0.018 C 
BRANCH   9  10
ATOM     10  C   UNL     1       0.985  -3.624   0.821  1.00  0.00     0.006 A 
ATOM     11  C   UNL     1       1.580  -2.636   0.024  1.00  0.00     0.050 A 
ATOM     12  C   UNL     1       2.228  -3.005  -1.155  1.00  0.00     0.034 A 
ATOM     13  C   UNL     1       2.060  -4.291  -1.629  1.00  0.00     0.112 A 
ATOM     14  C   UNL     1       0.824  -4.872   0.216  1.00  0.00     0.119 A 
ATOM     15  N   UNL     1       1.319  -5.216  -0.996  1.00  0.00    -0.264 NA
BRANCH  11  16
ATOM     16  C   UNL     1       1.673  -1.233   0.462  1.00  0.00     0.252 C 
ATOM     17  N   UNL     1       1.194  -0.198  -0.296  1.00  0.00    -0.342 N 
ATOM     18  H   UNL     1       1.430   0.673   0.099  1.00  0.00     0.164 HD
ATOM     19  O   UNL     1       2.204  -0.983   1.541  1.00  0.00    -0.269 OA
BRANCH  17  20
ATOM     20  C   UNL     1       0.428  -0.029  -1.536  1.00  0.00     0.145 C 
ATOM     21  C   UNL     1       0.901  -0.765  -2.782  1.00  0.00     0.039 C 
BRANCH  20  22
ATOM     22  C   UNL     1      -1.035  -0.212  -1.315  1.00  0.00     0.125 A 
ATOM     23  C   UNL     1      -1.873  -1.305  -1.207  1.00  0.00     0.048 A 
ATOM     24  O   UNL     1      -1.780   0.935  -1.323  1.00  0.00    -0.467 OA
ATOM     25  C   UNL     1      -3.196  -0.796  -1.174  1.00  0.00     0.042 A 
ATOM     26  C   UNL     1      -3.084   0.572  -1.244  1.00  0.00     0.195 A 
ENDBRANCH  20  22
ENDBRANCH  17  20
ENDBRANCH  11  16
ENDBRANCH   9  10
ENDBRANCH   6   8
ENDBRANCH   5   6
ENDBRANCH   4   5
ENDBRANCH   3   4
ENDBRANCH   2   3
ENDBRANCH   1   2
BRANCH   1  27
ATOM     27  C   UNL     1      -2.769  -3.707   3.660  1.00  0.00     0.188 C 
BRANCH  27  28
ATOM     28  O   UNL     1      -2.874  -2.457   4.293  1.00  0.00    -0.376 OA
BRANCH  28  29
ATOM     29  C   UNL     1      -4.147  -1.909   4.590  1.00  0.00     0.202 C 
BRANCH  29  30
ATOM     30  C   UNL     1      -5.468  -2.701   4.694  1.00  0.00     0.261 C 
BRANCH  30  31
ATOM     31  O   UNL     1      -5.473  -4.078   4.310  1.00  0.00    -0.460 OA
BRANCH  31  32
ATOM     32  C   UNL     1      -5.921  -4.353   3.067  1.00  0.00     0.338 C 
ATOM     33  O   UNL     1      -6.265  -3.550   2.203  1.00  0.00    -0.246 OA
BRANCH  32  34
ATOM     34  C   UNL     1      -5.768  -5.795   2.823  1.00  0.00     0.060 A 
ATOM     35  C   UNL     1      -4.846  -6.223   1.859  1.00  0.00     0.016 A 
ATOM     36  C   UNL     1      -6.547  -6.718   3.523  1.00  0.00     0.016 A 
ATOM     37  C   UNL     1      -4.714  -7.582   1.578  1.00  0.00     0.010 A 
ATOM     38  C   UNL     1      -6.428  -8.078   3.225  1.00  0.00     0.010 A 
ATOM     39  C   UNL     1      -5.531  -8.513   2.233  1.00  0.00    -0.014 A 
BRANCH  39  40
ATOM     40  C   UNL     1      -5.569  -9.919   1.767  1.00  0.00     0.031 A 
ATOM     41  C   UNL     1      -6.669 -10.339   0.834  1.00  0.00     0.074 A 
ATOM     42  C   UNL     1      -4.640 -10.807   2.159  1.00  0.00     0.049 A 
ATOM     43  N   UNL     1      -6.938 -11.521   0.343  1.00  0.00    -0.248 NA
ATOM     44  C   UNL     1      -7.593  -9.279   0.400  1.00  0.00     0.031 C 
ATOM     45  C   UNL     1      -3.507 -10.516   3.034  1.00  0.00     0.029 A 
ATOM     46  N   UNL     1      -4.519 -12.146   1.879  1.00  0.00    -0.354 N 
ATOM     47  C   UNL     1      -8.062 -11.349  -0.454  1.00  0.00     0.074 A 
ATOM     48  C   UNL     1      -8.445  -9.957  -0.353  1.00  0.00     0.031 C 
ATOM     49  C   UNL     1      -2.815 -11.650   3.238  1.00  0.00     0.029 A 
ATOM     50  C   UNL     1      -3.474 -12.749   2.534  1.00  0.00     0.049 A 
ATOM     51  H   UNL     1      -5.122 -12.626   1.267  1.00  0.00     0.167 HD
ATOM     52  C   UNL     1      -8.712 -12.265  -1.211  1.00  0.00     0.037 A 
ATOM     53  C   UNL     1      -3.111 -14.046   2.581  1.00  0.00     0.037 A 
ATOM     54  C   UNL     1      -8.341 -13.654  -1.295  1.00  0.00     0.049 A 
ATOM     55  C   UNL     1      -3.894 -15.065   1.796  1.00  0.00     0.074 A 
ATOM     56  C   UNL     1      -8.931 -14.661  -2.038  1.00  0.00     0.029 A 
ATOM     57  N   UNL     1      -7.291 -14.233  -0.599  1.00  0.00    -0.354 N 
ATOM     58  N   UNL     1      -4.939 -14.891   1.023  1.00  0.00    -0.248 NA
ATOM     59  C   UNL     1      -3.442 -16.461   1.886  1.00  0.00     0.031 C 
ATOM     60  C   UNL     1      -8.270 -15.860  -1.752  1.00  0.00     0.029 A 
ATOM     61  C   UNL     1      -7.231 -15.590  -0.874  1.00  0.00     0.049 A 
ATOM     62  H   UNL     1      -6.678 -13.752   0.002  1.00  0.00     0.167 HD
ATOM     63  C   UNL     1      -5.255 -16.147   0.517  1.00  0.00     0.074 A 
ATOM     64  C   UNL     1      -4.282 -17.072   1.061  1.00  0.00     0.031 C 
ATOM     65  C   UNL     1      -6.258 -16.501  -0.325  1.00  0.00     0.037 A 
BRANCH  52  66
ATOM     66  C   UNL     1      -9.912 -11.790  -1.977  1.00  0.00     0.057 A 
ATOM     67  C   UNL     1      -9.795 -10.926  -3.075  1.00  0.00     0.134 A 
ATOM     68  C   UNL     1     -11.200 -12.197  -1.611  1.00  0.00     0.134 A 
ATOM     69  F   UNL     1      -8.591 -10.484  -3.468  1.00  0.00    -0.206 F 
ATOM     70  C   UNL     1     -10.919 -10.458  -3.759  1.00  0.00     0.040 A 
ATOM     71  C   UNL     1     -12.329 -11.759  -2.305  1.00  0.00     0.040 A 
ATOM     72  F   UNL     1     -11.384 -13.026  -0.572  1.00  0.00    -0.206 F 
ATOM     73  C   UNL     1     -12.191 -10.879  -3.376  1.00  0.00     0.006 A 
ENDBRANCH  52  66
BRANCH  53  74
ATOM     74  C   UNL     1      -1.958 -14.456   3.420  1.00  0.00     0.057 A 
ATOM     75  C   UNL     1      -0.759 -14.893   2.847  1.00  0.00     0.134 A 
ATOM     76  C   UNL     1      -2.029 -14.419   4.819  1.00  0.00     0.134 A 
ATOM     77  F   UNL     1      -0.639 -14.974   1.514  1.00  0.00    -0.206 F 
ATOM     78  C   UNL     1       0.326 -15.287   3.632  1.00  0.00     0.040 A 
ATOM     79  C   UNL     1      -0.944 -14.787   5.616  1.00  0.00     0.040 A 
ATOM     80  F   UNL     1      -3.151 -14.012   5.429  1.00  0.00    -0.206 F 
ATOM     81  C   UNL     1       0.237 -15.227   5.022  1.00  0.00     0.006 A 
ENDBRANCH  53  74
BRANCH  65  82
ATOM     82  C   UNL     1      -6.338 -17.943  -0.738  1.00  0.00     0.057 A 
ATOM     83  C   UNL     1      -6.753 -18.947   0.146  1.00  0.00     0.134 A 
ATOM     84  C   UNL     1      -6.038 -18.325  -2.053  1.00  0.00     0.134 A 
ATOM     85  F   UNL     1      -7.044 -18.651   1.422  1.00  0.00    -0.206 F 
ATOM     86  C   UNL     1      -6.846 -20.281  -0.256  1.00  0.00     0.040 A 
ATOM     87  C   UNL     1      -6.154 -19.651  -2.474  1.00  0.00     0.040 A 
ATOM     88  F   UNL     1      -5.644 -17.413  -2.954  1.00  0.00    -0.206 F 
ATOM     89  C   UNL     1      -6.553 -20.634  -1.572  1.00  0.00     0.006 A 
ENDBRANCH  65  82
ENDBRANCH  39  40
ENDBRANCH  32  34
ENDBRANCH  31  32
ENDBRANCH  30  31
ENDBRANCH  29  30
ENDBRANCH  28  29
ENDBRANCH  27  28
ENDBRANCH   1  27
TORSDOF 21
