REMARK SMILES CC(C)(C)OC(=O)N1CCC2(CC1)C[C@@H](C(=O)OCCOCCOCCOC(=O)c1ccc(-c3c4nc(c(-c5c(F)cccc5F)c5ccc([nH]5)c(-c5c(F)cccc5F)c5nc(c(-c6c(F)cccc6F)c6ccc3[nH]6)C=C5)C=C4)cc1)CO2
REMARK SMILES IDX 22 1 21 2 20 3 19 4 18 5 16 6 17 7 15 8 6 9 7 10 8 11 9 12
REMARK SMILES IDX 13 13 10 14 12 15 11 16 14 17 85 18 84 19 5 20 2 21 1 22
REMARK SMILES IDX 3 23 4 24 23 25 24 26 25 27 26 28 27 29 28 30 29 31 30 32
REMARK SMILES IDX 31 33 83 34 32 35 82 36 33 37 34 38 35 39 76 40 36 41 81 42
REMARK SMILES IDX 75 43 77 44 37 45 80 46 74 47 73 48 38 50 64 51 47 52 63 53
REMARK SMILES IDX 48 54 51 55 62 56 78 57 49 58 50 59 61 61 79 62 52 63 39 64
REMARK SMILES IDX 40 65 45 66 41 67 42 68 44 69 46 70 43 71 65 72 66 73 71 74
REMARK SMILES IDX 67 75 68 76 70 77 72 78 69 79 53 80 54 81 59 82 55 83 56 84
REMARK SMILES IDX 58 85 60 86 57 87
REMARK H PARENT 77 49 51 60
REMARK Flexibility Score: inf
ROOT
ATOM      1  C   UNL     1       5.995  10.501   0.125  1.00  0.00     0.188 C 
ENDROOT
BRANCH   1   2
ATOM      2  O   UNL     1       7.159   9.862   0.627  1.00  0.00    -0.376 OA
BRANCH   2   3
ATOM      3  C   UNL     1       7.315   8.457   0.424  1.00  0.00     0.202 C 
BRANCH   3   4
ATOM      4  C   UNL     1       6.143   7.532   0.791  1.00  0.00     0.261 C 
BRANCH   4   5
ATOM      5  O   UNL     1       4.948   7.778   0.022  1.00  0.00    -0.463 OA
BRANCH   5   6
ATOM      6  C   UNL     1       3.784   7.850   0.711  1.00  0.00     0.311 C 
ATOM      7  O   UNL     1       3.685   7.666   1.920  1.00  0.00    -0.252 OA
BRANCH   6   8
ATOM      8  C   UNL     1       2.595   8.292  -0.127  1.00  0.00     0.128 C 
ATOM      9  C   UNL     1       0.283   2.718  -2.374  1.00  0.00     0.410 C 
ATOM     10  O   UNL     1      -0.730   2.483  -3.021  1.00  0.00    -0.224 OA
ATOM     11  N   UNL     1       0.924   3.932  -2.383  1.00  0.00    -0.308 N 
ATOM     12  C   UNL     1       0.204   5.119  -2.809  1.00  0.00     0.126 C 
ATOM     13  C   UNL     1       2.267   4.150  -1.858  1.00  0.00     0.126 C 
ATOM     14  C   UNL     1       0.072   6.065  -1.614  1.00  0.00     0.057 C 
ATOM     15  C   UNL     1       2.224   5.109  -0.673  1.00  0.00     0.057 C 
ATOM     16  C   UNL     1       1.459   6.391  -1.047  1.00  0.00     0.073 C 
ATOM     17  C   UNL     1       1.398   7.388   0.109  1.00  0.00     0.053 C 
ATOM     18  O   UNL     1       2.187   7.030  -2.104  1.00  0.00    -0.374 OA
ATOM     19  C   UNL     1       2.728   8.255  -1.636  1.00  0.00     0.176 C 
BRANCH   9  20
ATOM     20  O   UNL     1       0.873   1.854  -1.515  1.00  0.00    -0.444 OA
BRANCH  20  21
ATOM     21  C   UNL     1       0.366   0.513  -1.334  1.00  0.00     0.106 C 
ATOM     22  C   UNL     1       1.057   0.011  -0.058  1.00  0.00     0.056 C 
ATOM     23  C   UNL     1       0.805  -0.336  -2.527  1.00  0.00     0.056 C 
ATOM     24  C   UNL     1      -1.151   0.454  -1.107  1.00  0.00     0.056 C 
ENDBRANCH  20  21
ENDBRANCH   9  20
ENDBRANCH   6   8
ENDBRANCH   5   6
ENDBRANCH   4   5
ENDBRANCH   3   4
ENDBRANCH   2   3
ENDBRANCH   1   2
BRANCH   1  25
ATOM     25  C   UNL     1       5.572  10.236  -1.323  1.00  0.00     0.188 C 
BRANCH  25  26
ATOM     26  O   UNL     1       6.338   9.270  -2.009  1.00  0.00    -0.376 OA
BRANCH  26  27
ATOM     27  C   UNL     1       6.990   9.677  -3.208  1.00  0.00     0.202 C 
BRANCH  27  28
ATOM     28  C   UNL     1       7.972  10.857  -3.086  1.00  0.00     0.261 C 
BRANCH  28  29
ATOM     29  O   UNL     1       7.395  12.095  -2.622  1.00  0.00    -0.460 OA
BRANCH  29  30
ATOM     30  C   UNL     1       6.441  12.659  -3.404  1.00  0.00     0.338 C 
ATOM     31  O   UNL     1       6.103  12.299  -4.517  1.00  0.00    -0.246 OA
BRANCH  30  32
ATOM     32  C   UNL     1       5.670  13.608  -2.562  1.00  0.00     0.060 A 
ATOM     33  C   UNL     1       4.279  13.442  -2.471  1.00  0.00     0.016 A 
ATOM     34  C   UNL     1       6.305  14.605  -1.820  1.00  0.00     0.016 A 
ATOM     35  C   UNL     1       3.519  14.289  -1.661  1.00  0.00     0.010 A 
ATOM     36  C   UNL     1       5.540  15.471  -1.029  1.00  0.00     0.010 A 
ATOM     37  C   UNL     1       4.141  15.335  -0.966  1.00  0.00    -0.014 A 
BRANCH  37  38
ATOM     38  C   UNL     1       3.311  16.392  -0.332  1.00  0.00     0.031 A 
ATOM     39  C   UNL     1       3.047  17.654  -1.109  1.00  0.00     0.074 A 
ATOM     40  C   UNL     1       2.775  16.234   0.892  1.00  0.00     0.049 A 
ATOM     41  N   UNL     1       2.369  18.719  -0.763  1.00  0.00    -0.248 NA
ATOM     42  C   UNL     1       3.626  17.723  -2.461  1.00  0.00     0.031 C 
ATOM     43  C   UNL     1       2.920  15.051   1.738  1.00  0.00     0.029 A 
ATOM     44  N   UNL     1       1.998  17.088   1.639  1.00  0.00    -0.354 N 
ATOM     45  C   UNL     1       2.446  19.584  -1.847  1.00  0.00     0.074 A 
ATOM     46  C   UNL     1       3.255  18.932  -2.854  1.00  0.00     0.031 C 
ATOM     47  C   UNL     1       2.260  15.257   2.893  1.00  0.00     0.029 A 
ATOM     48  C   UNL     1       1.671  16.596   2.880  1.00  0.00     0.049 A 
ATOM     49  H   UNL     1       1.704  17.970   1.315  1.00  0.00     0.167 HD
ATOM     50  C   UNL     1       1.889  20.808  -1.996  1.00  0.00     0.037 A 
ATOM     51  C   UNL     1       0.991  17.170   3.893  1.00  0.00     0.037 A 
ATOM     52  C   UNL     1       1.079  21.460  -1.001  1.00  0.00     0.049 A 
ATOM     53  C   UNL     1       0.442  18.566   3.725  1.00  0.00     0.074 A 
ATOM     54  C   UNL     1       0.442  22.686  -1.080  1.00  0.00     0.029 A 
ATOM     55  N   UNL     1       0.802  20.945   0.255  1.00  0.00    -0.354 N 
ATOM     56  N   UNL     1       0.482  19.354   2.678  1.00  0.00    -0.248 NA
ATOM     57  C   UNL     1      -0.249  19.150   4.885  1.00  0.00     0.031 C 
ATOM     58  C   UNL     1      -0.174  22.939   0.150  1.00  0.00     0.029 A 
ATOM     59  C   UNL     1       0.032  21.844   0.973  1.00  0.00     0.049 A 
ATOM     60  H   UNL     1       1.108  20.070   0.587  1.00  0.00     0.167 HD
ATOM     61  C   UNL     1      -0.205  20.508   3.042  1.00  0.00     0.074 A 
ATOM     62  C   UNL     1      -0.666  20.309   4.399  1.00  0.00     0.031 C 
ATOM     63  C   UNL     1      -0.431  21.632   2.320  1.00  0.00     0.037 A 
BRANCH  50  64
ATOM     64  C   UNL     1       2.155  21.543  -3.276  1.00  0.00     0.057 A 
ATOM     65  C   UNL     1       1.552  21.170  -4.483  1.00  0.00     0.134 A 
ATOM     66  C   UNL     1       2.980  22.674  -3.285  1.00  0.00     0.134 A 
ATOM     67  F   UNL     1       0.764  20.086  -4.544  1.00  0.00    -0.206 F 
ATOM     68  C   UNL     1       1.768  21.892  -5.658  1.00  0.00     0.040 A 
ATOM     69  C   UNL     1       3.185  23.418  -4.448  1.00  0.00     0.040 A 
ATOM     70  F   UNL     1       3.587  23.084  -2.161  1.00  0.00    -0.206 F 
ATOM     71  C   UNL     1       2.579  23.026  -5.640  1.00  0.00     0.006 A 
ENDBRANCH  50  64
BRANCH  51  72
ATOM     72  C   UNL     1       0.797  16.450   5.180  1.00  0.00     0.057 A 
ATOM     73  C   UNL     1      -0.478  16.063   5.612  1.00  0.00     0.134 A 
ATOM     74  C   UNL     1       1.871  16.199   6.043  1.00  0.00     0.134 A 
ATOM     75  F   UNL     1      -1.552  16.304   4.845  1.00  0.00    -0.206 F 
ATOM     76  C   UNL     1      -0.683  15.482   6.865  1.00  0.00     0.040 A 
ATOM     77  C   UNL     1       1.685  15.592   7.286  1.00  0.00     0.040 A 
ATOM     78  F   UNL     1       3.117  16.550   5.693  1.00  0.00    -0.206 F 
ATOM     79  C   UNL     1       0.403  15.243   7.706  1.00  0.00     0.006 A 
ENDBRANCH  51  72
BRANCH  63  80
ATOM     80  C   UNL     1      -1.246  22.717   2.966  1.00  0.00     0.057 A 
ATOM     81  C   UNL     1      -0.747  23.491   4.022  1.00  0.00     0.134 A 
ATOM     82  C   UNL     1      -2.539  23.006   2.510  1.00  0.00     0.134 A 
ATOM     83  F   UNL     1       0.479  23.259   4.515  1.00  0.00    -0.206 F 
ATOM     84  C   UNL     1      -1.517  24.489   4.623  1.00  0.00     0.040 A 
ATOM     85  C   UNL     1      -3.306  24.022   3.082  1.00  0.00     0.040 A 
ATOM     86  F   UNL     1      -3.074  22.313   1.494  1.00  0.00    -0.206 F 
ATOM     87  C   UNL     1      -2.799  24.761   4.149  1.00  0.00     0.006 A 
ENDBRANCH  63  80
ENDBRANCH  37  38
ENDBRANCH  30  32
ENDBRANCH  29  30
ENDBRANCH  28  29
ENDBRANCH  27  28
ENDBRANCH  26  27
ENDBRANCH  25  26
ENDBRANCH   1  25
TORSDOF 19
