REMARK SMILES Cc1cc(N)c(S(=O)(=O)NCC(=O)OCCOCCOCCOC(=O)c2ccc(-c3c4nc(c(-c5c(F)cccc5F)c5ccc([nH]5)c(-c5c(F)cccc5F)c5nc(c(-c6c(F)cccc6F)c6ccc3[nH]6)C=C5)C=C4)cc2)cc1Cl
REMARK SMILES IDX 18 1 17 2 16 3 15 4 14 5 12 6 13 7 11 8 10 9 7 11 8 12 9 13
REMARK SMILES IDX 6 14 1 15 2 16 3 17 81 18 4 19 80 20 82 21 5 22 19 25 20 26
REMARK SMILES IDX 21 27 22 28 23 29 24 30 25 31 26 32 27 33 79 34 28 35 78 36
REMARK SMILES IDX 29 37 30 38 31 39 72 40 32 41 77 42 71 43 73 44 33 45 76 46
REMARK SMILES IDX 70 47 69 48 34 50 60 51 43 52 59 53 44 54 47 55 58 56 74 57
REMARK SMILES IDX 45 58 46 59 57 61 75 62 48 63 35 64 36 65 41 66 37 67 38 68
REMARK SMILES IDX 40 69 42 70 39 71 61 72 62 73 67 74 63 75 64 76 66 77 68 78
REMARK SMILES IDX 65 79 49 80 50 81 55 82 51 83 52 84 54 85 56 86 53 87
REMARK H PARENT 10 10 5 23 5 24 73 49 47 60
REMARK Flexibility Score: inf
ROOT
ATOM      1  C   UNL     1      -0.393   8.626  -3.737  1.00  0.00     0.188 C 
ENDROOT
BRANCH   1   2
ATOM      2  O   UNL     1      -1.051   8.131  -4.896  1.00  0.00    -0.376 OA
BRANCH   2   3
ATOM      3  C   UNL     1      -1.490   6.770  -4.899  1.00  0.00     0.202 C 
BRANCH   3   4
ATOM      4  C   UNL     1      -0.446   5.731  -4.503  1.00  0.00     0.261 C 
BRANCH   4   5
ATOM      5  O   UNL     1      -0.188   5.869  -3.101  1.00  0.00    -0.462 OA
BRANCH   5   6
ATOM      6  C   UNL     1       0.825   5.129  -2.604  1.00  0.00     0.321 C 
ATOM      7  O   UNL     1       1.400   4.235  -3.213  1.00  0.00    -0.251 OA
BRANCH   6   8
ATOM      8  C   UNL     1       1.314   5.698  -1.299  1.00  0.00     0.221 C 
BRANCH   8   9
ATOM      9  N   UNL     1       0.430   6.061  -0.193  1.00  0.00    -0.200 NA
ATOM     10  H   UNL     1       1.017   6.042   0.641  1.00  0.00     0.142 HD
BRANCH   9  11
ATOM     11  S   UNL     1      -0.968   5.245   0.229  1.00  0.00     0.243 S 
ATOM     12  O   UNL     1      -1.886   5.317  -0.889  1.00  0.00    -0.207 OA
ATOM     13  O   UNL     1      -1.317   5.742   1.536  1.00  0.00    -0.207 OA
BRANCH  11  14
ATOM     14  C   UNL     1      -0.485   3.554   0.415  1.00  0.00     0.106 A 
ATOM     15  C   UNL     1       0.968  -0.482   0.211  1.00  0.00     0.046 C 
ATOM     16  C   UNL     1       0.497   0.938   0.341  1.00  0.00    -0.030 A 
ATOM     17  C   UNL     1      -0.854   1.216   0.061  1.00  0.00     0.031 A 
ATOM     18  C   UNL     1       1.322   1.985   0.761  1.00  0.00     0.045 A 
ATOM     19  C   UNL     1      -1.360   2.522   0.053  1.00  0.00     0.052 A 
ATOM     20  C   UNL     1       0.828   3.284   0.822  1.00  0.00     0.044 A 
ATOM     21  Cl  UNL     1       2.978   1.749   1.188  1.00  0.00    -0.084 Cl
BRANCH  19  22
ATOM     22  N   UNL     1      -2.717   2.704  -0.178  1.00  0.00    -0.398 N 
ATOM     23  H   UNL     1      -3.280   1.937  -0.430  1.00  0.00     0.156 HD
ATOM     24  H   UNL     1      -3.116   3.599  -0.089  1.00  0.00     0.156 HD
ENDBRANCH  19  22
ENDBRANCH  11  14
ENDBRANCH   9  11
ENDBRANCH   8   9
ENDBRANCH   6   8
ENDBRANCH   5   6
ENDBRANCH   4   5
ENDBRANCH   3   4
ENDBRANCH   2   3
ENDBRANCH   1   2
BRANCH   1  25
ATOM     25  C   UNL     1      -1.097   8.575  -2.367  1.00  0.00     0.188 C 
BRANCH  25  26
ATOM     26  O   UNL     1      -2.431   8.118  -2.263  1.00  0.00    -0.376 OA
BRANCH  26  27
ATOM     27  C   UNL     1      -3.443   8.811  -2.981  1.00  0.00     0.202 C 
BRANCH  27  28
ATOM     28  C   UNL     1      -3.793  10.203  -2.460  1.00  0.00     0.261 C 
BRANCH  28  29
ATOM     29  O   UNL     1      -2.701  11.109  -2.684  1.00  0.00    -0.460 OA
BRANCH  29  30
ATOM     30  C   UNL     1      -2.210  11.711  -1.575  1.00  0.00     0.338 C 
ATOM     31  O   UNL     1      -2.676  11.698  -0.450  1.00  0.00    -0.246 OA
BRANCH  30  32
ATOM     32  C   UNL     1      -0.860  12.223  -1.887  1.00  0.00     0.060 A 
ATOM     33  C   UNL     1      -0.605  12.956  -3.048  1.00  0.00     0.016 A 
ATOM     34  C   UNL     1       0.173  11.929  -0.986  1.00  0.00     0.016 A 
ATOM     35  C   UNL     1       0.684  13.437  -3.282  1.00  0.00     0.010 A 
ATOM     36  C   UNL     1       1.463  12.394  -1.230  1.00  0.00     0.010 A 
ATOM     37  C   UNL     1       1.717  13.177  -2.365  1.00  0.00    -0.014 A 
BRANCH  37  38
ATOM     38  C   UNL     1       3.007  13.887  -2.495  1.00  0.00     0.031 A 
ATOM     39  C   UNL     1       4.181  13.277  -3.191  1.00  0.00     0.074 A 
ATOM     40  C   UNL     1       3.091  15.120  -1.963  1.00  0.00     0.049 A 
ATOM     41  N   UNL     1       5.334  13.823  -3.483  1.00  0.00    -0.248 NA
ATOM     42  C   UNL     1       4.051  11.874  -3.609  1.00  0.00     0.031 C 
ATOM     43  C   UNL     1       2.015  15.795  -1.233  1.00  0.00     0.029 A 
ATOM     44  N   UNL     1       4.119  16.024  -1.958  1.00  0.00    -0.354 N 
ATOM     45  C   UNL     1       6.054  12.850  -4.160  1.00  0.00     0.074 A 
ATOM     46  C   UNL     1       5.230  11.657  -4.181  1.00  0.00     0.031 C 
ATOM     47  C   UNL     1       2.435  17.014  -0.864  1.00  0.00     0.029 A 
ATOM     48  C   UNL     1       3.805  17.202  -1.327  1.00  0.00     0.049 A 
ATOM     49  H   UNL     1       4.997  15.847  -2.366  1.00  0.00     0.167 HD
ATOM     50  C   UNL     1       7.279  12.957  -4.729  1.00  0.00     0.037 A 
ATOM     51  C   UNL     1       4.537  18.316  -1.158  1.00  0.00     0.037 A 
ATOM     52  C   UNL     1       8.106  14.136  -4.669  1.00  0.00     0.049 A 
ATOM     53  C   UNL     1       5.913  18.382  -1.751  1.00  0.00     0.074 A 
ATOM     54  C   UNL     1       9.354  14.348  -5.229  1.00  0.00     0.029 A 
ATOM     55  N   UNL     1       7.772  15.302  -3.993  1.00  0.00    -0.354 N 
ATOM     56  N   UNL     1       6.550  17.486  -2.464  1.00  0.00    -0.248 NA
ATOM     57  C   UNL     1       6.666  19.623  -1.527  1.00  0.00     0.031 C 
ATOM     58  C   UNL     1       9.790  15.628  -4.864  1.00  0.00     0.029 A 
ATOM     59  C   UNL     1       8.799  16.227  -4.105  1.00  0.00     0.049 A 
ATOM     60  H   UNL     1       6.930  15.450  -3.506  1.00  0.00     0.167 HD
ATOM     61  C   UNL     1       7.766  18.065  -2.800  1.00  0.00     0.074 A 
ATOM     62  C   UNL     1       7.770  19.394  -2.222  1.00  0.00     0.031 C 
ATOM     63  C   UNL     1       8.787  17.543  -3.522  1.00  0.00     0.037 A 
BRANCH  50  64
ATOM     64  C   UNL     1       7.792  11.771  -5.491  1.00  0.00     0.057 A 
ATOM     65  C   UNL     1       8.854  11.000  -5.005  1.00  0.00     0.134 A 
ATOM     66  C   UNL     1       7.268  11.434  -6.746  1.00  0.00     0.134 A 
ATOM     67  F   UNL     1       9.405  11.273  -3.813  1.00  0.00    -0.206 F 
ATOM     68  C   UNL     1       9.382   9.938  -5.744  1.00  0.00     0.040 A 
ATOM     69  C   UNL     1       7.775  10.364  -7.486  1.00  0.00     0.040 A 
ATOM     70  F   UNL     1       6.245  12.130  -7.264  1.00  0.00    -0.206 F 
ATOM     71  C   UNL     1       8.840   9.617  -6.988  1.00  0.00     0.006 A 
ENDBRANCH  50  64
BRANCH  51  72
ATOM     72  C   UNL     1       3.968  19.474  -0.431  1.00  0.00     0.057 A 
ATOM     73  C   UNL     1       3.787  19.446   0.956  1.00  0.00     0.134 A 
ATOM     74  C   UNL     1       3.608  20.643  -1.110  1.00  0.00     0.134 A 
ATOM     75  F   UNL     1       4.106  18.349   1.659  1.00  0.00    -0.206 F 
ATOM     76  C   UNL     1       3.271  20.543   1.645  1.00  0.00     0.040 A 
ATOM     77  C   UNL     1       3.111  21.755  -0.432  1.00  0.00     0.040 A 
ATOM     78  F   UNL     1       3.773  20.729  -2.438  1.00  0.00    -0.206 F 
ATOM     79  C   UNL     1       2.939  21.706   0.950  1.00  0.00     0.006 A 
ENDBRANCH  51  72
BRANCH  63  80
ATOM     80  C   UNL     1       9.975  18.431  -3.739  1.00  0.00     0.057 A 
ATOM     81  C   UNL     1      10.211  19.016  -4.989  1.00  0.00     0.134 A 
ATOM     82  C   UNL     1      10.880  18.714  -2.708  1.00  0.00     0.134 A 
ATOM     83  F   UNL     1       9.384  18.782  -6.019  1.00  0.00    -0.206 F 
ATOM     84  C   UNL     1      11.303  19.858  -5.204  1.00  0.00     0.040 A 
ATOM     85  C   UNL     1      11.962  19.573  -2.905  1.00  0.00     0.040 A 
ATOM     86  F   UNL     1      10.697  18.200  -1.483  1.00  0.00    -0.206 F 
ATOM     87  C   UNL     1      12.177  20.145  -4.157  1.00  0.00     0.006 A 
ENDBRANCH  63  80
ENDBRANCH  37  38
ENDBRANCH  30  32
ENDBRANCH  29  30
ENDBRANCH  28  29
ENDBRANCH  27  28
ENDBRANCH  26  27
ENDBRANCH  25  26
ENDBRANCH   1  25
TORSDOF 21
