REMARK SMILES Cc1cc(C(=O)OCCOCCOCCOC(=O)c2ccc(-c3c4nc(c(-c5c(F)cccc5F)c5ccc([nH]5)c(-c5c(F)cccc5F)c5nc(c(-c6c(F)cccc6F)c6ccc3[nH]6)C=C5)C=C4)cc2)ccc1-c1ccc(/C=N/NC(=O)c2cccc(N(C)C)c2)o1
REMARK SMILES IDX 10 1 9 2 8 3 7 4 5 5 6 6 4 7 1 8 2 9 3 10 75 11 74 12 73 13
REMARK SMILES IDX 76 14 77 15 94 16 78 17 79 18 80 19 81 20 82 21 83 22 84 24
REMARK SMILES IDX 85 25 86 26 93 27 87 28 89 29 88 30 90 31 91 32 92 33 11 34
REMARK SMILES IDX 12 35 13 36 14 37 15 38 16 39 17 40 18 41 19 42 20 43 72 44
REMARK SMILES IDX 21 45 71 46 22 47 23 48 24 49 65 50 25 51 70 52 64 53 66 54
REMARK SMILES IDX 26 55 69 56 63 57 62 58 27 60 53 61 36 62 52 63 37 64 40 65
REMARK SMILES IDX 51 66 67 67 38 68 39 69 50 71 68 72 41 73 28 74 29 75 34 76
REMARK SMILES IDX 30 77 31 78 33 79 35 80 32 81 54 82 55 83 60 84 56 85 57 86
REMARK SMILES IDX 59 87 61 88 58 89 42 90 43 91 48 92 44 93 45 94 47 95 49 96
REMARK SMILES IDX 46 97
REMARK H PARENT 82 23 66 59 40 70
REMARK Flexibility Score: inf
ROOT
ATOM      1  O   UNL     1      -4.133  -4.384  -1.282  1.00  0.00    -0.376 OA
ENDROOT
BRANCH   1   2
ATOM      2  C   UNL     1      -5.288  -3.567  -1.427  1.00  0.00     0.202 C 
BRANCH   2   3
ATOM      3  C   UNL     1      -5.263  -1.877  -1.742  1.00  0.00     0.261 C 
BRANCH   3   4
ATOM      4  O   UNL     1      -4.095  -0.776  -1.411  1.00  0.00    -0.460 OA
BRANCH   4   5
ATOM      5  C   UNL     1      -3.396  -0.125  -0.414  1.00  0.00     0.338 C 
ATOM      6  O   UNL     1      -3.729   0.055   0.746  1.00  0.00    -0.246 OA
BRANCH   5   7
ATOM      7  C   UNL     1      -2.106   0.583  -0.748  1.00  0.00     0.060 A 
ATOM      8  C   UNL     1       1.711   0.411  -0.066  1.00  0.00     0.045 C 
ATOM      9  C   UNL     1       0.349   0.978  -0.412  1.00  0.00    -0.039 A 
ATOM     10  C   UNL     1      -0.800   0.134  -0.388  1.00  0.00     0.019 A 
ATOM     11  C   UNL     1       0.156   2.332  -0.719  1.00  0.00     0.020 A 
ATOM     12  C   UNL     1      -1.148   2.791  -0.993  1.00  0.00     0.013 A 
ATOM     13  C   UNL     1      -2.254   1.935  -1.018  1.00  0.00     0.016 A 
BRANCH  11  14
ATOM     14  C   UNL     1       1.212   3.333  -0.665  1.00  0.00     0.135 A 
ATOM     15  C   UNL     1       2.400   3.556  -1.329  1.00  0.00     0.051 A 
ATOM     16  O   UNL     1       0.987   4.337   0.230  1.00  0.00    -0.455 OA
ATOM     17  C   UNL     1       2.921   4.773  -0.814  1.00  0.00     0.053 A 
ATOM     18  C   UNL     1       2.030   5.208   0.147  1.00  0.00     0.147 A 
BRANCH  18  19
ATOM     19  C   UNL     1       2.008   6.342   1.025  1.00  0.00     0.180 C 
ATOM     20  N   UNL     1       3.026   7.140   1.091  1.00  0.00    -0.177 NA
BRANCH  20  21
ATOM     21  N   UNL     1       2.955   8.183   1.968  1.00  0.00    -0.243 N 
ATOM     22  C   UNL     1       2.539   8.241   3.287  1.00  0.00     0.271 C 
ATOM     23  H   UNL     1       3.251   9.046   1.597  1.00  0.00     0.194 HD
ATOM     24  O   UNL     1       2.386   9.351   3.803  1.00  0.00    -0.267 OA
BRANCH  22  25
ATOM     25  C   UNL     1       2.300   7.030   4.122  1.00  0.00     0.043 A 
ATOM     26  C   UNL     1       1.433   7.163   5.210  1.00  0.00     0.014 A 
ATOM     27  C   UNL     1       2.963   5.807   3.921  1.00  0.00     0.039 A 
ATOM     28  C   UNL     1       1.209   6.083   6.054  1.00  0.00     0.003 A 
ATOM     29  C   UNL     1       2.725   4.675   4.730  1.00  0.00     0.037 A 
ATOM     30  C   UNL     1       1.839   4.859   5.805  1.00  0.00     0.026 A 
BRANCH  29  31
ATOM     31  N   UNL     1       3.354   3.456   4.487  1.00  0.00    -0.378 N 
ATOM     32  C   UNL     1       3.153   2.300   5.355  1.00  0.00     0.143 C 
ATOM     33  C   UNL     1       3.887   3.169   3.157  1.00  0.00     0.143 C 
ENDBRANCH  29  31
ENDBRANCH  22  25
ENDBRANCH  20  21
ENDBRANCH  18  19
ENDBRANCH  11  14
ENDBRANCH   5   7
ENDBRANCH   4   5
ENDBRANCH   3   4
ENDBRANCH   2   3
ENDBRANCH   1   2
BRANCH   1  34
ATOM     34  C   UNL     1      -3.549  -5.315  -2.191  1.00  0.00     0.188 C 
BRANCH  34  35
ATOM     35  C   UNL     1      -3.816  -5.249  -3.680  1.00  0.00     0.188 C 
BRANCH  35  36
ATOM     36  O   UNL     1      -4.083  -3.911  -4.050  1.00  0.00    -0.376 OA
BRANCH  36  37
ATOM     37  C   UNL     1      -4.199  -3.713  -5.452  1.00  0.00     0.202 C 
BRANCH  37  38
ATOM     38  C   UNL     1      -2.839  -3.721  -6.178  1.00  0.00     0.261 C 
BRANCH  38  39
ATOM     39  O   UNL     1      -1.920  -2.821  -5.515  1.00  0.00    -0.460 OA
BRANCH  39  40
ATOM     40  C   UNL     1      -0.813  -3.369  -4.899  1.00  0.00     0.338 C 
ATOM     41  O   UNL     1      -0.149  -4.266  -5.332  1.00  0.00    -0.246 OA
BRANCH  40  42
ATOM     42  C   UNL     1      -0.746  -2.863  -3.470  1.00  0.00     0.060 A 
ATOM     43  C   UNL     1      -0.043  -3.511  -2.447  1.00  0.00     0.016 A 
ATOM     44  C   UNL     1      -1.743  -2.045  -3.057  1.00  0.00     0.016 A 
ATOM     45  C   UNL     1      -0.499  -3.476  -1.061  1.00  0.00     0.010 A 
ATOM     46  C   UNL     1      -2.270  -2.371  -1.799  1.00  0.00     0.010 A 
ATOM     47  C   UNL     1      -1.744  -2.977  -0.671  1.00  0.00    -0.014 A 
BRANCH  47  48
ATOM     48  C   UNL     1      -2.589  -3.353   0.634  1.00  0.00     0.031 A 
ATOM     49  C   UNL     1      -3.570  -2.555   1.603  1.00  0.00     0.074 A 
ATOM     50  C   UNL     1      -2.492  -4.637   1.052  1.00  0.00     0.049 A 
ATOM     51  N   UNL     1      -3.371  -2.352   2.895  1.00  0.00    -0.248 NA
ATOM     52  C   UNL     1      -4.924  -2.064   1.272  1.00  0.00     0.031 C 
ATOM     53  C   UNL     1      -3.174  -5.281   2.174  1.00  0.00     0.029 A 
ATOM     54  N   UNL     1      -1.579  -5.601   0.615  1.00  0.00    -0.354 N 
ATOM     55  C   UNL     1      -4.504  -1.700   3.432  1.00  0.00     0.074 A 
ATOM     56  C   UNL     1      -5.366  -1.417   2.346  1.00  0.00     0.031 C 
ATOM     57  C   UNL     1      -2.431  -6.332   2.559  1.00  0.00     0.029 A 
ATOM     58  C   UNL     1      -1.225  -6.340   1.746  1.00  0.00     0.049 A 
ATOM     59  H   UNL     1      -1.252  -5.733  -0.304  1.00  0.00     0.167 HD
ATOM     60  C   UNL     1      -4.886  -1.609   4.741  1.00  0.00     0.037 A 
ATOM     61  C   UNL     1       0.063  -6.336   2.187  1.00  0.00     0.037 A 
ATOM     62  C   UNL     1      -4.243  -2.648   5.488  1.00  0.00     0.049 A 
ATOM     63  C   UNL     1       0.190  -5.816   3.596  1.00  0.00     0.074 A 
ATOM     64  C   UNL     1      -4.633  -3.957   5.714  1.00  0.00     0.029 A 
ATOM     65  N   UNL     1      -2.893  -2.566   5.734  1.00  0.00    -0.354 N 
ATOM     66  N   UNL     1      -0.740  -5.146   4.221  1.00  0.00    -0.248 NA
ATOM     67  C   UNL     1       1.388  -5.998   4.410  1.00  0.00     0.031 C 
ATOM     68  C   UNL     1      -3.462  -4.704   5.972  1.00  0.00     0.029 A 
ATOM     69  C   UNL     1      -2.394  -3.824   5.995  1.00  0.00     0.049 A 
ATOM     70  H   UNL     1      -2.363  -1.736   5.724  1.00  0.00     0.167 HD
ATOM     71  C   UNL     1      -0.274  -4.766   5.451  1.00  0.00     0.074 A 
ATOM     72  C   UNL     1       1.048  -5.350   5.536  1.00  0.00     0.031 C 
ATOM     73  C   UNL     1      -0.991  -3.980   6.301  1.00  0.00     0.037 A 
BRANCH  60  74
ATOM     74  C   UNL     1      -6.141  -0.857   5.181  1.00  0.00     0.057 A 
ATOM     75  C   UNL     1      -7.053  -1.357   6.126  1.00  0.00     0.134 A 
ATOM     76  C   UNL     1      -6.489   0.403   4.647  1.00  0.00     0.134 A 
ATOM     77  F   UNL     1      -6.806  -2.484   6.807  1.00  0.00    -0.206 F 
ATOM     78  C   UNL     1      -8.281  -0.727   6.407  1.00  0.00     0.040 A 
ATOM     79  C   UNL     1      -7.728   1.025   4.888  1.00  0.00     0.040 A 
ATOM     80  F   UNL     1      -5.643   1.062   3.841  1.00  0.00    -0.206 F 
ATOM     81  C   UNL     1      -8.643   0.445   5.754  1.00  0.00     0.006 A 
ENDBRANCH  60  74
BRANCH  61  82
ATOM     82  C   UNL     1       1.095  -6.236   1.105  1.00  0.00     0.057 A 
ATOM     83  C   UNL     1       1.041  -7.164   0.042  1.00  0.00     0.134 A 
ATOM     84  C   UNL     1       1.927  -5.127   0.914  1.00  0.00     0.134 A 
ATOM     85  F   UNL     1       0.262  -8.255   0.139  1.00  0.00    -0.206 F 
ATOM     86  C   UNL     1       1.690  -6.954  -1.179  1.00  0.00     0.040 A 
ATOM     87  C   UNL     1       2.599  -4.912  -0.305  1.00  0.00     0.040 A 
ATOM     88  F   UNL     1       1.991  -4.153   1.833  1.00  0.00    -0.206 F 
ATOM     89  C   UNL     1       2.462  -5.815  -1.361  1.00  0.00     0.006 A 
ENDBRANCH  61  82
BRANCH  73  90
ATOM     90  C   UNL     1      -0.459  -3.293   7.526  1.00  0.00     0.057 A 
ATOM     91  C   UNL     1       0.848  -2.801   7.625  1.00  0.00     0.134 A 
ATOM     92  C   UNL     1      -1.330  -2.929   8.578  1.00  0.00     0.134 A 
ATOM     93  F   UNL     1       1.741  -2.985   6.643  1.00  0.00    -0.206 F 
ATOM     94  C   UNL     1       1.275  -2.041   8.718  1.00  0.00     0.040 A 
ATOM     95  C   UNL     1      -0.930  -2.120   9.642  1.00  0.00     0.040 A 
ATOM     96  F   UNL     1      -2.615  -3.316   8.595  1.00  0.00    -0.206 F 
ATOM     97  C   UNL     1       0.383  -1.684   9.723  1.00  0.00     0.006 A 
ENDBRANCH  73  90
ENDBRANCH  47  48
ENDBRANCH  40  42
ENDBRANCH  39  40
ENDBRANCH  38  39
ENDBRANCH  37  38
ENDBRANCH  36  37
ENDBRANCH  35  36
ENDBRANCH  34  35
ENDBRANCH   1  34
TORSDOF 22
