REMARK SMILES CCc1cc(OC(F)(F)F)cc2c1O[C@@H](C(F)(F)F)C(C(=O)OCCOCCOCCOC(=O)c1ccc(-c3c4nc(c(-c5c(F)cccc5F)c5ccc([nH]5)c(-c5c(F)cccc5F)c5nc(c(-c6c(F)cccc6F)c6ccc3[nH]6)C=C5)C=C4)cc1)=C2
REMARK SMILES IDX 27 1 26 2 25 3 24 4 23 5 21 6 22 7 20 8 3 9 4 10 13 11 5 12
REMARK SMILES IDX 12 13 14 14 11 15 89 16 15 17 2 18 1 19 6 20 7 21 8 22 9 23
REMARK SMILES IDX 10 24 16 25 17 26 18 27 19 28 28 29 29 30 30 31 31 32 32 33
REMARK SMILES IDX 33 34 34 35 35 36 36 37 88 38 37 39 87 40 38 41 39 42 40 43
REMARK SMILES IDX 81 44 41 45 86 46 80 47 82 48 42 49 85 50 79 51 78 52 43 54
REMARK SMILES IDX 69 55 52 56 68 57 53 58 56 59 67 60 83 61 54 62 55 63 66 65
REMARK SMILES IDX 84 66 57 67 44 68 45 69 50 70 46 71 47 72 49 73 51 74 48 75
REMARK SMILES IDX 70 76 71 77 76 78 72 79 73 80 75 81 77 82 74 83 58 84 59 85
REMARK SMILES IDX 64 86 60 87 61 88 63 89 65 90 62 91
REMARK H PARENT 82 53 56 64
REMARK Flexibility Score: inf
ROOT
ATOM      1  C   UNL     1       1.370   6.945  -6.029  1.00  0.00     0.188 C 
ENDROOT
BRANCH   1   2
ATOM      2  O   UNL     1       2.183   7.733  -6.865  1.00  0.00    -0.376 OA
BRANCH   2   3
ATOM      3  C   UNL     1       3.592   7.654  -6.782  1.00  0.00     0.202 C 
BRANCH   3   4
ATOM      4  C   UNL     1       4.365   6.359  -6.472  1.00  0.00     0.261 C 
BRANCH   4   5
ATOM      5  O   UNL     1       3.637   5.291  -5.859  1.00  0.00    -0.460 OA
BRANCH   5   6
ATOM      6  C   UNL     1       3.776   5.144  -4.518  1.00  0.00     0.338 C 
ATOM      7  O   UNL     1       4.416   5.854  -3.778  1.00  0.00    -0.246 OA
BRANCH   6   8
ATOM      8  C   UNL     1       2.922   4.028  -4.056  1.00  0.00     0.087 C 
ATOM      9  C   UNL     1       0.978   0.836  -2.180  1.00  0.00    -0.002 A 
ATOM     10  C   UNL     1       0.838  -0.379  -2.876  1.00  0.00     0.054 A 
ATOM     11  C   UNL     1       1.644   1.895  -2.813  1.00  0.00     0.131 A 
ATOM     12  C   UNL     1       1.385  -0.546  -4.151  1.00  0.00     0.130 A 
ATOM     13  C   UNL     1       2.197   1.742  -4.094  1.00  0.00     0.021 A 
ATOM     14  O   UNL     1       1.798   3.065  -2.112  1.00  0.00    -0.475 OA
ATOM     15  C   UNL     1       2.051   0.523  -4.762  1.00  0.00     0.058 A 
ATOM     16  C   UNL     1       3.004   2.828  -4.654  1.00  0.00     0.027 C 
ATOM     17  C   UNL     1       1.938   4.252  -2.934  1.00  0.00     0.316 C 
BRANCH   9  18
ATOM     18  C   UNL     1       0.402   0.978  -0.788  1.00  0.00     0.036 C 
ATOM     19  C   UNL     1       0.965  -0.039   0.198  1.00  0.00     0.009 C 
ENDBRANCH   9  18
BRANCH  12  20
ATOM     20  O   UNL     1       1.337  -1.692  -4.895  1.00  0.00    -0.406 OA
BRANCH  20  21
ATOM     21  C   UNL     1       1.048  -2.901  -4.209  1.00  0.00     0.573 C 
ATOM     22  F   UNL     1       1.859  -3.067  -3.141  1.00  0.00    -0.132 F 
ATOM     23  F   UNL     1      -0.240  -2.933  -3.806  1.00  0.00    -0.132 F 
ATOM     24  F   UNL     1       1.250  -3.938  -5.052  1.00  0.00    -0.132 F 
ENDBRANCH  20  21
ENDBRANCH  12  20
BRANCH  17  25
ATOM     25  C   UNL     1       2.147   5.458  -2.005  1.00  0.00     0.430 C 
ATOM     26  F   UNL     1       2.080   6.624  -2.691  1.00  0.00    -0.167 F 
ATOM     27  F   UNL     1       1.149   5.517  -1.084  1.00  0.00    -0.167 F 
ATOM     28  F   UNL     1       3.311   5.416  -1.329  1.00  0.00    -0.167 F 
ENDBRANCH  17  25
ENDBRANCH   6   8
ENDBRANCH   5   6
ENDBRANCH   4   5
ENDBRANCH   3   4
ENDBRANCH   2   3
ENDBRANCH   1   2
BRANCH   1  29
ATOM     29  C   UNL     1       0.828   5.670  -6.710  1.00  0.00     0.188 C 
BRANCH  29  30
ATOM     30  O   UNL     1       1.069   5.443  -8.093  1.00  0.00    -0.376 OA
BRANCH  30  31
ATOM     31  C   UNL     1       0.899   6.510  -9.018  1.00  0.00     0.202 C 
BRANCH  31  32
ATOM     32  C   UNL     1      -0.454   7.232  -9.089  1.00  0.00     0.261 C 
BRANCH  32  33
ATOM     33  O   UNL     1      -0.956   7.701  -7.827  1.00  0.00    -0.460 OA
BRANCH  33  34
ATOM     34  C   UNL     1      -2.094   7.100  -7.400  1.00  0.00     0.338 C 
ATOM     35  O   UNL     1      -2.739   6.239  -7.974  1.00  0.00    -0.246 OA
BRANCH  34  36
ATOM     36  C   UNL     1      -2.391   7.509  -6.014  1.00  0.00     0.060 A 
ATOM     37  C   UNL     1      -2.463   6.507  -5.037  1.00  0.00     0.016 A 
ATOM     38  C   UNL     1      -2.684   8.835  -5.693  1.00  0.00     0.016 A 
ATOM     39  C   UNL     1      -2.862   6.822  -3.740  1.00  0.00     0.010 A 
ATOM     40  C   UNL     1      -3.106   9.147  -4.395  1.00  0.00     0.010 A 
ATOM     41  C   UNL     1      -3.228   8.137  -3.423  1.00  0.00    -0.014 A 
BRANCH  41  42
ATOM     42  C   UNL     1      -3.906   8.410  -2.133  1.00  0.00     0.031 A 
ATOM     43  C   UNL     1      -5.410   8.436  -2.095  1.00  0.00     0.074 A 
ATOM     44  C   UNL     1      -3.202   8.594  -1.003  1.00  0.00     0.049 A 
ATOM     45  N   UNL     1      -6.213   8.659  -1.086  1.00  0.00    -0.248 NA
ATOM     46  C   UNL     1      -6.100   8.171  -3.368  1.00  0.00     0.031 C 
ATOM     47  C   UNL     1      -1.745   8.552  -0.896  1.00  0.00     0.029 A 
ATOM     48  N   UNL     1      -3.628   8.858   0.275  1.00  0.00    -0.354 N 
ATOM     49  C   UNL     1      -7.500   8.560  -1.600  1.00  0.00     0.074 A 
ATOM     50  C   UNL     1      -7.372   8.288  -3.016  1.00  0.00     0.031 C 
ATOM     51  C   UNL     1      -1.396   8.796   0.379  1.00  0.00     0.029 A 
ATOM     52  C   UNL     1      -2.602   9.034   1.171  1.00  0.00     0.049 A 
ATOM     53  H   UNL     1      -4.578   8.916   0.525  1.00  0.00     0.167 HD
ATOM     54  C   UNL     1      -8.682   8.677  -0.951  1.00  0.00     0.037 A 
ATOM     55  C   UNL     1      -2.636   9.368   2.475  1.00  0.00     0.037 A 
ATOM     56  C   UNL     1      -8.815   8.956   0.454  1.00  0.00     0.049 A 
ATOM     57  C   UNL     1      -3.964   9.568   3.159  1.00  0.00     0.074 A 
ATOM     58  C   UNL     1      -9.971   9.079   1.204  1.00  0.00     0.029 A 
ATOM     59  N   UNL     1      -7.752   9.164   1.320  1.00  0.00    -0.354 N 
ATOM     60  N   UNL     1      -5.174   9.444   2.671  1.00  0.00    -0.248 NA
ATOM     61  C   UNL     1      -3.927   9.951   4.578  1.00  0.00     0.031 C 
ATOM     62  C   UNL     1      -9.610   9.407   2.515  1.00  0.00     0.029 A 
ATOM     63  C   UNL     1      -8.227   9.440   2.592  1.00  0.00     0.049 A 
ATOM     64  H   UNL     1      -6.801   9.122   1.068  1.00  0.00     0.167 HD
ATOM     65  C   UNL     1      -6.040   9.703   3.727  1.00  0.00     0.074 A 
ATOM     66  C   UNL     1      -5.217   9.982   4.885  1.00  0.00     0.031 C 
ATOM     67  C   UNL     1      -7.396   9.708   3.738  1.00  0.00     0.037 A 
BRANCH  54  68
ATOM     68  C   UNL     1      -9.932   8.526  -1.767  1.00  0.00     0.057 A 
ATOM     69  C   UNL     1     -10.351   7.281  -2.252  1.00  0.00     0.134 A 
ATOM     70  C   UNL     1     -10.738   9.636  -2.049  1.00  0.00     0.134 A 
ATOM     71  F   UNL     1      -9.615   6.182  -2.030  1.00  0.00    -0.206 F 
ATOM     72  C   UNL     1     -11.518   7.148  -3.006  1.00  0.00     0.040 A 
ATOM     73  C   UNL     1     -11.919   9.512  -2.781  1.00  0.00     0.040 A 
ATOM     74  F   UNL     1     -10.394  10.857  -1.611  1.00  0.00    -0.206 F 
ATOM     75  C   UNL     1     -12.309   8.265  -3.267  1.00  0.00     0.006 A 
ENDBRANCH  54  68
BRANCH  55  76
ATOM     76  C   UNL     1      -1.371   9.547   3.230  1.00  0.00     0.057 A 
ATOM     77  C   UNL     1      -0.988   8.649   4.232  1.00  0.00     0.134 A 
ATOM     78  C   UNL     1      -0.530  10.641   2.988  1.00  0.00     0.134 A 
ATOM     79  F   UNL     1      -1.767   7.598   4.529  1.00  0.00    -0.206 F 
ATOM     80  C   UNL     1       0.175   8.840   4.979  1.00  0.00     0.040 A 
ATOM     81  C   UNL     1       0.648  10.831   3.711  1.00  0.00     0.040 A 
ATOM     82  F   UNL     1      -0.844  11.540   2.044  1.00  0.00    -0.206 F 
ATOM     83  C   UNL     1       1.000   9.932   4.716  1.00  0.00     0.006 A 
ENDBRANCH  55  76
BRANCH  67  84
ATOM     84  C   UNL     1      -8.075   9.986   5.047  1.00  0.00     0.057 A 
ATOM     85  C   UNL     1      -8.098  11.267   5.613  1.00  0.00     0.134 A 
ATOM     86  C   UNL     1      -8.748   8.965   5.732  1.00  0.00     0.134 A 
ATOM     87  F   UNL     1      -7.464  12.286   5.013  1.00  0.00    -0.206 F 
ATOM     88  C   UNL     1      -8.745  11.518   6.824  1.00  0.00     0.040 A 
ATOM     89  C   UNL     1      -9.420   9.209   6.930  1.00  0.00     0.040 A 
ATOM     90  F   UNL     1      -8.773   7.717   5.240  1.00  0.00    -0.206 F 
ATOM     91  C   UNL     1      -9.415  10.488   7.483  1.00  0.00     0.006 A 
ENDBRANCH  67  84
ENDBRANCH  41  42
ENDBRANCH  34  36
ENDBRANCH  33  34
ENDBRANCH  32  33
ENDBRANCH  31  32
ENDBRANCH  30  31
ENDBRANCH  29  30
ENDBRANCH   1  29
TORSDOF 21
