REMARK SMILES CCCCCCNC(=O)Oc1cccc(-c2ccc([C@@H](C)C(=O)OCCOCCOCCOC(=O)c3ccc(-c4c5nc(c(-c6c(F)cccc6F)c6ccc([nH]6)c(-c6c(F)cccc6F)c6nc(c(-c7c(F)cccc7F)c7ccc4[nH]7)C=C6)C=C5)cc3)cc2Cl)c1
REMARK SMILES IDX 25 1 24 2 22 3 23 4 20 5 21 6 19 7 16 8 17 9 91 10 18 11
REMARK SMILES IDX 90 12 92 13 15 14 11 15 12 16 93 17 13 18 14 19 10 20 8 21
REMARK SMILES IDX 7 22 9 24 6 25 5 26 4 27 3 28 2 29 1 30 26 31 27 32 28 33
REMARK SMILES IDX 29 34 30 35 31 36 32 37 33 38 34 39 35 40 36 41 37 42 89 43
REMARK SMILES IDX 38 44 88 45 39 46 40 47 41 48 82 49 42 50 87 51 81 52 83 53
REMARK SMILES IDX 43 54 86 55 80 56 79 57 44 59 70 60 53 61 69 62 54 63 57 64
REMARK SMILES IDX 68 65 84 66 55 67 56 68 67 70 85 71 58 72 45 73 46 74 51 75
REMARK SMILES IDX 47 76 48 77 50 78 52 79 49 80 71 81 72 82 77 83 73 84 74 85
REMARK SMILES IDX 76 86 78 87 75 88 59 89 60 90 65 91 61 92 62 93 64 94 66 95
REMARK SMILES IDX 63 96
REMARK H PARENT 7 23 83 58 57 69
REMARK Flexibility Score: inf
ROOT
ATOM      1  C   UNL     1      -1.770  15.425  -3.278  1.00  0.00     0.261 C 
ENDROOT
BRANCH   1   2
ATOM      2  O   UNL     1      -2.864  14.478  -3.232  1.00  0.00    -0.463 OA
BRANCH   2   3
ATOM      3  C   UNL     1      -3.626  14.382  -4.351  1.00  0.00     0.313 C 
ATOM      4  O   UNL     1      -3.451  15.083  -5.346  1.00  0.00    -0.252 OA
BRANCH   3   5
ATOM      5  C   UNL     1      -4.734  13.324  -4.337  1.00  0.00     0.126 C 
ATOM      6  C   UNL     1      -6.080  14.016  -4.538  1.00  0.00     0.025 C 
BRANCH   5   7
ATOM      7  C   UNL     1      -4.830  12.269  -3.235  1.00  0.00    -0.033 A 
ATOM      8  C   UNL     1      -4.974  10.169  -1.270  1.00  0.00     0.000 A 
ATOM      9  C   UNL     1      -4.951  11.533  -0.909  1.00  0.00     0.010 A 
ATOM     10  C   UNL     1      -4.957   9.881  -2.646  1.00  0.00     0.049 A 
ATOM     11  C   UNL     1      -4.893  12.565  -1.869  1.00  0.00     0.005 A 
ATOM     12  C   UNL     1      -4.888  10.909  -3.603  1.00  0.00     0.025 A 
ATOM     13  Cl  UNL     1      -5.048   8.260  -3.254  1.00  0.00    -0.084 Cl
BRANCH   8  14
ATOM     14  C   UNL     1      -5.055   9.124  -0.223  1.00  0.00    -0.013 A 
ATOM     15  C   UNL     1      -4.194   7.138   0.894  1.00  0.00     0.133 A 
ATOM     16  C   UNL     1      -5.318   7.074   1.713  1.00  0.00     0.047 A 
ATOM     17  C   UNL     1      -4.051   8.149  -0.064  1.00  0.00     0.056 A 
ATOM     18  C   UNL     1      -6.306   8.045   1.587  1.00  0.00     0.004 A 
ATOM     19  C   UNL     1      -6.177   9.056   0.627  1.00  0.00     0.009 A 
BRANCH  15  20
ATOM     20  O   UNL     1      -3.296   6.056   0.966  1.00  0.00    -0.410 OA
BRANCH  20  21
ATOM     21  C   UNL     1      -1.962   6.322   1.227  1.00  0.00     0.412 C 
ATOM     22  N   UNL     1      -1.174   5.201   1.224  1.00  0.00    -0.321 N 
ATOM     23  H   UNL     1      -0.205   5.347   1.317  1.00  0.00     0.167 HD
ATOM     24  O   UNL     1      -1.484   7.426   1.476  1.00  0.00    -0.224 OA
BRANCH  22  25
ATOM     25  C   UNL     1      -1.610   3.823   1.097  1.00  0.00     0.119 C 
BRANCH  25  26
ATOM     26  C   UNL     1      -0.984   3.108  -0.101  1.00  0.00     0.021 C 
BRANCH  26  27
ATOM     27  C   UNL     1       0.544   2.978  -0.062  1.00  0.00     0.002 C 
BRANCH  27  28
ATOM     28  C   UNL     1       1.118   2.211   1.135  1.00  0.00    -0.000 C 
BRANCH  28  29
ATOM     29  C   UNL     1       0.651   0.760   1.279  1.00  0.00    -0.003 C 
ATOM     30  C   UNL     1       1.061  -0.128   0.114  1.00  0.00     0.004 C 
ENDBRANCH  28  29
ENDBRANCH  27  28
ENDBRANCH  26  27
ENDBRANCH  25  26
ENDBRANCH  22  25
ENDBRANCH  20  21
ENDBRANCH  15  20
ENDBRANCH   8  14
ENDBRANCH   5   7
ENDBRANCH   3   5
ENDBRANCH   2   3
ENDBRANCH   1   2
BRANCH   1  31
ATOM     31  C   UNL     1      -0.369  14.834  -3.053  1.00  0.00     0.202 C 
BRANCH  31  32
ATOM     32  O   UNL     1       0.065  13.795  -3.921  1.00  0.00    -0.376 OA
BRANCH  32  33
ATOM     33  C   UNL     1      -0.699  12.598  -4.018  1.00  0.00     0.188 C 
BRANCH  33  34
ATOM     34  C   UNL     1      -1.410  12.054  -2.771  1.00  0.00     0.188 C 
BRANCH  34  35
ATOM     35  O   UNL     1      -0.984  12.640  -1.561  1.00  0.00    -0.376 OA
BRANCH  35  36
ATOM     36  C   UNL     1      -0.544  11.758  -0.547  1.00  0.00     0.202 C 
BRANCH  36  37
ATOM     37  C   UNL     1       0.769  11.027  -0.857  1.00  0.00     0.261 C 
BRANCH  37  38
ATOM     38  O   UNL     1       0.841  10.379  -2.142  1.00  0.00    -0.460 OA
BRANCH  38  39
ATOM     39  C   UNL     1       0.136   9.241  -2.307  1.00  0.00     0.338 C 
ATOM     40  O   UNL     1      -0.566   8.675  -1.478  1.00  0.00    -0.246 OA
BRANCH  39  41
ATOM     41  C   UNL     1       0.165   8.890  -3.741  1.00  0.00     0.060 A 
ATOM     42  C   UNL     1      -1.039   8.831  -4.459  1.00  0.00     0.016 A 
ATOM     43  C   UNL     1       1.379   8.636  -4.380  1.00  0.00     0.016 A 
ATOM     44  C   UNL     1      -1.032   8.512  -5.819  1.00  0.00     0.010 A 
ATOM     45  C   UNL     1       1.383   8.291  -5.734  1.00  0.00     0.010 A 
ATOM     46  C   UNL     1       0.178   8.210  -6.457  1.00  0.00    -0.014 A 
BRANCH  46  47
ATOM     47  C   UNL     1       0.197   7.654  -7.832  1.00  0.00     0.031 A 
ATOM     48  C   UNL     1       0.328   6.167  -8.003  1.00  0.00     0.074 A 
ATOM     49  C   UNL     1       0.141   8.454  -8.912  1.00  0.00     0.049 A 
ATOM     50  N   UNL     1       0.519   5.468  -9.091  1.00  0.00    -0.248 NA
ATOM     51  C   UNL     1       0.239   5.362  -6.774  1.00  0.00     0.031 C 
ATOM     52  C   UNL     1      -0.040   9.903  -8.886  1.00  0.00     0.029 A 
ATOM     53  N   UNL     1       0.255   8.151 -10.248  1.00  0.00    -0.354 N 
ATOM     54  C   UNL     1       0.594   4.144  -8.678  1.00  0.00     0.074 A 
ATOM     55  C   UNL     1       0.445   4.139  -7.238  1.00  0.00     0.031 C 
ATOM     56  C   UNL     1      -0.002  10.368 -10.148  1.00  0.00     0.029 A 
ATOM     57  C   UNL     1       0.252   9.256 -11.064  1.00  0.00     0.049 A 
ATOM     58  H   UNL     1       0.333   7.230 -10.587  1.00  0.00     0.167 HD
ATOM     59  C   UNL     1       0.773   3.033  -9.431  1.00  0.00     0.037 A 
ATOM     60  C   UNL     1       0.469   9.359 -12.390  1.00  0.00     0.037 A 
ATOM     61  C   UNL     1       0.920   3.041 -10.862  1.00  0.00     0.049 A 
ATOM     62  C   UNL     1       0.767   8.118 -13.194  1.00  0.00     0.074 A 
ATOM     63  C   UNL     1       1.071   1.964 -11.718  1.00  0.00     0.029 A 
ATOM     64  N   UNL     1       0.950   4.183 -11.647  1.00  0.00    -0.354 N 
ATOM     65  N   UNL     1       0.810   6.867 -12.803  1.00  0.00    -0.248 NA
ATOM     66  C   UNL     1       1.060   8.306 -14.623  1.00  0.00     0.031 C 
ATOM     67  C   UNL     1       1.256   2.458 -13.012  1.00  0.00     0.029 A 
ATOM     68  C   UNL     1       1.159   3.840 -12.972  1.00  0.00     0.049 A 
ATOM     69  H   UNL     1       0.839   5.103 -11.312  1.00  0.00     0.167 HD
ATOM     70  C   UNL     1       1.104   6.120 -13.938  1.00  0.00     0.074 A 
ATOM     71  C   UNL     1       1.219   7.056 -15.036  1.00  0.00     0.031 C 
ATOM     72  C   UNL     1       1.264   4.779 -14.059  1.00  0.00     0.037 A 
BRANCH  59  73
ATOM     73  C   UNL     1       0.859   1.717  -8.715  1.00  0.00     0.057 A 
ATOM     74  C   UNL     1      -0.256   1.122  -8.112  1.00  0.00     0.134 A 
ATOM     75  C   UNL     1       2.073   1.020  -8.659  1.00  0.00     0.134 A 
ATOM     76  F   UNL     1      -1.445   1.744  -8.117  1.00  0.00    -0.206 F 
ATOM     77  C   UNL     1      -0.162  -0.108  -7.458  1.00  0.00     0.040 A 
ATOM     78  C   UNL     1       2.173  -0.224  -8.033  1.00  0.00     0.040 A 
ATOM     79  F   UNL     1       3.180   1.530  -9.220  1.00  0.00    -0.206 F 
ATOM     80  C   UNL     1       1.054  -0.787  -7.424  1.00  0.00     0.006 A 
ENDBRANCH  59  73
BRANCH  60  81
ATOM     81  C   UNL     1       0.446  10.690 -13.051  1.00  0.00     0.057 A 
ATOM     82  C   UNL     1      -0.550  11.019 -13.978  1.00  0.00     0.134 A 
ATOM     83  C   UNL     1       1.436  11.650 -12.803  1.00  0.00     0.134 A 
ATOM     84  F   UNL     1      -1.508  10.131 -14.282  1.00  0.00    -0.206 F 
ATOM     85  C   UNL     1      -0.554  12.246 -14.645  1.00  0.00     0.040 A 
ATOM     86  C   UNL     1       1.429  12.891 -13.441  1.00  0.00     0.040 A 
ATOM     87  F   UNL     1       2.423  11.396 -11.932  1.00  0.00    -0.206 F 
ATOM     88  C   UNL     1       0.435  13.189 -14.372  1.00  0.00     0.006 A 
ENDBRANCH  60  81
BRANCH  72  89
ATOM     89  C   UNL     1       1.548   4.231 -15.429  1.00  0.00     0.057 A 
ATOM     90  C   UNL     1       2.791   4.401 -16.051  1.00  0.00     0.134 A 
ATOM     91  C   UNL     1       0.587   3.465 -16.103  1.00  0.00     0.134 A 
ATOM     92  F   UNL     1       3.750   5.133 -15.465  1.00  0.00    -0.206 F 
ATOM     93  C   UNL     1       3.064   3.840 -17.300  1.00  0.00     0.040 A 
ATOM     94  C   UNL     1       0.858   2.875 -17.339  1.00  0.00     0.040 A 
ATOM     95  F   UNL     1      -0.621   3.254 -15.559  1.00  0.00    -0.206 F 
ATOM     96  C   UNL     1       2.099   3.066 -17.943  1.00  0.00     0.006 A 
ENDBRANCH  72  89
ENDBRANCH  46  47
ENDBRANCH  39  41
ENDBRANCH  38  39
ENDBRANCH  37  38
ENDBRANCH  36  37
ENDBRANCH  35  36
ENDBRANCH  34  35
ENDBRANCH  33  34
ENDBRANCH  32  33
ENDBRANCH  31  32
ENDBRANCH   1  31
TORSDOF 26
