REMARK SMILES C#CCOc1ccc(/C=C(\Sc2nc(C)n[nH]2)C(=O)OCCOCCOCCOC(=O)c2ccc(-c3c4nc(c(-c5c(F)cccc5F)c5ccc([nH]5)c(-c5c(F)cccc5F)c5nc(c(-c6c(F)cccc6F)c6ccc3[nH]6)C=C5)C=C4)cc2)cc1
REMARK SMILES IDX 24 1 23 2 22 3 21 4 20 5 18 6 19 7 10 8 9 9 8 10 5 11 6 12
REMARK SMILES IDX 87 13 7 14 86 15 4 16 3 17 2 18 1 19 11 20 12 21 13 22 17 23
REMARK SMILES IDX 14 24 16 25 15 27 25 28 26 29 27 30 28 31 29 32 30 33 31 34
REMARK SMILES IDX 32 35 33 36 85 37 34 38 84 39 35 40 36 41 37 42 78 43 38 44
REMARK SMILES IDX 83 45 77 46 79 47 39 48 82 49 76 50 75 51 40 53 66 54 49 55
REMARK SMILES IDX 65 56 50 57 53 58 64 59 80 60 51 61 52 62 63 64 81 65 54 66
REMARK SMILES IDX 41 67 42 68 47 69 43 70 44 71 46 72 48 73 45 74 67 75 68 76
REMARK SMILES IDX 73 77 69 78 70 79 72 80 74 81 71 82 55 83 56 84 61 85 57 86
REMARK SMILES IDX 58 87 60 88 62 89 59 90
REMARK H PARENT 17 26 79 52 53 63
REMARK Flexibility Score: inf
ROOT
ATOM      1  C   UNL     1      -0.705   9.056   3.141  1.00  0.00     0.188 C 
ENDROOT
BRANCH   1   2
ATOM      2  O   UNL     1      -0.236  10.402   3.191  1.00  0.00    -0.376 OA
BRANCH   2   3
ATOM      3  C   UNL     1      -0.778  11.347   2.263  1.00  0.00     0.202 C 
BRANCH   3   4
ATOM      4  C   UNL     1      -0.821  10.958   0.776  1.00  0.00     0.261 C 
BRANCH   4   5
ATOM      5  O   UNL     1      -1.635   9.798   0.527  1.00  0.00    -0.459 OA
BRANCH   5   6
ATOM      6  C   UNL     1      -1.104   8.852  -0.286  1.00  0.00     0.345 C 
ATOM      7  O   UNL     1      -0.079   8.957  -0.945  1.00  0.00    -0.246 OA
BRANCH   6   8
ATOM      8  C   UNL     1      -1.842   7.557  -0.146  1.00  0.00     0.101 C 
ATOM      9  C   UNL     1      -1.062   6.570   0.342  1.00  0.00     0.031 C 
BRANCH   9  10
ATOM     10  C   UNL     1      -1.344   5.144   0.510  1.00  0.00    -0.024 A 
ATOM     11  C   UNL     1      -2.029   2.444   0.271  1.00  0.00     0.120 A 
ATOM     12  C   UNL     1      -2.745   3.279   1.133  1.00  0.00     0.047 A 
ATOM     13  C   UNL     1      -0.918   2.940  -0.401  1.00  0.00     0.047 A 
ATOM     14  C   UNL     1      -2.399   4.629   1.265  1.00  0.00     0.012 A 
ATOM     15  C   UNL     1      -0.552   4.274  -0.251  1.00  0.00     0.012 A 
BRANCH  11  16
ATOM     16  O   UNL     1      -2.622   1.269  -0.068  1.00  0.00    -0.481 OA
BRANCH  16  17
ATOM     17  C   UNL     1      -1.921   0.024   0.001  1.00  0.00     0.318 C 
BRANCH  17  18
ATOM     18  C   UNL     1      -0.401   0.024   0.001  1.00  0.00    -0.065 C 
ATOM     19  C   UNL     1       0.903   0.024   0.001  1.00  0.00     0.007 C 
ENDBRANCH  17  18
ENDBRANCH  16  17
ENDBRANCH  11  16
ENDBRANCH   9  10
BRANCH   8  20
ATOM     20  S   UNL     1      -3.512   7.611  -0.578  1.00  0.00    -0.043 SA
BRANCH  20  21
ATOM     21  C   UNL     1      -3.871   6.043  -1.182  1.00  0.00     0.188 A 
ATOM     22  N   UNL     1      -4.888   5.291  -0.831  1.00  0.00    -0.206 NA
ATOM     23  N   UNL     1      -3.173   5.432  -2.176  1.00  0.00    -0.254 N 
ATOM     24  C   UNL     1      -4.734   4.178  -1.620  1.00  0.00     0.148 A 
ATOM     25  N   UNL     1      -3.716   4.241  -2.492  1.00  0.00    -0.158 NA
ATOM     26  H   UNL     1      -2.375   5.812  -2.610  1.00  0.00     0.192 HD
ATOM     27  C   UNL     1      -5.616   2.999  -1.501  1.00  0.00     0.092 C 
ENDBRANCH  20  21
ENDBRANCH   8  20
ENDBRANCH   6   8
ENDBRANCH   5   6
ENDBRANCH   4   5
ENDBRANCH   3   4
ENDBRANCH   2   3
ENDBRANCH   1   2
BRANCH   1  28
ATOM     28  C   UNL     1      -2.225   8.789   3.214  1.00  0.00     0.188 C 
BRANCH  28  29
ATOM     29  O   UNL     1      -3.005   9.954   3.019  1.00  0.00    -0.376 OA
BRANCH  29  30
ATOM     30  C   UNL     1      -3.882  10.343   4.063  1.00  0.00     0.202 C 
BRANCH  30  31
ATOM     31  C   UNL     1      -3.278  10.741   5.414  1.00  0.00     0.261 C 
BRANCH  31  32
ATOM     32  O   UNL     1      -2.099  10.042   5.802  1.00  0.00    -0.460 OA
BRANCH  32  33
ATOM     33  C   UNL     1      -2.293   8.829   6.361  1.00  0.00     0.338 C 
ATOM     34  O   UNL     1      -3.344   8.220   6.427  1.00  0.00    -0.246 OA
BRANCH  33  35
ATOM     35  C   UNL     1      -1.014   8.346   6.919  1.00  0.00     0.060 A 
ATOM     36  C   UNL     1      -0.972   7.022   7.362  1.00  0.00     0.016 A 
ATOM     37  C   UNL     1       0.028   9.242   7.205  1.00  0.00     0.016 A 
ATOM     38  C   UNL     1      -0.004   6.659   8.280  1.00  0.00     0.010 A 
ATOM     39  C   UNL     1       0.995   8.880   8.127  1.00  0.00     0.010 A 
ATOM     40  C   UNL     1       0.894   7.629   8.737  1.00  0.00    -0.014 A 
BRANCH  40  41
ATOM     41  C   UNL     1       1.504   7.385  10.036  1.00  0.00     0.031 A 
ATOM     42  C   UNL     1       2.696   6.517  10.119  1.00  0.00     0.074 A 
ATOM     43  C   UNL     1       0.997   7.966  11.142  1.00  0.00     0.049 A 
ATOM     44  N   UNL     1       2.846   5.430  10.805  1.00  0.00    -0.248 NA
ATOM     45  C   UNL     1       3.874   6.917   9.341  1.00  0.00     0.031 C 
ATOM     46  C   UNL     1       0.025   9.063  11.218  1.00  0.00     0.029 A 
ATOM     47  N   UNL     1       1.324   7.744  12.446  1.00  0.00    -0.354 N 
ATOM     48  C   UNL     1       4.181   5.073  10.662  1.00  0.00     0.074 A 
ATOM     49  C   UNL     1       4.755   5.983   9.700  1.00  0.00     0.031 C 
ATOM     50  C   UNL     1      -0.007   9.538  12.482  1.00  0.00     0.029 A 
ATOM     51  C   UNL     1       0.837   8.701  13.318  1.00  0.00     0.049 A 
ATOM     52  H   UNL     1       1.859   6.972  12.741  1.00  0.00     0.167 HD
ATOM     53  C   UNL     1       4.787   4.139  11.443  1.00  0.00     0.037 A 
ATOM     54  C   UNL     1       1.155   8.842  14.624  1.00  0.00     0.037 A 
ATOM     55  C   UNL     1       3.862   3.289  12.132  1.00  0.00     0.049 A 
ATOM     56  C   UNL     1       1.720   7.562  15.108  1.00  0.00     0.074 A 
ATOM     57  C   UNL     1       2.916   2.364  11.739  1.00  0.00     0.029 A 
ATOM     58  N   UNL     1       3.624   3.522  13.462  1.00  0.00    -0.354 N 
ATOM     59  N   UNL     1       1.036   6.468  15.292  1.00  0.00    -0.248 NA
ATOM     60  C   UNL     1       3.165   7.393  15.078  1.00  0.00     0.031 C 
ATOM     61  C   UNL     1       1.895   2.416  12.731  1.00  0.00     0.029 A 
ATOM     62  C   UNL     1       2.273   3.384  13.662  1.00  0.00     0.049 A 
ATOM     63  H   UNL     1       4.297   3.746  14.145  1.00  0.00     0.167 HD
ATOM     64  C   UNL     1       1.923   5.440  15.009  1.00  0.00     0.074 A 
ATOM     65  C   UNL     1       3.240   6.062  15.019  1.00  0.00     0.031 C 
ATOM     66  C   UNL     1       1.488   4.242  14.521  1.00  0.00     0.037 A 
BRANCH  53  67
ATOM     67  C   UNL     1       6.256   4.150  11.729  1.00  0.00     0.057 A 
ATOM     68  C   UNL     1       6.932   2.974  12.081  1.00  0.00     0.134 A 
ATOM     69  C   UNL     1       6.989   5.345  11.865  1.00  0.00     0.134 A 
ATOM     70  F   UNL     1       6.309   1.787  12.048  1.00  0.00    -0.206 F 
ATOM     71  C   UNL     1       8.261   2.987  12.521  1.00  0.00     0.040 A 
ATOM     72  C   UNL     1       8.328   5.367  12.260  1.00  0.00     0.040 A 
ATOM     73  F   UNL     1       6.411   6.543  11.686  1.00  0.00    -0.206 F 
ATOM     74  C   UNL     1       8.966   4.184  12.601  1.00  0.00     0.006 A 
ENDBRANCH  53  67
BRANCH  54  75
ATOM     75  C   UNL     1       1.222  10.095  15.402  1.00  0.00     0.057 A 
ATOM     76  C   UNL     1       1.169  10.090  16.801  1.00  0.00     0.134 A 
ATOM     77  C   UNL     1       1.577  11.315  14.798  1.00  0.00     0.134 A 
ATOM     78  F   UNL     1       0.889   8.961  17.468  1.00  0.00    -0.206 F 
ATOM     79  C   UNL     1       1.456  11.233  17.557  1.00  0.00     0.040 A 
ATOM     80  C   UNL     1       1.852  12.466  15.539  1.00  0.00     0.040 A 
ATOM     81  F   UNL     1       1.749  11.408  13.471  1.00  0.00    -0.206 F 
ATOM     82  C   UNL     1       1.802  12.425  16.926  1.00  0.00     0.006 A 
ENDBRANCH  54  75
BRANCH  66  83
ATOM     83  C   UNL     1       0.015   3.956  14.608  1.00  0.00     0.057 A 
ATOM     84  C   UNL     1      -0.951   4.674  13.889  1.00  0.00     0.134 A 
ATOM     85  C   UNL     1      -0.428   2.841  15.328  1.00  0.00     0.134 A 
ATOM     86  F   UNL     1      -0.601   5.692  13.090  1.00  0.00    -0.206 F 
ATOM     87  C   UNL     1      -2.305   4.329  13.928  1.00  0.00     0.040 A 
ATOM     88  C   UNL     1      -1.774   2.467  15.351  1.00  0.00     0.040 A 
ATOM     89  F   UNL     1       0.450   2.068  15.988  1.00  0.00    -0.206 F 
ATOM     90  C   UNL     1      -2.720   3.220  14.659  1.00  0.00     0.006 A 
ENDBRANCH  66  83
ENDBRANCH  40  41
ENDBRANCH  33  35
ENDBRANCH  32  33
ENDBRANCH  31  32
ENDBRANCH  30  31
ENDBRANCH  29  30
ENDBRANCH  28  29
ENDBRANCH   1  28
TORSDOF 23
