REMARK SMILES C[C@@]1(CN2C(=O)c3ccc(C(=O)OCCOCCOCCOC(=O)c4ccc(-c5c6nc(c(-c7c(F)cccc7F)c7ccc([nH]7)c(-c7c(F)cccc7F)c7nc(c(-c8c(F)cccc8F)c8ccc5[nH]8)C=C7)C=C6)cc4)cc3C2=O)CCCO1
REMARK SMILES IDX 17 1 16 2 15 3 14 4 13 5 11 6 12 7 10 8 4 9 5 10 81 11 6 12
REMARK SMILES IDX 7 13 80 14 82 15 8 16 79 17 9 18 3 19 2 20 1 21 83 22 86 23
REMARK SMILES IDX 84 24 85 25 18 26 19 27 20 28 21 29 22 30 23 31 24 32 25 33
REMARK SMILES IDX 26 34 78 35 27 36 77 37 28 38 29 39 30 40 71 41 31 42 76 43
REMARK SMILES IDX 70 44 72 45 32 46 75 47 69 48 68 49 33 51 59 52 42 53 58 54
REMARK SMILES IDX 43 55 46 56 57 57 73 58 44 59 45 60 56 62 74 63 47 64 34 65
REMARK SMILES IDX 35 66 40 67 36 68 37 69 39 70 41 71 38 72 60 73 61 74 66 75
REMARK SMILES IDX 62 76 63 77 65 78 67 79 64 80 48 81 49 82 54 83 50 84 51 85
REMARK SMILES IDX 53 86 55 87 52 88
REMARK H PARENT 72 50 46 61
REMARK Flexibility Score: inf
ROOT
ATOM      1  C   UNL     1      -8.271  -0.227  -2.101  1.00  0.00     0.188 C 
ENDROOT
BRANCH   1   2
ATOM      2  O   UNL     1      -9.304   0.095  -3.018  1.00  0.00    -0.376 OA
BRANCH   2   3
ATOM      3  C   UNL     1      -9.201  -0.297  -4.380  1.00  0.00     0.202 C 
BRANCH   3   4
ATOM      4  C   UNL     1      -7.892  -0.138  -5.176  1.00  0.00     0.261 C 
BRANCH   4   5
ATOM      5  O   UNL     1      -6.685  -0.502  -4.490  1.00  0.00    -0.460 OA
BRANCH   5   6
ATOM      6  C   UNL     1      -5.857   0.523  -4.173  1.00  0.00     0.338 C 
ATOM      7  O   UNL     1      -6.012   1.702  -4.443  1.00  0.00    -0.246 OA
BRANCH   6   8
ATOM      8  C   UNL     1      -4.791   0.050  -3.255  1.00  0.00     0.060 A 
ATOM      9  N   UNL     1      -1.841   0.263   0.258  1.00  0.00    -0.271 N 
ATOM     10  C   UNL     1      -1.811  -0.905  -0.459  1.00  0.00     0.261 C 
ATOM     11  C   UNL     1      -2.862   1.075  -0.149  1.00  0.00     0.261 C 
ATOM     12  O   UNL     1      -1.124  -1.889  -0.302  1.00  0.00    -0.269 OA
ATOM     13  C   UNL     1      -2.821  -0.772  -1.510  1.00  0.00     0.053 A 
ATOM     14  C   UNL     1      -3.457   0.440  -1.324  1.00  0.00     0.054 A 
ATOM     15  O   UNL     1      -3.291   2.102   0.348  1.00  0.00    -0.269 OA
ATOM     16  C   UNL     1      -3.147  -1.620  -2.553  1.00  0.00     0.015 A 
ATOM     17  C   UNL     1      -4.452   0.880  -2.174  1.00  0.00     0.030 A 
ATOM     18  C   UNL     1      -4.150  -1.198  -3.438  1.00  0.00     0.016 A 
BRANCH   9  19
ATOM     19  C   UNL     1      -0.923   0.583   1.345  1.00  0.00     0.164 C 
BRANCH  19  20
ATOM     20  C   UNL     1       0.459   1.120   0.865  1.00  0.00     0.084 C 
ATOM     21  C   UNL     1       1.218   0.109   0.005  1.00  0.00     0.044 C 
ATOM     22  C   UNL     1       1.323   1.556   2.055  1.00  0.00     0.039 C 
ATOM     23  O   UNL     1       0.254   2.314   0.078  1.00  0.00    -0.373 OA
ATOM     24  C   UNL     1       0.939   3.002   2.247  1.00  0.00     0.031 C 
ATOM     25  C   UNL     1       0.673   3.460   0.831  1.00  0.00     0.161 C 
ENDBRANCH  19  20
ENDBRANCH   9  19
ENDBRANCH   6   8
ENDBRANCH   5   6
ENDBRANCH   4   5
ENDBRANCH   3   4
ENDBRANCH   2   3
ENDBRANCH   1   2
BRANCH   1  26
ATOM     26  C   UNL     1      -7.738  -1.673  -2.012  1.00  0.00     0.188 C 
BRANCH  26  27
ATOM     27  O   UNL     1      -8.246  -2.548  -2.989  1.00  0.00    -0.376 OA
BRANCH  27  28
ATOM     28  C   UNL     1      -9.376  -3.350  -2.690  1.00  0.00     0.202 C 
BRANCH  28  29
ATOM     29  C   UNL     1     -10.430  -3.044  -1.601  1.00  0.00     0.261 C 
BRANCH  29  30
ATOM     30  O   UNL     1     -10.169  -1.993  -0.665  1.00  0.00    -0.460 OA
BRANCH  30  31
ATOM     31  C   UNL     1      -9.659  -2.366   0.532  1.00  0.00     0.338 C 
ATOM     32  O   UNL     1      -9.359  -3.491   0.889  1.00  0.00    -0.246 OA
BRANCH  31  33
ATOM     33  C   UNL     1      -9.326  -1.151   1.303  1.00  0.00     0.060 A 
ATOM     34  C   UNL     1      -7.976  -0.863   1.545  1.00  0.00     0.016 A 
ATOM     35  C   UNL     1     -10.330  -0.327   1.816  1.00  0.00     0.016 A 
ATOM     36  C   UNL     1      -7.627   0.230   2.334  1.00  0.00     0.010 A 
ATOM     37  C   UNL     1      -9.977   0.759   2.626  1.00  0.00     0.010 A 
ATOM     38  C   UNL     1      -8.626   1.017   2.921  1.00  0.00    -0.014 A 
BRANCH  38  39
ATOM     39  C   UNL     1      -8.248   1.979   3.986  1.00  0.00     0.031 A 
ATOM     40  C   UNL     1      -8.439   1.582   5.424  1.00  0.00     0.074 A 
ATOM     41  C   UNL     1      -7.693   3.166   3.689  1.00  0.00     0.049 A 
ATOM     42  N   UNL     1      -8.148   2.240   6.518  1.00  0.00    -0.248 NA
ATOM     43  C   UNL     1      -9.045   0.262   5.658  1.00  0.00     0.031 C 
ATOM     44  C   UNL     1      -7.429   3.661   2.341  1.00  0.00     0.029 A 
ATOM     45  N   UNL     1      -7.252   4.171   4.514  1.00  0.00    -0.354 N 
ATOM     46  C   UNL     1      -8.540   1.418   7.567  1.00  0.00     0.074 A 
ATOM     47  C   UNL     1      -9.130   0.235   6.978  1.00  0.00     0.031 C 
ATOM     48  C   UNL     1      -6.880   4.884   2.429  1.00  0.00     0.029 A 
ATOM     49  C   UNL     1      -6.776   5.266   3.837  1.00  0.00     0.049 A 
ATOM     50  H   UNL     1      -7.276   4.112   5.497  1.00  0.00     0.167 HD
ATOM     51  C   UNL     1      -8.412   1.622   8.901  1.00  0.00     0.037 A 
ATOM     52  C   UNL     1      -6.323   6.447   4.300  1.00  0.00     0.037 A 
ATOM     53  C   UNL     1      -7.838   2.807   9.487  1.00  0.00     0.049 A 
ATOM     54  C   UNL     1      -6.231   6.678   5.784  1.00  0.00     0.074 A 
ATOM     55  C   UNL     1      -7.640   3.100  10.825  1.00  0.00     0.029 A 
ATOM     56  N   UNL     1      -7.389   3.907   8.768  1.00  0.00    -0.354 N 
ATOM     57  N   UNL     1      -6.562   5.879   6.770  1.00  0.00    -0.248 NA
ATOM     58  C   UNL     1      -5.682   7.970   6.218  1.00  0.00     0.031 C 
ATOM     59  C   UNL     1      -7.134   4.402  10.918  1.00  0.00     0.029 A 
ATOM     60  C   UNL     1      -6.945   4.893   9.636  1.00  0.00     0.049 A 
ATOM     61  H   UNL     1      -7.387   3.977   7.786  1.00  0.00     0.167 HD
ATOM     62  C   UNL     1      -6.239   6.559   7.939  1.00  0.00     0.074 A 
ATOM     63  C   UNL     1      -5.669   7.828   7.536  1.00  0.00     0.031 C 
ATOM     64  C   UNL     1      -6.393   6.163   9.229  1.00  0.00     0.037 A 
BRANCH  51  65
ATOM     65  C   UNL     1      -8.953   0.551   9.809  1.00  0.00     0.057 A 
ATOM     66  C   UNL     1      -8.383  -0.728   9.880  1.00  0.00     0.134 A 
ATOM     67  C   UNL     1     -10.078   0.798  10.606  1.00  0.00     0.134 A 
ATOM     68  F   UNL     1      -7.312  -1.040   9.134  1.00  0.00    -0.206 F 
ATOM     69  C   UNL     1      -8.942  -1.735  10.671  1.00  0.00     0.040 A 
ATOM     70  C   UNL     1     -10.624  -0.189  11.428  1.00  0.00     0.040 A 
ATOM     71  F   UNL     1     -10.671   2.001  10.595  1.00  0.00    -0.206 F 
ATOM     72  C   UNL     1     -10.065  -1.465  11.450  1.00  0.00     0.006 A 
ENDBRANCH  51  65
BRANCH  52  73
ATOM     73  C   UNL     1      -5.925   7.501   3.334  1.00  0.00     0.057 A 
ATOM     74  C   UNL     1      -4.586   7.870   3.160  1.00  0.00     0.134 A 
ATOM     75  C   UNL     1      -6.881   8.153   2.546  1.00  0.00     0.134 A 
ATOM     76  F   UNL     1      -3.627   7.303   3.905  1.00  0.00    -0.206 F 
ATOM     77  C   UNL     1      -4.213   8.852   2.240  1.00  0.00     0.040 A 
ATOM     78  C   UNL     1      -6.521   9.117   1.604  1.00  0.00     0.040 A 
ATOM     79  F   UNL     1      -8.181   7.846   2.667  1.00  0.00    -0.206 F 
ATOM     80  C   UNL     1      -5.182   9.472   1.452  1.00  0.00     0.006 A 
ENDBRANCH  52  73
BRANCH  64  81
ATOM     81  C   UNL     1      -5.903   7.102  10.299  1.00  0.00     0.057 A 
ATOM     82  C   UNL     1      -6.519   8.335  10.555  1.00  0.00     0.134 A 
ATOM     83  C   UNL     1      -4.796   6.763  11.090  1.00  0.00     0.134 A 
ATOM     84  F   UNL     1      -7.579   8.729   9.831  1.00  0.00    -0.206 F 
ATOM     85  C   UNL     1      -6.027   9.212  11.524  1.00  0.00     0.040 A 
ATOM     86  C   UNL     1      -4.317   7.616  12.086  1.00  0.00     0.040 A 
ATOM     87  F   UNL     1      -4.164   5.593  10.913  1.00  0.00    -0.206 F 
ATOM     88  C   UNL     1      -4.925   8.851  12.296  1.00  0.00     0.006 A 
ENDBRANCH  64  81
ENDBRANCH  38  39
ENDBRANCH  31  33
ENDBRANCH  30  31
ENDBRANCH  29  30
ENDBRANCH  28  29
ENDBRANCH  27  28
ENDBRANCH  26  27
ENDBRANCH   1  26
TORSDOF 19
