REMARK SMILES CN(CC(F)(F)F)C(=O)N[C@@H]1CCCCC[C@@H]1C(=O)OCCOCCOCCOC(=O)c1ccc(-c2c3nc(c(-c4c(F)cccc4F)c4ccc([nH]4)c(-c4c(F)cccc4F)c4nc(c(-c5c(F)cccc5F)c5ccc2[nH]5)C=C4)C=C3)cc1
REMARK SMILES IDX 23 1 22 2 21 3 20 4 18 5 19 6 17 7 11 8 10 9 8 10 9 11 2 13
REMARK SMILES IDX 1 14 3 15 4 16 5 17 6 18 7 19 12 20 13 21 14 22 16 24 15 25
REMARK SMILES IDX 24 27 25 28 26 29 27 30 28 31 29 32 30 33 31 34 32 35 33 36
REMARK SMILES IDX 85 37 34 38 84 39 35 40 36 41 37 42 78 43 38 44 83 45 77 46
REMARK SMILES IDX 79 47 39 48 82 49 76 50 75 51 40 53 66 54 49 55 65 56 50 57
REMARK SMILES IDX 53 58 64 59 80 60 51 61 52 62 63 64 81 65 54 66 41 67 42 68
REMARK SMILES IDX 47 69 43 70 44 71 46 72 48 73 45 74 67 75 68 76 73 77 69 78
REMARK SMILES IDX 70 79 72 80 74 81 71 82 55 83 56 84 61 85 57 86 58 87 60 88
REMARK SMILES IDX 62 89 59 90
REMARK H PARENT 10 12 79 52 53 63
REMARK Flexibility Score: 100.00
ROOT
ATOM      1  O   UNL     1      -1.409  -6.204   5.086  1.00  0.00    -0.376 OA
ENDROOT
BRANCH   1   2
ATOM      2  C   UNL     1       0.004  -6.353   5.011  1.00  0.00     0.202 C 
BRANCH   2   3
ATOM      3  C   UNL     1       0.877  -5.494   5.942  1.00  0.00     0.261 C 
BRANCH   3   4
ATOM      4  O   UNL     1       0.458  -4.123   6.042  1.00  0.00    -0.463 OA
BRANCH   4   5
ATOM      5  C   UNL     1       1.052  -3.199   5.243  1.00  0.00     0.311 C 
ATOM      6  O   UNL     1       1.985  -3.424   4.487  1.00  0.00    -0.252 OA
BRANCH   5   7
ATOM      7  C   UNL     1       0.368  -1.843   5.423  1.00  0.00     0.121 C 
BRANCH   7   8
ATOM      8  C   UNL     1       0.229  -0.968   4.126  1.00  0.00     0.098 C 
BRANCH   8   9
ATOM      9  N   UNL     1       0.801  -1.588   2.927  1.00  0.00    -0.334 N 
ATOM     10  C   UNL     1       0.871  -1.378   1.607  1.00  0.00     0.317 C 
ATOM     11  O   UNL     1       1.579  -2.184   0.994  1.00  0.00    -0.249 OA
ATOM     12  H   UNL     1       1.281  -2.413   3.167  1.00  0.00     0.165 HD
BRANCH  10  13
ATOM     13  N   UNL     1       0.290  -0.331   0.960  1.00  0.00    -0.319 N 
ATOM     14  C   UNL     1       0.892   0.017  -0.323  1.00  0.00     0.149 C 
BRANCH  13  15
ATOM     15  C   UNL     1      -0.936   0.415   1.302  1.00  0.00     0.236 C 
BRANCH  15  16
ATOM     16  C   UNL     1      -2.208  -0.356   1.668  1.00  0.00     0.406 C 
ATOM     17  F   UNL     1      -2.043  -1.692   1.730  1.00  0.00    -0.169 F 
ATOM     18  F   UNL     1      -2.669   0.051   2.878  1.00  0.00    -0.169 F 
ATOM     19  F   UNL     1      -3.192  -0.105   0.774  1.00  0.00    -0.169 F 
ENDBRANCH  15  16
ENDBRANCH  13  15
ENDBRANCH  10  13
ENDBRANCH   8   9
BRANCH   8  20
ATOM     20  C   UNL     1       0.727   0.471   4.323  1.00  0.00     0.026 C 
BRANCH  20  21
ATOM     21  C   UNL     1      -0.220   1.281   5.214  1.00  0.00     0.002 C 
BRANCH  21  22
ATOM     22  C   UNL     1       0.154   1.237   6.689  1.00  0.00     0.000 CG0
ATOM     23  G   UNL     1       0.077  -0.143   7.328  1.00  0.00     0.000 G0
ENDBRANCH  21  22
ENDBRANCH  20  21
ENDBRANCH   8  20
ENDBRANCH   7   8
BRANCH   7  24
ATOM     24  C   UNL     1       0.978  -1.193   6.679  1.00  0.00     0.017 C 
BRANCH  24  25
ATOM     25  C   UNL     1       0.077  -0.143   7.328  1.00  0.00     0.001 CG0
ATOM     26  G   UNL     1       0.154   1.237   6.689  1.00  0.00     0.000 G0
ENDBRANCH  24  25
ENDBRANCH   7  24
ENDBRANCH   5   7
ENDBRANCH   4   5
ENDBRANCH   3   4
ENDBRANCH   2   3
ENDBRANCH   1   2
BRANCH   1  27
ATOM     27  C   UNL     1      -1.930  -4.909   4.843  1.00  0.00     0.188 C 
BRANCH  27  28
ATOM     28  C   UNL     1      -2.561  -4.257   6.094  1.00  0.00     0.188 C 
BRANCH  28  29
ATOM     29  O   UNL     1      -2.361  -4.844   7.372  1.00  0.00    -0.376 OA
BRANCH  29  30
ATOM     30  C   UNL     1      -2.680  -6.223   7.538  1.00  0.00     0.202 C 
BRANCH  30  31
ATOM     31  C   UNL     1      -4.054  -6.748   7.078  1.00  0.00     0.261 C 
BRANCH  31  32
ATOM     32  O   UNL     1      -4.423  -6.409   5.728  1.00  0.00    -0.460 OA
BRANCH  32  33
ATOM     33  C   UNL     1      -5.523  -5.623   5.606  1.00  0.00     0.338 C 
ATOM     34  O   UNL     1      -6.249  -5.218   6.496  1.00  0.00    -0.246 OA
BRANCH  33  35
ATOM     35  C   UNL     1      -5.646  -5.142   4.215  1.00  0.00     0.060 A 
ATOM     36  C   UNL     1      -5.520  -3.766   3.972  1.00  0.00     0.016 A 
ATOM     37  C   UNL     1      -5.976  -6.016   3.180  1.00  0.00     0.016 A 
ATOM     38  C   UNL     1      -5.744  -3.255   2.694  1.00  0.00     0.010 A 
ATOM     39  C   UNL     1      -6.231  -5.498   1.905  1.00  0.00     0.010 A 
ATOM     40  C   UNL     1      -6.145  -4.114   1.665  1.00  0.00    -0.014 A 
BRANCH  40  41
ATOM     41  C   UNL     1      -6.653  -3.550   0.392  1.00  0.00     0.031 A 
ATOM     42  C   UNL     1      -8.137  -3.368   0.228  1.00  0.00     0.074 A 
ATOM     43  C   UNL     1      -5.816  -3.199  -0.598  1.00  0.00     0.049 A 
ATOM     44  N   UNL     1      -8.817  -2.972  -0.818  1.00  0.00    -0.248 NA
ATOM     45  C   UNL     1      -8.966  -3.674   1.405  1.00  0.00     0.031 C 
ATOM     46  C   UNL     1      -4.358  -3.277  -0.543  1.00  0.00     0.029 A 
ATOM     47  N   UNL     1      -6.083  -2.719  -1.856  1.00  0.00    -0.354 N 
ATOM     48  C   UNL     1     -10.150  -2.990  -0.429  1.00  0.00     0.074 A 
ATOM     49  C   UNL     1     -10.187  -3.456   0.940  1.00  0.00     0.031 C 
ATOM     50  C   UNL     1      -3.858  -2.884  -1.728  1.00  0.00     0.029 A 
ATOM     51  C   UNL     1      -4.961  -2.555  -2.630  1.00  0.00     0.049 A 
ATOM     52  H   UNL     1      -6.992  -2.512  -2.173  1.00  0.00     0.167 HD
ATOM     53  C   UNL     1     -11.245  -2.646  -1.147  1.00  0.00     0.037 A 
ATOM     54  C   UNL     1      -4.845  -2.209  -3.926  1.00  0.00     0.037 A 
ATOM     55  C   UNL     1     -11.209  -2.188  -2.510  1.00  0.00     0.049 A 
ATOM     56  C   UNL     1      -6.083  -1.911  -4.730  1.00  0.00     0.074 A 
ATOM     57  C   UNL     1     -12.264  -1.804  -3.319  1.00  0.00     0.029 A 
ATOM     58  N   UNL     1     -10.056  -2.062  -3.268  1.00  0.00    -0.354 N 
ATOM     59  N   UNL     1      -7.338  -1.911  -4.351  1.00  0.00    -0.248 NA
ATOM     60  C   UNL     1      -5.887  -1.563  -6.146  1.00  0.00     0.031 C 
ATOM     61  C   UNL     1     -11.753  -1.488  -4.582  1.00  0.00     0.029 A 
ATOM     62  C   UNL     1     -10.375  -1.629  -4.544  1.00  0.00     0.049 A 
ATOM     63  H   UNL     1      -9.145  -2.253  -2.947  1.00  0.00     0.167 HD
ATOM     64  C   UNL     1      -8.076  -1.537  -5.468  1.00  0.00     0.074 A 
ATOM     65  C   UNL     1      -7.128  -1.308  -6.537  1.00  0.00     0.031 C 
ATOM     66  C   UNL     1      -9.418  -1.393  -5.595  1.00  0.00     0.037 A 
BRANCH  53  67
ATOM     67  C   UNL     1     -12.579  -2.780  -0.474  1.00  0.00     0.057 A 
ATOM     68  C   UNL     1     -12.993  -1.894   0.529  1.00  0.00     0.134 A 
ATOM     69  C   UNL     1     -13.470  -3.791  -0.854  1.00  0.00     0.134 A 
ATOM     70  F   UNL     1     -12.180  -0.913   0.949  1.00  0.00    -0.206 F 
ATOM     71  C   UNL     1     -14.239  -2.024   1.146  1.00  0.00     0.040 A 
ATOM     72  C   UNL     1     -14.727  -3.916  -0.261  1.00  0.00     0.040 A 
ATOM     73  F   UNL     1     -13.135  -4.670  -1.810  1.00  0.00    -0.206 F 
ATOM     74  C   UNL     1     -15.112  -3.033   0.746  1.00  0.00     0.006 A 
ENDBRANCH  53  67
BRANCH  54  75
ATOM     75  C   UNL     1      -3.504  -2.145  -4.561  1.00  0.00     0.057 A 
ATOM     76  C   UNL     1      -2.944  -0.924  -4.953  1.00  0.00     0.134 A 
ATOM     77  C   UNL     1      -2.766  -3.307  -4.819  1.00  0.00     0.134 A 
ATOM     78  F   UNL     1      -3.615   0.220  -4.756  1.00  0.00    -0.206 F 
ATOM     79  C   UNL     1      -1.706  -0.861  -5.594  1.00  0.00     0.040 A 
ATOM     80  C   UNL     1      -1.516  -3.256  -5.436  1.00  0.00     0.040 A 
ATOM     81  F   UNL     1      -3.251  -4.508  -4.473  1.00  0.00    -0.206 F 
ATOM     82  C   UNL     1      -0.986  -2.030  -5.833  1.00  0.00     0.006 A 
ENDBRANCH  54  75
BRANCH  66  83
ATOM     83  C   UNL     1      -9.941  -0.928  -6.924  1.00  0.00     0.057 A 
ATOM     84  C   UNL     1      -9.968  -1.768  -8.044  1.00  0.00     0.134 A 
ATOM     85  C   UNL     1     -10.466   0.362  -7.069  1.00  0.00     0.134 A 
ATOM     86  F   UNL     1      -9.469  -3.011  -7.975  1.00  0.00    -0.206 F 
ATOM     87  C   UNL     1     -10.480  -1.333  -9.268  1.00  0.00     0.040 A 
ATOM     88  C   UNL     1     -11.005   0.800  -8.280  1.00  0.00     0.040 A 
ATOM     89  F   UNL     1     -10.479   1.213  -6.032  1.00  0.00    -0.206 F 
ATOM     90  C   UNL     1     -11.008  -0.048  -9.385  1.00  0.00     0.006 A 
ENDBRANCH  66  83
ENDBRANCH  40  41
ENDBRANCH  33  35
ENDBRANCH  32  33
ENDBRANCH  31  32
ENDBRANCH  30  31
ENDBRANCH  29  30
ENDBRANCH  28  29
ENDBRANCH  27  28
ENDBRANCH   1  27
TORSDOF 21
