REMARK SMILES O=C(Nc1ccccc1)N[C@H]1C[C@@H](C(=O)OCCOCCOCCOC(=O)c2ccc(-c3c4nc(c(-c5c(F)cccc5F)c5ccc([nH]5)c(-c5c(F)cccc5F)c5nc(c(-c6c(F)cccc6F)c6ccc3[nH]6)C=C5)C=C4)cc2)Nc2cc(Cl)cc(Cl)c21
REMARK SMILES IDX 20 1 19 2 18 3 17 4 16 5 14 6 15 7 13 8 11 9 12 10 90 11
REMARK SMILES IDX 83 12 88 13 82 14 84 15 87 16 89 17 85 19 86 20 10 21 1 22
REMARK SMILES IDX 2 23 3 24 4 27 5 28 9 29 6 30 8 31 7 32 21 33 22 34 23 35
REMARK SMILES IDX 24 36 25 37 26 38 27 39 28 40 29 41 81 42 30 43 80 44 31 45
REMARK SMILES IDX 32 46 33 47 74 48 34 49 79 50 73 51 75 52 35 53 78 54 72 55
REMARK SMILES IDX 71 56 36 58 62 59 45 60 61 61 46 62 49 63 60 64 76 65 47 66
REMARK SMILES IDX 48 67 59 69 77 70 50 71 37 72 38 73 43 74 39 75 40 76 42 77
REMARK SMILES IDX 44 78 41 79 63 80 64 81 69 82 65 83 66 84 68 85 70 86 67 87
REMARK SMILES IDX 51 88 52 89 57 90 53 91 54 92 56 93 58 94 55 95
REMARK H PARENT 82 18 3 25 10 26 75 57 49 68
REMARK Flexibility Score: inf
ROOT
ATOM      1  C   UNL     1       0.523  -2.568  -4.539  1.00  0.00     0.188 C 
ENDROOT
BRANCH   1   2
ATOM      2  O   UNL     1      -0.215  -3.595  -3.913  1.00  0.00    -0.376 OA
BRANCH   2   3
ATOM      3  C   UNL     1       0.362  -4.296  -2.817  1.00  0.00     0.202 C 
BRANCH   3   4
ATOM      4  C   UNL     1       1.771  -3.983  -2.280  1.00  0.00     0.261 C 
BRANCH   4   5
ATOM      5  O   UNL     1       2.088  -2.585  -2.121  1.00  0.00    -0.462 OA
BRANCH   5   6
ATOM      6  C   UNL     1       3.435  -2.320  -2.193  1.00  0.00     0.328 C 
ATOM      7  O   UNL     1       4.298  -3.190  -2.267  1.00  0.00    -0.250 OA
BRANCH   6   8
ATOM      8  C   UNL     1       3.753  -0.812  -2.302  1.00  0.00     0.192 C 
ATOM      9  C   UNL     1       2.799   1.400  -1.292  1.00  0.00     0.120 C 
ATOM     10  C   UNL     1       3.389  -0.011  -1.052  1.00  0.00     0.067 C 
ATOM     11  C   UNL     1       3.132   1.984  -2.657  1.00  0.00     0.016 A 
ATOM     12  C   UNL     1       3.262   1.093  -3.732  1.00  0.00     0.043 A 
ATOM     13  C   UNL     1       3.220   3.364  -2.925  1.00  0.00     0.049 A 
ATOM     14  N   UNL     1       3.148  -0.274  -3.518  1.00  0.00    -0.372 N 
ATOM     15  C   UNL     1       3.360   1.571  -5.044  1.00  0.00     0.046 A 
ATOM     16  C   UNL     1       3.348   3.837  -4.236  1.00  0.00     0.041 A 
ATOM     17  Cl  UNL     1       3.203   4.561  -1.683  1.00  0.00    -0.084 Cl
ATOM     18  H   UNL     1       2.678  -0.856  -4.158  1.00  0.00     0.161 HD
ATOM     19  C   UNL     1       3.400   2.938  -5.291  1.00  0.00     0.044 A 
ATOM     20  Cl  UNL     1       3.506   3.514  -6.907  1.00  0.00    -0.084 Cl
BRANCH   9  21
ATOM     21  N   UNL     1       1.344   1.411  -1.084  1.00  0.00    -0.331 N 
ATOM     22  O   UNL     1       1.331   3.139   0.425  1.00  0.00    -0.248 OA
ATOM     23  C   UNL     1       0.727   2.353  -0.295  1.00  0.00     0.319 C 
ATOM     24  N   UNL     1      -0.608   2.502  -0.548  1.00  0.00    -0.308 N 
ATOM     25  H   UNL     1      -0.854   3.207  -1.190  1.00  0.00     0.171 HD
ATOM     26  H   UNL     1       0.794   0.724  -1.525  1.00  0.00     0.166 HD
BRANCH  24  27
ATOM     27  C   UNL     1      -1.668   1.765   0.004  1.00  0.00     0.042 A 
ATOM     28  C   UNL     1      -2.971   2.113  -0.380  1.00  0.00     0.026 A 
ATOM     29  C   UNL     1      -1.480   0.700   0.883  1.00  0.00     0.026 A 
ATOM     30  C   UNL     1      -4.066   1.348   0.031  1.00  0.00     0.002 A 
ATOM     31  C   UNL     1      -2.579  -0.061   1.303  1.00  0.00     0.002 A 
ATOM     32  C   UNL     1      -3.866   0.246   0.859  1.00  0.00     0.000 A 
ENDBRANCH  24  27
ENDBRANCH   9  21
ENDBRANCH   6   8
ENDBRANCH   5   6
ENDBRANCH   4   5
ENDBRANCH   3   4
ENDBRANCH   2   3
ENDBRANCH   1   2
BRANCH   1  33
ATOM     33  C   UNL     1      -0.035  -1.184  -4.222  1.00  0.00     0.188 C 
BRANCH  33  34
ATOM     34  O   UNL     1      -0.145  -0.775  -2.858  1.00  0.00    -0.376 OA
BRANCH  34  35
ATOM     35  C   UNL     1      -1.280  -1.300  -2.162  1.00  0.00     0.202 C 
BRANCH  35  36
ATOM     36  C   UNL     1      -2.692  -0.826  -2.565  1.00  0.00     0.261 C 
BRANCH  36  37
ATOM     37  O   UNL     1      -2.830  -0.349  -3.905  1.00  0.00    -0.460 OA
BRANCH  37  38
ATOM     38  C   UNL     1      -2.521   0.955  -4.090  1.00  0.00     0.338 C 
ATOM     39  O   UNL     1      -2.350   1.826  -3.246  1.00  0.00    -0.246 OA
BRANCH  38  40
ATOM     40  C   UNL     1      -2.141   1.138  -5.492  1.00  0.00     0.060 A 
ATOM     41  C   UNL     1      -0.833   1.576  -5.750  1.00  0.00     0.016 A 
ATOM     42  C   UNL     1      -3.014   0.814  -6.529  1.00  0.00     0.016 A 
ATOM     43  C   UNL     1      -0.375   1.658  -7.057  1.00  0.00     0.010 A 
ATOM     44  C   UNL     1      -2.571   0.950  -7.841  1.00  0.00     0.010 A 
ATOM     45  C   UNL     1      -1.255   1.374  -8.105  1.00  0.00    -0.014 A 
BRANCH  45  46
ATOM     46  C   UNL     1      -0.877   1.687  -9.495  1.00  0.00     0.031 A 
ATOM     47  C   UNL     1      -1.303   3.012 -10.046  1.00  0.00     0.074 A 
ATOM     48  C   UNL     1      -0.229   0.787 -10.250  1.00  0.00     0.049 A 
ATOM     49  N   UNL     1      -1.315   3.433 -11.281  1.00  0.00    -0.248 NA
ATOM     50  C   UNL     1      -1.804   3.990  -9.065  1.00  0.00     0.031 C 
ATOM     51  C   UNL     1       0.289  -0.497  -9.781  1.00  0.00     0.029 A 
ATOM     52  N   UNL     1       0.073   0.808 -11.586  1.00  0.00    -0.354 N 
ATOM     53  C   UNL     1      -1.849   4.713 -11.231  1.00  0.00     0.074 A 
ATOM     54  C   UNL     1      -2.158   4.997  -9.848  1.00  0.00     0.031 C 
ATOM     55  C   UNL     1       0.814  -1.161 -10.826  1.00  0.00     0.029 A 
ATOM     56  C   UNL     1       0.619  -0.369 -12.038  1.00  0.00     0.049 A 
ATOM     57  H   UNL     1      -0.085   1.588 -12.165  1.00  0.00     0.167 HD
ATOM     58  C   UNL     1      -2.067   5.567 -12.257  1.00  0.00     0.037 A 
ATOM     59  C   UNL     1       0.880  -0.768 -13.297  1.00  0.00     0.037 A 
ATOM     60  C   UNL     1      -1.758   5.253 -13.626  1.00  0.00     0.049 A 
ATOM     61  C   UNL     1       0.555   0.167 -14.433  1.00  0.00     0.074 A 
ATOM     62  C   UNL     1      -1.938   6.031 -14.754  1.00  0.00     0.029 A 
ATOM     63  N   UNL     1      -1.205   4.051 -14.048  1.00  0.00    -0.354 N 
ATOM     64  N   UNL     1       0.033   1.371 -14.391  1.00  0.00    -0.248 NA
ATOM     65  C   UNL     1       0.847  -0.312 -15.791  1.00  0.00     0.031 C 
ATOM     66  C   UNL     1      -1.536   5.282 -15.864  1.00  0.00     0.029 A 
ATOM     67  C   UNL     1      -1.054   4.059 -15.423  1.00  0.00     0.049 A 
ATOM     68  H   UNL     1      -0.957   3.304 -13.457  1.00  0.00     0.167 HD
ATOM     69  C   UNL     1      -0.035   1.806 -15.709  1.00  0.00     0.074 A 
ATOM     70  C   UNL     1       0.506   0.738 -16.525  1.00  0.00     0.031 C 
ATOM     71  C   UNL     1      -0.497   2.981 -16.203  1.00  0.00     0.037 A 
BRANCH  58  72
ATOM     72  C   UNL     1      -2.708   6.884 -11.933  1.00  0.00     0.057 A 
ATOM     73  C   UNL     1      -2.034   7.885 -11.221  1.00  0.00     0.134 A 
ATOM     74  C   UNL     1      -4.022   7.153 -12.336  1.00  0.00     0.134 A 
ATOM     75  F   UNL     1      -0.782   7.684 -10.784  1.00  0.00    -0.206 F 
ATOM     76  C   UNL     1      -2.653   9.095 -10.900  1.00  0.00     0.040 A 
ATOM     77  C   UNL     1      -4.641   8.370 -12.046  1.00  0.00     0.040 A 
ATOM     78  F   UNL     1      -4.727   6.238 -13.018  1.00  0.00    -0.206 F 
ATOM     79  C   UNL     1      -3.958   9.342 -11.319  1.00  0.00     0.006 A 
ENDBRANCH  58  72
BRANCH  59  80
ATOM     80  C   UNL     1       1.447  -2.117 -13.553  1.00  0.00     0.057 A 
ATOM     81  C   UNL     1       2.748  -2.272 -14.045  1.00  0.00     0.134 A 
ATOM     82  C   UNL     1       0.705  -3.282 -13.322  1.00  0.00     0.134 A 
ATOM     83  F   UNL     1       3.502  -1.195 -14.309  1.00  0.00    -0.206 F 
ATOM     84  C   UNL     1       3.286  -3.533 -14.312  1.00  0.00     0.040 A 
ATOM     85  C   UNL     1       1.239  -4.551 -13.559  1.00  0.00     0.040 A 
ATOM     86  F   UNL     1      -0.548  -3.206 -12.850  1.00  0.00    -0.206 F 
ATOM     87  C   UNL     1       2.532  -4.678 -14.062  1.00  0.00     0.006 A 
ENDBRANCH  59  80
BRANCH  71  88
ATOM     88  C   UNL     1      -0.387   3.192 -17.684  1.00  0.00     0.057 A 
ATOM     89  C   UNL     1      -1.218   2.526 -18.593  1.00  0.00     0.134 A 
ATOM     90  C   UNL     1       0.532   4.115 -18.200  1.00  0.00     0.134 A 
ATOM     91  F   UNL     1      -2.110   1.621 -18.163  1.00  0.00    -0.206 F 
ATOM     92  C   UNL     1      -1.123   2.757 -19.967  1.00  0.00     0.040 A 
ATOM     93  C   UNL     1       0.616   4.375 -19.567  1.00  0.00     0.040 A 
ATOM     94  F   UNL     1       1.349   4.794 -17.380  1.00  0.00    -0.206 F 
ATOM     95  C   UNL     1      -0.210   3.690 -20.456  1.00  0.00     0.006 A 
ENDBRANCH  71  88
ENDBRANCH  45  46
ENDBRANCH  38  40
ENDBRANCH  37  38
ENDBRANCH  36  37
ENDBRANCH  35  36
ENDBRANCH  34  35
ENDBRANCH  33  34
ENDBRANCH   1  33
TORSDOF 19
