REMARK SMILES Cc1ncccc1C(=O)Nc1cnccc1C(=O)OCCOCCOCCOC(=O)c1ccc(-c2c3nc(c(-c4c(F)cccc4F)c4ccc([nH]4)c(-c4c(F)cccc4F)c4nc(c(-c5c(F)cccc5F)c5ccc2[nH]5)C=C4)C=C3)cc1
REMARK SMILES IDX 23 1 22 2 21 3 20 4 19 5 17 6 18 7 16 8 11 9 12 10 13 11
REMARK SMILES IDX 15 12 14 13 10 14 8 15 9 16 7 18 1 19 2 20 3 21 4 22 6 23
REMARK SMILES IDX 5 24 24 25 25 26 26 27 27 28 28 29 29 30 30 31 31 32 32 33
REMARK SMILES IDX 84 34 33 35 83 36 34 37 35 38 36 39 77 40 37 41 82 42 76 43
REMARK SMILES IDX 78 44 38 45 81 46 75 47 74 48 39 50 65 51 48 52 64 53 49 54
REMARK SMILES IDX 52 55 63 56 79 57 50 58 51 59 62 61 80 62 53 63 40 64 41 65
REMARK SMILES IDX 46 66 42 67 43 68 45 69 47 70 44 71 66 72 67 73 72 74 68 75
REMARK SMILES IDX 69 76 71 77 73 78 70 79 54 80 55 81 60 82 56 83 57 84 59 85
REMARK SMILES IDX 61 86 58 87
REMARK H PARENT 10 17 78 49 52 60
REMARK Flexibility Score: inf
ROOT
ATOM      1  C   UNL     1       1.839  -0.258   4.378  1.00  0.00     0.188 C 
ENDROOT
BRANCH   1   2
ATOM      2  O   UNL     1       0.559  -0.515   4.907  1.00  0.00    -0.376 OA
BRANCH   2   3
ATOM      3  C   UNL     1      -0.470  -1.010   4.074  1.00  0.00     0.202 C 
BRANCH   3   4
ATOM      4  C   UNL     1      -0.471  -0.882   2.547  1.00  0.00     0.261 C 
BRANCH   4   5
ATOM      5  O   UNL     1       0.770  -1.085   1.858  1.00  0.00    -0.460 OA
BRANCH   5   6
ATOM      6  C   UNL     1       1.304   0.025   1.283  1.00  0.00     0.340 C 
ATOM      7  O   UNL     1       0.891   1.167   1.407  1.00  0.00    -0.246 OA
BRANCH   6   8
ATOM      8  C   UNL     1       2.606  -0.279   0.644  1.00  0.00     0.086 A 
ATOM      9  C   UNL     1       2.908  -1.435  -0.081  1.00  0.00     0.074 A 
ATOM     10  C   UNL     1       4.259  -1.632  -0.379  1.00  0.00     0.138 A 
ATOM     11  N   UNL     1       5.253  -0.749  -0.122  1.00  0.00    -0.263 NA
ATOM     12  C   UNL     1       3.617   0.666   0.901  1.00  0.00     0.038 A 
ATOM     13  C   UNL     1       4.905   0.398   0.485  1.00  0.00     0.112 A 
BRANCH   9  14
ATOM     14  N   UNL     1       2.023  -2.396  -0.611  1.00  0.00    -0.320 N 
ATOM     15  C   UNL     1       0.712  -2.360  -1.021  1.00  0.00     0.257 C 
ATOM     16  O   UNL     1       0.181  -3.425  -1.343  1.00  0.00    -0.269 OA
ATOM     17  H   UNL     1       2.434  -3.285  -0.709  1.00  0.00     0.170 HD
BRANCH  15  18
ATOM     18  C   UNL     1      -0.102  -1.129  -1.113  1.00  0.00     0.061 A 
ATOM     19  C   UNL     1       1.582   0.345  -2.374  1.00  0.00     0.067 C 
ATOM     20  C   UNL     1       0.288   0.095  -1.662  1.00  0.00     0.050 A 
ATOM     21  N   UNL     1      -0.494   1.206  -1.556  1.00  0.00    -0.261 NA
ATOM     22  C   UNL     1      -1.688   1.097  -0.934  1.00  0.00     0.111 A 
ATOM     23  C   UNL     1      -1.397  -1.227  -0.577  1.00  0.00     0.017 A 
ATOM     24  C   UNL     1      -2.196  -0.097  -0.464  1.00  0.00     0.021 A 
ENDBRANCH  15  18
ENDBRANCH   9  14
ENDBRANCH   6   8
ENDBRANCH   5   6
ENDBRANCH   4   5
ENDBRANCH   3   4
ENDBRANCH   2   3
ENDBRANCH   1   2
BRANCH   1  25
ATOM     25  C   UNL     1       2.725  -1.450   3.952  1.00  0.00     0.188 C 
BRANCH  25  26
ATOM     26  O   UNL     1       2.255  -2.773   4.070  1.00  0.00    -0.376 OA
BRANCH  26  27
ATOM     27  C   UNL     1       1.822  -3.235   5.337  1.00  0.00     0.202 C 
BRANCH  27  28
ATOM     28  C   UNL     1       2.523  -2.838   6.652  1.00  0.00     0.261 C 
BRANCH  28  29
ATOM     29  O   UNL     1       2.985  -1.481   6.762  1.00  0.00    -0.460 OA
BRANCH  29  30
ATOM     30  C   UNL     1       4.334  -1.306   6.707  1.00  0.00     0.338 C 
ATOM     31  O   UNL     1       5.183  -2.168   6.624  1.00  0.00    -0.246 OA
BRANCH  30  32
ATOM     32  C   UNL     1       4.633   0.137   6.526  1.00  0.00     0.060 A 
ATOM     33  C   UNL     1       5.273   0.552   5.345  1.00  0.00     0.016 A 
ATOM     34  C   UNL     1       4.303   1.070   7.508  1.00  0.00     0.016 A 
ATOM     35  C   UNL     1       5.605   1.895   5.153  1.00  0.00     0.010 A 
ATOM     36  C   UNL     1       4.671   2.409   7.331  1.00  0.00     0.010 A 
ATOM     37  C   UNL     1       5.353   2.822   6.169  1.00  0.00    -0.014 A 
BRANCH  37  38
ATOM     38  C   UNL     1       6.013   4.153   6.136  1.00  0.00     0.031 A 
ATOM     39  C   UNL     1       7.300   4.318   6.901  1.00  0.00     0.074 A 
ATOM     40  C   UNL     1       5.507   5.191   5.448  1.00  0.00     0.049 A 
ATOM     41  N   UNL     1       8.015   5.393   7.111  1.00  0.00    -0.248 NA
ATOM     42  C   UNL     1       7.847   3.099   7.517  1.00  0.00     0.031 C 
ATOM     43  C   UNL     1       4.307   5.155   4.616  1.00  0.00     0.029 A 
ATOM     44  N   UNL     1       5.944   6.490   5.357  1.00  0.00    -0.354 N 
ATOM     45  C   UNL     1       9.087   4.983   7.894  1.00  0.00     0.074 A 
ATOM     46  C   UNL     1       8.911   3.569   8.148  1.00  0.00     0.031 C 
ATOM     47  C   UNL     1       4.093   6.385   4.112  1.00  0.00     0.029 A 
ATOM     48  C   UNL     1       5.116   7.300   4.618  1.00  0.00     0.049 A 
ATOM     49  H   UNL     1       6.772   6.811   5.782  1.00  0.00     0.167 HD
ATOM     50  C   UNL     1      10.129   5.713   8.358  1.00  0.00     0.037 A 
ATOM     51  C   UNL     1       5.166   8.630   4.401  1.00  0.00     0.037 A 
ATOM     52  C   UNL     1      10.300   7.121   8.118  1.00  0.00     0.049 A 
ATOM     53  C   UNL     1       6.279   9.445   5.012  1.00  0.00     0.074 A 
ATOM     54  C   UNL     1      11.324   7.950   8.542  1.00  0.00     0.029 A 
ATOM     55  N   UNL     1       9.417   7.912   7.399  1.00  0.00    -0.354 N 
ATOM     56  N   UNL     1       7.294   9.050   5.742  1.00  0.00    -0.248 NA
ATOM     57  C   UNL     1       6.250  10.896   4.768  1.00  0.00     0.031 C 
ATOM     58  C   UNL     1      11.030   9.254   8.130  1.00  0.00     0.029 A 
ATOM     59  C   UNL     1       9.857   9.226   7.392  1.00  0.00     0.049 A 
ATOM     60  H   UNL     1       8.598   7.588   6.959  1.00  0.00     0.167 HD
ATOM     61  C   UNL     1       8.041  10.193   6.012  1.00  0.00     0.074 A 
ATOM     62  C   UNL     1       7.366  11.295   5.360  1.00  0.00     0.031 C 
ATOM     63  C   UNL     1       9.185  10.316   6.731  1.00  0.00     0.037 A 
BRANCH  50  64
ATOM     64  C   UNL     1      11.142   4.999   9.208  1.00  0.00     0.057 A 
ATOM     65  C   UNL     1      12.009   4.033   8.679  1.00  0.00     0.134 A 
ATOM     66  C   UNL     1      11.253   5.286  10.574  1.00  0.00     0.134 A 
ATOM     67  F   UNL     1      11.944   3.698   7.381  1.00  0.00    -0.206 F 
ATOM     68  C   UNL     1      12.924   3.353   9.486  1.00  0.00     0.040 A 
ATOM     69  C   UNL     1      12.186   4.637  11.384  1.00  0.00     0.040 A 
ATOM     70  F   UNL     1      10.457   6.203  11.146  1.00  0.00    -0.206 F 
ATOM     71  C   UNL     1      13.018   3.660  10.841  1.00  0.00     0.006 A 
ENDBRANCH  50  64
BRANCH  51  72
ATOM     72  C   UNL     1       4.122   9.291   3.574  1.00  0.00     0.057 A 
ATOM     73  C   UNL     1       4.432   9.855   2.331  1.00  0.00     0.134 A 
ATOM     74  C   UNL     1       2.798   9.404   4.019  1.00  0.00     0.134 A 
ATOM     75  F   UNL     1       5.688   9.807   1.864  1.00  0.00    -0.206 F 
ATOM     76  C   UNL     1       3.471  10.520   1.567  1.00  0.00     0.040 A 
ATOM     77  C   UNL     1       1.820  10.041   3.252  1.00  0.00     0.040 A 
ATOM     78  F   UNL     1       2.435   8.892   5.204  1.00  0.00    -0.206 F 
ATOM     79  C   UNL     1       2.158  10.608   2.025  1.00  0.00     0.006 A 
ENDBRANCH  51  72
BRANCH  63  80
ATOM     80  C   UNL     1       9.815  11.679   6.811  1.00  0.00     0.057 A 
ATOM     81  C   UNL     1       9.244  12.724   7.550  1.00  0.00     0.134 A 
ATOM     82  C   UNL     1      11.038  11.934   6.176  1.00  0.00     0.134 A 
ATOM     83  F   UNL     1       8.070  12.552   8.176  1.00  0.00    -0.206 F 
ATOM     84  C   UNL     1       9.854  13.978   7.633  1.00  0.00     0.040 A 
ATOM     85  C   UNL     1      11.672  13.174   6.277  1.00  0.00     0.040 A 
ATOM     86  F   UNL     1      11.648  10.976   5.461  1.00  0.00    -0.206 F 
ATOM     87  C   UNL     1      11.076  14.203   7.002  1.00  0.00     0.006 A 
ENDBRANCH  63  80
ENDBRANCH  37  38
ENDBRANCH  30  32
ENDBRANCH  29  30
ENDBRANCH  28  29
ENDBRANCH  27  28
ENDBRANCH  26  27
ENDBRANCH  25  26
ENDBRANCH   1  25
TORSDOF 19
