REMARK SMILES O=C(OCCOCCOCCOC(=O)[C@]1(NC(=O)C2CCN(C(=O)C3CC3)CC2)CCCc2ccccc21)c1ccc(-c2c3nc(c(-c4c(F)cccc4F)c4ccc([nH]4)c(-c4c(F)cccc4F)c4nc(c(-c5c(F)cccc5F)c5ccc2[nH]5)C=C4)C=C3)cc1
REMARK SMILES IDX 8 1 7 2 6 3 5 4 4 5 3 6 2 7 1 8 39 9 40 10 92 11 41 12 91 13
REMARK SMILES IDX 42 14 43 15 44 16 85 17 45 18 90 19 84 20 86 21 46 22 89 23
REMARK SMILES IDX 83 24 82 25 47 27 73 28 56 29 72 30 57 31 60 32 71 33 87 34
REMARK SMILES IDX 58 35 59 36 70 38 88 39 61 40 48 41 49 42 54 43 50 44 51 45
REMARK SMILES IDX 53 46 55 47 52 48 74 49 75 50 80 51 76 52 77 53 79 54 81 55
REMARK SMILES IDX 78 56 62 57 63 58 68 59 64 60 65 61 67 62 69 63 66 64 9 65
REMARK SMILES IDX 10 66 11 67 12 68 13 69 14 70 15 71 30 72 38 73 31 74 33 75
REMARK SMILES IDX 37 76 32 77 34 78 36 79 35 80 16 81 17 82 18 84 19 85 20 86
REMARK SMILES IDX 29 87 21 88 28 89 22 90 23 91 24 92 25 93 26 94 27 95
REMARK H PARENT 86 26 60 37 16 83
REMARK Flexibility Score: inf
ROOT
ATOM      1  C   UNL     1       3.930   0.523  -4.328  1.00  0.00     0.188 C 
ENDROOT
BRANCH   1   2
ATOM      2  C   UNL     1       4.724  -0.203  -3.235  1.00  0.00     0.188 C 
BRANCH   2   3
ATOM      3  O   UNL     1       4.054  -1.415  -2.868  1.00  0.00    -0.376 OA
BRANCH   3   4
ATOM      4  C   UNL     1       3.813  -1.612  -1.463  1.00  0.00     0.202 C 
BRANCH   4   5
ATOM      5  C   UNL     1       2.357  -1.050  -1.080  1.00  0.00     0.261 C 
BRANCH   5   6
ATOM      6  O   UNL     1       1.806  -0.093   0.527  1.00  0.00    -0.460 OA
BRANCH   6   7
ATOM      7  C   UNL     1       1.102   0.381   1.716  1.00  0.00     0.338 C 
ATOM      8  O   UNL     1       0.003   0.007   2.110  1.00  0.00    -0.246 OA
BRANCH   7   9
ATOM      9  C   UNL     1       1.806   1.357   2.657  1.00  0.00     0.060 A 
ATOM     10  C   UNL     1       2.601   2.371   2.180  1.00  0.00     0.016 A 
ATOM     11  C   UNL     1       1.689   1.323   4.052  1.00  0.00     0.016 A 
ATOM     12  C   UNL     1       3.471   3.123   2.947  1.00  0.00     0.010 A 
ATOM     13  C   UNL     1       2.469   2.192   4.878  1.00  0.00     0.010 A 
ATOM     14  C   UNL     1       3.428   3.065   4.325  1.00  0.00    -0.014 A 
BRANCH  14  15
ATOM     15  C   UNL     1       4.520   3.789   5.055  1.00  0.00     0.031 A 
ATOM     16  C   UNL     1       5.447   3.007   5.945  1.00  0.00     0.074 A 
ATOM     17  C   UNL     1       4.879   5.057   4.731  1.00  0.00     0.049 A 
ATOM     18  N   UNL     1       6.383   3.446   6.746  1.00  0.00    -0.248 NA
ATOM     19  C   UNL     1       5.315   1.542   5.931  1.00  0.00     0.031 C 
ATOM     20  C   UNL     1       4.203   5.912   3.749  1.00  0.00     0.029 A 
ATOM     21  N   UNL     1       5.976   5.807   5.094  1.00  0.00    -0.354 N 
ATOM     22  C   UNL     1       6.834   2.332   7.440  1.00  0.00     0.074 A 
ATOM     23  C   UNL     1       6.153   1.182   6.891  1.00  0.00     0.031 C 
ATOM     24  C   UNL     1       4.991   6.958   3.451  1.00  0.00     0.029 A 
ATOM     25  C   UNL     1       6.150   6.947   4.336  1.00  0.00     0.049 A 
ATOM     26  H   UNL     1       6.581   5.553   5.828  1.00  0.00     0.167 HD
ATOM     27  C   UNL     1       7.689   2.299   8.488  1.00  0.00     0.037 A 
ATOM     28  C   UNL     1       7.119   7.886   4.367  1.00  0.00     0.037 A 
ATOM     29  C   UNL     1       8.426   3.444   8.946  1.00  0.00     0.049 A 
ATOM     30  C   UNL     1       8.135   7.818   5.475  1.00  0.00     0.074 A 
ATOM     31  C   UNL     1       9.168   3.611  10.101  1.00  0.00     0.029 A 
ATOM     32  N   UNL     1       8.555   4.615   8.215  1.00  0.00    -0.354 N 
ATOM     33  N   UNL     1       8.342   6.860   6.345  1.00  0.00    -0.248 NA
ATOM     34  C   UNL     1       8.995   8.997   5.662  1.00  0.00     0.031 C 
ATOM     35  C   UNL     1       9.745   4.889  10.068  1.00  0.00     0.029 A 
ATOM     36  C   UNL     1       9.380   5.502   8.880  1.00  0.00     0.049 A 
ATOM     37  H   UNL     1       8.121   4.789   7.349  1.00  0.00     0.167 HD
ATOM     38  C   UNL     1       9.302   7.346   7.223  1.00  0.00     0.074 A 
ATOM     39  C   UNL     1       9.703   8.648   6.728  1.00  0.00     0.031 C 
ATOM     40  C   UNL     1       9.763   6.791   8.370  1.00  0.00     0.037 A 
BRANCH  27  41
ATOM     41  C   UNL     1       7.718   1.031   9.283  1.00  0.00     0.057 A 
ATOM     42  C   UNL     1       8.408  -0.114   8.877  1.00  0.00     0.134 A 
ATOM     43  C   UNL     1       6.964   0.952  10.463  1.00  0.00     0.134 A 
ATOM     44  F   UNL     1       9.113  -0.115   7.736  1.00  0.00    -0.206 F 
ATOM     45  C   UNL     1       8.330  -1.304   9.607  1.00  0.00     0.040 A 
ATOM     46  C   UNL     1       6.893  -0.223  11.210  1.00  0.00     0.040 A 
ATOM     47  F   UNL     1       6.269   2.014  10.898  1.00  0.00    -0.206 F 
ATOM     48  C   UNL     1       7.572  -1.359  10.777  1.00  0.00     0.006 A 
ENDBRANCH  27  41
BRANCH  28  49
ATOM     49  C   UNL     1       7.151   9.005   3.383  1.00  0.00     0.057 A 
ATOM     50  C   UNL     1       8.229   9.153   2.499  1.00  0.00     0.134 A 
ATOM     51  C   UNL     1       6.135   9.966   3.308  1.00  0.00     0.134 A 
ATOM     52  F   UNL     1       9.255   8.289   2.534  1.00  0.00    -0.206 F 
ATOM     53  C   UNL     1       8.291  10.204   1.579  1.00  0.00     0.040 A 
ATOM     54  C   UNL     1       6.166  11.002   2.371  1.00  0.00     0.040 A 
ATOM     55  F   UNL     1       5.083   9.906   4.138  1.00  0.00    -0.206 F 
ATOM     56  C   UNL     1       7.250  11.126   1.505  1.00  0.00     0.006 A 
ENDBRANCH  28  49
BRANCH  40  57
ATOM     57  C   UNL     1      10.711   7.612   9.183  1.00  0.00     0.057 A 
ATOM     58  C   UNL     1      10.244   8.657   9.991  1.00  0.00     0.134 A 
ATOM     59  C   UNL     1      12.083   7.343   9.190  1.00  0.00     0.134 A 
ATOM     60  F   UNL     1       8.939   8.966  10.015  1.00  0.00    -0.206 F 
ATOM     61  C   UNL     1      11.115   9.417  10.771  1.00  0.00     0.040 A 
ATOM     62  C   UNL     1      12.962   8.089   9.975  1.00  0.00     0.040 A 
ATOM     63  F   UNL     1      12.586   6.354   8.436  1.00  0.00    -0.206 F 
ATOM     64  C   UNL     1      12.479   9.130  10.767  1.00  0.00     0.006 A 
ENDBRANCH  40  57
ENDBRANCH  14  15
ENDBRANCH   7   9
ENDBRANCH   6   7
ENDBRANCH   5   6
ENDBRANCH   4   5
ENDBRANCH   3   4
ENDBRANCH   2   3
ENDBRANCH   1   2
BRANCH   1  65
ATOM     65  O   UNL     1       4.736   1.080  -5.361  1.00  0.00    -0.376 OA
BRANCH  65  66
ATOM     66  C   UNL     1       5.619   2.138  -4.996  1.00  0.00     0.202 C 
BRANCH  66  67
ATOM     67  C   UNL     1       4.937   3.495  -4.818  1.00  0.00     0.261 C 
BRANCH  67  68
ATOM     68  O   UNL     1       4.487   3.707  -3.467  1.00  0.00    -0.461 OA
BRANCH  68  69
ATOM     69  C   UNL     1       3.163   4.012  -3.321  1.00  0.00     0.336 C 
ATOM     70  O   UNL     1       2.312   3.729  -4.156  1.00  0.00    -0.249 OA
BRANCH  69  71
ATOM     71  C   UNL     1       2.854   4.687  -1.948  1.00  0.00     0.164 C 
ATOM     72  C   UNL     1       1.496   5.435  -2.064  1.00  0.00     0.046 C 
ATOM     73  C   UNL     1       3.959   5.686  -1.522  1.00  0.00    -0.008 A 
ATOM     74  C   UNL     1       1.621   6.696  -2.910  1.00  0.00     0.008 C 
ATOM     75  C   UNL     1       3.793   7.080  -1.663  1.00  0.00    -0.042 A 
ATOM     76  C   UNL     1       5.151   5.213  -0.925  1.00  0.00     0.007 A 
ATOM     77  C   UNL     1       2.535   7.698  -2.223  1.00  0.00     0.036 C 
ATOM     78  C   UNL     1       4.793   7.950  -1.195  1.00  0.00     0.004 A 
ATOM     79  C   UNL     1       6.128   6.089  -0.456  1.00  0.00     0.000 A 
ATOM     80  C   UNL     1       5.949   7.458  -0.594  1.00  0.00     0.000 A 
BRANCH  71  81
ATOM     81  N   UNL     1       2.787   3.637  -0.902  1.00  0.00    -0.336 N 
ATOM     82  C   UNL     1       1.748   2.752  -0.786  1.00  0.00     0.224 C 
ATOM     83  H   UNL     1       3.528   3.573  -0.257  1.00  0.00     0.164 HD
ATOM     84  O   UNL     1       0.618   3.144  -0.527  1.00  0.00    -0.275 OA
BRANCH  82  85
ATOM     85  C   UNL     1       2.127   1.273  -0.881  1.00  0.00     0.082 C 
ATOM     86  C   UNL     1       0.450   0.315  -0.895  1.00  0.00     0.035 C 
ATOM     87  C   UNL     1       3.590   0.513   0.159  1.00  0.00     0.035 C 
ATOM     88  C   UNL     1       0.297  -1.380  -0.034  1.00  0.00     0.120 C 
ATOM     89  C   UNL     1       3.304  -1.177   1.115  1.00  0.00     0.120 C 
ATOM     90  N   UNL     1       1.755  -2.116   0.805  1.00  0.00    -0.342 N 
ATOM     91  C   UNL     1       1.524  -3.486   1.014  1.00  0.00     0.225 C 
ATOM     92  O   UNL     1       0.443  -3.972   0.684  1.00  0.00    -0.275 OA
BRANCH  91  93
ATOM     93  C   UNL     1       2.494  -4.465   1.569  1.00  0.00     0.079 C 
ATOM     94  C   UNL     1       3.988  -4.458   1.631  1.00  0.00     0.014 C 
ATOM     95  C   UNL     1       3.185  -4.226   2.882  1.00  0.00     0.014 C 
ENDBRANCH  91  93
ENDBRANCH  82  85
ENDBRANCH  71  81
ENDBRANCH  69  71
ENDBRANCH  68  69
ENDBRANCH  67  68
ENDBRANCH  66  67
ENDBRANCH  65  66
ENDBRANCH   1  65
TORSDOF 20
