REMARK SMILES Cc1cnn(C2(C(=O)OCCOCCOCCOC(=O)c3ccc(-c4c5nc(c(-c6c(F)cccc6F)c6ccc([nH]6)c(-c6c(F)cccc6F)c6nc(c(-c7c(F)cccc7F)c7ccc4[nH]7)C=C6)C=C5)cc3)CCN(C(=O)c3cc4ccccc4[nH]3)CC2)c1
REMARK SMILES IDX 14 1 13 2 12 3 11 4 10 5 9 6 7 7 8 8 6 9 75 10 90 11 76 12
REMARK SMILES IDX 89 13 77 14 78 15 79 16 5 17 1 18 2 19 3 20 91 21 4 22 80 23
REMARK SMILES IDX 81 24 88 25 82 26 87 27 83 29 86 30 84 31 85 32 15 33 16 34
REMARK SMILES IDX 17 35 18 36 19 37 20 38 21 39 22 40 74 41 23 42 73 43 24 44
REMARK SMILES IDX 25 45 26 46 67 47 27 48 72 49 66 50 68 51 28 52 71 53 65 54
REMARK SMILES IDX 64 55 29 57 55 58 38 59 54 60 39 61 42 62 53 63 69 64 40 65
REMARK SMILES IDX 41 66 52 68 70 69 43 70 30 71 31 72 36 73 32 74 33 75 35 76
REMARK SMILES IDX 37 77 34 78 56 79 57 80 62 81 58 82 59 83 61 84 63 85 60 86
REMARK SMILES IDX 44 87 45 88 50 89 46 90 47 91 49 92 51 93 48 94
REMARK H PARENT 88 28 68 56 42 67
REMARK Flexibility Score: inf
ROOT
ATOM      1  C   UNL     1      -2.555  -5.237   2.275  1.00  0.00     0.188 C 
ENDROOT
BRANCH   1   2
ATOM      2  C   UNL     1      -1.260  -6.051   2.224  1.00  0.00     0.188 C 
BRANCH   2   3
ATOM      3  O   UNL     1      -1.255  -7.303   2.861  1.00  0.00    -0.376 OA
BRANCH   3   4
ATOM      4  C   UNL     1      -1.128  -7.325   4.274  1.00  0.00     0.202 C 
BRANCH   4   5
ATOM      5  C   UNL     1      -0.646  -6.123   5.122  1.00  0.00     0.261 C 
BRANCH   5   6
ATOM      6  O   UNL     1      -1.085  -4.806   4.726  1.00  0.00    -0.461 OA
BRANCH   6   7
ATOM      7  C   UNL     1      -0.105  -3.909   4.407  1.00  0.00     0.334 C 
ATOM      8  O   UNL     1       1.091  -4.175   4.524  1.00  0.00    -0.249 OA
BRANCH   7   9
ATOM      9  C   UNL     1      -0.611  -2.492   4.003  1.00  0.00     0.163 C 
ATOM     10  C   UNL     1      -2.146  -2.294   4.026  1.00  0.00     0.064 C 
ATOM     11  C   UNL     1       0.032  -1.657   5.131  1.00  0.00     0.064 C 
ATOM     12  C   UNL     1      -2.597  -0.844   4.156  1.00  0.00     0.123 C 
ATOM     13  C   UNL     1      -0.476  -0.244   5.277  1.00  0.00     0.123 C 
ATOM     14  N   UNL     1      -1.932  -0.169   5.252  1.00  0.00    -0.337 N 
ATOM     15  C   UNL     1      -2.705   0.537   6.179  1.00  0.00     0.270 C 
ATOM     16  O   UNL     1      -3.920   0.382   6.274  1.00  0.00    -0.267 OA
BRANCH   9  17
ATOM     17  N   UNL     1      -0.068  -2.147   2.668  1.00  0.00    -0.255 N 
ATOM     18  C   UNL     1       1.050  -0.046  -0.119  1.00  0.00     0.048 C 
ATOM     19  C   UNL     1       0.658  -1.086   0.858  1.00  0.00    -0.013 A 
ATOM     20  C   UNL     1       0.805  -2.480   0.756  1.00  0.00     0.138 A 
ATOM     21  C   UNL     1       0.046  -0.912   2.080  1.00  0.00     0.113 A 
ATOM     22  N   UNL     1       0.303  -3.124   1.810  1.00  0.00    -0.180 NA
ENDBRANCH   9  17
BRANCH  15  23
ATOM     23  C   UNL     1      -1.995   1.422   7.070  1.00  0.00     0.105 A 
ATOM     24  C   UNL     1      -0.929   2.272   6.834  1.00  0.00     0.042 A 
ATOM     25  N   UNL     1      -2.302   1.543   8.405  1.00  0.00    -0.351 N 
ATOM     26  C   UNL     1      -0.384   2.628   8.088  1.00  0.00     0.000 A 
ATOM     27  C   UNL     1      -1.294   2.214   9.059  1.00  0.00     0.046 A 
ATOM     28  H   UNL     1      -3.121   1.200   8.830  1.00  0.00     0.167 HD
ATOM     29  C   UNL     1       0.814   3.244   8.484  1.00  0.00     0.010 A 
ATOM     30  C   UNL     1      -1.104   2.466  10.419  1.00  0.00     0.026 A 
ATOM     31  C   UNL     1       1.046   3.457   9.845  1.00  0.00     0.001 A 
ATOM     32  C   UNL     1       0.088   3.097  10.792  1.00  0.00     0.002 A 
ENDBRANCH  15  23
ENDBRANCH   7   9
ENDBRANCH   6   7
ENDBRANCH   5   6
ENDBRANCH   4   5
ENDBRANCH   3   4
ENDBRANCH   2   3
ENDBRANCH   1   2
BRANCH   1  33
ATOM     33  O   UNL     1      -3.395  -5.126   3.413  1.00  0.00    -0.376 OA
BRANCH  33  34
ATOM     34  C   UNL     1      -4.233  -6.153   3.928  1.00  0.00     0.202 C 
BRANCH  34  35
ATOM     35  C   UNL     1      -5.041  -7.118   3.063  1.00  0.00     0.261 C 
BRANCH  35  36
ATOM     36  O   UNL     1      -4.613  -7.191   1.729  1.00  0.00    -0.460 OA
BRANCH  36  37
ATOM     37  C   UNL     1      -5.099  -6.209   0.946  1.00  0.00     0.338 C 
ATOM     38  O   UNL     1      -5.839  -5.286   1.266  1.00  0.00    -0.246 OA
BRANCH  37  39
ATOM     39  C   UNL     1      -4.563  -6.430  -0.398  1.00  0.00     0.060 A 
ATOM     40  C   UNL     1      -4.846  -5.464  -1.360  1.00  0.00     0.016 A 
ATOM     41  C   UNL     1      -4.040  -7.691  -0.723  1.00  0.00     0.016 A 
ATOM     42  C   UNL     1      -4.957  -5.892  -2.656  1.00  0.00     0.010 A 
ATOM     43  C   UNL     1      -4.165  -8.121  -2.011  1.00  0.00     0.010 A 
ATOM     44  C   UNL     1      -4.759  -7.253  -2.916  1.00  0.00    -0.014 A 
BRANCH  44  45
ATOM     45  C   UNL     1      -5.170  -7.772  -4.193  1.00  0.00     0.031 A 
ATOM     46  C   UNL     1      -4.218  -7.410  -5.252  1.00  0.00     0.074 A 
ATOM     47  C   UNL     1      -6.270  -8.536  -4.333  1.00  0.00     0.049 A 
ATOM     48  N   UNL     1      -4.378  -6.492  -6.142  1.00  0.00    -0.248 NA
ATOM     49  C   UNL     1      -2.850  -7.943  -5.163  1.00  0.00     0.031 C 
ATOM     50  C   UNL     1      -7.126  -9.121  -3.296  1.00  0.00     0.029 A 
ATOM     51  N   UNL     1      -6.817  -9.015  -5.481  1.00  0.00    -0.354 N 
ATOM     52  C   UNL     1      -3.212  -6.512  -6.889  1.00  0.00     0.074 A 
ATOM     53  C   UNL     1      -2.239  -7.234  -6.113  1.00  0.00     0.031 C 
ATOM     54  C   UNL     1      -7.935 -10.053  -3.854  1.00  0.00     0.029 A 
ATOM     55  C   UNL     1      -7.758 -10.026  -5.295  1.00  0.00     0.049 A 
ATOM     56  H   UNL     1      -6.569  -8.676  -6.371  1.00  0.00     0.167 HD
ATOM     57  C   UNL     1      -3.246  -6.206  -8.211  1.00  0.00     0.037 A 
ATOM     58  C   UNL     1      -8.275 -10.804  -6.281  1.00  0.00     0.037 A 
ATOM     59  C   UNL     1      -4.465  -5.517  -8.555  1.00  0.00     0.049 A 
ATOM     60  C   UNL     1      -8.069 -10.076  -7.562  1.00  0.00     0.074 A 
ATOM     61  C   UNL     1      -5.045  -4.323  -8.175  1.00  0.00     0.029 A 
ATOM     62  N   UNL     1      -5.473  -6.271  -9.107  1.00  0.00    -0.354 N 
ATOM     63  N   UNL     1      -8.686  -8.967  -7.864  1.00  0.00    -0.248 NA
ATOM     64  C   UNL     1      -6.819 -10.308  -8.271  1.00  0.00     0.031 C 
ATOM     65  C   UNL     1      -6.444  -4.592  -8.106  1.00  0.00     0.029 A 
ATOM     66  C   UNL     1      -6.656  -5.908  -8.517  1.00  0.00     0.049 A 
ATOM     67  H   UNL     1      -5.363  -6.955  -9.807  1.00  0.00     0.167 HD
ATOM     68  C   UNL     1      -7.710  -8.167  -8.441  1.00  0.00     0.074 A 
ATOM     69  C   UNL     1      -6.597  -9.071  -8.727  1.00  0.00     0.031 C 
ATOM     70  C   UNL     1      -7.778  -6.806  -8.352  1.00  0.00     0.037 A 
BRANCH  57  71
ATOM     71  C   UNL     1      -2.398  -6.907  -9.236  1.00  0.00     0.057 A 
ATOM     72  C   UNL     1      -2.360  -6.401 -10.543  1.00  0.00     0.134 A 
ATOM     73  C   UNL     1      -1.861  -8.202  -9.072  1.00  0.00     0.134 A 
ATOM     74  F   UNL     1      -2.867  -5.191 -10.826  1.00  0.00    -0.206 F 
ATOM     75  C   UNL     1      -1.877  -7.153 -11.619  1.00  0.00     0.040 A 
ATOM     76  C   UNL     1      -1.325  -8.938 -10.129  1.00  0.00     0.040 A 
ATOM     77  F   UNL     1      -1.920  -8.870  -7.914  1.00  0.00    -0.206 F 
ATOM     78  C   UNL     1      -1.360  -8.427 -11.414  1.00  0.00     0.006 A 
ENDBRANCH  57  71
BRANCH  58  79
ATOM     79  C   UNL     1      -8.581 -12.255  -6.251  1.00  0.00     0.057 A 
ATOM     80  C   UNL     1      -9.324 -12.861  -7.277  1.00  0.00     0.134 A 
ATOM     81  C   UNL     1      -7.902 -13.131  -5.387  1.00  0.00     0.134 A 
ATOM     82  F   UNL     1      -9.972 -12.111  -8.181  1.00  0.00    -0.206 F 
ATOM     83  C   UNL     1      -9.365 -14.252  -7.451  1.00  0.00     0.040 A 
ATOM     84  C   UNL     1      -7.937 -14.522  -5.548  1.00  0.00     0.040 A 
ATOM     85  F   UNL     1      -7.103 -12.665  -4.417  1.00  0.00    -0.206 F 
ATOM     86  C   UNL     1      -8.658 -15.087  -6.592  1.00  0.00     0.006 A 
ENDBRANCH  58  79
BRANCH  70  87
ATOM     87  C   UNL     1      -9.060  -6.201  -7.843  1.00  0.00     0.057 A 
ATOM     88  C   UNL     1      -9.564  -6.380  -6.545  1.00  0.00     0.134 A 
ATOM     89  C   UNL     1      -9.731  -5.284  -8.658  1.00  0.00     0.134 A 
ATOM     90  F   UNL     1      -8.937  -7.165  -5.659  1.00  0.00    -0.206 F 
ATOM     91  C   UNL     1     -10.706  -5.706  -6.097  1.00  0.00     0.040 A 
ATOM     92  C   UNL     1     -10.851  -4.580  -8.213  1.00  0.00     0.040 A 
ATOM     93  F   UNL     1      -9.276  -5.021  -9.893  1.00  0.00    -0.206 F 
ATOM     94  C   UNL     1     -11.349  -4.796  -6.931  1.00  0.00     0.006 A 
ENDBRANCH  70  87
ENDBRANCH  44  45
ENDBRANCH  37  39
ENDBRANCH  36  37
ENDBRANCH  35  36
ENDBRANCH  34  35
ENDBRANCH  33  34
ENDBRANCH   1  33
TORSDOF 19
