REMARK SMILES CS(=O)(=O)c1ccc(/C=C(/C(=O)OCCOCCOCCOC(=O)c2ccc(-c3c4nc(c(-c5c(F)cccc5F)c5ccc([nH]5)c(-c5c(F)cccc5F)c5nc(c(-c6c(F)cccc6F)c6ccc3[nH]6)C=C5)C=C4)cc2)c2ccc(-c3ccc(S(C)(=O)=O)cc3)cc2)cc1
REMARK SMILES IDX 17 1 16 2 15 3 14 4 13 5 11 6 12 7 10 8 9 9 8 10 5 11 6 12
REMARK SMILES IDX 96 13 7 14 95 15 2 16 1 17 3 18 4 19 79 20 80 21 94 22 81 23
REMARK SMILES IDX 93 24 82 25 83 26 84 27 92 28 85 29 91 30 86 31 87 32 88 33
REMARK SMILES IDX 89 34 90 35 18 36 19 37 20 38 21 39 22 40 23 41 24 42 25 43
REMARK SMILES IDX 26 44 78 45 27 46 77 47 28 48 29 49 30 50 71 51 31 52 76 53
REMARK SMILES IDX 70 54 72 55 32 56 75 57 69 58 68 59 33 61 59 62 42 63 58 64
REMARK SMILES IDX 43 65 46 66 57 67 73 68 44 69 45 70 56 72 74 73 47 74 34 75
REMARK SMILES IDX 35 76 40 77 36 78 37 79 39 80 41 81 38 82 60 83 61 84 66 85
REMARK SMILES IDX 62 86 63 87 65 88 67 89 64 90 48 91 49 92 54 93 50 94 51 95
REMARK SMILES IDX 53 96 55 97 52 98
REMARK H PARENT 72 60 46 71
REMARK Flexibility Score: inf
ROOT
ATOM      1  C   UNL     1       5.235   6.584  -7.011  1.00  0.00     0.188 C 
ENDROOT
BRANCH   1   2
ATOM      2  O   UNL     1       5.032   7.847  -7.596  1.00  0.00    -0.376 OA
BRANCH   2   3
ATOM      3  C   UNL     1       3.815   8.091  -8.278  1.00  0.00     0.202 C 
BRANCH   3   4
ATOM      4  C   UNL     1       2.454   7.472  -7.880  1.00  0.00     0.261 C 
BRANCH   4   5
ATOM      5  O   UNL     1       2.446   6.365  -6.968  1.00  0.00    -0.460 OA
BRANCH   5   6
ATOM      6  C   UNL     1       2.317   5.119  -7.497  1.00  0.00     0.338 C 
ATOM      7  O   UNL     1       2.237   4.869  -8.691  1.00  0.00    -0.246 OA
BRANCH   6   8
ATOM      8  C   UNL     1       2.433   4.059  -6.434  1.00  0.00     0.067 C 
ATOM      9  C   UNL     1       1.873   4.268  -5.216  1.00  0.00     0.024 C 
BRANCH   9  10
ATOM     10  C   UNL     1       1.718   3.316  -4.086  1.00  0.00    -0.025 A 
ATOM     11  C   UNL     1       0.989   1.263  -2.317  1.00  0.00     0.067 A 
ATOM     12  C   UNL     1       2.219   1.209  -2.967  1.00  0.00     0.021 A 
ATOM     13  C   UNL     1       0.176   2.389  -2.438  1.00  0.00     0.021 A 
ATOM     14  C   UNL     1       2.599   2.262  -3.805  1.00  0.00     0.009 A 
ATOM     15  C   UNL     1       0.546   3.413  -3.317  1.00  0.00     0.009 A 
BRANCH  11  16
ATOM     16  S   UNL     1       0.378  -0.180  -1.479  1.00  0.00     0.175 S 
ATOM     17  C   UNL     1       1.047  -0.044   0.152  1.00  0.00     0.163 C 
ATOM     18  O   UNL     1       0.978  -1.337  -2.119  1.00  0.00    -0.224 OA
ATOM     19  O   UNL     1      -1.064  -0.052  -1.387  1.00  0.00    -0.224 OA
ENDBRANCH  11  16
ENDBRANCH   9  10
BRANCH   8  20
ATOM     20  C   UNL     1       3.186   2.833  -6.778  1.00  0.00    -0.011 A 
ATOM     21  C   UNL     1       4.584   2.899  -6.839  1.00  0.00     0.009 A 
ATOM     22  C   UNL     1       2.571   1.587  -6.919  1.00  0.00     0.009 A 
ATOM     23  C   UNL     1       5.350   1.747  -7.002  1.00  0.00     0.009 A 
ATOM     24  C   UNL     1       3.349   0.427  -7.065  1.00  0.00     0.009 A 
ATOM     25  C   UNL     1       4.753   0.488  -7.102  1.00  0.00    -0.018 A 
BRANCH  25  26
ATOM     26  C   UNL     1       5.587  -0.718  -7.236  1.00  0.00    -0.018 A 
ATOM     27  C   UNL     1       6.671  -0.957  -6.368  1.00  0.00     0.010 A 
ATOM     28  C   UNL     1       5.329  -1.659  -8.245  1.00  0.00     0.010 A 
ATOM     29  C   UNL     1       7.459  -2.106  -6.489  1.00  0.00     0.021 A 
ATOM     30  C   UNL     1       6.111  -2.809  -8.376  1.00  0.00     0.021 A 
ATOM     31  C   UNL     1       7.169  -3.029  -7.494  1.00  0.00     0.067 A 
BRANCH  31  32
ATOM     32  S   UNL     1       8.096  -4.543  -7.581  1.00  0.00     0.175 S 
ATOM     33  C   UNL     1       9.730  -4.040  -8.036  1.00  0.00     0.163 C 
ATOM     34  O   UNL     1       8.138  -5.086  -6.237  1.00  0.00    -0.224 OA
ATOM     35  O   UNL     1       7.556  -5.327  -8.678  1.00  0.00    -0.224 OA
ENDBRANCH  31  32
ENDBRANCH  25  26
ENDBRANCH   8  20
ENDBRANCH   6   8
ENDBRANCH   5   6
ENDBRANCH   4   5
ENDBRANCH   3   4
ENDBRANCH   2   3
ENDBRANCH   1   2
BRANCH   1  36
ATOM     36  C   UNL     1       4.919   6.548  -5.500  1.00  0.00     0.188 C 
BRANCH  36  37
ATOM     37  O   UNL     1       4.471   7.718  -4.836  1.00  0.00    -0.376 OA
BRANCH  37  38
ATOM     38  C   UNL     1       5.147   8.946  -5.059  1.00  0.00     0.202 C 
BRANCH  38  39
ATOM     39  C   UNL     1       6.687   9.036  -5.022  1.00  0.00     0.261 C 
BRANCH  39  40
ATOM     40  O   UNL     1       7.421   7.919  -5.549  1.00  0.00    -0.460 OA
BRANCH  40  41
ATOM     41  C   UNL     1       8.004   7.109  -4.626  1.00  0.00     0.338 C 
ATOM     42  O   UNL     1       7.980   7.228  -3.418  1.00  0.00    -0.246 OA
BRANCH  41  43
ATOM     43  C   UNL     1       8.540   5.906  -5.305  1.00  0.00     0.060 A 
ATOM     44  C   UNL     1       8.005   4.655  -4.969  1.00  0.00     0.016 A 
ATOM     45  C   UNL     1       9.582   5.999  -6.228  1.00  0.00     0.016 A 
ATOM     46  C   UNL     1       8.508   3.494  -5.557  1.00  0.00     0.010 A 
ATOM     47  C   UNL     1      10.103   4.830  -6.798  1.00  0.00     0.010 A 
ATOM     48  C   UNL     1       9.577   3.571  -6.459  1.00  0.00    -0.014 A 
BRANCH  48  49
ATOM     49  C   UNL     1      10.229   2.329  -6.942  1.00  0.00     0.031 A 
ATOM     50  C   UNL     1      11.419   1.793  -6.199  1.00  0.00     0.074 A 
ATOM     51  C   UNL     1       9.768   1.675  -8.023  1.00  0.00     0.049 A 
ATOM     52  N   UNL     1      12.166   0.752  -6.469  1.00  0.00    -0.248 NA
ATOM     53  C   UNL     1      11.820   2.531  -4.992  1.00  0.00     0.031 C 
ATOM     54  C   UNL     1       8.602   2.063  -8.811  1.00  0.00     0.029 A 
ATOM     55  N   UNL     1      10.236   0.544  -8.648  1.00  0.00    -0.354 N 
ATOM     56  C   UNL     1      13.134   0.718  -5.474  1.00  0.00     0.074 A 
ATOM     57  C   UNL     1      12.886   1.848  -4.603  1.00  0.00     0.031 C 
ATOM     58  C   UNL     1       8.436   1.179  -9.809  1.00  0.00     0.029 A 
ATOM     59  C   UNL     1       9.524   0.203  -9.772  1.00  0.00     0.049 A 
ATOM     60  H   UNL     1      11.008   0.028  -8.321  1.00  0.00     0.167 HD
ATOM     61  C   UNL     1      14.141  -0.172  -5.303  1.00  0.00     0.037 A 
ATOM     62  C   UNL     1       9.748  -0.758 -10.689  1.00  0.00     0.037 A 
ATOM     63  C   UNL     1      14.403  -1.282  -6.181  1.00  0.00     0.049 A 
ATOM     64  C   UNL     1      10.942  -1.664 -10.542  1.00  0.00     0.074 A 
ATOM     65  C   UNL     1      15.385  -2.252  -6.073  1.00  0.00     0.029 A 
ATOM     66  N   UNL     1      13.700  -1.555  -7.344  1.00  0.00    -0.354 N 
ATOM     67  N   UNL     1      11.817  -1.727  -9.567  1.00  0.00    -0.248 NA
ATOM     68  C   UNL     1      11.168  -2.648 -11.612  1.00  0.00     0.031 C 
ATOM     69  C   UNL     1      15.313  -3.075  -7.201  1.00  0.00     0.029 A 
ATOM     70  C   UNL     1      14.245  -2.660  -7.979  1.00  0.00     0.049 A 
ATOM     71  H   UNL     1      12.927  -1.041  -7.671  1.00  0.00     0.167 HD
ATOM     72  C   UNL     1      12.683  -2.765  -9.897  1.00  0.00     0.074 A 
ATOM     73  C   UNL     1      12.207  -3.325 -11.144  1.00  0.00     0.031 C 
ATOM     74  C   UNL     1      13.768  -3.217  -9.220  1.00  0.00     0.037 A 
BRANCH  61  75
ATOM     75  C   UNL     1      15.062   0.046  -4.138  1.00  0.00     0.057 A 
ATOM     76  C   UNL     1      14.649  -0.155  -2.815  1.00  0.00     0.134 A 
ATOM     77  C   UNL     1      16.391   0.439  -4.346  1.00  0.00     0.134 A 
ATOM     78  F   UNL     1      13.385  -0.518  -2.546  1.00  0.00    -0.206 F 
ATOM     79  C   UNL     1      15.515   0.051  -1.740  1.00  0.00     0.040 A 
ATOM     80  C   UNL     1      17.275   0.621  -3.281  1.00  0.00     0.040 A 
ATOM     81  F   UNL     1      16.854   0.645  -5.588  1.00  0.00    -0.206 F 
ATOM     82  C   UNL     1      16.835   0.434  -1.973  1.00  0.00     0.006 A 
ENDBRANCH  61  75
BRANCH  62  83
ATOM     83  C   UNL     1       8.835  -0.914 -11.850  1.00  0.00     0.057 A 
ATOM     84  C   UNL     1       8.037  -2.055 -11.993  1.00  0.00     0.134 A 
ATOM     85  C   UNL     1       8.769   0.050 -12.863  1.00  0.00     0.134 A 
ATOM     86  F   UNL     1       8.081  -3.025 -11.067  1.00  0.00    -0.206 F 
ATOM     87  C   UNL     1       7.224  -2.244 -13.111  1.00  0.00     0.040 A 
ATOM     88  C   UNL     1       7.939  -0.111 -13.973  1.00  0.00     0.040 A 
ATOM     89  F   UNL     1       9.513   1.163 -12.787  1.00  0.00    -0.206 F 
ATOM     90  C   UNL     1       7.170  -1.266 -14.103  1.00  0.00     0.006 A 
ENDBRANCH  62  83
BRANCH  74  91
ATOM     91  C   UNL     1      14.501  -4.400  -9.791  1.00  0.00     0.057 A 
ATOM     92  C   UNL     1      15.259  -4.309 -10.965  1.00  0.00     0.134 A 
ATOM     93  C   UNL     1      14.484  -5.636  -9.130  1.00  0.00     0.134 A 
ATOM     94  F   UNL     1      15.308  -3.160 -11.656  1.00  0.00    -0.206 F 
ATOM     95  C   UNL     1      15.954  -5.409 -11.473  1.00  0.00     0.040 A 
ATOM     96  C   UNL     1      15.201  -6.733  -9.610  1.00  0.00     0.040 A 
ATOM     97  F   UNL     1      13.782  -5.791  -7.997  1.00  0.00    -0.206 F 
ATOM     98  C   UNL     1      15.933  -6.623 -10.789  1.00  0.00     0.006 A 
ENDBRANCH  74  91
ENDBRANCH  48  49
ENDBRANCH  41  43
ENDBRANCH  40  41
ENDBRANCH  39  40
ENDBRANCH  38  39
ENDBRANCH  37  38
ENDBRANCH  36  37
ENDBRANCH   1  36
TORSDOF 22
