REMARK SMILES Cc1ccccc1CNc1ccc(C(=O)OCCOCCOCCOC(=O)c2ccc(-c3c4nc(c(-c5c(F)cccc5F)c5ccc([nH]5)c(-c5c(F)cccc5F)c5nc(c(-c6c(F)cccc6F)c6ccc3[nH]6)C=C5)C=C4)cc2)c(F)c1F
REMARK SMILES IDX 20 1 19 2 18 3 17 4 16 5 14 6 15 7 13 8 10 9 11 10 84 11
REMARK SMILES IDX 12 12 82 13 85 14 83 15 9 16 8 18 7 19 1 20 2 21 3 22 4 23
REMARK SMILES IDX 6 24 5 25 21 26 22 27 23 28 24 29 25 30 26 31 27 32 28 33
REMARK SMILES IDX 29 34 81 35 30 36 80 37 31 38 32 39 33 40 74 41 34 42 79 43
REMARK SMILES IDX 73 44 75 45 35 46 78 47 72 48 71 49 36 51 62 52 45 53 61 54
REMARK SMILES IDX 46 55 49 56 60 57 76 58 47 59 48 60 59 62 77 63 50 64 37 65
REMARK SMILES IDX 38 66 43 67 39 68 40 69 42 70 44 71 41 72 63 73 64 74 69 75
REMARK SMILES IDX 65 76 66 77 68 78 70 79 67 80 51 81 52 82 57 83 53 84 54 85
REMARK SMILES IDX 56 86 58 87 55 88
REMARK H PARENT 9 17 75 50 49 61
REMARK Flexibility Score: inf
ROOT
ATOM      1  C   UNL     1      -2.035  12.269  -1.905  1.00  0.00     0.188 C 
ENDROOT
BRANCH   1   2
ATOM      2  O   UNL     1      -1.661  11.888  -0.559  1.00  0.00    -0.376 OA
BRANCH   2   3
ATOM      3  C   UNL     1      -0.371  12.092   0.028  1.00  0.00     0.202 C 
BRANCH   3   4
ATOM      4  C   UNL     1       0.576  10.874   0.740  1.00  0.00     0.261 C 
BRANCH   4   5
ATOM      5  O   UNL     1       1.112   9.383   0.153  1.00  0.00    -0.460 OA
BRANCH   5   6
ATOM      6  C   UNL     1       0.649   8.039   0.134  1.00  0.00     0.341 C 
ATOM      7  O   UNL     1      -0.279   7.530   0.758  1.00  0.00    -0.246 OA
BRANCH   6   8
ATOM      8  C   UNL     1       1.165   6.918  -0.672  1.00  0.00     0.099 A 
ATOM      9  C   UNL     1       1.535   4.117  -1.089  1.00  0.00     0.074 A 
ATOM     10  C   UNL     1       2.485   4.899  -0.409  1.00  0.00     0.030 A 
ATOM     11  C   UNL     1       0.403   4.755  -1.580  1.00  0.00     0.182 A 
ATOM     12  C   UNL     1       2.312   6.286  -0.205  1.00  0.00     0.021 A 
ATOM     13  C   UNL     1       0.204   6.108  -1.346  1.00  0.00     0.175 A 
ATOM     14  F   UNL     1      -0.583   4.024  -2.133  1.00  0.00    -0.201 F 
ATOM     15  F   UNL     1      -1.040   6.531  -1.589  1.00  0.00    -0.203 F 
BRANCH   9  16
ATOM     16  N   UNL     1       1.579   2.714  -1.083  1.00  0.00    -0.379 N 
ATOM     17  H   UNL     1       1.746   2.188  -1.897  1.00  0.00     0.161 HD
BRANCH  16  18
ATOM     18  C   UNL     1       1.361   2.092   0.221  1.00  0.00     0.149 C 
BRANCH  18  19
ATOM     19  C   UNL     1       0.548   0.820   0.076  1.00  0.00    -0.026 A 
ATOM     20  C   UNL     1       2.618  -0.677  -0.108  1.00  0.00     0.044 C 
ATOM     21  C   UNL     1       1.132  -0.455  -0.064  1.00  0.00    -0.046 A 
ATOM     22  C   UNL     1       0.299  -1.589  -0.117  1.00  0.00     0.004 A 
ATOM     23  C   UNL     1      -1.089  -1.467  -0.082  1.00  0.00     0.000 A 
ATOM     24  C   UNL     1      -0.858   0.926   0.076  1.00  0.00     0.006 A 
ATOM     25  C   UNL     1      -1.669  -0.207  -0.000  1.00  0.00     0.000 A 
ENDBRANCH  18  19
ENDBRANCH  16  18
ENDBRANCH   9  16
ENDBRANCH   6   8
ENDBRANCH   5   6
ENDBRANCH   4   5
ENDBRANCH   3   4
ENDBRANCH   2   3
ENDBRANCH   1   2
BRANCH   1  26
ATOM     26  C   UNL     1      -1.054  12.906  -2.889  1.00  0.00     0.188 C 
BRANCH  26  27
ATOM     27  O   UNL     1       0.224  12.324  -2.723  1.00  0.00    -0.376 OA
BRANCH  27  28
ATOM     28  C   UNL     1       1.241  12.816  -3.576  1.00  0.00     0.202 C 
BRANCH  28  29
ATOM     29  C   UNL     1       1.225  12.131  -4.954  1.00  0.00     0.261 C 
BRANCH  29  30
ATOM     30  O   UNL     1       1.170  10.689  -4.806  1.00  0.00    -0.460 OA
BRANCH  30  31
ATOM     31  C   UNL     1      -0.018  10.058  -5.142  1.00  0.00     0.338 C 
ATOM     32  O   UNL     1      -0.654  10.271  -6.127  1.00  0.00    -0.246 OA
BRANCH  31  33
ATOM     33  C   UNL     1      -0.514   9.261  -3.949  1.00  0.00     0.060 A 
ATOM     34  C   UNL     1      -1.815   8.760  -3.780  1.00  0.00     0.016 A 
ATOM     35  C   UNL     1       0.194   9.407  -2.809  1.00  0.00     0.016 A 
ATOM     36  C   UNL     1      -2.410   8.584  -2.449  1.00  0.00     0.010 A 
ATOM     37  C   UNL     1      -0.571   9.523  -1.645  1.00  0.00     0.010 A 
ATOM     38  C   UNL     1      -1.811   9.032  -1.263  1.00  0.00    -0.014 A 
BRANCH  38  39
ATOM     39  C   UNL     1      -2.478   9.303   0.178  1.00  0.00     0.031 A 
ATOM     40  C   UNL     1      -2.094   8.970   1.746  1.00  0.00     0.074 A 
ATOM     41  C   UNL     1      -3.669   9.942   0.118  1.00  0.00     0.049 A 
ATOM     42  N   UNL     1      -2.970   8.546   2.655  1.00  0.00    -0.248 NA
ATOM     43  C   UNL     1      -0.767   8.994   2.440  1.00  0.00     0.031 C 
ATOM     44  C   UNL     1      -4.437  10.526   1.214  1.00  0.00     0.029 A 
ATOM     45  N   UNL     1      -4.512  10.075  -0.992  1.00  0.00    -0.354 N 
ATOM     46  C   UNL     1      -2.283   8.387   3.872  1.00  0.00     0.074 A 
ATOM     47  C   UNL     1      -0.952   8.244   3.510  1.00  0.00     0.031 C 
ATOM     48  C   UNL     1      -5.712  10.655   0.816  1.00  0.00     0.029 A 
ATOM     49  C   UNL     1      -5.820  10.045  -0.497  1.00  0.00     0.049 A 
ATOM     50  H   UNL     1      -4.239  10.169  -1.933  1.00  0.00     0.167 HD
ATOM     51  C   UNL     1      -2.741   8.666   5.127  1.00  0.00     0.037 A 
ATOM     52  C   UNL     1      -6.687   9.065  -0.870  1.00  0.00     0.037 A 
ATOM     53  C   UNL     1      -4.165   8.861   5.052  1.00  0.00     0.049 A 
ATOM     54  C   UNL     1      -7.252   8.295   0.299  1.00  0.00     0.074 A 
ATOM     55  C   UNL     1      -4.976   9.977   5.041  1.00  0.00     0.029 A 
ATOM     56  N   UNL     1      -4.925   7.798   4.599  1.00  0.00    -0.354 N 
ATOM     57  N   UNL     1      -6.794   8.375   1.519  1.00  0.00    -0.248 NA
ATOM     58  C   UNL     1      -8.371   7.365   0.191  1.00  0.00     0.031 C 
ATOM     59  C   UNL     1      -6.212   9.591   4.454  1.00  0.00     0.029 A 
ATOM     60  C   UNL     1      -6.159   8.234   4.177  1.00  0.00     0.049 A 
ATOM     61  H   UNL     1      -4.625   6.861   4.582  1.00  0.00     0.167 HD
ATOM     62  C   UNL     1      -7.458   7.487   2.321  1.00  0.00     0.074 A 
ATOM     63  C   UNL     1      -8.470   6.917   1.455  1.00  0.00     0.031 C 
ATOM     64  C   UNL     1      -7.087   7.266   3.617  1.00  0.00     0.037 A 
BRANCH  51  65
ATOM     65  C   UNL     1      -1.850   9.007   6.365  1.00  0.00     0.057 A 
ATOM     66  C   UNL     1      -2.445   9.564   7.518  1.00  0.00     0.134 A 
ATOM     67  C   UNL     1      -0.435   8.911   6.498  1.00  0.00     0.134 A 
ATOM     68  F   UNL     1      -3.774   9.686   7.624  1.00  0.00    -0.206 F 
ATOM     69  C   UNL     1      -1.712  10.036   8.633  1.00  0.00     0.040 A 
ATOM     70  C   UNL     1       0.305   9.383   7.599  1.00  0.00     0.040 A 
ATOM     71  F   UNL     1       0.368   8.347   5.598  1.00  0.00    -0.206 F 
ATOM     72  C   UNL     1      -0.330   9.965   8.671  1.00  0.00     0.006 A 
ENDBRANCH  51  65
BRANCH  52  73
ATOM     73  C   UNL     1      -6.467   8.561  -2.260  1.00  0.00     0.057 A 
ATOM     74  C   UNL     1      -6.538   9.489  -3.321  1.00  0.00     0.134 A 
ATOM     75  C   UNL     1      -5.873   7.329  -2.551  1.00  0.00     0.134 A 
ATOM     76  F   UNL     1      -7.090  10.697  -3.120  1.00  0.00    -0.206 F 
ATOM     77  C   UNL     1      -5.952   9.253  -4.568  1.00  0.00     0.040 A 
ATOM     78  C   UNL     1      -5.297   7.072  -3.809  1.00  0.00     0.040 A 
ATOM     79  F   UNL     1      -5.718   6.402  -1.595  1.00  0.00    -0.206 F 
ATOM     80  C   UNL     1      -5.306   8.047  -4.809  1.00  0.00     0.006 A 
ENDBRANCH  52  73
BRANCH  64  81
ATOM     81  C   UNL     1      -7.524   6.109   4.489  1.00  0.00     0.057 A 
ATOM     82  C   UNL     1      -7.936   4.861   4.001  1.00  0.00     0.134 A 
ATOM     83  C   UNL     1      -7.354   6.172   5.894  1.00  0.00     0.134 A 
ATOM     84  F   UNL     1      -8.034   4.613   2.689  1.00  0.00    -0.206 F 
ATOM     85  C   UNL     1      -8.206   3.776   4.846  1.00  0.00     0.040 A 
ATOM     86  C   UNL     1      -7.553   5.076   6.737  1.00  0.00     0.040 A 
ATOM     87  F   UNL     1      -6.949   7.295   6.506  1.00  0.00    -0.206 F 
ATOM     88  C   UNL     1      -7.997   3.874   6.215  1.00  0.00     0.006 A 
ENDBRANCH  64  81
ENDBRANCH  38  39
ENDBRANCH  31  33
ENDBRANCH  30  31
ENDBRANCH  29  30
ENDBRANCH  28  29
ENDBRANCH  27  28
ENDBRANCH  26  27
ENDBRANCH   1  26
TORSDOF 20
