REMARK SMILES C[C@@H](C(=O)OCCOCCOCCOC(=O)c1ccc(-c2c3nc(c(-c4c(F)cccc4F)c4ccc([nH]4)c(-c4c(F)cccc4F)c4nc(c(-c5c(F)cccc5F)c5ccc2[nH]5)C=C4)C=C3)cc1)c1ccc(Cc2ccoc2)cc1F
REMARK SMILES IDX 9 1 8 2 7 3 6 4 5 5 3 6 4 7 2 8 1 9 71 10 72 11 82 12 73 13
REMARK SMILES IDX 81 14 83 15 74 16 75 17 76 18 77 19 80 20 78 21 79 22 10 23
REMARK SMILES IDX 11 24 12 25 13 26 14 27 15 28 16 29 17 30 18 31 70 32 19 33
REMARK SMILES IDX 69 34 20 35 21 36 22 37 63 38 23 39 68 40 62 41 64 42 24 43
REMARK SMILES IDX 67 44 61 45 60 46 25 48 51 49 34 50 50 51 35 52 38 53 49 54
REMARK SMILES IDX 65 55 36 56 37 57 48 59 66 60 39 61 26 62 27 63 32 64 28 65
REMARK SMILES IDX 29 66 31 67 33 68 30 69 52 70 53 71 58 72 54 73 55 74 57 75
REMARK SMILES IDX 59 76 56 77 40 78 41 79 46 80 42 81 43 82 45 83 47 84 44 85
REMARK H PARENT 64 47 38 58
REMARK Flexibility Score: inf
ROOT
ATOM      1  C   UNL     1       0.358   3.142  -2.253  1.00  0.00     0.188 C 
ENDROOT
BRANCH   1   2
ATOM      2  O   UNL     1       1.072   4.349  -2.491  1.00  0.00    -0.376 OA
BRANCH   2   3
ATOM      3  C   UNL     1       2.356   4.508  -1.887  1.00  0.00     0.202 C 
BRANCH   3   4
ATOM      4  C   UNL     1       2.530   4.175  -0.391  1.00  0.00     0.261 C 
BRANCH   4   5
ATOM      5  O   UNL     1       2.061   2.864  -0.006  1.00  0.00    -0.463 OA
BRANCH   5   6
ATOM      6  C   UNL     1       1.349   2.772   1.149  1.00  0.00     0.313 C 
ATOM      7  O   UNL     1       1.170   3.718   1.911  1.00  0.00    -0.252 OA
BRANCH   6   8
ATOM      8  C   UNL     1       0.696   1.394   1.379  1.00  0.00     0.129 C 
ATOM      9  C   UNL     1       1.511   0.216   0.813  1.00  0.00     0.025 C 
BRANCH   8  10
ATOM     10  C   UNL     1      -0.814   1.343   1.090  1.00  0.00     0.002 A 
ATOM     11  C   UNL     1      -1.579   2.507   0.905  1.00  0.00     0.008 A 
ATOM     12  C   UNL     1      -1.527   0.135   1.118  1.00  0.00     0.127 A 
ATOM     13  C   UNL     1      -2.974   2.459   0.764  1.00  0.00     0.004 A 
ATOM     14  C   UNL     1      -2.924   0.084   1.015  1.00  0.00     0.043 A 
ATOM     15  F   UNL     1      -0.878  -1.028   1.272  1.00  0.00    -0.207 F 
ATOM     16  C   UNL     1      -3.678   1.254   0.875  1.00  0.00    -0.041 A 
BRANCH  16  17
ATOM     17  C   UNL     1      -5.189   1.196   0.802  1.00  0.00     0.074 C 
BRANCH  17  18
ATOM     18  C   UNL     1      -5.770   1.846   2.019  1.00  0.00    -0.005 A 
ATOM     19  C   UNL     1      -5.702   3.210   2.442  1.00  0.00     0.046 A 
ATOM     20  C   UNL     1      -6.604   1.241   2.943  1.00  0.00     0.198 A 
ATOM     21  C   UNL     1      -6.446   3.313   3.593  1.00  0.00     0.195 A 
ATOM     22  O   UNL     1      -7.005   2.118   3.898  1.00  0.00    -0.472 OA
ENDBRANCH  17  18
ENDBRANCH  16  17
ENDBRANCH   8  10
ENDBRANCH   6   8
ENDBRANCH   5   6
ENDBRANCH   4   5
ENDBRANCH   3   4
ENDBRANCH   2   3
ENDBRANCH   1   2
BRANCH   1  23
ATOM     23  C   UNL     1       1.094   1.801  -2.398  1.00  0.00     0.188 C 
BRANCH  23  24
ATOM     24  O   UNL     1       2.465   1.917  -2.688  1.00  0.00    -0.376 OA
BRANCH  24  25
ATOM     25  C   UNL     1       2.938   1.517  -3.960  1.00  0.00     0.202 C 
BRANCH  25  26
ATOM     26  C   UNL     1       2.176   1.859  -5.256  1.00  0.00     0.261 C 
BRANCH  26  27
ATOM     27  O   UNL     1       0.742   1.866  -5.206  1.00  0.00    -0.460 OA
BRANCH  27  28
ATOM     28  C   UNL     1       0.111   0.672  -5.264  1.00  0.00     0.338 C 
ATOM     29  O   UNL     1       0.629  -0.432  -5.359  1.00  0.00    -0.246 OA
BRANCH  28  30
ATOM     30  C   UNL     1      -1.317   0.906  -4.953  1.00  0.00     0.060 A 
ATOM     31  C   UNL     1      -1.867   0.341  -3.792  1.00  0.00     0.016 A 
ATOM     32  C   UNL     1      -2.102   1.701  -5.790  1.00  0.00     0.016 A 
ATOM     33  C   UNL     1      -3.211   0.555  -3.476  1.00  0.00     0.010 A 
ATOM     34  C   UNL     1      -3.454   1.889  -5.488  1.00  0.00     0.010 A 
ATOM     35  C   UNL     1      -4.021   1.296  -4.346  1.00  0.00    -0.014 A 
BRANCH  35  36
ATOM     36  C   UNL     1      -5.495   1.293  -4.174  1.00  0.00     0.031 A 
ATOM     37  C   UNL     1      -6.308   0.332  -4.997  1.00  0.00     0.074 A 
ATOM     38  C   UNL     1      -6.106   2.127  -3.314  1.00  0.00     0.049 A 
ATOM     39  N   UNL     1      -7.606   0.196  -5.076  1.00  0.00    -0.248 NA
ATOM     40  C   UNL     1      -5.550  -0.590  -5.858  1.00  0.00     0.031 C 
ATOM     41  C   UNL     1      -5.432   3.091  -2.449  1.00  0.00     0.029 A 
ATOM     42  N   UNL     1      -7.439   2.292  -3.031  1.00  0.00    -0.354 N 
ATOM     43  C   UNL     1      -7.822  -0.802  -6.018  1.00  0.00     0.074 A 
ATOM     44  C   UNL     1      -6.523  -1.229  -6.490  1.00  0.00     0.031 C 
ATOM     45  C   UNL     1      -6.358   3.741  -1.720  1.00  0.00     0.029 A 
ATOM     46  C   UNL     1      -7.690   3.267  -2.097  1.00  0.00     0.049 A 
ATOM     47  H   UNL     1      -8.150   1.761  -3.458  1.00  0.00     0.167 HD
ATOM     48  C   UNL     1      -8.997  -1.315  -6.455  1.00  0.00     0.037 A 
ATOM     49  C   UNL     1      -8.860   3.734  -1.617  1.00  0.00     0.037 A 
ATOM     50  C   UNL     1     -10.290  -0.890  -5.985  1.00  0.00     0.049 A 
ATOM     51  C   UNL     1     -10.157   3.177  -2.153  1.00  0.00     0.074 A 
ATOM     52  C   UNL     1     -11.536  -1.365  -6.353  1.00  0.00     0.029 A 
ATOM     53  N   UNL     1     -10.502   0.115  -5.054  1.00  0.00    -0.354 N 
ATOM     54  N   UNL     1     -10.351   2.218  -3.027  1.00  0.00    -0.248 NA
ATOM     55  C   UNL     1     -11.398   3.782  -1.647  1.00  0.00     0.031 C 
ATOM     56  C   UNL     1     -12.505  -0.606  -5.690  1.00  0.00     0.029 A 
ATOM     57  C   UNL     1     -11.862   0.295  -4.857  1.00  0.00     0.049 A 
ATOM     58  H   UNL     1      -9.793   0.625  -4.601  1.00  0.00     0.167 HD
ATOM     59  C   UNL     1     -11.731   2.090  -3.155  1.00  0.00     0.074 A 
ATOM     60  C   UNL     1     -12.325   3.054  -2.254  1.00  0.00     0.031 C 
ATOM     61  C   UNL     1     -12.442   1.252  -3.949  1.00  0.00     0.037 A 
BRANCH  48  62
ATOM     62  C   UNL     1      -8.939  -2.363  -7.527  1.00  0.00     0.057 A 
ATOM     63  C   UNL     1      -8.460  -3.656  -7.282  1.00  0.00     0.134 A 
ATOM     64  C   UNL     1      -9.400  -2.080  -8.820  1.00  0.00     0.134 A 
ATOM     65  F   UNL     1      -7.989  -3.989  -6.070  1.00  0.00    -0.206 F 
ATOM     66  C   UNL     1      -8.420  -4.623  -8.289  1.00  0.00     0.040 A 
ATOM     67  C   UNL     1      -9.394  -3.047  -9.826  1.00  0.00     0.040 A 
ATOM     68  F   UNL     1      -9.875  -0.863  -9.123  1.00  0.00    -0.206 F 
ATOM     69  C   UNL     1      -8.896  -4.321  -9.563  1.00  0.00     0.006 A 
ENDBRANCH  48  62
BRANCH  49  70
ATOM     70  C   UNL     1      -8.877   4.801  -0.582  1.00  0.00     0.057 A 
ATOM     71  C   UNL     1      -9.379   4.554   0.702  1.00  0.00     0.134 A 
ATOM     72  C   UNL     1      -8.434   6.100  -0.859  1.00  0.00     0.134 A 
ATOM     73  F   UNL     1      -9.851   3.340   1.020  1.00  0.00    -0.206 F 
ATOM     74  C   UNL     1      -9.460   5.563   1.664  1.00  0.00     0.040 A 
ATOM     75  C   UNL     1      -8.480   7.111   0.103  1.00  0.00     0.040 A 
ATOM     76  F   UNL     1      -7.944   6.406  -2.069  1.00  0.00    -0.206 F 
ATOM     77  C   UNL     1      -9.005   6.846   1.366  1.00  0.00     0.006 A 
ENDBRANCH  49  70
BRANCH  61  78
ATOM     78  C   UNL     1     -13.942   1.304  -3.852  1.00  0.00     0.057 A 
ATOM     79  C   UNL     1     -14.683   2.389  -4.337  1.00  0.00     0.134 A 
ATOM     80  C   UNL     1     -14.657   0.229  -3.308  1.00  0.00     0.134 A 
ATOM     81  F   UNL     1     -14.063   3.457  -4.863  1.00  0.00    -0.206 F 
ATOM     82  C   UNL     1     -16.078   2.414  -4.260  1.00  0.00     0.040 A 
ATOM     83  C   UNL     1     -16.052   0.228  -3.254  1.00  0.00     0.040 A 
ATOM     84  F   UNL     1     -14.012  -0.850  -2.837  1.00  0.00    -0.206 F 
ATOM     85  C   UNL     1     -16.766   1.327  -3.724  1.00  0.00     0.006 A 
ENDBRANCH  61  78
ENDBRANCH  35  36
ENDBRANCH  28  30
ENDBRANCH  27  28
ENDBRANCH  26  27
ENDBRANCH  25  26
ENDBRANCH  24  25
ENDBRANCH  23  24
ENDBRANCH   1  23
TORSDOF 20
