REMARK SMILES COc1cccc(/C=C(/CC(=O)OCCOCCOCCOC(=O)c2ccc(-c3c4nc(c(-c5c(F)cccc5F)c5ccc([nH]5)c(-c5c(F)cccc5F)c5nc(c(-c6c(F)cccc6F)c6ccc3[nH]6)C=C5)C=C4)cc2)c2nc3ccccc3o2)c1
REMARK SMILES IDX 17 1 16 2 15 3 14 4 13 5 11 6 12 7 10 8 9 9 8 10 7 11 3 12
REMARK SMILES IDX 4 13 88 14 5 15 6 16 2 17 1 18 79 19 80 20 87 21 81 22 86 23
REMARK SMILES IDX 82 24 85 25 83 26 84 27 18 28 19 29 20 30 21 31 22 32 23 33
REMARK SMILES IDX 24 34 25 35 26 36 78 37 27 38 77 39 28 40 29 41 30 42 71 43
REMARK SMILES IDX 31 44 76 45 70 46 72 47 32 48 75 49 69 50 68 51 33 53 59 54
REMARK SMILES IDX 42 55 58 56 43 57 46 58 57 59 73 60 44 61 45 62 56 64 74 65
REMARK SMILES IDX 47 66 34 67 35 68 40 69 36 70 37 71 39 72 41 73 38 74 60 75
REMARK SMILES IDX 61 76 66 77 62 78 63 79 65 80 67 81 64 82 48 83 49 84 54 85
REMARK SMILES IDX 50 86 51 87 53 88 55 89 52 90
REMARK H PARENT 72 52 46 63
REMARK Flexibility Score: inf
ROOT
ATOM      1  C   UNL     1       6.506   6.733   5.039  1.00  0.00     0.188 C 
ENDROOT
BRANCH   1   2
ATOM      2  O   UNL     1       7.770   6.892   4.402  1.00  0.00    -0.376 OA
BRANCH   2   3
ATOM      3  C   UNL     1       7.871   6.461   3.052  1.00  0.00     0.202 C 
BRANCH   3   4
ATOM      4  C   UNL     1       7.756   4.945   2.864  1.00  0.00     0.261 C 
BRANCH   4   5
ATOM      5  O   UNL     1       6.508   4.431   3.390  1.00  0.00    -0.463 OA
BRANCH   5   6
ATOM      6  C   UNL     1       6.597   3.340   4.192  1.00  0.00     0.310 C 
ATOM      7  O   UNL     1       7.610   2.656   4.303  1.00  0.00    -0.252 OA
BRANCH   6   8
ATOM      8  C   UNL     1       5.375   3.114   5.092  1.00  0.00     0.163 C 
BRANCH   8   9
ATOM      9  C   UNL     1       3.940   3.409   4.666  1.00  0.00     0.026 C 
ATOM     10  C   UNL     1       3.500   2.981   3.458  1.00  0.00     0.018 C 
BRANCH  10  11
ATOM     11  C   UNL     1       2.147   2.996   2.846  1.00  0.00    -0.021 A 
ATOM     12  C   UNL     1       0.588   1.910   1.305  1.00  0.00     0.119 A 
ATOM     13  C   UNL     1      -0.380   2.864   1.616  1.00  0.00     0.046 A 
ATOM     14  C   UNL     1       1.837   1.972   1.930  1.00  0.00     0.054 A 
ATOM     15  C   UNL     1      -0.092   3.891   2.509  1.00  0.00     0.004 A 
ATOM     16  C   UNL     1       1.176   3.976   3.089  1.00  0.00     0.008 A 
BRANCH  12  17
ATOM     17  O   UNL     1       0.195   0.989   0.373  1.00  0.00    -0.497 OA
ATOM     18  C   UNL     1       1.100  -0.067   0.080  1.00  0.00     0.278 C 
ENDBRANCH  12  17
ENDBRANCH  10  11
BRANCH   9  19
ATOM     19  C   UNL     1       3.005   4.011   5.589  1.00  0.00     0.223 A 
ATOM     20  N   UNL     1       3.124   5.225   6.118  1.00  0.00    -0.210 NA
ATOM     21  O   UNL     1       1.831   3.388   6.005  1.00  0.00    -0.436 OA
ATOM     22  C   UNL     1       1.960   5.439   6.824  1.00  0.00     0.110 A 
ATOM     23  C   UNL     1       1.167   4.314   6.757  1.00  0.00     0.155 A 
ATOM     24  C   UNL     1       1.482   6.550   7.534  1.00  0.00     0.032 A 
ATOM     25  C   UNL     1      -0.092   4.207   7.341  1.00  0.00     0.049 A 
ATOM     26  C   UNL     1       0.231   6.483   8.156  1.00  0.00     0.003 A 
ATOM     27  C   UNL     1      -0.546   5.330   8.052  1.00  0.00     0.004 A 
ENDBRANCH   9  19
ENDBRANCH   8   9
ENDBRANCH   6   8
ENDBRANCH   5   6
ENDBRANCH   4   5
ENDBRANCH   3   4
ENDBRANCH   2   3
ENDBRANCH   1   2
BRANCH   1  28
ATOM     28  C   UNL     1       5.229   6.987   4.215  1.00  0.00     0.188 C 
BRANCH  28  29
ATOM     29  O   UNL     1       5.335   8.150   3.399  1.00  0.00    -0.376 OA
BRANCH  29  30
ATOM     30  C   UNL     1       4.406   9.169   3.750  1.00  0.00     0.202 C 
BRANCH  30  31
ATOM     31  C   UNL     1       4.917  10.008   4.924  1.00  0.00     0.261 C 
BRANCH  31  32
ATOM     32  O   UNL     1       5.170   9.232   6.120  1.00  0.00    -0.460 OA
BRANCH  32  33
ATOM     33  C   UNL     1       4.140   9.117   6.981  1.00  0.00     0.338 C 
ATOM     34  O   UNL     1       3.028   9.595   6.831  1.00  0.00    -0.246 OA
BRANCH  33  35
ATOM     35  C   UNL     1       4.497   8.342   8.203  1.00  0.00     0.060 A 
ATOM     36  C   UNL     1       4.734   6.965   8.161  1.00  0.00     0.016 A 
ATOM     37  C   UNL     1       4.284   8.950   9.440  1.00  0.00     0.016 A 
ATOM     38  C   UNL     1       4.634   6.187   9.328  1.00  0.00     0.010 A 
ATOM     39  C   UNL     1       4.256   8.182  10.615  1.00  0.00     0.010 A 
ATOM     40  C   UNL     1       4.383   6.783  10.573  1.00  0.00    -0.014 A 
BRANCH  40  41
ATOM     41  C   UNL     1       4.256   5.980  11.828  1.00  0.00     0.031 A 
ATOM     42  C   UNL     1       2.984   5.987  12.644  1.00  0.00     0.074 A 
ATOM     43  C   UNL     1       5.300   5.258  12.281  1.00  0.00     0.049 A 
ATOM     44  N   UNL     1       2.779   5.566  13.870  1.00  0.00    -0.248 NA
ATOM     45  C   UNL     1       1.781   6.523  11.991  1.00  0.00     0.031 C 
ATOM     46  C   UNL     1       6.568   5.069  11.580  1.00  0.00     0.029 A 
ATOM     47  N   UNL     1       5.464   4.569  13.462  1.00  0.00    -0.354 N 
ATOM     48  C   UNL     1       1.438   5.813  14.147  1.00  0.00     0.074 A 
ATOM     49  C   UNL     1       0.875   6.416  12.955  1.00  0.00     0.031 C 
ATOM     50  C   UNL     1       7.386   4.332  12.346  1.00  0.00     0.029 A 
ATOM     51  C   UNL     1       6.735   4.075  13.627  1.00  0.00     0.049 A 
ATOM     52  H   UNL     1       4.744   4.444  14.121  1.00  0.00     0.167 HD
ATOM     53  C   UNL     1       0.746   5.567  15.288  1.00  0.00     0.037 A 
ATOM     54  C   UNL     1       7.347   3.541  14.702  1.00  0.00     0.037 A 
ATOM     55  C   UNL     1       1.296   4.948  16.472  1.00  0.00     0.049 A 
ATOM     56  C   UNL     1       6.603   3.395  15.997  1.00  0.00     0.074 A 
ATOM     57  C   UNL     1       0.659   4.659  17.670  1.00  0.00     0.029 A 
ATOM     58  N   UNL     1       2.606   4.521  16.611  1.00  0.00    -0.354 N 
ATOM     59  N   UNL     1       5.358   3.692  16.272  1.00  0.00    -0.248 NA
ATOM     60  C   UNL     1       7.358   2.852  17.136  1.00  0.00     0.031 C 
ATOM     61  C   UNL     1       1.598   4.108  18.550  1.00  0.00     0.029 A 
ATOM     62  C   UNL     1       2.805   4.001  17.882  1.00  0.00     0.049 A 
ATOM     63  H   UNL     1       3.296   4.578  15.910  1.00  0.00     0.167 HD
ATOM     64  C   UNL     1       5.173   3.352  17.607  1.00  0.00     0.074 A 
ATOM     65  C   UNL     1       6.431   2.818  18.083  1.00  0.00     0.031 C 
ATOM     66  C   UNL     1       4.055   3.473  18.363  1.00  0.00     0.037 A 
BRANCH  53  67
ATOM     67  C   UNL     1      -0.692   6.005  15.354  1.00  0.00     0.057 A 
ATOM     68  C   UNL     1      -1.716   5.308  14.702  1.00  0.00     0.134 A 
ATOM     69  C   UNL     1      -1.064   7.083  16.169  1.00  0.00     0.134 A 
ATOM     70  F   UNL     1      -1.431   4.268  13.905  1.00  0.00    -0.206 F 
ATOM     71  C   UNL     1      -3.057   5.672  14.854  1.00  0.00     0.040 A 
ATOM     72  C   UNL     1      -2.402   7.443  16.346  1.00  0.00     0.040 A 
ATOM     73  F   UNL     1      -0.134   7.785  16.835  1.00  0.00    -0.206 F 
ATOM     74  C   UNL     1      -3.403   6.736  15.685  1.00  0.00     0.006 A 
ENDBRANCH  53  67
BRANCH  54  75
ATOM     75  C   UNL     1       8.781   3.171  14.609  1.00  0.00     0.057 A 
ATOM     76  C   UNL     1       9.188   1.834  14.629  1.00  0.00     0.134 A 
ATOM     77  C   UNL     1       9.775   4.150  14.479  1.00  0.00     0.134 A 
ATOM     78  F   UNL     1       8.285   0.855  14.782  1.00  0.00    -0.206 F 
ATOM     79  C   UNL     1      10.534   1.482  14.519  1.00  0.00     0.040 A 
ATOM     80  C   UNL     1      11.119   3.812  14.337  1.00  0.00     0.040 A 
ATOM     81  F   UNL     1       9.446   5.451  14.457  1.00  0.00    -0.206 F 
ATOM     82  C   UNL     1      11.502   2.473  14.361  1.00  0.00     0.006 A 
ENDBRANCH  54  75
BRANCH  66  83
ATOM     83  C   UNL     1       4.131   2.980  19.780  1.00  0.00     0.057 A 
ATOM     84  C   UNL     1       4.843   3.671  20.768  1.00  0.00     0.134 A 
ATOM     85  C   UNL     1       3.480   1.799  20.161  1.00  0.00     0.134 A 
ATOM     86  F   UNL     1       5.502   4.800  20.467  1.00  0.00    -0.206 F 
ATOM     87  C   UNL     1       4.929   3.192  22.077  1.00  0.00     0.040 A 
ATOM     88  C   UNL     1       3.539   1.322  21.472  1.00  0.00     0.040 A 
ATOM     89  F   UNL     1       2.775   1.090  19.266  1.00  0.00    -0.206 F 
ATOM     90  C   UNL     1       4.272   2.015  22.433  1.00  0.00     0.006 A 
ENDBRANCH  66  83
ENDBRANCH  40  41
ENDBRANCH  33  35
ENDBRANCH  32  33
ENDBRANCH  31  32
ENDBRANCH  30  31
ENDBRANCH  29  30
ENDBRANCH  28  29
ENDBRANCH   1  28
TORSDOF 21
