REMARK SMILES O=C(OCCOCCOCCOC(=O)[C@H]1CS[C@@H](c2cccc(OCc3ccc(Cl)cc3Cl)c2)[NH2+]1)c1ccc(-c2c3nc(c(-c4c(F)cccc4F)c4ccc([nH]4)c(-c4c(F)cccc4F)c4nc(c(-c5c(F)cccc5F)c5ccc2[nH]5)C=C4)C=C3)cc1
REMARK SMILES IDX 8 1 7 2 6 3 5 4 4 5 3 6 2 7 1 8 36 9 37 10 89 11 38 12 88 13
REMARK SMILES IDX 39 14 40 15 41 16 82 17 42 18 87 19 81 20 83 21 43 22 86 23
REMARK SMILES IDX 80 24 79 25 44 27 70 28 53 29 69 30 54 31 57 32 68 33 84 34
REMARK SMILES IDX 55 35 56 36 67 38 85 39 58 40 45 41 46 42 51 43 47 44 48 45
REMARK SMILES IDX 50 46 52 47 49 48 71 49 72 50 77 51 73 52 74 53 76 54 78 55
REMARK SMILES IDX 75 56 59 57 60 58 65 59 61 60 62 61 64 62 66 63 63 64 9 65
REMARK SMILES IDX 10 66 11 67 12 68 13 69 14 70 15 71 16 72 35 73 17 74 18 75
REMARK SMILES IDX 19 78 20 79 34 80 21 81 23 82 22 83 24 84 25 85 26 86 27 87
REMARK SMILES IDX 32 88 28 89 31 90 33 91 29 92 30 93
REMARK H PARENT 83 26 57 37 35 76 35 77
REMARK Flexibility Score: inf
ROOT
ATOM      1  C   UNL     1       1.832  -3.038  -1.083  1.00  0.00     0.188 C 
ENDROOT
BRANCH   1   2
ATOM      2  C   UNL     1       2.508  -2.648   0.240  1.00  0.00     0.188 C 
BRANCH   2   3
ATOM      3  O   UNL     1       3.801  -2.091  -0.004  1.00  0.00    -0.376 OA
BRANCH   3   4
ATOM      4  C   UNL     1       4.625  -1.911   1.147  1.00  0.00     0.202 C 
BRANCH   4   5
ATOM      5  C   UNL     1       4.447  -0.560   1.853  1.00  0.00     0.261 C 
BRANCH   5   6
ATOM      6  O   UNL     1       3.059  -0.209   1.979  1.00  0.00    -0.460 OA
BRANCH   6   7
ATOM      7  C   UNL     1       2.402   0.658   1.185  1.00  0.00     0.338 C 
ATOM      8  O   UNL     1       1.200   0.918   1.419  1.00  0.00    -0.246 OA
BRANCH   7   9
ATOM      9  C   UNL     1       3.063   1.381   0.079  1.00  0.00     0.060 A 
ATOM     10  C   UNL     1       3.974   0.808  -0.819  1.00  0.00     0.016 A 
ATOM     11  C   UNL     1       2.708   2.710  -0.103  1.00  0.00     0.016 A 
ATOM     12  C   UNL     1       4.612   1.547  -1.807  1.00  0.00     0.010 A 
ATOM     13  C   UNL     1       3.279   3.424  -1.146  1.00  0.00     0.010 A 
ATOM     14  C   UNL     1       4.245   2.859  -2.006  1.00  0.00    -0.014 A 
BRANCH  14  15
ATOM     15  C   UNL     1       4.867   3.722  -3.044  1.00  0.00     0.031 A 
ATOM     16  C   UNL     1       5.276   5.198  -2.274  1.00  0.00     0.074 A 
ATOM     17  C   UNL     1       4.891   3.232  -4.377  1.00  0.00     0.049 A 
ATOM     18  N   UNL     1       5.372   6.418  -2.740  1.00  0.00    -0.248 NA
ATOM     19  C   UNL     1       5.651   5.267  -0.837  1.00  0.00     0.031 C 
ATOM     20  C   UNL     1       4.627   1.893  -4.988  1.00  0.00     0.029 A 
ATOM     21  N   UNL     1       5.056   3.877  -5.596  1.00  0.00    -0.354 N 
ATOM     22  C   UNL     1       5.990   7.307  -1.905  1.00  0.00     0.074 A 
ATOM     23  C   UNL     1       5.987   6.561  -0.651  1.00  0.00     0.031 C 
ATOM     24  C   UNL     1       4.612   1.935  -6.363  1.00  0.00     0.029 A 
ATOM     25  C   UNL     1       4.949   3.277  -6.819  1.00  0.00     0.049 A 
ATOM     26  H   UNL     1       5.266   4.839  -5.577  1.00  0.00     0.167 HD
ATOM     27  C   UNL     1       6.588   8.510  -2.252  1.00  0.00     0.037 A 
ATOM     28  C   UNL     1       5.072   3.920  -8.034  1.00  0.00     0.037 A 
ATOM     29  C   UNL     1       6.751   9.115  -3.641  1.00  0.00     0.049 A 
ATOM     30  C   UNL     1       5.669   5.421  -8.264  1.00  0.00     0.074 A 
ATOM     31  C   UNL     1       6.836  10.435  -4.077  1.00  0.00     0.029 A 
ATOM     32  N   UNL     1       7.190   8.453  -4.820  1.00  0.00    -0.354 N 
ATOM     33  N   UNL     1       6.252   6.237  -7.410  1.00  0.00    -0.248 NA
ATOM     34  C   UNL     1       5.686   6.041  -9.600  1.00  0.00     0.031 C 
ATOM     35  C   UNL     1       6.965  10.458  -5.503  1.00  0.00     0.029 A 
ATOM     36  C   UNL     1       6.982   9.153  -5.999  1.00  0.00     0.049 A 
ATOM     37  H   UNL     1       7.612   7.564  -4.800  1.00  0.00     0.167 HD
ATOM     38  C   UNL     1       6.603   7.452  -7.977  1.00  0.00     0.074 A 
ATOM     39  C   UNL     1       6.320   7.207  -9.392  1.00  0.00     0.031 C 
ATOM     40  C   UNL     1       7.016   8.649  -7.411  1.00  0.00     0.037 A 
BRANCH  27  41
ATOM     41  C   UNL     1       7.059   9.322  -1.078  1.00  0.00     0.057 A 
ATOM     42  C   UNL     1       8.136   8.934  -0.271  1.00  0.00     0.134 A 
ATOM     43  C   UNL     1       6.390  10.501  -0.719  1.00  0.00     0.134 A 
ATOM     44  F   UNL     1       8.808   7.801  -0.524  1.00  0.00    -0.206 F 
ATOM     45  C   UNL     1       8.511   9.669   0.859  1.00  0.00     0.040 A 
ATOM     46  C   UNL     1       6.772  11.259   0.390  1.00  0.00     0.040 A 
ATOM     47  F   UNL     1       5.339  10.934  -1.432  1.00  0.00    -0.206 F 
ATOM     48  C   UNL     1       7.829  10.837   1.190  1.00  0.00     0.006 A 
ENDBRANCH  27  41
BRANCH  28  49
ATOM     49  C   UNL     1       4.598   3.227  -9.261  1.00  0.00     0.057 A 
ATOM     50  C   UNL     1       5.486   2.809 -10.256  1.00  0.00     0.134 A 
ATOM     51  C   UNL     1       3.227   3.092  -9.523  1.00  0.00     0.134 A 
ATOM     52  F   UNL     1       6.806   2.964 -10.084  1.00  0.00    -0.206 F 
ATOM     53  C   UNL     1       5.032   2.283 -11.469  1.00  0.00     0.040 A 
ATOM     54  C   UNL     1       2.759   2.562 -10.729  1.00  0.00     0.040 A 
ATOM     55  F   UNL     1       2.322   3.513  -8.627  1.00  0.00    -0.206 F 
ATOM     56  C   UNL     1       3.664   2.157 -11.708  1.00  0.00     0.006 A 
ENDBRANCH  28  49
BRANCH  40  57
ATOM     57  C   UNL     1       7.479   9.687  -8.395  1.00  0.00     0.057 A 
ATOM     58  C   UNL     1       6.584  10.515  -9.080  1.00  0.00     0.134 A 
ATOM     59  C   UNL     1       8.848   9.938  -8.547  1.00  0.00     0.134 A 
ATOM     60  F   UNL     1       5.261  10.326  -8.964  1.00  0.00    -0.206 F 
ATOM     61  C   UNL     1       7.036  11.556  -9.892  1.00  0.00     0.040 A 
ATOM     62  C   UNL     1       9.312  10.983  -9.348  1.00  0.00     0.040 A 
ATOM     63  F   UNL     1       9.754   9.190  -7.898  1.00  0.00    -0.206 F 
ATOM     64  C   UNL     1       8.403  11.797 -10.021  1.00  0.00     0.006 A 
ENDBRANCH  40  57
ENDBRANCH  14  15
ENDBRANCH   7   9
ENDBRANCH   6   7
ENDBRANCH   5   6
ENDBRANCH   4   5
ENDBRANCH   3   4
ENDBRANCH   2   3
ENDBRANCH   1   2
BRANCH   1  65
ATOM     65  O   UNL     1       2.449  -4.093  -1.821  1.00  0.00    -0.376 OA
BRANCH  65  66
ATOM     66  C   UNL     1       3.813  -3.913  -2.174  1.00  0.00     0.202 C 
BRANCH  66  67
ATOM     67  C   UNL     1       4.157  -2.873  -3.263  1.00  0.00     0.261 C 
BRANCH  67  68
ATOM     68  O   UNL     1       3.329  -1.688  -3.378  1.00  0.00    -0.459 OA
BRANCH  68  69
ATOM     69  C   UNL     1       2.421  -1.730  -4.390  1.00  0.00     0.365 C 
ATOM     70  O   UNL     1       2.193  -2.753  -5.044  1.00  0.00    -0.245 OA
BRANCH  69  71
ATOM     71  C   UNL     1       1.714  -0.420  -4.768  1.00  0.00     0.304 C 
ATOM     72  C   UNL     1       0.203  -0.592  -4.678  1.00  0.00     0.153 C 
ATOM     73  N   UNL     1       2.037   0.856  -4.053  1.00  0.00    -0.319 N 
ATOM     74  S   UNL     1      -0.455   1.116  -4.735  1.00  0.00    -0.087 SA
ATOM     75  C   UNL     1       1.202   1.879  -4.755  1.00  0.00     0.274 C 
ATOM     76  H   UNL     1       3.029   1.078  -4.135  1.00  0.00     0.348 HD
ATOM     77  H   UNL     1       1.844   0.808  -3.052  1.00  0.00     0.348 HD
BRANCH  75  78
ATOM     78  C   UNL     1       1.322   3.335  -4.265  1.00  0.00     0.024 A 
ATOM     79  C   UNL     1       0.600   3.822  -3.176  1.00  0.00     0.011 A 
ATOM     80  C   UNL     1       2.259   4.244  -4.887  1.00  0.00     0.057 A 
ATOM     81  C   UNL     1       0.823   5.129  -2.729  1.00  0.00     0.004 A 
ATOM     82  C   UNL     1       2.692   5.449  -4.305  1.00  0.00     0.120 A 
ATOM     83  C   UNL     1       1.873   5.908  -3.264  1.00  0.00     0.046 A 
BRANCH  82  84
ATOM     84  O   UNL     1       3.825   6.191  -4.479  1.00  0.00    -0.489 OA
BRANCH  84  85
ATOM     85  C   UNL     1       5.281   6.406  -5.000  1.00  0.00     0.267 C 
BRANCH  85  86
ATOM     86  C   UNL     1       6.907   5.562  -4.734  1.00  0.00     0.008 A 
ATOM     87  C   UNL     1       7.465   4.560  -5.558  1.00  0.00     0.010 A 
ATOM     88  C   UNL     1       7.690   5.604  -3.543  1.00  0.00     0.049 A 
ATOM     89  C   UNL     1       8.096   3.404  -5.019  1.00  0.00     0.021 A 
ATOM     90  C   UNL     1       8.177   4.436  -2.910  1.00  0.00     0.041 A 
ATOM     91  Cl  UNL     1       9.068   6.750  -3.482  1.00  0.00    -0.084 Cl
ATOM     92  C   UNL     1       8.317   3.297  -3.660  1.00  0.00     0.042 A 
ATOM     93  Cl  UNL     1       8.871   1.840  -2.947  1.00  0.00    -0.084 Cl
ENDBRANCH  85  86
ENDBRANCH  84  85
ENDBRANCH  82  84
ENDBRANCH  75  78
ENDBRANCH  69  71
ENDBRANCH  68  69
ENDBRANCH  67  68
ENDBRANCH  66  67
ENDBRANCH  65  66
ENDBRANCH   1  65
TORSDOF 21
