REMARK SMILES O=C(CCCNC(=O)N1CC[C@@H](C(=O)OCCOCCOCCOC(=O)c2ccc(-c3c4nc(c(-c5c(F)cccc5F)c5ccc([nH]5)c(-c5c(F)cccc5F)c5nc(c(-c6c(F)cccc6F)c6ccc3[nH]6)C=C5)C=C4)cc2)C1)NC1CC1
REMARK SMILES IDX 17 1 16 2 15 3 13 4 14 5 12 6 9 7 10 8 81 9 11 10 7 11 6 12
REMARK SMILES IDX 8 14 5 15 4 16 3 17 2 18 1 19 82 20 83 22 84 23 85 24 18 25
REMARK SMILES IDX 19 26 20 27 21 28 22 29 23 30 24 31 25 32 26 33 27 34 28 35
REMARK SMILES IDX 80 36 29 37 79 38 30 39 31 40 32 41 73 42 33 43 78 44 72 45
REMARK SMILES IDX 74 46 34 47 77 48 71 49 70 50 35 52 61 53 44 54 60 55 45 56
REMARK SMILES IDX 48 57 59 58 75 59 46 60 47 61 58 63 76 64 49 65 36 66 37 67
REMARK SMILES IDX 42 68 38 69 39 70 41 71 43 72 40 73 62 74 63 75 68 76 64 77
REMARK SMILES IDX 65 78 67 79 69 80 66 81 50 82 51 83 56 84 52 85 53 86 55 87
REMARK SMILES IDX 57 88 54 89
REMARK H PARENT 6 13 82 21 74 51 48 62
REMARK Flexibility Score: inf
ROOT
ATOM      1  C   UNL     1      12.393   4.409   3.575  1.00  0.00     0.202 C 
ENDROOT
BRANCH   1   2
ATOM      2  C   UNL     1      12.320   4.047   2.090  1.00  0.00     0.261 C 
BRANCH   2   3
ATOM      3  O   UNL     1      11.007   4.133   1.513  1.00  0.00    -0.463 OA
BRANCH   3   4
ATOM      4  C   UNL     1      10.482   2.960   1.056  1.00  0.00     0.310 C 
ATOM      5  O   UNL     1      11.015   1.867   1.174  1.00  0.00    -0.252 OA
BRANCH   4   6
ATOM      6  C   UNL     1       9.122   3.195   0.424  1.00  0.00     0.120 C 
ATOM      7  N   UNL     1       7.757   1.285   0.122  1.00  0.00    -0.324 N 
ATOM      8  C   UNL     1       7.722   1.628   1.526  1.00  0.00     0.122 C 
ATOM      9  C   UNL     1       8.783   2.063  -0.559  1.00  0.00     0.136 C 
ATOM     10  C   UNL     1       7.977   3.118   1.447  1.00  0.00     0.039 C 
BRANCH   7  11
ATOM     11  C   UNL     1       6.999   0.382  -0.543  1.00  0.00     0.317 C 
ATOM     12  N   UNL     1       5.734   0.149  -0.114  1.00  0.00    -0.338 N 
ATOM     13  H   UNL     1       5.394  -0.767  -0.238  1.00  0.00     0.165 HD
ATOM     14  O   UNL     1       7.383  -0.196  -1.558  1.00  0.00    -0.249 OA
BRANCH  12  15
ATOM     15  C   UNL     1       4.818   1.094   0.511  1.00  0.00     0.118 C 
BRANCH  15  16
ATOM     16  C   UNL     1       3.767   1.620  -0.466  1.00  0.00     0.031 C 
BRANCH  16  17
ATOM     17  C   UNL     1       2.832   0.554  -1.023  1.00  0.00     0.102 C 
BRANCH  17  18
ATOM     18  C   UNL     1       1.978  -0.034   0.077  1.00  0.00     0.220 C 
ATOM     19  O   UNL     1       0.929   0.495   0.431  1.00  0.00    -0.275 OA
ATOM     20  N   UNL     1       2.531  -1.150   0.669  1.00  0.00    -0.353 N 
ATOM     21  H   UNL     1       3.368  -1.513   0.299  1.00  0.00     0.163 HD
BRANCH  20  22
ATOM     22  C   UNL     1       1.944  -1.800   1.794  1.00  0.00     0.082 C 
ATOM     23  C   UNL     1       0.625  -2.508   1.686  1.00  0.00     0.027 C 
ATOM     24  C   UNL     1       1.888  -3.303   1.837  1.00  0.00     0.027 C 
ENDBRANCH  20  22
ENDBRANCH  17  18
ENDBRANCH  16  17
ENDBRANCH  15  16
ENDBRANCH  12  15
ENDBRANCH   7  11
ENDBRANCH   4   6
ENDBRANCH   3   4
ENDBRANCH   2   3
ENDBRANCH   1   2
BRANCH   1  25
ATOM     25  O   UNL     1      11.501   3.792   4.484  1.00  0.00    -0.376 OA
BRANCH  25  26
ATOM     26  C   UNL     1      10.108   3.942   4.296  1.00  0.00     0.188 C 
BRANCH  26  27
ATOM     27  C   UNL     1       9.492   5.302   3.886  1.00  0.00     0.188 C 
BRANCH  27  28
ATOM     28  O   UNL     1      10.128   6.525   4.201  1.00  0.00    -0.376 OA
BRANCH  28  29
ATOM     29  C   UNL     1      10.638   6.739   5.505  1.00  0.00     0.202 C 
BRANCH  29  30
ATOM     30  C   UNL     1       9.689   6.613   6.698  1.00  0.00     0.261 C 
BRANCH  30  31
ATOM     31  O   UNL     1       9.101   5.308   6.842  1.00  0.00    -0.460 OA
BRANCH  31  32
ATOM     32  C   UNL     1       7.759   5.253   6.736  1.00  0.00     0.338 C 
ATOM     33  O   UNL     1       6.990   6.197   6.520  1.00  0.00    -0.246 OA
BRANCH  32  34
ATOM     34  C   UNL     1       7.289   3.860   6.765  1.00  0.00     0.060 A 
ATOM     35  C   UNL     1       6.511   3.393   5.696  1.00  0.00     0.016 A 
ATOM     36  C   UNL     1       7.530   3.045   7.873  1.00  0.00     0.016 A 
ATOM     37  C   UNL     1       5.934   2.123   5.753  1.00  0.00     0.010 A 
ATOM     38  C   UNL     1       6.940   1.778   7.933  1.00  0.00     0.010 A 
ATOM     39  C   UNL     1       6.112   1.323   6.890  1.00  0.00    -0.014 A 
BRANCH  39  40
ATOM     40  C   UNL     1       5.311   0.085   7.064  1.00  0.00     0.031 A 
ATOM     41  C   UNL     1       4.068   0.134   7.911  1.00  0.00     0.074 A 
ATOM     42  C   UNL     1       5.675  -1.070   6.480  1.00  0.00     0.049 A 
ATOM     43  N   UNL     1       3.262  -0.836   8.263  1.00  0.00    -0.248 NA
ATOM     44  C   UNL     1       3.685   1.456   8.432  1.00  0.00     0.031 C 
ATOM     45  C   UNL     1       6.830  -1.248   5.604  1.00  0.00     0.029 A 
ATOM     46  N   UNL     1       5.110  -2.320   6.554  1.00  0.00    -0.354 N 
ATOM     47  C   UNL     1       2.281  -0.245   9.050  1.00  0.00     0.074 A 
ATOM     48  C   UNL     1       2.607   1.163   9.145  1.00  0.00     0.031 C 
ATOM     49  C   UNL     1       6.901  -2.540   5.236  1.00  0.00     0.029 A 
ATOM     50  C   UNL     1       5.817  -3.283   5.878  1.00  0.00     0.049 A 
ATOM     51  H   UNL     1       4.278  -2.507   7.045  1.00  0.00     0.167 HD
ATOM     52  C   UNL     1       1.204  -0.818   9.637  1.00  0.00     0.037 A 
ATOM     53  C   UNL     1       5.630  -4.616   5.812  1.00  0.00     0.037 A 
ATOM     54  C   UNL     1       0.879  -2.218   9.553  1.00  0.00     0.049 A 
ATOM     55  C   UNL     1       4.474  -5.247   6.545  1.00  0.00     0.074 A 
ATOM     56  C   UNL     1      -0.200  -2.887  10.105  1.00  0.00     0.029 A 
ATOM     57  N   UNL     1       1.637  -3.165   8.883  1.00  0.00    -0.354 N 
ATOM     58  N   UNL     1       3.539  -4.676   7.266  1.00  0.00    -0.248 NA
ATOM     59  C   UNL     1       4.349  -6.710   6.455  1.00  0.00     0.031 C 
ATOM     60  C   UNL     1      -0.068  -4.248   9.810  1.00  0.00     0.029 A 
ATOM     61  C   UNL     1       1.064  -4.418   9.030  1.00  0.00     0.049 A 
ATOM     62  H   UNL     1       2.461  -2.976   8.379  1.00  0.00     0.167 HD
ATOM     63  C   UNL     1       2.701  -5.703   7.688  1.00  0.00     0.074 A 
ATOM     64  C   UNL     1       3.232  -6.930   7.134  1.00  0.00     0.031 C 
ATOM     65  C   UNL     1       1.592  -5.634   8.464  1.00  0.00     0.037 A 
BRANCH  52  66
ATOM     66  C   UNL     1       0.308   0.071  10.449  1.00  0.00     0.057 A 
ATOM     67  C   UNL     1      -0.537   1.015   9.852  1.00  0.00     0.134 A 
ATOM     68  C   UNL     1       0.272  -0.038  11.845  1.00  0.00     0.134 A 
ATOM     69  F   UNL     1      -0.540   1.178   8.520  1.00  0.00    -0.206 F 
ATOM     70  C   UNL     1      -1.369   1.836  10.615  1.00  0.00     0.040 A 
ATOM     71  C   UNL     1      -0.574   0.760  12.617  1.00  0.00     0.040 A 
ATOM     72  F   UNL     1       1.053  -0.925  12.480  1.00  0.00    -0.206 F 
ATOM     73  C   UNL     1      -1.392   1.705  12.003  1.00  0.00     0.006 A 
ENDBRANCH  52  66
BRANCH  53  74
ATOM     74  C   UNL     1       6.572  -5.463   5.037  1.00  0.00     0.057 A 
ATOM     75  C   UNL     1       6.170  -6.104   3.860  1.00  0.00     0.134 A 
ATOM     76  C   UNL     1       7.885  -5.679   5.475  1.00  0.00     0.134 A 
ATOM     77  F   UNL     1       4.917  -5.955   3.405  1.00  0.00    -0.206 F 
ATOM     78  C   UNL     1       7.033  -6.945   3.155  1.00  0.00     0.040 A 
ATOM     79  C   UNL     1       8.766  -6.496   4.766  1.00  0.00     0.040 A 
ATOM     80  F   UNL     1       8.329  -5.096   6.598  1.00  0.00    -0.206 F 
ATOM     81  C   UNL     1       8.338  -7.138   3.606  1.00  0.00     0.006 A 
ENDBRANCH  53  74
BRANCH  65  82
ATOM     82  C   UNL     1       0.845  -6.911   8.724  1.00  0.00     0.057 A 
ATOM     83  C   UNL     1       1.342  -7.901   9.581  1.00  0.00     0.134 A 
ATOM     84  C   UNL     1      -0.411  -7.131   8.143  1.00  0.00     0.134 A 
ATOM     85  F   UNL     1       2.544  -7.758  10.161  1.00  0.00    -0.206 F 
ATOM     86  C   UNL     1       0.626  -9.073   9.835  1.00  0.00     0.040 A 
ATOM     87  C   UNL     1      -1.148  -8.286   8.410  1.00  0.00     0.040 A 
ATOM     88  F   UNL     1      -0.950  -6.220   7.320  1.00  0.00    -0.206 F 
ATOM     89  C   UNL     1      -0.627  -9.264   9.255  1.00  0.00     0.006 A 
ENDBRANCH  65  82
ENDBRANCH  39  40
ENDBRANCH  32  34
ENDBRANCH  31  32
ENDBRANCH  30  31
ENDBRANCH  29  30
ENDBRANCH  28  29
ENDBRANCH  27  28
ENDBRANCH  26  27
ENDBRANCH  25  26
ENDBRANCH   1  25
TORSDOF 23
