REMARK SMILES O=C(OCCOCCOCCOC(=O)c1ccc(Cn2cc(Br)cc([N+](=O)[O-])c2=O)nc1)c1ccc(-c2c3nc(c(-c4c(F)cccc4F)c4ccc([nH]4)c(-c4c(F)cccc4F)c4nc(c(-c5c(F)cccc5F)c5ccc2[nH]5)C=C4)C=C3)cc1
REMARK SMILES IDX 8 1 7 2 6 3 5 4 4 5 3 6 2 7 1 8 33 9 34 10 86 11 35 12 85 13
REMARK SMILES IDX 36 14 37 15 38 16 79 17 39 18 84 19 78 20 80 21 40 22 83 23
REMARK SMILES IDX 77 24 76 25 41 27 67 28 50 29 66 30 51 31 54 32 65 33 81 34
REMARK SMILES IDX 52 35 53 36 64 38 82 39 55 40 42 41 43 42 48 43 44 44 45 45
REMARK SMILES IDX 47 46 49 47 46 48 68 49 69 50 74 51 70 52 71 53 73 54 75 55
REMARK SMILES IDX 72 56 56 57 57 58 62 59 58 60 59 61 61 62 63 63 60 64 9 65
REMARK SMILES IDX 10 66 11 67 12 68 13 69 14 70 15 71 16 72 32 73 17 74 31 75
REMARK SMILES IDX 18 76 19 77 20 78 21 79 29 80 22 81 25 82 30 83 23 84 24 85
REMARK SMILES IDX 26 86 27 87 28 88
REMARK H PARENT 80 26 54 37
REMARK Flexibility Score: inf
ROOT
ATOM      1  C   UNL     1       2.083   2.128  -2.331  1.00  0.00     0.188 C 
ENDROOT
BRANCH   1   2
ATOM      2  C   UNL     1       2.524   0.858  -1.594  1.00  0.00     0.188 C 
BRANCH   2   3
ATOM      3  O   UNL     1       3.829   0.972  -1.007  1.00  0.00    -0.376 OA
BRANCH   3   4
ATOM      4  C   UNL     1       4.721  -0.059  -1.444  1.00  0.00     0.202 C 
BRANCH   4   5
ATOM      5  C   UNL     1       4.624  -1.371  -0.663  1.00  0.00     0.261 C 
BRANCH   5   6
ATOM      6  O   UNL     1       3.313  -1.648  -0.158  1.00  0.00    -0.460 OA
BRANCH   6   7
ATOM      7  C   UNL     1       2.722  -1.232   0.987  1.00  0.00     0.338 C 
ATOM      8  O   UNL     1       1.622  -1.716   1.255  1.00  0.00    -0.246 OA
BRANCH   7   9
ATOM      9  C   UNL     1       3.273  -0.201   1.937  1.00  0.00     0.060 A 
ATOM     10  C   UNL     1       2.389   0.244   2.942  1.00  0.00     0.016 A 
ATOM     11  C   UNL     1       4.567   0.328   1.948  1.00  0.00     0.016 A 
ATOM     12  C   UNL     1       2.794   1.143   3.936  1.00  0.00     0.010 A 
ATOM     13  C   UNL     1       4.985   1.215   2.947  1.00  0.00     0.010 A 
ATOM     14  C   UNL     1       4.109   1.610   3.958  1.00  0.00    -0.014 A 
BRANCH  14  15
ATOM     15  C   UNL     1       4.627   2.377   5.109  1.00  0.00     0.031 A 
ATOM     16  C   UNL     1       4.855   3.853   5.029  1.00  0.00     0.074 A 
ATOM     17  C   UNL     1       4.988   1.689   6.207  1.00  0.00     0.049 A 
ATOM     18  N   UNL     1       5.220   4.681   5.974  1.00  0.00    -0.248 NA
ATOM     19  C   UNL     1       4.671   4.484   3.714  1.00  0.00     0.031 C 
ATOM     20  C   UNL     1       4.916   0.232   6.347  1.00  0.00     0.029 A 
ATOM     21  N   UNL     1       5.513   2.114   7.397  1.00  0.00    -0.354 N 
ATOM     22  C   UNL     1       5.262   5.935   5.384  1.00  0.00     0.074 A 
ATOM     23  C   UNL     1       4.964   5.751   3.980  1.00  0.00     0.031 C 
ATOM     24  C   UNL     1       5.393  -0.116   7.552  1.00  0.00     0.029 A 
ATOM     25  C   UNL     1       5.788   1.091   8.269  1.00  0.00     0.049 A 
ATOM     26  H   UNL     1       5.676   3.062   7.608  1.00  0.00     0.167 HD
ATOM     27  C   UNL     1       5.495   7.132   5.973  1.00  0.00     0.037 A 
ATOM     28  C   UNL     1       6.290   1.128   9.515  1.00  0.00     0.037 A 
ATOM     29  C   UNL     1       5.862   7.290   7.356  1.00  0.00     0.049 A 
ATOM     30  C   UNL     1       6.550   2.464  10.147  1.00  0.00     0.074 A 
ATOM     31  C   UNL     1       6.091   8.456   8.066  1.00  0.00     0.029 A 
ATOM     32  N   UNL     1       6.085   6.238   8.232  1.00  0.00    -0.354 N 
ATOM     33  N   UNL     1       6.426   3.662   9.627  1.00  0.00    -0.248 NA
ATOM     34  C   UNL     1       6.982   2.455  11.550  1.00  0.00     0.031 C 
ATOM     35  C   UNL     1       6.482   8.106   9.365  1.00  0.00     0.029 A 
ATOM     36  C   UNL     1       6.465   6.725   9.472  1.00  0.00     0.049 A 
ATOM     37  H   UNL     1       5.988   5.285   8.006  1.00  0.00     0.167 HD
ATOM     38  C   UNL     1       6.737   4.551  10.645  1.00  0.00     0.074 A 
ATOM     39  C   UNL     1       7.037   3.752  11.817  1.00  0.00     0.031 C 
ATOM     40  C   UNL     1       6.770   5.907  10.618  1.00  0.00     0.037 A 
BRANCH  27  41
ATOM     41  C   UNL     1       5.317   8.358   5.132  1.00  0.00     0.057 A 
ATOM     42  C   UNL     1       6.410   9.091   4.658  1.00  0.00     0.134 A 
ATOM     43  C   UNL     1       4.036   8.838   4.827  1.00  0.00     0.134 A 
ATOM     44  F   UNL     1       7.663   8.694   4.922  1.00  0.00    -0.206 F 
ATOM     45  C   UNL     1       6.233  10.252   3.901  1.00  0.00     0.040 A 
ATOM     46  C   UNL     1       3.846   9.990   4.062  1.00  0.00     0.040 A 
ATOM     47  F   UNL     1       2.945   8.177   5.244  1.00  0.00    -0.206 F 
ATOM     48  C   UNL     1       4.948  10.702   3.597  1.00  0.00     0.006 A 
ENDBRANCH  27  41
BRANCH  28  49
ATOM     49  C   UNL     1       6.509  -0.135  10.258  1.00  0.00     0.057 A 
ATOM     50  C   UNL     1       7.550  -1.008   9.920  1.00  0.00     0.134 A 
ATOM     51  C   UNL     1       5.667  -0.510  11.311  1.00  0.00     0.134 A 
ATOM     52  F   UNL     1       8.381  -0.711   8.910  1.00  0.00    -0.206 F 
ATOM     53  C   UNL     1       7.747  -2.209  10.603  1.00  0.00     0.040 A 
ATOM     54  C   UNL     1       5.864  -1.698  12.017  1.00  0.00     0.040 A 
ATOM     55  F   UNL     1       4.659   0.290  11.686  1.00  0.00    -0.206 F 
ATOM     56  C   UNL     1       6.905  -2.553  11.659  1.00  0.00     0.006 A 
ENDBRANCH  28  49
BRANCH  40  57
ATOM     57  C   UNL     1       7.131   6.590  11.902  1.00  0.00     0.057 A 
ATOM     58  C   UNL     1       6.157   7.258  12.652  1.00  0.00     0.134 A 
ATOM     59  C   UNL     1       8.438   6.567  12.405  1.00  0.00     0.134 A 
ATOM     60  F   UNL     1       4.888   7.322  12.221  1.00  0.00    -0.206 F 
ATOM     61  C   UNL     1       6.468   7.870  13.867  1.00  0.00     0.040 A 
ATOM     62  C   UNL     1       8.756   7.154  13.630  1.00  0.00     0.040 A 
ATOM     63  F   UNL     1       9.412   5.929  11.738  1.00  0.00    -0.206 F 
ATOM     64  C   UNL     1       7.769   7.809  14.364  1.00  0.00     0.006 A 
ENDBRANCH  40  57
ENDBRANCH  14  15
ENDBRANCH   7   9
ENDBRANCH   6   7
ENDBRANCH   5   6
ENDBRANCH   4   5
ENDBRANCH   3   4
ENDBRANCH   2   3
ENDBRANCH   1   2
BRANCH   1  65
ATOM     65  O   UNL     1       2.845   2.490  -3.481  1.00  0.00    -0.376 OA
BRANCH  65  66
ATOM     66  C   UNL     1       4.196   2.890  -3.270  1.00  0.00     0.202 C 
BRANCH  66  67
ATOM     67  C   UNL     1       4.427   4.226  -2.558  1.00  0.00     0.261 C 
BRANCH  67  68
ATOM     68  O   UNL     1       3.811   4.308  -1.258  1.00  0.00    -0.460 OA
BRANCH  68  69
ATOM     69  C   UNL     1       3.100   5.438  -1.047  1.00  0.00     0.339 C 
ATOM     70  O   UNL     1       2.950   6.371  -1.833  1.00  0.00    -0.246 OA
BRANCH  69  71
ATOM     71  C   UNL     1       2.571   5.514   0.319  1.00  0.00     0.078 A 
ATOM     72  C   UNL     1       2.675   6.725   1.001  1.00  0.00     0.019 A 
ATOM     73  C   UNL     1       1.867   4.485   0.919  1.00  0.00     0.127 A 
ATOM     74  C   UNL     1       2.055   6.871   2.239  1.00  0.00     0.026 A 
ATOM     75  N   UNL     1       1.263   4.605   2.130  1.00  0.00    -0.258 NA
ATOM     76  C   UNL     1       1.349   5.797   2.776  1.00  0.00     0.060 A 
BRANCH  76  77
ATOM     77  C   UNL     1       0.559   5.968   4.062  1.00  0.00     0.181 C 
BRANCH  77  78
ATOM     78  N   UNL     1      -0.824   6.378   3.782  1.00  0.00    -0.303 N 
ATOM     79  C   UNL     1      -1.132   7.729   3.666  1.00  0.00     0.105 A 
ATOM     80  C   UNL     1      -1.790   5.370   3.607  1.00  0.00     0.329 A 
ATOM     81  C   UNL     1      -2.362   8.148   3.327  1.00  0.00     0.041 A 
ATOM     82  C   UNL     1      -3.101   5.864   3.120  1.00  0.00     0.335 A 
ATOM     83  O   UNL     1      -1.591   4.191   3.879  1.00  0.00    -0.261 OA
ATOM     84  Br  UNL     1      -2.800   9.953   3.196  1.00  0.00    -0.049 Br
ATOM     85  C   UNL     1      -3.380   7.173   3.008  1.00  0.00     0.109 A 
BRANCH  82  86
ATOM     86  N   UNL     1      -4.114   4.923   2.721  1.00  0.00     0.068 N 
ATOM     87  O   UNL     1      -3.762   3.938   2.062  1.00  0.00    -0.258 OA
ATOM     88  O   UNL     1      -5.291   5.203   2.998  1.00  0.00    -0.258 OA
ENDBRANCH  82  86
ENDBRANCH  77  78
ENDBRANCH  76  77
ENDBRANCH  69  71
ENDBRANCH  68  69
ENDBRANCH  67  68
ENDBRANCH  66  67
ENDBRANCH  65  66
ENDBRANCH   1  65
TORSDOF 20
