REMARK SMILES COCCS(=O)(=O)Cc1c(C(=O)OCCOCCOCCOC(=O)c2ccc(-c3c4nc(c(-c5c(F)cccc5F)c5ccc([nH]5)c(-c5c(F)cccc5F)c5nc(c(-c6c(F)cccc6F)c6ccc3[nH]6)C=C5)C=C4)cc2)oc2ccccc12
REMARK SMILES IDX 16 1 15 2 14 3 13 4 11 5 12 6 10 7 9 8 85 9 79 10 80 11
REMARK SMILES IDX 84 12 81 13 83 14 82 15 8 16 5 17 6 18 7 19 4 20 3 21 2 22
REMARK SMILES IDX 1 23 17 24 18 25 19 26 20 27 21 28 22 29 23 30 24 31 25 32
REMARK SMILES IDX 26 33 78 34 27 35 77 36 28 37 29 38 30 39 71 40 31 41 76 42
REMARK SMILES IDX 70 43 72 44 32 45 75 46 69 47 68 48 33 50 59 51 42 52 58 53
REMARK SMILES IDX 43 54 46 55 57 56 73 57 44 58 45 59 56 61 74 62 47 63 34 64
REMARK SMILES IDX 35 65 40 66 36 67 37 68 39 69 41 70 38 71 60 72 61 73 66 74
REMARK SMILES IDX 62 75 63 76 65 77 67 78 64 79 48 80 49 81 54 82 50 83 51 84
REMARK SMILES IDX 53 85 55 86 52 87
REMARK H PARENT 72 49 46 60
REMARK Flexibility Score: inf
ROOT
ATOM      1  O   UNL     1      -0.968  -2.807  -2.256  1.00  0.00    -0.376 OA
ENDROOT
BRANCH   1   2
ATOM      2  C   UNL     1      -1.218  -3.808  -1.264  1.00  0.00     0.202 C 
BRANCH   2   3
ATOM      3  C   UNL     1      -1.846  -3.397   0.090  1.00  0.00     0.261 C 
BRANCH   3   4
ATOM      4  O   UNL     1      -2.421  -2.084   0.092  1.00  0.00    -0.457 OA
BRANCH   4   5
ATOM      5  C   UNL     1      -1.700  -1.108   0.723  1.00  0.00     0.374 C 
ATOM      6  O   UNL     1      -0.846  -1.306   1.562  1.00  0.00    -0.242 OA
BRANCH   5   7
ATOM      7  C   UNL     1      -2.017   0.188   0.148  1.00  0.00     0.217 A 
ATOM      8  C   UNL     1      -1.216   1.287  -0.162  1.00  0.00     0.028 A 
ATOM      9  C   UNL     1      -2.113   2.316  -0.589  1.00  0.00     0.025 A 
ATOM     10  O   UNL     1      -3.322   0.463  -0.172  1.00  0.00    -0.449 OA
ATOM     11  C   UNL     1      -3.385   1.765  -0.556  1.00  0.00     0.135 A 
ATOM     12  C   UNL     1      -1.977   3.674  -0.937  1.00  0.00     0.012 A 
ATOM     13  C   UNL     1      -4.550   2.476  -0.837  1.00  0.00     0.048 A 
ATOM     14  C   UNL     1      -3.132   4.427  -1.181  1.00  0.00     0.001 A 
ATOM     15  C   UNL     1      -4.396   3.837  -1.127  1.00  0.00     0.004 A 
BRANCH   8  16
ATOM     16  C   UNL     1       0.245   1.478   0.054  1.00  0.00     0.177 C 
BRANCH  16  17
ATOM     17  S   UNL     1       1.376   1.172  -1.293  1.00  0.00     0.156 S 
ATOM     18  O   UNL     1       2.702   1.444  -0.768  1.00  0.00    -0.228 OA
ATOM     19  O   UNL     1       0.888   1.934  -2.430  1.00  0.00    -0.228 OA
BRANCH  17  20
ATOM     20  C   UNL     1       1.334  -0.538  -1.774  1.00  0.00     0.165 C 
BRANCH  20  21
ATOM     21  C   UNL     1       2.251  -1.478  -1.020  1.00  0.00     0.176 C 
BRANCH  21  22
ATOM     22  O   UNL     1       1.698  -1.901   0.218  1.00  0.00    -0.384 OA
ATOM     23  C   UNL     1       2.196  -1.204   1.351  1.00  0.00     0.194 C 
ENDBRANCH  21  22
ENDBRANCH  20  21
ENDBRANCH  17  20
ENDBRANCH  16  17
ENDBRANCH   8  16
ENDBRANCH   5   7
ENDBRANCH   4   5
ENDBRANCH   3   4
ENDBRANCH   2   3
ENDBRANCH   1   2
BRANCH   1  24
ATOM     24  C   UNL     1      -2.084  -1.965  -2.564  1.00  0.00     0.188 C 
BRANCH  24  25
ATOM     25  C   UNL     1      -2.002  -1.357  -3.956  1.00  0.00     0.188 C 
BRANCH  25  26
ATOM     26  O   UNL     1      -2.666  -2.115  -4.961  1.00  0.00    -0.376 OA
BRANCH  26  27
ATOM     27  C   UNL     1      -2.225  -3.458  -5.105  1.00  0.00     0.202 C 
BRANCH  27  28
ATOM     28  C   UNL     1      -0.982  -3.650  -5.980  1.00  0.00     0.261 C 
BRANCH  28  29
ATOM     29  O   UNL     1       0.122  -2.783  -5.666  1.00  0.00    -0.460 OA
BRANCH  29  30
ATOM     30  C   UNL     1       0.189  -1.656  -6.421  1.00  0.00     0.338 C 
ATOM     31  O   UNL     1      -0.585  -1.301  -7.294  1.00  0.00    -0.246 OA
BRANCH  30  32
ATOM     32  C   UNL     1       1.328  -0.823  -5.985  1.00  0.00     0.060 A 
ATOM     33  C   UNL     1       1.080   0.480  -5.544  1.00  0.00     0.016 A 
ATOM     34  C   UNL     1       2.642  -1.286  -6.102  1.00  0.00     0.016 A 
ATOM     35  C   UNL     1       2.148   1.324  -5.224  1.00  0.00     0.010 A 
ATOM     36  C   UNL     1       3.711  -0.429  -5.801  1.00  0.00     0.010 A 
ATOM     37  C   UNL     1       3.472   0.887  -5.371  1.00  0.00    -0.014 A 
BRANCH  37  38
ATOM     38  C   UNL     1       4.586   1.862  -5.220  1.00  0.00     0.031 A 
ATOM     39  C   UNL     1       4.949   2.733  -6.387  1.00  0.00     0.074 A 
ATOM     40  C   UNL     1       5.242   2.016  -4.055  1.00  0.00     0.049 A 
ATOM     41  N   UNL     1       5.892   3.634  -6.486  1.00  0.00    -0.248 NA
ATOM     42  C   UNL     1       4.148   2.556  -7.607  1.00  0.00     0.031 C 
ATOM     43  C   UNL     1       4.960   1.270  -2.838  1.00  0.00     0.029 A 
ATOM     44  N   UNL     1       6.260   2.869  -3.694  1.00  0.00    -0.354 N 
ATOM     45  C   UNL     1       5.806   4.126  -7.780  1.00  0.00     0.074 A 
ATOM     46  C   UNL     1       4.721   3.421  -8.431  1.00  0.00     0.031 C 
ATOM     47  C   UNL     1       5.744   1.729  -1.847  1.00  0.00     0.029 A 
ATOM     48  C   UNL     1       6.639   2.754  -2.376  1.00  0.00     0.049 A 
ATOM     49  H   UNL     1       6.678   3.502  -4.321  1.00  0.00     0.167 HD
ATOM     50  C   UNL     1       6.572   5.067  -8.378  1.00  0.00     0.037 A 
ATOM     51  C   UNL     1       7.609   3.385  -1.682  1.00  0.00     0.037 A 
ATOM     52  C   UNL     1       7.672   5.747  -7.746  1.00  0.00     0.049 A 
ATOM     53  C   UNL     1       8.495   4.376  -2.398  1.00  0.00     0.074 A 
ATOM     54  C   UNL     1       8.534   6.682  -8.293  1.00  0.00     0.029 A 
ATOM     55  N   UNL     1       8.069   5.559  -6.431  1.00  0.00    -0.354 N 
ATOM     56  N   UNL     1       8.418   4.819  -3.630  1.00  0.00    -0.248 NA
ATOM     57  C   UNL     1       9.623   4.933  -1.635  1.00  0.00     0.031 C 
ATOM     58  C   UNL     1       9.485   7.019  -7.327  1.00  0.00     0.029 A 
ATOM     59  C   UNL     1       9.177   6.345  -6.157  1.00  0.00     0.049 A 
ATOM     60  H   UNL     1       7.630   4.957  -5.788  1.00  0.00     0.167 HD
ATOM     61  C   UNL     1       9.471   5.714  -3.781  1.00  0.00     0.074 A 
ATOM     62  C   UNL     1      10.155   5.776  -2.508  1.00  0.00     0.031 C 
ATOM     63  C   UNL     1       9.845   6.411  -4.881  1.00  0.00     0.037 A 
BRANCH  50  64
ATOM     64  C   UNL     1       6.281   5.368  -9.817  1.00  0.00     0.057 A 
ATOM     65  C   UNL     1       5.141   6.079 -10.211  1.00  0.00     0.134 A 
ATOM     66  C   UNL     1       7.166   4.953 -10.820  1.00  0.00     0.134 A 
ATOM     67  F   UNL     1       4.244   6.486  -9.300  1.00  0.00    -0.206 F 
ATOM     68  C   UNL     1       4.881   6.348 -11.556  1.00  0.00     0.040 A 
ATOM     69  C   UNL     1       6.931   5.240 -12.165  1.00  0.00     0.040 A 
ATOM     70  F   UNL     1       8.277   4.268 -10.509  1.00  0.00    -0.206 F 
ATOM     71  C   UNL     1       5.782   5.934 -12.536  1.00  0.00     0.006 A 
ENDBRANCH  50  64
BRANCH  51  72
ATOM     72  C   UNL     1       7.860   3.069  -0.246  1.00  0.00     0.057 A 
ATOM     73  C   UNL     1       7.754   4.051   0.749  1.00  0.00     0.134 A 
ATOM     74  C   UNL     1       8.297   1.800   0.158  1.00  0.00     0.134 A 
ATOM     75  F   UNL     1       7.376   5.298   0.431  1.00  0.00    -0.206 F 
ATOM     76  C   UNL     1       8.105   3.794   2.078  1.00  0.00     0.040 A 
ATOM     77  C   UNL     1       8.614   1.519   1.488  1.00  0.00     0.040 A 
ATOM     78  F   UNL     1       8.436   0.813  -0.739  1.00  0.00    -0.206 F 
ATOM     79  C   UNL     1       8.533   2.522   2.451  1.00  0.00     0.006 A 
ENDBRANCH  51  72
BRANCH  63  80
ATOM     80  C   UNL     1      11.023   7.336  -4.752  1.00  0.00     0.057 A 
ATOM     81  C   UNL     1      12.333   6.859  -4.611  1.00  0.00     0.134 A 
ATOM     82  C   UNL     1      10.847   8.725  -4.819  1.00  0.00     0.134 A 
ATOM     83  F   UNL     1      12.572   5.541  -4.530  1.00  0.00    -0.206 F 
ATOM     84  C   UNL     1      13.421   7.729  -4.517  1.00  0.00     0.040 A 
ATOM     85  C   UNL     1      11.930   9.603  -4.757  1.00  0.00     0.040 A 
ATOM     86  F   UNL     1       9.622   9.250  -4.965  1.00  0.00    -0.206 F 
ATOM     87  C   UNL     1      13.221   9.106  -4.598  1.00  0.00     0.006 A 
ENDBRANCH  63  80
ENDBRANCH  37  38
ENDBRANCH  30  32
ENDBRANCH  29  30
ENDBRANCH  28  29
ENDBRANCH  27  28
ENDBRANCH  26  27
ENDBRANCH  25  26
ENDBRANCH  24  25
ENDBRANCH   1  24
TORSDOF 22
