REMARK SMILES CC(C)N(c1cc2c(cc1Cl)C=C(C(=O)OCCOCCOCCOC(=O)c1ccc(-c3c4nc(c(-c5c(F)cccc5F)c5ccc([nH]5)c(-c5c(F)cccc5F)c5nc(c(-c6c(F)cccc6F)c6ccc3[nH]6)C=C5)C=C4)cc1)[C@@H](C(F)(F)F)O2)C(C)C
REMARK SMILES IDX 20 1 19 2 18 3 17 4 16 5 14 6 15 7 13 8 5 9 6 10 10 11 7 12
REMARK SMILES IDX 9 13 11 14 8 15 87 16 12 17 82 18 4 19 2 20 1 21 3 22 88 23
REMARK SMILES IDX 89 24 90 25 83 26 84 27 85 28 86 29 21 30 22 31 23 32 24 33
REMARK SMILES IDX 25 34 26 35 27 36 28 37 29 38 81 39 30 40 80 41 31 42 32 43
REMARK SMILES IDX 33 44 74 45 34 46 79 47 73 48 75 49 35 50 78 51 72 52 71 53
REMARK SMILES IDX 36 55 62 56 45 57 61 58 46 59 49 60 60 61 76 62 47 63 48 64
REMARK SMILES IDX 59 66 77 67 50 68 37 69 38 70 43 71 39 72 40 73 42 74 44 75
REMARK SMILES IDX 41 76 63 77 64 78 69 79 65 80 66 81 68 82 70 83 67 84 51 85
REMARK SMILES IDX 52 86 57 87 53 88 54 89 56 90 58 91 55 92
REMARK H PARENT 75 54 49 65
REMARK Flexibility Score: inf
ROOT
ATOM      1  C   UNL     1      -4.795  -8.707  -1.353  1.00  0.00     0.188 C 
ENDROOT
BRANCH   1   2
ATOM      2  O   UNL     1      -5.865  -9.629  -1.403  1.00  0.00    -0.376 OA
BRANCH   2   3
ATOM      3  C   UNL     1      -7.208  -9.194  -1.537  1.00  0.00     0.202 C 
BRANCH   3   4
ATOM      4  C   UNL     1      -7.746  -7.986  -0.767  1.00  0.00     0.261 C 
BRANCH   4   5
ATOM      5  O   UNL     1      -6.906  -6.827  -0.826  1.00  0.00    -0.460 OA
BRANCH   5   6
ATOM      6  C   UNL     1      -6.464  -6.389   0.376  1.00  0.00     0.338 C 
ATOM      7  O   UNL     1      -6.736  -6.856   1.470  1.00  0.00    -0.246 OA
BRANCH   6   8
ATOM      8  C   UNL     1      -5.463  -5.325   0.185  1.00  0.00     0.087 C 
ATOM      9  C   UNL     1      -1.686  -2.085   1.029  1.00  0.00     0.060 A 
ATOM     10  C   UNL     1      -2.777  -2.147   0.128  1.00  0.00     0.074 A 
ATOM     11  C   UNL     1      -1.436  -3.252   1.789  1.00  0.00     0.065 A 
ATOM     12  C   UNL     1      -3.634  -3.252   0.062  1.00  0.00     0.130 A 
ATOM     13  C   UNL     1      -2.270  -4.376   1.689  1.00  0.00     0.034 A 
ATOM     14  Cl  UNL     1      -0.199  -3.383   2.993  1.00  0.00    -0.082 Cl
ATOM     15  C   UNL     1      -3.391  -4.359   0.863  1.00  0.00     0.019 A 
ATOM     16  O   UNL     1      -4.700  -3.154  -0.789  1.00  0.00    -0.475 OA
ATOM     17  C   UNL     1      -4.346  -5.448   0.911  1.00  0.00     0.027 C 
ATOM     18  C   UNL     1      -5.742  -4.175  -0.744  1.00  0.00     0.316 C 
BRANCH   9  19
ATOM     19  N   UNL     1      -0.979  -0.869   1.155  1.00  0.00    -0.365 N 
BRANCH  19  20
ATOM     20  C   UNL     1       0.501  -0.893   1.083  1.00  0.00     0.076 C 
ATOM     21  C   UNL     1       1.049  -0.153  -0.137  1.00  0.00     0.030 C 
ATOM     22  C   UNL     1       1.186  -0.392   2.355  1.00  0.00     0.030 C 
ENDBRANCH  19  20
BRANCH  19  23
ATOM     23  C   UNL     1      -1.811   0.340   1.383  1.00  0.00     0.076 C 
ATOM     24  C   UNL     1      -1.615   0.953   2.767  1.00  0.00     0.030 C 
ATOM     25  C   UNL     1      -1.674   1.385   0.281  1.00  0.00     0.030 C 
ENDBRANCH  19  23
ENDBRANCH   9  19
BRANCH  18  26
ATOM     26  C   UNL     1      -7.087  -3.496  -0.442  1.00  0.00     0.430 C 
ATOM     27  F   UNL     1      -7.303  -2.440  -1.262  1.00  0.00    -0.167 F 
ATOM     28  F   UNL     1      -8.127  -4.345  -0.622  1.00  0.00    -0.167 F 
ATOM     29  F   UNL     1      -7.152  -3.044   0.831  1.00  0.00    -0.167 F 
ENDBRANCH  18  26
ENDBRANCH   6   8
ENDBRANCH   5   6
ENDBRANCH   4   5
ENDBRANCH   3   4
ENDBRANCH   2   3
ENDBRANCH   1   2
BRANCH   1  30
ATOM     30  C   UNL     1      -4.556  -7.686  -2.486  1.00  0.00     0.188 C 
BRANCH  30  31
ATOM     31  O   UNL     1      -5.347  -7.692  -3.657  1.00  0.00    -0.376 OA
BRANCH  31  32
ATOM     32  C   UNL     1      -5.433  -8.871  -4.444  1.00  0.00     0.202 C 
BRANCH  32  33
ATOM     33  C   UNL     1      -4.172  -9.630  -4.865  1.00  0.00     0.261 C 
BRANCH  33  34
ATOM     34  O   UNL     1      -3.322  -9.996  -3.771  1.00  0.00    -0.460 OA
BRANCH  34  35
ATOM     35  C   UNL     1      -2.086  -9.441  -3.788  1.00  0.00     0.338 C 
ATOM     36  O   UNL     1      -1.620  -8.690  -4.629  1.00  0.00    -0.246 OA
BRANCH  35  37
ATOM     37  C   UNL     1      -1.421  -9.718  -2.502  1.00  0.00     0.060 A 
ATOM     38  C   UNL     1      -1.254 -11.027  -2.050  1.00  0.00     0.016 A 
ATOM     39  C   UNL     1      -0.954  -8.635  -1.745  1.00  0.00     0.016 A 
ATOM     40  C   UNL     1      -0.584 -11.253  -0.847  1.00  0.00     0.010 A 
ATOM     41  C   UNL     1      -0.296  -8.861  -0.536  1.00  0.00     0.010 A 
ATOM     42  C   UNL     1      -0.085 -10.174  -0.093  1.00  0.00    -0.014 A 
BRANCH  42  43
ATOM     43  C   UNL     1       0.808 -10.441   1.058  1.00  0.00     0.031 A 
ATOM     44  C   UNL     1       0.320 -10.397   2.472  1.00  0.00     0.074 A 
ATOM     45  C   UNL     1       2.095 -10.737   0.795  1.00  0.00     0.049 A 
ATOM     46  N   UNL     1       0.950 -10.742   3.567  1.00  0.00    -0.248 NA
ATOM     47  C   UNL     1      -1.043  -9.895   2.688  1.00  0.00     0.031 C 
ATOM     48  C   UNL     1       2.694 -10.761  -0.541  1.00  0.00     0.029 A 
ATOM     49  N   UNL     1       3.123 -11.083   1.632  1.00  0.00    -0.354 N 
ATOM     50  C   UNL     1       0.053 -10.529   4.604  1.00  0.00     0.074 A 
ATOM     51  C   UNL     1      -1.147  -9.971   4.010  1.00  0.00     0.031 C 
ATOM     52  C   UNL     1       3.978 -11.134  -0.436  1.00  0.00     0.029 A 
ATOM     53  C   UNL     1       4.293 -11.361   0.970  1.00  0.00     0.049 A 
ATOM     54  H   UNL     1       3.031 -11.128   2.611  1.00  0.00     0.167 HD
ATOM     55  C   UNL     1       0.213 -10.795   5.924  1.00  0.00     0.037 A 
ATOM     56  C   UNL     1       5.483 -11.770   1.444  1.00  0.00     0.037 A 
ATOM     57  C   UNL     1       1.423 -11.319   6.512  1.00  0.00     0.049 A 
ATOM     58  C   UNL     1       5.643 -12.018   2.916  1.00  0.00     0.074 A 
ATOM     59  C   UNL     1       1.665 -11.663   7.832  1.00  0.00     0.029 A 
ATOM     60  N   UNL     1       2.603 -11.553   5.820  1.00  0.00    -0.354 N 
ATOM     61  N   UNL     1       4.755 -11.916   3.874  1.00  0.00    -0.248 NA
ATOM     62  C   UNL     1       6.971 -12.452   3.367  1.00  0.00     0.031 C 
ATOM     63  C   UNL     1       3.005 -12.056   7.947  1.00  0.00     0.029 A 
ATOM     64  C   UNL     1       3.584 -12.006   6.690  1.00  0.00     0.049 A 
ATOM     65  H   UNL     1       2.726 -11.418   4.853  1.00  0.00     0.167 HD
ATOM     66  C   UNL     1       5.409 -12.296   5.038  1.00  0.00     0.074 A 
ATOM     67  C   UNL     1       6.761 -12.653   4.660  1.00  0.00     0.031 C 
ATOM     68  C   UNL     1       4.933 -12.344   6.307  1.00  0.00     0.037 A 
BRANCH  55  69
ATOM     69  C   UNL     1      -0.956 -10.525   6.828  1.00  0.00     0.057 A 
ATOM     70  C   UNL     1      -0.913  -9.495   7.776  1.00  0.00     0.134 A 
ATOM     71  C   UNL     1      -2.109 -11.321   6.792  1.00  0.00     0.134 A 
ATOM     72  F   UNL     1       0.165  -8.703   7.874  1.00  0.00    -0.206 F 
ATOM     73  C   UNL     1      -1.976  -9.265   8.652  1.00  0.00     0.040 A 
ATOM     74  C   UNL     1      -3.188 -11.085   7.647  1.00  0.00     0.040 A 
ATOM     75  F   UNL     1      -2.216 -12.323   5.906  1.00  0.00    -0.206 F 
ATOM     76  C   UNL     1      -3.120 -10.057   8.585  1.00  0.00     0.006 A 
ENDBRANCH  55  69
BRANCH  56  77
ATOM     77  C   UNL     1       6.609 -12.009   0.509  1.00  0.00     0.057 A 
ATOM     78  C   UNL     1       7.255 -10.951  -0.138  1.00  0.00     0.134 A 
ATOM     79  C   UNL     1       7.071 -13.305   0.256  1.00  0.00     0.134 A 
ATOM     80  F   UNL     1       6.851  -9.688   0.058  1.00  0.00    -0.206 F 
ATOM     81  C   UNL     1       8.325 -11.173  -1.006  1.00  0.00     0.040 A 
ATOM     82  C   UNL     1       8.156 -13.540  -0.590  1.00  0.00     0.040 A 
ATOM     83  F   UNL     1       6.499 -14.357   0.860  1.00  0.00    -0.206 F 
ATOM     84  C   UNL     1       8.784 -12.470  -1.226  1.00  0.00     0.006 A 
ENDBRANCH  56  77
BRANCH  68  85
ATOM     85  C   UNL     1       5.886 -12.816   7.367  1.00  0.00     0.057 A 
ATOM     86  C   UNL     1       5.723 -14.068   7.972  1.00  0.00     0.134 A 
ATOM     87  C   UNL     1       6.979 -12.039   7.778  1.00  0.00     0.134 A 
ATOM     88  F   UNL     1       4.696 -14.861   7.631  1.00  0.00    -0.206 F 
ATOM     89  C   UNL     1       6.614 -14.534   8.940  1.00  0.00     0.040 A 
ATOM     90  C   UNL     1       7.894 -12.506   8.723  1.00  0.00     0.040 A 
ATOM     91  F   UNL     1       7.205 -10.838   7.225  1.00  0.00    -0.206 F 
ATOM     92  C   UNL     1       7.710 -13.757   9.310  1.00  0.00     0.006 A 
ENDBRANCH  68  85
ENDBRANCH  42  43
ENDBRANCH  35  37
ENDBRANCH  34  35
ENDBRANCH  33  34
ENDBRANCH  32  33
ENDBRANCH  31  32
ENDBRANCH  30  31
ENDBRANCH   1  30
TORSDOF 21
