REMARK SMILES C[C@H]([C@@H]1CCCO1)n1c(SCC(=O)OCCOCCOCCOC(=O)c2ccc(-c3c4nc(c(-c5c(F)cccc5F)c5ccc([nH]5)c(-c5c(F)cccc5F)c5nc(c(-c6c(F)cccc6F)c6ccc3[nH]6)C=C5)C=C4)cc2)nc2cnccc21
REMARK SMILES IDX 18 1 17 2 16 3 15 4 14 5 12 6 13 7 11 8 10 9 9 10 8 11 86 12
REMARK SMILES IDX 80 13 81 14 85 15 82 16 84 17 83 18 2 19 1 20 3 21 4 22 7 23
REMARK SMILES IDX 5 24 6 25 19 26 20 27 21 28 22 29 23 30 24 31 25 32 26 33
REMARK SMILES IDX 27 34 79 35 28 36 78 37 29 38 30 39 31 40 72 41 32 42 77 43
REMARK SMILES IDX 71 44 73 45 33 46 76 47 70 48 69 49 34 51 60 52 43 53 59 54
REMARK SMILES IDX 44 55 47 56 58 57 74 58 45 59 46 60 57 62 75 63 48 64 35 65
REMARK SMILES IDX 36 66 41 67 37 68 38 69 40 70 42 71 39 72 61 73 62 74 67 75
REMARK SMILES IDX 63 76 64 77 66 78 68 79 65 80 49 81 50 82 55 83 51 84 52 85
REMARK SMILES IDX 54 86 56 87 53 88
REMARK H PARENT 73 50 47 61
REMARK Flexibility Score: inf
ROOT
ATOM      1  C   UNL     1      -0.802  -3.943   2.300  1.00  0.00     0.188 C 
ENDROOT
BRANCH   1   2
ATOM      2  O   UNL     1       0.508  -4.322   1.880  1.00  0.00    -0.376 OA
BRANCH   2   3
ATOM      3  C   UNL     1       1.290  -4.812   2.970  1.00  0.00     0.202 C 
BRANCH   3   4
ATOM      4  C   UNL     1       1.693  -3.758   4.023  1.00  0.00     0.261 C 
BRANCH   4   5
ATOM      5  O   UNL     1       0.685  -2.731   4.207  1.00  0.00    -0.463 OA
BRANCH   5   6
ATOM      6  C   UNL     1       1.113  -1.449   4.105  1.00  0.00     0.316 C 
ATOM      7  O   UNL     1       2.302  -1.130   4.144  1.00  0.00    -0.251 OA
BRANCH   6   8
ATOM      8  C   UNL     1       0.056  -0.394   3.787  1.00  0.00     0.200 C 
BRANCH   8   9
ATOM      9  S   UNL     1      -1.677  -0.831   3.617  1.00  0.00    -0.076 SA
BRANCH   9  10
ATOM     10  C   UNL     1      -2.315  -0.742   1.975  1.00  0.00     0.170 A 
ATOM     11  N   UNL     1      -1.692  -0.803   0.747  1.00  0.00    -0.313 N 
ATOM     12  C   UNL     1      -2.638  -1.200  -0.197  1.00  0.00     0.072 A 
ATOM     13  N   UNL     1      -3.626  -0.798   1.797  1.00  0.00    -0.221 NA
ATOM     14  C   UNL     1      -3.846  -1.085   0.465  1.00  0.00     0.108 A 
ATOM     15  C   UNL     1      -2.571  -1.621  -1.532  1.00  0.00     0.049 A 
ATOM     16  C   UNL     1      -5.021  -1.311  -0.261  1.00  0.00     0.141 A 
ATOM     17  C   UNL     1      -3.777  -1.868  -2.159  1.00  0.00     0.113 A 
ATOM     18  N   UNL     1      -4.976  -1.699  -1.570  1.00  0.00    -0.262 NA
BRANCH  11  19
ATOM     19  C   UNL     1      -0.370  -0.401   0.330  1.00  0.00     0.116 C 
ATOM     20  C   UNL     1       0.739  -1.334   0.789  1.00  0.00     0.034 C 
BRANCH  19  21
ATOM     21  C   UNL     1      -0.117   1.117   0.334  1.00  0.00     0.141 C 
ATOM     22  C   UNL     1      -0.480   2.015   1.497  1.00  0.00     0.036 C 
ATOM     23  O   UNL     1      -0.724   1.745  -0.823  1.00  0.00    -0.376 OA
ATOM     24  C   UNL     1      -0.353   3.376   0.860  1.00  0.00     0.031 C 
ATOM     25  C   UNL     1      -0.925   3.134  -0.517  1.00  0.00     0.160 C 
ENDBRANCH  19  21
ENDBRANCH  11  19
ENDBRANCH   9  10
ENDBRANCH   8   9
ENDBRANCH   6   8
ENDBRANCH   5   6
ENDBRANCH   4   5
ENDBRANCH   3   4
ENDBRANCH   2   3
ENDBRANCH   1   2
BRANCH   1  26
ATOM     26  C   UNL     1      -1.926  -4.245   1.329  1.00  0.00     0.188 C 
BRANCH  26  27
ATOM     27  O   UNL     1      -2.104  -5.628   1.087  1.00  0.00    -0.376 OA
BRANCH  27  28
ATOM     28  C   UNL     1      -1.065  -6.231   0.309  1.00  0.00     0.202 C 
BRANCH  28  29
ATOM     29  C   UNL     1      -0.822  -5.608  -1.087  1.00  0.00     0.261 C 
BRANCH  29  30
ATOM     30  O   UNL     1       0.196  -4.562  -1.128  1.00  0.00    -0.460 OA
BRANCH  30  31
ATOM     31  C   UNL     1       0.323  -3.950  -2.356  1.00  0.00     0.338 C 
ATOM     32  O   UNL     1      -0.359  -4.188  -3.325  1.00  0.00    -0.246 OA
BRANCH  31  33
ATOM     33  C   UNL     1       1.259  -2.772  -2.302  1.00  0.00     0.060 A 
ATOM     34  C   UNL     1       2.506  -2.776  -1.667  1.00  0.00     0.016 A 
ATOM     35  C   UNL     1       0.805  -1.562  -2.822  1.00  0.00     0.016 A 
ATOM     36  C   UNL     1       3.159  -1.555  -1.337  1.00  0.00     0.010 A 
ATOM     37  C   UNL     1       1.408  -0.358  -2.420  1.00  0.00     0.010 A 
ATOM     38  C   UNL     1       2.533  -0.321  -1.561  1.00  0.00    -0.014 A 
BRANCH  38  39
ATOM     39  C   UNL     1       3.111   1.023  -1.167  1.00  0.00     0.031 A 
ATOM     40  C   UNL     1       3.476   1.677  -2.431  1.00  0.00     0.074 A 
ATOM     41  C   UNL     1       3.330   1.756  -0.019  1.00  0.00     0.049 A 
ATOM     42  N   UNL     1       4.479   1.260  -3.134  1.00  0.00    -0.248 NA
ATOM     43  C   UNL     1       2.585   2.606  -3.144  1.00  0.00     0.031 C 
ATOM     44  C   UNL     1       2.936   1.485   1.376  1.00  0.00     0.029 A 
ATOM     45  N   UNL     1       3.910   3.018   0.137  1.00  0.00    -0.354 N 
ATOM     46  C   UNL     1       4.590   2.217  -4.107  1.00  0.00     0.074 A 
ATOM     47  C   UNL     1       3.252   2.717  -4.303  1.00  0.00     0.031 C 
ATOM     48  C   UNL     1       3.027   2.605   2.144  1.00  0.00     0.029 A 
ATOM     49  C   UNL     1       3.721   3.636   1.392  1.00  0.00     0.049 A 
ATOM     50  H   UNL     1       4.421   3.450  -0.585  1.00  0.00     0.167 HD
ATOM     51  C   UNL     1       5.774   2.881  -4.188  1.00  0.00     0.037 A 
ATOM     52  C   UNL     1       4.268   4.790   1.889  1.00  0.00     0.037 A 
ATOM     53  C   UNL     1       6.778   2.273  -3.321  1.00  0.00     0.049 A 
ATOM     54  C   UNL     1       5.641   4.832   1.353  1.00  0.00     0.074 A 
ATOM     55  C   UNL     1       7.415   1.053  -3.195  1.00  0.00     0.029 A 
ATOM     56  N   UNL     1       6.896   2.887  -2.103  1.00  0.00    -0.354 N 
ATOM     57  N   UNL     1       6.572   4.003   1.727  1.00  0.00    -0.248 NA
ATOM     58  C   UNL     1       5.952   5.656   0.195  1.00  0.00     0.031 C 
ATOM     59  C   UNL     1       7.885   0.955  -1.847  1.00  0.00     0.029 A 
ATOM     60  C   UNL     1       7.577   2.132  -1.182  1.00  0.00     0.049 A 
ATOM     61  H   UNL     1       6.530   3.780  -1.909  1.00  0.00     0.167 HD
ATOM     62  C   UNL     1       7.293   3.820   0.574  1.00  0.00     0.074 A 
ATOM     63  C   UNL     1       7.032   5.002  -0.237  1.00  0.00     0.031 C 
ATOM     64  C   UNL     1       7.634   2.554   0.200  1.00  0.00     0.037 A 
BRANCH  51  65
ATOM     65  C   UNL     1       5.899   4.326  -4.594  1.00  0.00     0.057 A 
ATOM     66  C   UNL     1       4.921   5.325  -4.406  1.00  0.00     0.134 A 
ATOM     67  C   UNL     1       7.167   4.790  -4.968  1.00  0.00     0.134 A 
ATOM     68  F   UNL     1       3.707   5.071  -3.905  1.00  0.00    -0.206 F 
ATOM     69  C   UNL     1       5.171   6.680  -4.617  1.00  0.00     0.040 A 
ATOM     70  C   UNL     1       7.446   6.151  -5.125  1.00  0.00     0.040 A 
ATOM     71  F   UNL     1       8.189   3.936  -5.125  1.00  0.00    -0.206 F 
ATOM     72  C   UNL     1       6.444   7.101  -4.958  1.00  0.00     0.006 A 
ENDBRANCH  51  65
BRANCH  52  73
ATOM     73  C   UNL     1       3.891   5.841   2.889  1.00  0.00     0.057 A 
ATOM     74  C   UNL     1       2.571   6.303   2.975  1.00  0.00     0.134 A 
ATOM     75  C   UNL     1       4.859   6.678   3.494  1.00  0.00     0.134 A 
ATOM     76  F   UNL     1       1.574   5.610   2.408  1.00  0.00    -0.206 F 
ATOM     77  C   UNL     1       2.244   7.546   3.553  1.00  0.00     0.040 A 
ATOM     78  C   UNL     1       4.547   7.920   4.071  1.00  0.00     0.040 A 
ATOM     79  F   UNL     1       6.161   6.355   3.470  1.00  0.00    -0.206 F 
ATOM     80  C   UNL     1       3.235   8.371   4.079  1.00  0.00     0.006 A 
ENDBRANCH  52  73
BRANCH  64  81
ATOM     81  C   UNL     1       7.977   1.590   1.300  1.00  0.00     0.057 A 
ATOM     82  C   UNL     1       9.293   1.115   1.358  1.00  0.00     0.134 A 
ATOM     83  C   UNL     1       7.110   1.149   2.312  1.00  0.00     0.134 A 
ATOM     84  F   UNL     1      10.184   1.481   0.423  1.00  0.00    -0.206 F 
ATOM     85  C   UNL     1       9.734   0.261   2.373  1.00  0.00     0.040 A 
ATOM     86  C   UNL     1       7.546   0.318   3.353  1.00  0.00     0.040 A 
ATOM     87  F   UNL     1       5.817   1.495   2.325  1.00  0.00    -0.206 F 
ATOM     88  C   UNL     1       8.863  -0.129   3.385  1.00  0.00     0.006 A 
ENDBRANCH  64  81
ENDBRANCH  38  39
ENDBRANCH  31  33
ENDBRANCH  30  31
ENDBRANCH  29  30
ENDBRANCH  28  29
ENDBRANCH  27  28
ENDBRANCH  26  27
ENDBRANCH   1  26
TORSDOF 21
