REMARK SMILES O=C(OCCOCCOCCOC(=O)c1ccc(-c2c3nc(c(-c4c(F)cccc4F)c4ccc([nH]4)c(-c4c(F)cccc4F)c4nc(c(-c5c(F)cccc5F)c5ccc2[nH]5)C=C4)C=C3)cc1)C1=Cc2cc(Cl)cc(Cl)c2O[C@@H]1C(F)(F)F
REMARK SMILES IDX 8 1 7 2 6 3 5 4 4 5 3 6 2 7 1 8 69 9 70 10 80 11 71 12 79 13
REMARK SMILES IDX 72 14 78 15 73 16 76 17 74 18 75 19 77 20 81 21 82 22 83 23
REMARK SMILES IDX 84 24 9 25 10 26 11 27 12 28 13 29 14 30 15 31 16 32 68 33
REMARK SMILES IDX 17 34 67 35 18 36 19 37 20 38 61 39 21 40 66 41 60 42 62 43
REMARK SMILES IDX 22 44 65 45 59 46 58 47 23 49 49 50 32 51 48 52 33 53 36 54
REMARK SMILES IDX 47 55 63 56 34 57 35 58 46 60 64 61 37 62 24 63 25 64 30 65
REMARK SMILES IDX 26 66 27 67 29 68 31 69 28 70 50 71 51 72 56 73 52 74 53 75
REMARK SMILES IDX 55 76 57 77 54 78 38 79 39 80 44 81 40 82 41 83 43 84 45 85
REMARK SMILES IDX 42 86
REMARK H PARENT 62 48 36 59
REMARK Flexibility Score: inf
ROOT
ATOM      1  C   UNL     1       1.976  -1.992   2.844  1.00  0.00     0.188 C 
ENDROOT
BRANCH   1   2
ATOM      2  C   UNL     1       2.299  -1.886   1.344  1.00  0.00     0.188 C 
BRANCH   2   3
ATOM      3  O   UNL     1       3.690  -1.867   0.826  1.00  0.00    -0.376 OA
BRANCH   3   4
ATOM      4  C   UNL     1       4.406  -0.752  -0.261  1.00  0.00     0.202 C 
BRANCH   4   5
ATOM      5  C   UNL     1       3.747   1.296  -0.567  1.00  0.00     0.261 C 
BRANCH   5   6
ATOM      6  O   UNL     1       2.796   1.784  -1.651  1.00  0.00    -0.460 OA
BRANCH   6   7
ATOM      7  C   UNL     1       2.967   1.118  -2.801  1.00  0.00     0.338 C 
ATOM      8  O   UNL     1       2.260   1.125  -3.779  1.00  0.00    -0.246 OA
BRANCH   7   9
ATOM      9  C   UNL     1       3.842   0.084  -2.270  1.00  0.00     0.087 C 
ATOM     10  C   UNL     1       5.235   0.456  -2.046  1.00  0.00     0.027 C 
ATOM     11  C   UNL     1       2.597  -0.389  -0.888  1.00  0.00     0.316 C 
ATOM     12  C   UNL     1       5.929   0.832  -0.429  1.00  0.00     0.020 A 
ATOM     13  O   UNL     1       3.253   0.182   0.858  1.00  0.00    -0.474 OA
ATOM     14  C   UNL     1       7.239   1.216  -0.338  1.00  0.00     0.032 A 
ATOM     15  C   UNL     1       4.978   0.781   1.019  1.00  0.00     0.146 A 
ATOM     16  C   UNL     1       7.685   1.498   0.965  1.00  0.00     0.043 A 
ATOM     17  C   UNL     1       5.496   1.125   2.239  1.00  0.00     0.085 A 
ATOM     18  Cl  UNL     1       9.355   1.940   1.130  1.00  0.00    -0.084 Cl
ATOM     19  C   UNL     1       6.872   1.460   2.175  1.00  0.00     0.045 A 
ATOM     20  Cl  UNL     1       4.633   1.250   3.694  1.00  0.00    -0.080 Cl
BRANCH  11  21
ATOM     21  C   UNL     1       2.314  -1.916  -1.541  1.00  0.00     0.430 C 
ATOM     22  F   UNL     1       2.507  -3.027  -0.828  1.00  0.00    -0.167 F 
ATOM     23  F   UNL     1       1.047  -1.970  -2.022  1.00  0.00    -0.167 F 
ATOM     24  F   UNL     1       3.109  -2.129  -2.640  1.00  0.00    -0.167 F 
ENDBRANCH  11  21
ENDBRANCH   7   9
ENDBRANCH   6   7
ENDBRANCH   5   6
ENDBRANCH   4   5
ENDBRANCH   3   4
ENDBRANCH   2   3
ENDBRANCH   1   2
BRANCH   1  25
ATOM     25  O   UNL     1       2.916  -1.564   3.793  1.00  0.00    -0.376 OA
BRANCH  25  26
ATOM     26  C   UNL     1       4.221  -2.111   3.680  1.00  0.00     0.202 C 
BRANCH  26  27
ATOM     27  C   UNL     1       4.360  -3.638   3.672  1.00  0.00     0.261 C 
BRANCH  27  28
ATOM     28  O   UNL     1       3.898  -4.259   2.457  1.00  0.00    -0.460 OA
BRANCH  28  29
ATOM     29  C   UNL     1       2.828  -5.086   2.543  1.00  0.00     0.338 C 
ATOM     30  O   UNL     1       2.164  -5.353   3.529  1.00  0.00    -0.246 OA
BRANCH  29  31
ATOM     31  C   UNL     1       2.503  -5.566   1.188  1.00  0.00     0.060 A 
ATOM     32  C   UNL     1       1.259  -5.270   0.607  1.00  0.00     0.016 A 
ATOM     33  C   UNL     1       3.440  -6.343   0.511  1.00  0.00     0.016 A 
ATOM     34  C   UNL     1       0.966  -5.723  -0.682  1.00  0.00     0.010 A 
ATOM     35  C   UNL     1       3.127  -6.838  -0.751  1.00  0.00     0.010 A 
ATOM     36  C   UNL     1       1.886  -6.544  -1.345  1.00  0.00    -0.014 A 
BRANCH  36  37
ATOM     37  C   UNL     1       1.482  -7.344  -2.521  1.00  0.00     0.031 A 
ATOM     38  C   UNL     1       0.946  -8.719  -2.258  1.00  0.00     0.074 A 
ATOM     39  C   UNL     1       1.696  -6.917  -3.776  1.00  0.00     0.049 A 
ATOM     40  N   UNL     1       0.718  -9.700  -3.089  1.00  0.00    -0.248 NA
ATOM     41  C   UNL     1       0.660  -9.036  -0.849  1.00  0.00     0.031 C 
ATOM     42  C   UNL     1       2.188  -5.595  -4.147  1.00  0.00     0.029 A 
ATOM     43  N   UNL     1       1.562  -7.582  -4.970  1.00  0.00    -0.354 N 
ATOM     44  C   UNL     1       0.285 -10.758  -2.301  1.00  0.00     0.074 A 
ATOM     45  C   UNL     1       0.311 -10.309  -0.927  1.00  0.00     0.031 C 
ATOM     46  C   UNL     1       2.353  -5.556  -5.481  1.00  0.00     0.029 A 
ATOM     47  C   UNL     1       2.023  -6.865  -6.046  1.00  0.00     0.049 A 
ATOM     48  H   UNL     1       1.174  -8.483  -5.046  1.00  0.00     0.167 HD
ATOM     49  C   UNL     1      -0.090 -11.999  -2.689  1.00  0.00     0.037 A 
ATOM     50  C   UNL     1       2.200  -7.243  -7.328  1.00  0.00     0.037 A 
ATOM     51  C   UNL     1      -0.066 -12.443  -4.056  1.00  0.00     0.049 A 
ATOM     52  C   UNL     1       1.842  -8.649  -7.739  1.00  0.00     0.074 A 
ATOM     53  C   UNL     1      -0.446 -13.668  -4.570  1.00  0.00     0.029 A 
ATOM     54  N   UNL     1       0.395 -11.683  -5.123  1.00  0.00    -0.354 N 
ATOM     55  N   UNL     1       1.393  -9.638  -7.001  1.00  0.00    -0.248 NA
ATOM     56  C   UNL     1       2.015  -8.995  -9.157  1.00  0.00     0.031 C 
ATOM     57  C   UNL     1      -0.136 -13.680  -5.933  1.00  0.00     0.029 A 
ATOM     58  C   UNL     1       0.346 -12.428  -6.288  1.00  0.00     0.049 A 
ATOM     59  H   UNL     1       0.709 -10.752  -5.060  1.00  0.00     0.167 HD
ATOM     60  C   UNL     1       1.196 -10.708  -7.867  1.00  0.00     0.074 A 
ATOM     61  C   UNL     1       1.579 -10.248  -9.187  1.00  0.00     0.031 C 
ATOM     62  C   UNL     1       0.728 -11.952  -7.596  1.00  0.00     0.037 A 
BRANCH  49  63
ATOM     63  C   UNL     1      -0.478 -12.964  -1.605  1.00  0.00     0.057 A 
ATOM     64  C   UNL     1      -1.604 -12.767  -0.792  1.00  0.00     0.134 A 
ATOM     65  C   UNL     1       0.314 -14.089  -1.342  1.00  0.00     0.134 A 
ATOM     66  F   UNL     1      -2.400 -11.702  -0.977  1.00  0.00    -0.206 F 
ATOM     67  C   UNL     1      -1.892 -13.618   0.276  1.00  0.00     0.040 A 
ATOM     68  C   UNL     1       0.012 -14.970  -0.303  1.00  0.00     0.040 A 
ATOM     69  F   UNL     1       1.404 -14.345  -2.081  1.00  0.00    -0.206 F 
ATOM     70  C   UNL     1      -1.084 -14.726   0.521  1.00  0.00     0.006 A 
ENDBRANCH  49  63
BRANCH  50  71
ATOM     71  C   UNL     1       2.762  -6.275  -8.304  1.00  0.00     0.057 A 
ATOM     72  C   UNL     1       1.978  -5.736  -9.330  1.00  0.00     0.134 A 
ATOM     73  C   UNL     1       4.092  -5.841  -8.216  1.00  0.00     0.134 A 
ATOM     74  F   UNL     1       0.705  -6.130  -9.485  1.00  0.00    -0.206 F 
ATOM     75  C   UNL     1       2.493  -4.803 -10.233  1.00  0.00     0.040 A 
ATOM     76  C   UNL     1       4.612  -4.889  -9.094  1.00  0.00     0.040 A 
ATOM     77  F   UNL     1       4.898  -6.319  -7.257  1.00  0.00    -0.206 F 
ATOM     78  C   UNL     1       3.811  -4.368 -10.108  1.00  0.00     0.006 A 
ENDBRANCH  50  71
BRANCH  62  79
ATOM     79  C   UNL     1       0.539 -12.900  -8.749  1.00  0.00     0.057 A 
ATOM     80  C   UNL     1       1.615 -13.484  -9.427  1.00  0.00     0.134 A 
ATOM     81  C   UNL     1      -0.753 -13.303  -9.120  1.00  0.00     0.134 A 
ATOM     82  F   UNL     1       2.877 -13.140  -9.128  1.00  0.00    -0.206 F 
ATOM     83  C   UNL     1       1.414 -14.423 -10.441  1.00  0.00     0.040 A 
ATOM     84  C   UNL     1      -0.965 -14.265 -10.107  1.00  0.00     0.040 A 
ATOM     85  F   UNL     1      -1.829 -12.793  -8.502  1.00  0.00    -0.206 F 
ATOM     86  C   UNL     1       0.121 -14.826 -10.774  1.00  0.00     0.006 A 
ENDBRANCH  62  79
ENDBRANCH  36  37
ENDBRANCH  29  31
ENDBRANCH  28  29
ENDBRANCH  27  28
ENDBRANCH  26  27
ENDBRANCH  25  26
ENDBRANCH   1  25
TORSDOF 18
