REMARK SMILES CCC(CC)(NC(=O)N[C@@H](C)[C@@H]1CCCO1)C(=O)OCCOCCOCCOC(=O)c1ccc(-c2c3nc(c(-c4c(F)cccc4F)c4ccc([nH]4)c(-c4c(F)cccc4F)c4nc(c(-c5c(F)cccc5F)c5ccc2[nH]5)C=C4)C=C3)cc1
REMARK SMILES IDX 23 1 22 2 21 3 20 4 19 5 17 6 18 7 3 8 2 9 1 10 4 11 5 12
REMARK SMILES IDX 6 13 7 14 8 16 9 17 10 19 11 20 12 21 13 22 16 23 14 24
REMARK SMILES IDX 15 25 24 26 25 27 26 28 27 29 28 30 29 31 30 32 31 33 32 34
REMARK SMILES IDX 84 35 33 36 83 37 34 38 35 39 36 40 77 41 37 42 82 43 76 44
REMARK SMILES IDX 78 45 38 46 81 47 75 48 74 49 39 51 65 52 48 53 64 54 49 55
REMARK SMILES IDX 52 56 63 57 79 58 50 59 51 60 62 62 80 63 53 64 40 65 41 66
REMARK SMILES IDX 46 67 42 68 43 69 45 70 47 71 44 72 66 73 67 74 72 75 68 76
REMARK SMILES IDX 69 77 71 78 73 79 70 80 54 81 55 82 60 83 56 84 57 85 59 86
REMARK SMILES IDX 61 87 58 88
REMARK H PARENT 6 15 9 18 78 50 52 61
REMARK Flexibility Score: inf
ROOT
ATOM      1  C   UNL     1       4.698  -2.335   4.432  1.00  0.00     0.188 C 
ENDROOT
BRANCH   1   2
ATOM      2  O   UNL     1       5.063  -0.922   4.560  1.00  0.00    -0.376 OA
BRANCH   2   3
ATOM      3  C   UNL     1       5.743  -0.091   3.527  1.00  0.00     0.202 C 
BRANCH   3   4
ATOM      4  C   UNL     1       5.096   1.208   2.450  1.00  0.00     0.261 C 
BRANCH   4   5
ATOM      5  O   UNL     1       3.537   1.622   2.293  1.00  0.00    -0.461 OA
BRANCH   5   6
ATOM      6  C   UNL     1       2.626   1.563   1.198  1.00  0.00     0.331 C 
ATOM      7  O   UNL     1       3.014   1.849   0.068  1.00  0.00    -0.249 OA
BRANCH   6   8
ATOM      8  C   UNL     1       0.905   1.091   1.527  1.00  0.00     0.139 C 
BRANCH   8   9
ATOM      9  C   UNL     1       0.185   0.474   0.256  1.00  0.00     0.037 C 
ATOM     10  C   UNL     1       0.445   0.960  -1.143  1.00  0.00     0.007 C 
ENDBRANCH   8   9
BRANCH   8  11
ATOM     11  C   UNL     1       0.250   2.453   1.922  1.00  0.00     0.037 C 
ATOM     12  C   UNL     1      -1.239   2.419   2.304  1.00  0.00     0.007 C 
ENDBRANCH   8  11
BRANCH   8  13
ATOM     13  N   UNL     1       0.239   0.069   2.549  1.00  0.00    -0.322 N 
ATOM     14  C   UNL     1       0.439  -0.703   3.621  1.00  0.00     0.316 C 
ATOM     15  H   UNL     1      -0.703  -0.037   2.284  1.00  0.00     0.166 HD
ATOM     16  O   UNL     1      -0.522  -1.118   4.262  1.00  0.00    -0.249 OA
ATOM     17  N   UNL     1       1.667  -1.053   3.989  1.00  0.00    -0.333 N 
ATOM     18  H   UNL     1       1.792  -1.797   4.622  1.00  0.00     0.165 HD
BRANCH  17  19
ATOM     19  C   UNL     1       2.797  -0.368   3.482  1.00  0.00     0.109 C 
ATOM     20  C   UNL     1       3.235   0.657   4.671  1.00  0.00     0.034 C 
BRANCH  19  21
ATOM     21  C   UNL     1       3.523  -1.054   1.999  1.00  0.00     0.140 C 
ATOM     22  C   UNL     1       2.702  -1.708   0.898  1.00  0.00     0.036 C 
ATOM     23  O   UNL     1       4.772  -1.798   1.982  1.00  0.00    -0.376 OA
ATOM     24  C   UNL     1       3.787  -2.238  -0.030  1.00  0.00     0.031 C 
ATOM     25  C   UNL     1       4.777  -2.770   0.945  1.00  0.00     0.160 C 
ENDBRANCH  19  21
ENDBRANCH  17  19
ENDBRANCH   8  13
ENDBRANCH   6   8
ENDBRANCH   5   6
ENDBRANCH   4   5
ENDBRANCH   3   4
ENDBRANCH   2   3
ENDBRANCH   1   2
BRANCH   1  26
ATOM     26  C   UNL     1       3.708  -2.932   5.490  1.00  0.00     0.188 C 
BRANCH  26  27
ATOM     27  O   UNL     1       4.214  -3.632   6.608  1.00  0.00    -0.376 OA
BRANCH  27  28
ATOM     28  C   UNL     1       5.329  -4.462   6.359  1.00  0.00     0.202 C 
BRANCH  28  29
ATOM     29  C   UNL     1       5.104  -5.721   5.504  1.00  0.00     0.261 C 
BRANCH  29  30
ATOM     30  O   UNL     1       4.599  -5.505   4.164  1.00  0.00    -0.460 OA
BRANCH  30  31
ATOM     31  C   UNL     1       3.377  -6.035   3.897  1.00  0.00     0.338 C 
ATOM     32  O   UNL     1       2.602  -6.539   4.707  1.00  0.00    -0.246 OA
BRANCH  31  33
ATOM     33  C   UNL     1       3.049  -5.960   2.455  1.00  0.00     0.060 A 
ATOM     34  C   UNL     1       1.854  -5.356   2.035  1.00  0.00     0.016 A 
ATOM     35  C   UNL     1       3.841  -6.638   1.526  1.00  0.00     0.016 A 
ATOM     36  C   UNL     1       1.434  -5.453   0.694  1.00  0.00     0.010 A 
ATOM     37  C   UNL     1       3.419  -6.739   0.193  1.00  0.00     0.010 A 
ATOM     38  C   UNL     1       2.194  -6.183  -0.231  1.00  0.00    -0.014 A 
BRANCH  38  39
ATOM     39  C   UNL     1       1.657  -6.623  -1.557  1.00  0.00     0.031 A 
ATOM     40  C   UNL     1       1.112  -8.020  -1.660  1.00  0.00     0.074 A 
ATOM     41  C   UNL     1       1.757  -5.888  -2.680  1.00  0.00     0.049 A 
ATOM     42  N   UNL     1       0.860  -8.740  -2.722  1.00  0.00    -0.248 NA
ATOM     43  C   UNL     1       0.827  -8.694  -0.385  1.00  0.00     0.031 C 
ATOM     44  C   UNL     1       2.163  -4.496  -2.740  1.00  0.00     0.029 A 
ATOM     45  N   UNL     1       1.577  -6.233  -4.001  1.00  0.00    -0.354 N 
ATOM     46  C   UNL     1       0.411  -9.964  -2.243  1.00  0.00     0.074 A 
ATOM     47  C   UNL     1       0.449  -9.893  -0.797  1.00  0.00     0.031 C 
ATOM     48  C   UNL     1       2.318  -4.125  -4.021  1.00  0.00     0.029 A 
ATOM     49  C   UNL     1       2.010  -5.265  -4.880  1.00  0.00     0.049 A 
ATOM     50  H   UNL     1       1.179  -7.086  -4.288  1.00  0.00     0.167 HD
ATOM     51  C   UNL     1       0.005 -11.049  -2.943  1.00  0.00     0.037 A 
ATOM     52  C   UNL     1       2.171  -5.298  -6.218  1.00  0.00     0.037 A 
ATOM     53  C   UNL     1      -0.031 -11.123  -4.378  1.00  0.00     0.049 A 
ATOM     54  C   UNL     1       1.797  -6.539  -6.982  1.00  0.00     0.074 A 
ATOM     55  C   UNL     1      -0.464 -12.168  -5.176  1.00  0.00     0.029 A 
ATOM     56  N   UNL     1       0.397 -10.118  -5.232  1.00  0.00    -0.354 N 
ATOM     57  N   UNL     1       1.345  -7.681  -6.526  1.00  0.00    -0.248 NA
ATOM     58  C   UNL     1       1.942  -6.495  -8.445  1.00  0.00     0.031 C 
ATOM     59  C   UNL     1      -0.243 -11.818  -6.512  1.00  0.00     0.029 A 
ATOM     60  C   UNL     1       0.270 -10.531  -6.548  1.00  0.00     0.049 A 
ATOM     61  H   UNL     1       0.740  -9.241  -4.946  1.00  0.00     0.167 HD
ATOM     62  C   UNL     1       1.113  -8.475  -7.643  1.00  0.00     0.074 A 
ATOM     63  C   UNL     1       1.482  -7.688  -8.800  1.00  0.00     0.031 C 
ATOM     64  C   UNL     1       0.626  -9.739  -7.699  1.00  0.00     0.037 A 
BRANCH  51  65
ATOM     65  C   UNL     1      -0.385 -12.260  -2.149  1.00  0.00     0.057 A 
ATOM     66  C   UNL     1      -1.546 -12.295  -1.365  1.00  0.00     0.134 A 
ATOM     67  C   UNL     1       0.426 -13.403  -2.156  1.00  0.00     0.134 A 
ATOM     68  F   UNL     1      -2.356 -11.228  -1.302  1.00  0.00    -0.206 F 
ATOM     69  C   UNL     1      -1.865 -13.407  -0.585  1.00  0.00     0.040 A 
ATOM     70  C   UNL     1       0.101 -14.532  -1.405  1.00  0.00     0.040 A 
ATOM     71  F   UNL     1       1.549 -13.437  -2.889  1.00  0.00    -0.206 F 
ATOM     72  C   UNL     1      -1.041 -14.531  -0.606  1.00  0.00     0.006 A 
ENDBRANCH  51  65
BRANCH  52  73
ATOM     73  C   UNL     1       2.732  -4.117  -6.925  1.00  0.00     0.057 A 
ATOM     74  C   UNL     1       1.933  -3.310  -7.743  1.00  0.00     0.134 A 
ATOM     75  C   UNL     1       4.084  -3.771  -6.804  1.00  0.00     0.134 A 
ATOM     76  F   UNL     1       0.637  -3.603  -7.919  1.00  0.00    -0.206 F 
ATOM     77  C   UNL     1       2.459  -2.209  -8.423  1.00  0.00     0.040 A 
ATOM     78  C   UNL     1       4.619  -2.661  -7.461  1.00  0.00     0.040 A 
ATOM     79  F   UNL     1       4.904  -4.504  -6.036  1.00  0.00    -0.206 F 
ATOM     80  C   UNL     1       3.805  -1.879  -8.278  1.00  0.00     0.006 A 
ENDBRANCH  52  73
BRANCH  64  81
ATOM     81  C   UNL     1       0.410 -10.349  -9.053  1.00  0.00     0.057 A 
ATOM     82  C   UNL     1       1.472 -10.796  -9.847  1.00  0.00     0.134 A 
ATOM     83  C   UNL     1      -0.890 -10.570  -9.529  1.00  0.00     0.134 A 
ATOM     84  F   UNL     1       2.741 -10.605  -9.456  1.00  0.00    -0.206 F 
ATOM     85  C   UNL     1       1.250 -11.438 -11.068  1.00  0.00     0.040 A 
ATOM     86  C   UNL     1      -1.125 -11.232 -10.735  1.00  0.00     0.040 A 
ATOM     87  F   UNL     1      -1.954 -10.172  -8.814  1.00  0.00    -0.206 F 
ATOM     88  C   UNL     1      -0.052 -11.668 -11.508  1.00  0.00     0.006 A 
ENDBRANCH  64  81
ENDBRANCH  38  39
ENDBRANCH  31  33
ENDBRANCH  30  31
ENDBRANCH  29  30
ENDBRANCH  28  29
ENDBRANCH  27  28
ENDBRANCH  26  27
ENDBRANCH   1  26
TORSDOF 22
