REMARK SMILES CC[C@](C)([NH3+])C(=O)N1CC[NH+]([C@H](C)C(=O)OCCOCCOCCOC(=O)c2ccc(-c3c4nc(c(-c5c(F)cccc5F)c5ccc([nH]5)c(-c5c(F)cccc5F)c5nc(c(-c6c(F)cccc6F)c6ccc3[nH]6)C=C5)C=C4)cc2)CC1
REMARK SMILES IDX 20 1 19 2 18 3 17 4 16 5 14 6 15 7 12 8 13 9 11 10 6 11 7 12
REMARK SMILES IDX 8 13 9 14 83 15 10 16 82 17 3 19 4 20 2 21 1 22 5 23 21 27
REMARK SMILES IDX 22 28 23 29 24 30 25 31 26 32 27 33 28 34 29 35 81 36 30 37
REMARK SMILES IDX 80 38 31 39 32 40 33 41 74 42 34 43 79 44 73 45 75 46 35 47
REMARK SMILES IDX 78 48 72 49 71 50 36 52 62 53 45 54 61 55 46 56 49 57 60 58
REMARK SMILES IDX 76 59 47 60 48 61 59 63 77 64 50 65 37 66 38 67 43 68 39 69
REMARK SMILES IDX 40 70 42 71 44 72 41 73 63 74 64 75 69 76 65 77 66 78 68 79
REMARK SMILES IDX 70 80 67 81 51 82 52 83 57 84 53 85 54 86 56 87 58 88 55 89
REMARK H PARENT 11 18 5 24 5 25 5 26 75 51 49 62
REMARK Flexibility Score: inf
ROOT
ATOM      1  C   UNL     1       6.685  -7.797  -3.996  1.00  0.00     0.188 C 
ENDROOT
BRANCH   1   2
ATOM      2  O   UNL     1       8.011  -7.864  -3.492  1.00  0.00    -0.376 OA
BRANCH   2   3
ATOM      3  C   UNL     1       8.458  -6.899  -2.546  1.00  0.00     0.202 C 
BRANCH   3   4
ATOM      4  C   UNL     1       8.339  -5.402  -2.881  1.00  0.00     0.261 C 
BRANCH   4   5
ATOM      5  O   UNL     1       7.006  -4.902  -3.122  1.00  0.00    -0.459 OA
BRANCH   5   6
ATOM      6  C   UNL     1       6.721  -4.517  -4.399  1.00  0.00     0.364 C 
ATOM      7  O   UNL     1       7.507  -4.623  -5.337  1.00  0.00    -0.245 OA
BRANCH   6   8
ATOM      8  C   UNL     1       5.318  -3.861  -4.561  1.00  0.00     0.292 C 
ATOM      9  C   UNL     1       4.191  -4.313  -3.616  1.00  0.00     0.088 C 
BRANCH   8  10
ATOM     10  N   UNL     1       5.507  -2.398  -4.585  1.00  0.00    -0.321 N 
ATOM     11  C   UNL     1       3.985   0.919  -2.961  1.00  0.00     0.283 C 
ATOM     12  O   UNL     1       4.468   1.384  -1.916  1.00  0.00    -0.268 OA
ATOM     13  N   UNL     1       4.827   0.275  -3.852  1.00  0.00    -0.326 N 
ATOM     14  C   UNL     1       6.050  -0.318  -3.313  1.00  0.00     0.181 C 
ATOM     15  C   UNL     1       4.581  -0.171  -5.223  1.00  0.00     0.181 C 
ATOM     16  C   UNL     1       5.844  -1.842  -3.254  1.00  0.00     0.284 C 
ATOM     17  C   UNL     1       4.385  -1.694  -5.244  1.00  0.00     0.284 C 
ATOM     18  H   UNL     1       6.325  -2.223  -5.168  1.00  0.00     0.348 HD
BRANCH  11  19
ATOM     19  C   UNL     1       2.418   0.878  -3.092  1.00  0.00     0.171 C 
ATOM     20  C   UNL     1       1.862   2.120  -2.372  1.00  0.00     0.090 C 
BRANCH  19  21
ATOM     21  C   UNL     1       1.913  -0.466  -2.487  1.00  0.00     0.075 C 
ATOM     22  C   UNL     1       1.573  -0.449  -1.001  1.00  0.00     0.011 C 
ENDBRANCH  19  21
BRANCH  19  23
ATOM     23  N   UNL     1       1.932   0.960  -4.489  1.00  0.00    -0.345 N 
ATOM     24  H   UNL     1       2.251   1.833  -4.909  1.00  0.00     0.345 HD
ATOM     25  H   UNL     1       0.913   0.931  -4.498  1.00  0.00     0.345 HD
ATOM     26  H   UNL     1       2.299   0.172  -5.024  1.00  0.00     0.345 HD
ENDBRANCH  19  23
ENDBRANCH  11  19
ENDBRANCH   8  10
ENDBRANCH   6   8
ENDBRANCH   5   6
ENDBRANCH   4   5
ENDBRANCH   3   4
ENDBRANCH   2   3
ENDBRANCH   1   2
BRANCH   1  27
ATOM     27  C   UNL     1       5.548  -7.373  -3.059  1.00  0.00     0.188 C 
BRANCH  27  28
ATOM     28  O   UNL     1       5.907  -7.232  -1.708  1.00  0.00    -0.376 OA
BRANCH  28  29
ATOM     29  C   UNL     1       5.346  -8.117  -0.760  1.00  0.00     0.202 C 
BRANCH  29  30
ATOM     30  C   UNL     1       5.359  -9.632  -1.027  1.00  0.00     0.261 C 
BRANCH  30  31
ATOM     31  O   UNL     1       5.098 -10.065  -2.373  1.00  0.00    -0.460 OA
BRANCH  31  32
ATOM     32  C   UNL     1       3.817 -10.044  -2.809  1.00  0.00     0.338 C 
ATOM     33  O   UNL     1       2.831  -9.696  -2.180  1.00  0.00    -0.246 OA
BRANCH  32  34
ATOM     34  C   UNL     1       3.851 -10.275  -4.274  1.00  0.00     0.060 A 
ATOM     35  C   UNL     1       3.368  -9.284  -5.144  1.00  0.00     0.016 A 
ATOM     36  C   UNL     1       4.410 -11.446  -4.788  1.00  0.00     0.016 A 
ATOM     37  C   UNL     1       3.434  -9.466  -6.529  1.00  0.00     0.010 A 
ATOM     38  C   UNL     1       4.448 -11.640  -6.171  1.00  0.00     0.010 A 
ATOM     39  C   UNL     1       3.942 -10.663  -7.049  1.00  0.00    -0.014 A 
BRANCH  39  40
ATOM     40  C   UNL     1       3.779 -11.007  -8.483  1.00  0.00     0.031 A 
ATOM     41  C   UNL     1       2.642 -11.913  -8.865  1.00  0.00     0.074 A 
ATOM     42  C   UNL     1       4.641 -10.581  -9.422  1.00  0.00     0.049 A 
ATOM     43  N   UNL     1       2.394 -12.509 -10.002  1.00  0.00    -0.248 NA
ATOM     44  C   UNL     1       1.656 -12.194  -7.808  1.00  0.00     0.031 C 
ATOM     45  C   UNL     1       5.753  -9.660  -9.200  1.00  0.00     0.029 A 
ATOM     46  N   UNL     1       4.729 -10.902 -10.756  1.00  0.00    -0.354 N 
ATOM     47  C   UNL     1       1.241 -13.254  -9.792  1.00  0.00     0.074 A 
ATOM     48  C   UNL     1       0.848 -13.050  -8.414  1.00  0.00     0.031 C 
ATOM     49  C   UNL     1       6.433  -9.514 -10.352  1.00  0.00     0.029 A 
ATOM     50  C   UNL     1       5.833 -10.368 -11.377  1.00  0.00     0.049 A 
ATOM     51  H   UNL     1       4.065 -11.460 -11.222  1.00  0.00     0.167 HD
ATOM     52  C   UNL     1       0.572 -14.041 -10.666  1.00  0.00     0.037 A 
ATOM     53  C   UNL     1       6.324 -10.581 -12.615  1.00  0.00     0.037 A 
ATOM     54  C   UNL     1       0.968 -14.247 -12.034  1.00  0.00     0.049 A 
ATOM     55  C   UNL     1       5.612 -11.529 -13.548  1.00  0.00     0.074 A 
ATOM     56  C   UNL     1       0.344 -15.011 -13.005  1.00  0.00     0.029 A 
ATOM     57  N   UNL     1       2.097 -13.697 -12.621  1.00  0.00    -0.354 N 
ATOM     58  N   UNL     1       4.514 -12.220 -13.350  1.00  0.00    -0.248 NA
ATOM     59  C   UNL     1       6.209 -11.731 -14.877  1.00  0.00     0.031 C 
ATOM     60  C   UNL     1       1.129 -14.972 -14.161  1.00  0.00     0.029 A 
ATOM     61  C   UNL     1       2.204 -14.128 -13.932  1.00  0.00     0.049 A 
ATOM     62  H   UNL     1       2.729 -13.090 -12.172  1.00  0.00     0.167 HD
ATOM     63  C   UNL     1       4.271 -12.903 -14.537  1.00  0.00     0.074 A 
ATOM     64  C   UNL     1       5.333 -12.543 -15.452  1.00  0.00     0.031 C 
ATOM     65  C   UNL     1       3.255 -13.747 -14.842  1.00  0.00     0.037 A 
BRANCH  52  66
ATOM     66  C   UNL     1      -0.636 -14.771 -10.156  1.00  0.00     0.057 A 
ATOM     67  C   UNL     1      -1.824 -14.106  -9.826  1.00  0.00     0.134 A 
ATOM     68  C   UNL     1      -0.616 -16.165 -10.018  1.00  0.00     0.134 A 
ATOM     69  F   UNL     1      -1.905 -12.770  -9.919  1.00  0.00    -0.206 F 
ATOM     70  C   UNL     1      -2.940 -14.799  -9.354  1.00  0.00     0.040 A 
ATOM     71  C   UNL     1      -1.735 -16.871  -9.577  1.00  0.00     0.040 A 
ATOM     72  F   UNL     1       0.489 -16.864 -10.319  1.00  0.00    -0.206 F 
ATOM     73  C   UNL     1      -2.900 -16.187  -9.236  1.00  0.00     0.006 A 
ENDBRANCH  52  66
BRANCH  53  74
ATOM     74  C   UNL     1       7.578  -9.909 -13.046  1.00  0.00     0.057 A 
ATOM     75  C   UNL     1       7.571  -8.938 -14.055  1.00  0.00     0.134 A 
ATOM     76  C   UNL     1       8.817 -10.240 -12.482  1.00  0.00     0.134 A 
ATOM     77  F   UNL     1       6.421  -8.598 -14.655  1.00  0.00    -0.206 F 
ATOM     78  C   UNL     1       8.749  -8.336 -14.500  1.00  0.00     0.040 A 
ATOM     79  C   UNL     1       9.999  -9.625 -12.897  1.00  0.00     0.040 A 
ATOM     80  F   UNL     1       8.895 -11.166 -11.515  1.00  0.00    -0.206 F 
ATOM     81  C   UNL     1       9.968  -8.675 -13.916  1.00  0.00     0.006 A 
ENDBRANCH  53  74
BRANCH  65  82
ATOM     82  C   UNL     1       3.194 -14.298 -16.239  1.00  0.00     0.057 A 
ATOM     83  C   UNL     1       4.091 -15.270 -16.700  1.00  0.00     0.134 A 
ATOM     84  C   UNL     1       2.173 -13.897 -17.113  1.00  0.00     0.134 A 
ATOM     85  F   UNL     1       5.097 -15.691 -15.919  1.00  0.00    -0.206 F 
ATOM     86  C   UNL     1       3.984 -15.812 -17.983  1.00  0.00     0.040 A 
ATOM     87  C   UNL     1       2.038 -14.453 -18.386  1.00  0.00     0.040 A 
ATOM     88  F   UNL     1       1.273 -12.978 -16.732  1.00  0.00    -0.206 F 
ATOM     89  C   UNL     1       2.949 -15.410 -18.826  1.00  0.00     0.006 A 
ENDBRANCH  65  82
ENDBRANCH  39  40
ENDBRANCH  32  34
ENDBRANCH  31  32
ENDBRANCH  30  31
ENDBRANCH  29  30
ENDBRANCH  28  29
ENDBRANCH  27  28
ENDBRANCH   1  27
TORSDOF 21
