REMARK SMILES O=C(OCCOCCOCCOC(=O)c1sccc1S(=O)(=O)N1CCO[C@@H]2CCCC[C@@H]21)c1ccc(-c2c3nc(c(-c4c(F)cccc4F)c4ccc([nH]4)c(-c4c(F)cccc4F)c4nc(c(-c5c(F)cccc5F)c5ccc2[nH]5)C=C4)C=C3)cc1
REMARK SMILES IDX 7 1 6 2 5 3 4 4 3 5 2 6 1 7 33 8 34 9 86 10 35 11 85 12
REMARK SMILES IDX 36 13 37 14 38 15 79 16 39 17 84 18 78 19 80 20 40 21 83 22
REMARK SMILES IDX 77 23 76 24 41 26 67 27 50 28 66 29 51 30 54 31 65 32 81 33
REMARK SMILES IDX 52 34 53 35 64 37 82 38 55 39 42 40 43 41 48 42 44 43 45 44
REMARK SMILES IDX 47 45 49 46 46 47 68 48 69 49 74 50 70 51 71 52 73 53 75 54
REMARK SMILES IDX 72 55 56 56 57 57 62 58 58 59 59 60 61 61 63 62 60 63 8 64
REMARK SMILES IDX 9 65 10 66 11 67 12 68 13 69 14 70 15 71 16 72 19 73 17 74
REMARK SMILES IDX 18 75 20 76 21 77 22 78 23 79 24 80 32 81 25 82 27 83 31 84
REMARK SMILES IDX 26 85 28 86 30 87 29 88
REMARK H PARENT 80 25 54 36
REMARK Flexibility Score: inf
ROOT
ATOM      1  C   UNL     1       1.904  -1.019   0.421  1.00  0.00     0.188 C 
ENDROOT
BRANCH   1   2
ATOM      2  O   UNL     1       3.324  -0.885   0.479  1.00  0.00    -0.376 OA
BRANCH   2   3
ATOM      3  C   UNL     1       3.797  -0.159   1.618  1.00  0.00     0.202 C 
BRANCH   3   4
ATOM      4  C   UNL     1       3.893   1.358   1.393  1.00  0.00     0.261 C 
BRANCH   4   5
ATOM      5  O   UNL     1       2.650   1.930   0.946  1.00  0.00    -0.460 OA
BRANCH   5   6
ATOM      6  C   UNL     1       2.142   2.056  -0.302  1.00  0.00     0.338 C 
ATOM      7  O   UNL     1       0.984   2.462  -0.408  1.00  0.00    -0.246 OA
BRANCH   6   8
ATOM      8  C   UNL     1       2.883   1.756  -1.572  1.00  0.00     0.060 A 
ATOM      9  C   UNL     1       4.076   1.043  -1.684  1.00  0.00     0.016 A 
ATOM     10  C   UNL     1       2.298   2.230  -2.765  1.00  0.00     0.016 A 
ATOM     11  C   UNL     1       4.711   0.879  -2.912  1.00  0.00     0.010 A 
ATOM     12  C   UNL     1       2.913   2.041  -4.008  1.00  0.00     0.010 A 
ATOM     13  C   UNL     1       4.145   1.390  -4.074  1.00  0.00    -0.014 A 
BRANCH  13  14
ATOM     14  C   UNL     1       4.969   1.404  -5.295  1.00  0.00     0.031 A 
ATOM     15  C   UNL     1       5.729   2.653  -5.607  1.00  0.00     0.074 A 
ATOM     16  C   UNL     1       5.150   0.291  -6.025  1.00  0.00     0.049 A 
ATOM     17  N   UNL     1       6.477   2.932  -6.638  1.00  0.00    -0.248 NA
ATOM     18  C   UNL     1       5.656   3.723  -4.598  1.00  0.00     0.031 C 
ATOM     19  C   UNL     1       4.602  -1.021  -5.698  1.00  0.00     0.029 A 
ATOM     20  N   UNL     1       5.861   0.084  -7.177  1.00  0.00    -0.354 N 
ATOM     21  C   UNL     1       6.947   4.217  -6.415  1.00  0.00     0.074 A 
ATOM     22  C   UNL     1       6.402   4.663  -5.152  1.00  0.00     0.031 C 
ATOM     23  C   UNL     1       4.986  -1.898  -6.640  1.00  0.00     0.029 A 
ATOM     24  C   UNL     1       5.740  -1.193  -7.668  1.00  0.00     0.049 A 
ATOM     25  H   UNL     1       6.405   0.780  -7.610  1.00  0.00     0.167 HD
ATOM     26  C   UNL     1       7.750   4.960  -7.209  1.00  0.00     0.037 A 
ATOM     27  C   UNL     1       6.149  -1.715  -8.839  1.00  0.00     0.037 A 
ATOM     28  C   UNL     1       8.253   4.502  -8.474  1.00  0.00     0.049 A 
ATOM     29  C   UNL     1       6.912  -0.825  -9.782  1.00  0.00     0.074 A 
ATOM     30  C   UNL     1       9.012   5.188  -9.402  1.00  0.00     0.029 A 
ATOM     31  N   UNL     1       8.028   3.233  -8.994  1.00  0.00    -0.354 N 
ATOM     32  N   UNL     1       7.300   0.417  -9.607  1.00  0.00    -0.248 NA
ATOM     33  C   UNL     1       7.288  -1.395 -11.081  1.00  0.00     0.031 C 
ATOM     34  C   UNL     1       9.194   4.354 -10.511  1.00  0.00     0.029 A 
ATOM     35  C   UNL     1       8.607   3.126 -10.246  1.00  0.00     0.049 A 
ATOM     36  H   UNL     1       7.530   2.517  -8.539  1.00  0.00     0.167 HD
ATOM     37  C   UNL     1       7.988   0.769 -10.760  1.00  0.00     0.074 A 
ATOM     38  C   UNL     1       7.974  -0.398 -11.621  1.00  0.00     0.031 C 
ATOM     39  C   UNL     1       8.579   1.947 -11.078  1.00  0.00     0.037 A 
BRANCH  26  40
ATOM     40  C   UNL     1       8.017   6.365  -6.761  1.00  0.00     0.057 A 
ATOM     41  C   UNL     1       8.821   6.661  -5.652  1.00  0.00     0.134 A 
ATOM     42  C   UNL     1       7.392   7.436  -7.411  1.00  0.00     0.134 A 
ATOM     43  F   UNL     1       9.419   5.678  -4.963  1.00  0.00    -0.206 F 
ATOM     44  C   UNL     1       8.960   7.969  -5.183  1.00  0.00     0.040 A 
ATOM     45  C   UNL     1       7.547   8.750  -6.969  1.00  0.00     0.040 A 
ATOM     46  F   UNL     1       6.600   7.220  -8.472  1.00  0.00    -0.206 F 
ATOM     47  C   UNL     1       8.322   9.018  -5.843  1.00  0.00     0.006 A 
ENDBRANCH  26  40
BRANCH  27  48
ATOM     48  C   UNL     1       5.785  -3.109  -9.212  1.00  0.00     0.057 A 
ATOM     49  C   UNL     1       6.756  -4.100  -9.393  1.00  0.00     0.134 A 
ATOM     50  C   UNL     1       4.448  -3.478  -9.425  1.00  0.00     0.134 A 
ATOM     51  F   UNL     1       8.055  -3.811  -9.227  1.00  0.00    -0.206 F 
ATOM     52  C   UNL     1       6.416  -5.396  -9.793  1.00  0.00     0.040 A 
ATOM     53  C   UNL     1       4.092  -4.775  -9.798  1.00  0.00     0.040 A 
ATOM     54  F   UNL     1       3.463  -2.581  -9.267  1.00  0.00    -0.206 F 
ATOM     55  C   UNL     1       5.079  -5.737  -9.992  1.00  0.00     0.006 A 
ENDBRANCH  27  48
BRANCH  39  56
ATOM     56  C   UNL     1       9.291   2.020 -12.396  1.00  0.00     0.057 A 
ATOM     57  C   UNL     1       8.599   2.061 -13.612  1.00  0.00     0.134 A 
ATOM     58  C   UNL     1      10.688   2.113 -12.439  1.00  0.00     0.134 A 
ATOM     59  F   UNL     1       7.262   1.963 -13.638  1.00  0.00    -0.206 F 
ATOM     60  C   UNL     1       9.274   2.175 -14.828  1.00  0.00     0.040 A 
ATOM     61  C   UNL     1      11.372   2.258 -13.646  1.00  0.00     0.040 A 
ATOM     62  F   UNL     1      11.409   2.088 -11.308  1.00  0.00    -0.206 F 
ATOM     63  C   UNL     1      10.664   2.285 -14.845  1.00  0.00     0.006 A 
ENDBRANCH  39  56
ENDBRANCH  13  14
ENDBRANCH   6   8
ENDBRANCH   5   6
ENDBRANCH   4   5
ENDBRANCH   3   4
ENDBRANCH   2   3
ENDBRANCH   1   2
BRANCH   1  64
ATOM     64  C   UNL     1       1.290  -2.248   1.100  1.00  0.00     0.188 C 
BRANCH  64  65
ATOM     65  O   UNL     1       2.061  -2.880   2.109  1.00  0.00    -0.376 OA
BRANCH  65  66
ATOM     66  C   UNL     1       3.242  -3.547   1.670  1.00  0.00     0.202 C 
BRANCH  66  67
ATOM     67  C   UNL     1       3.085  -4.494   0.482  1.00  0.00     0.261 C 
BRANCH  67  68
ATOM     68  O   UNL     1       2.908  -3.835  -0.793  1.00  0.00    -0.459 OA
BRANCH  68  69
ATOM     69  C   UNL     1       2.076  -4.494  -1.656  1.00  0.00     0.349 C 
ATOM     70  O   UNL     1       1.420  -5.486  -1.370  1.00  0.00    -0.245 OA
BRANCH  69  71
ATOM     71  C   UNL     1       2.092  -3.905  -2.971  1.00  0.00     0.132 A 
ATOM     72  S   UNL     1       1.035  -2.605  -3.322  1.00  0.00    -0.136 S 
ATOM     73  C   UNL     1       2.738  -4.348  -4.108  1.00  0.00     0.108 A 
ATOM     74  C   UNL     1       1.346  -2.714  -5.002  1.00  0.00     0.067 A 
ATOM     75  C   UNL     1       2.262  -3.700  -5.290  1.00  0.00     0.034 A 
BRANCH  73  76
ATOM     76  S   UNL     1       3.937  -5.603  -4.140  1.00  0.00     0.245 S 
ATOM     77  O   UNL     1       3.131  -6.803  -4.241  1.00  0.00    -0.207 OA
ATOM     78  O   UNL     1       4.833  -5.199  -5.196  1.00  0.00    -0.207 OA
BRANCH  76  79
ATOM     79  N   UNL     1       4.780  -5.598  -2.664  1.00  0.00    -0.190 NA
ATOM     80  C   UNL     1       4.570  -6.801  -1.819  1.00  0.00     0.131 C 
ATOM     81  C   UNL     1       6.081  -4.848  -2.567  1.00  0.00     0.102 C 
ATOM     82  C   UNL     1       5.568  -6.978  -0.685  1.00  0.00     0.177 C 
ATOM     83  C   UNL     1       6.894  -5.138  -1.275  1.00  0.00     0.136 C 
ATOM     84  C   UNL     1       5.908  -3.346  -2.872  1.00  0.00     0.023 C 
ATOM     85  O   UNL     1       6.108  -5.739  -0.239  1.00  0.00    -0.375 OA
ATOM     86  C   UNL     1       7.577  -3.912  -0.670  1.00  0.00     0.034 C 
ATOM     87  C   UNL     1       5.900  -2.352  -1.715  1.00  0.00     0.002 C 
ATOM     88  C   UNL     1       6.594  -2.782  -0.440  1.00  0.00     0.003 C 
ENDBRANCH  76  79
ENDBRANCH  73  76
ENDBRANCH  69  71
ENDBRANCH  68  69
ENDBRANCH  67  68
ENDBRANCH  66  67
ENDBRANCH  65  66
ENDBRANCH  64  65
ENDBRANCH   1  64
TORSDOF 19
