REMARK SMILES O=C(OCCOCCOCCOC(=O)[C@H](c1c[nH]c2ccc(Br)cc12)[N@H+]1CCC[C@H](c2nc3ccccc3s2)C1)c1ccc(-c2c3nc(c(-c4c(F)cccc4F)c4ccc([nH]4)c(-c4c(F)cccc4F)c4nc(c(-c5c(F)cccc5F)c5ccc2[nH]5)C=C4)C=C3)cc1
REMARK SMILES IDX 7 1 6 2 5 3 4 4 3 5 2 6 1 7 41 8 42 9 94 10 43 11 93 12
REMARK SMILES IDX 44 13 45 14 46 15 87 16 47 17 92 18 86 19 88 20 48 21 91 22
REMARK SMILES IDX 85 23 84 24 49 26 75 27 58 28 74 29 59 30 62 31 73 32 89 33
REMARK SMILES IDX 60 34 61 35 72 37 90 38 63 39 50 40 51 41 56 42 52 43 53 44
REMARK SMILES IDX 55 45 57 46 54 47 76 48 77 49 82 50 78 51 79 52 81 53 83 54
REMARK SMILES IDX 80 55 64 56 65 57 70 58 66 59 67 60 69 61 71 62 68 63 8 64
REMARK SMILES IDX 9 65 10 66 11 67 12 68 13 69 14 70 15 71 26 72 27 73 40 74
REMARK SMILES IDX 28 76 30 77 29 78 31 79 32 80 39 81 33 82 38 83 34 84 37 85
REMARK SMILES IDX 35 86 36 87 16 88 17 89 25 90 18 91 19 92 24 93 20 95 22 96
REMARK SMILES IDX 21 97 23 98
REMARK H PARENT 88 25 62 36 26 75 18 94
REMARK Flexibility Score: inf
ROOT
ATOM      1  C   UNL     1       3.018  -0.584  -2.412  1.00  0.00     0.188 C 
ENDROOT
BRANCH   1   2
ATOM      2  O   UNL     1       2.065  -1.584  -2.774  1.00  0.00    -0.376 OA
BRANCH   2   3
ATOM      3  C   UNL     1       1.071  -1.169  -3.710  1.00  0.00     0.202 C 
BRANCH   3   4
ATOM      4  C   UNL     1       0.095  -0.086  -3.231  1.00  0.00     0.261 C 
BRANCH   4   5
ATOM      5  O   UNL     1       0.481   0.569  -2.011  1.00  0.00    -0.460 OA
BRANCH   5   6
ATOM      6  C   UNL     1       0.145   0.235  -0.749  1.00  0.00     0.338 C 
ATOM      7  O   UNL     1       0.445   1.005   0.180  1.00  0.00    -0.246 OA
BRANCH   6   8
ATOM      8  C   UNL     1      -0.610  -0.995  -0.413  1.00  0.00     0.060 A 
ATOM      9  C   UNL     1      -0.368  -2.243  -0.990  1.00  0.00     0.016 A 
ATOM     10  C   UNL     1      -1.534  -0.920   0.634  1.00  0.00     0.016 A 
ATOM     11  C   UNL     1      -1.095  -3.370  -0.625  1.00  0.00     0.010 A 
ATOM     12  C   UNL     1      -2.212  -2.064   1.059  1.00  0.00     0.010 A 
ATOM     13  C   UNL     1      -2.007  -3.298   0.422  1.00  0.00    -0.014 A 
BRANCH  13  14
ATOM     14  C   UNL     1      -2.769  -4.502   0.826  1.00  0.00     0.031 A 
ATOM     15  C   UNL     1      -4.253  -4.490   0.664  1.00  0.00     0.074 A 
ATOM     16  C   UNL     1      -2.135  -5.576   1.337  1.00  0.00     0.049 A 
ATOM     17  N   UNL     1      -5.129  -5.370   1.060  1.00  0.00    -0.248 NA
ATOM     18  C   UNL     1      -4.834  -3.327  -0.031  1.00  0.00     0.031 C 
ATOM     19  C   UNL     1      -0.691  -5.696   1.481  1.00  0.00     0.029 A 
ATOM     20  N   UNL     1      -2.601  -6.765   1.837  1.00  0.00    -0.354 N 
ATOM     21  C   UNL     1      -6.364  -4.839   0.724  1.00  0.00     0.074 A 
ATOM     22  C   UNL     1      -6.131  -3.567   0.082  1.00  0.00     0.031 C 
ATOM     23  C   UNL     1      -0.383  -6.856   2.072  1.00  0.00     0.029 A 
ATOM     24  C   UNL     1      -1.607  -7.590   2.319  1.00  0.00     0.049 A 
ATOM     25  H   UNL     1      -3.556  -7.006   1.851  1.00  0.00     0.167 HD
ATOM     26  C   UNL     1      -7.583  -5.375   0.954  1.00  0.00     0.037 A 
ATOM     27  C   UNL     1      -1.672  -8.807   2.889  1.00  0.00     0.037 A 
ATOM     28  C   UNL     1      -7.776  -6.659   1.568  1.00  0.00     0.049 A 
ATOM     29  C   UNL     1      -3.036  -9.394   3.083  1.00  0.00     0.074 A 
ATOM     30  C   UNL     1      -8.960  -7.315   1.840  1.00  0.00     0.029 A 
ATOM     31  N   UNL     1      -6.745  -7.482   2.006  1.00  0.00    -0.354 N 
ATOM     32  N   UNL     1      -4.199  -8.890   2.743  1.00  0.00    -0.248 NA
ATOM     33  C   UNL     1      -3.111 -10.697   3.752  1.00  0.00     0.031 C 
ATOM     34  C   UNL     1      -8.648  -8.517   2.484  1.00  0.00     0.029 A 
ATOM     35  C   UNL     1      -7.268  -8.629   2.575  1.00  0.00     0.049 A 
ATOM     36  H   UNL     1      -5.785  -7.279   1.923  1.00  0.00     0.167 HD
ATOM     37  C   UNL     1      -5.147  -9.797   3.180  1.00  0.00     0.074 A 
ATOM     38  C   UNL     1      -4.419 -10.915   3.751  1.00  0.00     0.031 C 
ATOM     39  C   UNL     1      -6.498  -9.706   3.145  1.00  0.00     0.037 A 
BRANCH  26  40
ATOM     40  C   UNL     1      -8.774  -4.538   0.603  1.00  0.00     0.057 A 
ATOM     41  C   UNL     1      -9.168  -4.308  -0.721  1.00  0.00     0.134 A 
ATOM     42  C   UNL     1      -9.527  -3.935   1.618  1.00  0.00     0.134 A 
ATOM     43  F   UNL     1      -8.467  -4.828  -1.740  1.00  0.00    -0.206 F 
ATOM     44  C   UNL     1     -10.261  -3.493  -1.023  1.00  0.00     0.040 A 
ATOM     45  C   UNL     1     -10.634  -3.137   1.329  1.00  0.00     0.040 A 
ATOM     46  F   UNL     1      -9.193  -4.104   2.906  1.00  0.00    -0.206 F 
ATOM     47  C   UNL     1     -11.001  -2.909   0.004  1.00  0.00     0.006 A 
ENDBRANCH  26  40
BRANCH  27  48
ATOM     48  C   UNL     1      -0.435  -9.532   3.296  1.00  0.00     0.057 A 
ATOM     49  C   UNL     1      -0.057 -10.728   2.672  1.00  0.00     0.134 A 
ATOM     50  C   UNL     1       0.410  -9.048   4.304  1.00  0.00     0.134 A 
ATOM     51  F   UNL     1      -0.821 -11.254   1.703  1.00  0.00    -0.206 F 
ATOM     52  C   UNL     1       1.096 -11.424   3.047  1.00  0.00     0.040 A 
ATOM     53  C   UNL     1       1.586  -9.714   4.664  1.00  0.00     0.040 A 
ATOM     54  F   UNL     1       0.115  -7.908   4.945  1.00  0.00    -0.206 F 
ATOM     55  C   UNL     1       1.926 -10.912   4.042  1.00  0.00     0.006 A 
ENDBRANCH  27  48
BRANCH  39  56
ATOM     56  C   UNL     1      -7.253 -10.828   3.780  1.00  0.00     0.057 A 
ATOM     57  C   UNL     1      -7.316 -10.958   5.173  1.00  0.00     0.134 A 
ATOM     58  C   UNL     1      -7.957 -11.752   3.002  1.00  0.00     0.134 A 
ATOM     59  F   UNL     1      -6.645 -10.109   5.967  1.00  0.00    -0.206 F 
ATOM     60  C   UNL     1      -8.047 -11.981   5.772  1.00  0.00     0.040 A 
ATOM     61  C   UNL     1      -8.713 -12.764   3.590  1.00  0.00     0.040 A 
ATOM     62  F   UNL     1      -7.936 -11.672   1.663  1.00  0.00    -0.206 F 
ATOM     63  C   UNL     1      -8.755 -12.882   4.979  1.00  0.00     0.006 A 
ENDBRANCH  39  56
ENDBRANCH  13  14
ENDBRANCH   6   8
ENDBRANCH   5   6
ENDBRANCH   4   5
ENDBRANCH   3   4
ENDBRANCH   2   3
ENDBRANCH   1   2
BRANCH   1  64
ATOM     64  C   UNL     1       4.373  -1.202  -2.082  1.00  0.00     0.188 C 
BRANCH  64  65
ATOM     65  O   UNL     1       5.067  -1.852  -3.145  1.00  0.00    -0.376 OA
BRANCH  65  66
ATOM     66  C   UNL     1       4.349  -2.756  -3.976  1.00  0.00     0.202 C 
BRANCH  66  67
ATOM     67  C   UNL     1       3.940  -4.129  -3.416  1.00  0.00     0.261 C 
BRANCH  67  68
ATOM     68  O   UNL     1       3.222  -4.148  -2.173  1.00  0.00    -0.459 OA
BRANCH  68  69
ATOM     69  C   UNL     1       4.041  -4.220  -1.082  1.00  0.00     0.370 C 
ATOM     70  O   UNL     1       5.266  -4.099  -1.162  1.00  0.00    -0.245 OA
BRANCH  69  71
ATOM     71  C   UNL     1       3.271  -4.622   0.204  1.00  0.00     0.328 C 
BRANCH  71  72
ATOM     72  N   UNL     1       3.510  -6.071   0.516  1.00  0.00    -0.319 N 
ATOM     73  C   UNL     1       2.522  -6.974  -0.073  1.00  0.00     0.263 C 
ATOM     74  C   UNL     1       4.868  -6.550   0.146  1.00  0.00     0.274 C 
ATOM     75  H   UNL     1       3.417  -6.101   1.531  1.00  0.00     0.349 HD
ATOM     76  C   UNL     1       2.690  -8.373   0.539  1.00  0.00     0.062 C 
ATOM     77  C   UNL     1       5.199  -7.969   0.654  1.00  0.00     0.104 C 
ATOM     78  C   UNL     1       4.081  -8.945   0.273  1.00  0.00     0.022 C 
BRANCH  77  79
ATOM     79  C   UNL     1       5.517  -7.929   2.127  1.00  0.00     0.103 A 
ATOM     80  N   UNL     1       5.298  -6.881   2.887  1.00  0.00    -0.241 NA
ATOM     81  S   UNL     1       6.339  -9.225   2.901  1.00  0.00    -0.118 S 
ATOM     82  C   UNL     1       5.813  -7.067   4.143  1.00  0.00     0.082 A 
ATOM     83  C   UNL     1       6.426  -8.300   4.355  1.00  0.00     0.055 A 
ATOM     84  C   UNL     1       5.770  -6.124   5.186  1.00  0.00     0.030 A 
ATOM     85  C   UNL     1       6.999  -8.630   5.592  1.00  0.00     0.021 A 
ATOM     86  C   UNL     1       6.337  -6.440   6.420  1.00  0.00     0.002 A 
ATOM     87  C   UNL     1       6.941  -7.679   6.619  1.00  0.00     0.002 A 
ENDBRANCH  77  79
ENDBRANCH  71  72
BRANCH  71  88
ATOM     88  C   UNL     1       3.680  -3.744   1.403  1.00  0.00     0.046 A 
ATOM     89  C   UNL     1       4.985  -3.420   1.746  1.00  0.00     0.094 A 
ATOM     90  C   UNL     1       2.854  -3.059   2.393  1.00  0.00     0.010 A 
ATOM     91  N   UNL     1       4.989  -2.591   2.826  1.00  0.00    -0.361 N 
ATOM     92  C   UNL     1       3.709  -2.357   3.251  1.00  0.00     0.046 A 
ATOM     93  C   UNL     1       1.471  -2.948   2.670  1.00  0.00     0.026 A 
ATOM     94  H   UNL     1       5.798  -2.214   3.242  1.00  0.00     0.166 HD
ATOM     95  C   UNL     1       3.270  -1.576   4.331  1.00  0.00     0.028 A 
ATOM     96  C   UNL     1       1.022  -2.231   3.791  1.00  0.00     0.018 A 
ATOM     97  C   UNL     1       1.906  -1.536   4.601  1.00  0.00     0.018 A 
ATOM     98  Br  UNL     1      -0.811  -2.242   4.267  1.00  0.00    -0.051 Br
ENDBRANCH  71  88
ENDBRANCH  69  71
ENDBRANCH  68  69
ENDBRANCH  67  68
ENDBRANCH  66  67
ENDBRANCH  65  66
ENDBRANCH  64  65
ENDBRANCH   1  64
TORSDOF 20
