REMARK SMILES O=C(OCCOCCOCCOC(=O)[C@@H]1[C@H](C(=O)Nc2ccc(Cn3cncn3)cc2)[C@@H]2C=C[C@H]1CC2)c1ccc(-c2c3nc(c(-c4c(F)cccc4F)c4ccc([nH]4)c(-c4c(F)cccc4F)c4nc(c(-c5c(F)cccc5F)c5ccc2[nH]5)C=C4)C=C3)cc1
REMARK SMILES IDX 8 1 7 2 6 3 5 4 4 5 3 6 2 7 1 8 38 9 39 10 91 11 40 12 90 13
REMARK SMILES IDX 41 14 42 15 43 16 84 17 44 18 89 19 83 20 85 21 45 22 88 23
REMARK SMILES IDX 82 24 81 25 46 27 72 28 55 29 71 30 56 31 59 32 70 33 86 34
REMARK SMILES IDX 57 35 58 36 69 38 87 39 60 40 47 41 48 42 53 43 49 44 50 45
REMARK SMILES IDX 52 46 54 47 51 48 73 49 74 50 79 51 75 52 76 53 78 54 80 55
REMARK SMILES IDX 77 56 61 57 62 58 67 59 63 60 64 61 66 62 68 63 65 64 9 65
REMARK SMILES IDX 10 66 11 67 12 68 13 69 14 70 15 71 16 72 35 73 32 74 34 75
REMARK SMILES IDX 36 76 33 77 37 78 17 79 18 80 19 81 20 83 21 84 31 85 22 86
REMARK SMILES IDX 30 87 23 88 24 89 25 90 26 91 29 92 27 93 28 94
REMARK H PARENT 85 26 59 37 19 82
REMARK Flexibility Score: inf
ROOT
ATOM      1  C   UNL     1       3.030  -3.264   0.381  1.00  0.00     0.188 C 
ENDROOT
BRANCH   1   2
ATOM      2  C   UNL     1       3.370  -2.039   1.235  1.00  0.00     0.188 C 
BRANCH   2   3
ATOM      3  O   UNL     1       4.000  -1.007   0.458  1.00  0.00    -0.376 OA
BRANCH   3   4
ATOM      4  C   UNL     1       5.299  -0.661   0.919  1.00  0.00     0.202 C 
BRANCH   4   5
ATOM      5  C   UNL     1       5.346   0.402   2.023  1.00  0.00     0.261 C 
BRANCH   5   6
ATOM      6  O   UNL     1       4.132   0.713   2.725  1.00  0.00    -0.460 OA
BRANCH   6   7
ATOM      7  C   UNL     1       2.942   1.024   2.170  1.00  0.00     0.338 C 
ATOM      8  O   UNL     1       1.917   0.492   2.592  1.00  0.00    -0.246 OA
BRANCH   7   9
ATOM      9  C   UNL     1       2.802   2.170   1.227  1.00  0.00     0.060 A 
ATOM     10  C   UNL     1       3.835   2.948   0.707  1.00  0.00     0.016 A 
ATOM     11  C   UNL     1       1.473   2.538   0.932  1.00  0.00     0.016 A 
ATOM     12  C   UNL     1       3.540   4.110  -0.006  1.00  0.00     0.010 A 
ATOM     13  C   UNL     1       1.175   3.647   0.159  1.00  0.00     0.010 A 
ATOM     14  C   UNL     1       2.209   4.483  -0.224  1.00  0.00    -0.014 A 
BRANCH  14  15
ATOM     15  C   UNL     1       1.927   5.817  -0.732  1.00  0.00     0.031 A 
ATOM     16  C   UNL     1       2.426   6.148  -2.086  1.00  0.00     0.074 A 
ATOM     17  C   UNL     1       1.245   6.728  -0.008  1.00  0.00     0.049 A 
ATOM     18  N   UNL     1       3.445   6.883  -2.387  1.00  0.00    -0.248 NA
ATOM     19  C   UNL     1       1.762   5.536  -3.242  1.00  0.00     0.031 C 
ATOM     20  C   UNL     1       0.451   6.529   1.209  1.00  0.00     0.029 A 
ATOM     21  N   UNL     1       1.083   8.056  -0.265  1.00  0.00    -0.354 N 
ATOM     22  C   UNL     1       3.451   6.988  -3.774  1.00  0.00     0.074 A 
ATOM     23  C   UNL     1       2.485   6.029  -4.251  1.00  0.00     0.031 C 
ATOM     24  C   UNL     1      -0.264   7.646   1.467  1.00  0.00     0.029 A 
ATOM     25  C   UNL     1       0.146   8.685   0.540  1.00  0.00     0.049 A 
ATOM     26  H   UNL     1       1.589   8.529  -0.964  1.00  0.00     0.167 HD
ATOM     27  C   UNL     1       4.105   8.004  -4.405  1.00  0.00     0.037 A 
ATOM     28  C   UNL     1      -0.276   9.968   0.439  1.00  0.00     0.037 A 
ATOM     29  C   UNL     1       5.029   8.667  -3.519  1.00  0.00     0.049 A 
ATOM     30  C   UNL     1       0.768  10.727  -0.292  1.00  0.00     0.074 A 
ATOM     31  C   UNL     1       6.125   8.268  -2.779  1.00  0.00     0.029 A 
ATOM     32  N   UNL     1       4.669   9.892  -3.012  1.00  0.00    -0.354 N 
ATOM     33  N   UNL     1       1.940  11.012   0.201  1.00  0.00    -0.248 NA
ATOM     34  C   UNL     1       0.667  10.802  -1.742  1.00  0.00     0.031 C 
ATOM     35  C   UNL     1       6.042   9.017  -1.567  1.00  0.00     0.029 A 
ATOM     36  C   UNL     1       4.937   9.863  -1.668  1.00  0.00     0.049 A 
ATOM     37  H   UNL     1       4.291  10.648  -3.518  1.00  0.00     0.167 HD
ATOM     38  C   UNL     1       2.815  10.871  -0.865  1.00  0.00     0.074 A 
ATOM     39  C   UNL     1       1.966  10.845  -2.053  1.00  0.00     0.031 C 
ATOM     40  C   UNL     1       4.117  10.508  -0.670  1.00  0.00     0.037 A 
BRANCH  27  41
ATOM     41  C   UNL     1       3.676   8.628  -5.710  1.00  0.00     0.057 A 
ATOM     42  C   UNL     1       4.527   9.551  -6.347  1.00  0.00     0.134 A 
ATOM     43  C   UNL     1       2.358   8.589  -6.205  1.00  0.00     0.134 A 
ATOM     44  F   UNL     1       5.803   9.694  -5.958  1.00  0.00    -0.206 F 
ATOM     45  C   UNL     1       4.078  10.423  -7.346  1.00  0.00     0.040 A 
ATOM     46  C   UNL     1       1.913   9.419  -7.239  1.00  0.00     0.040 A 
ATOM     47  F   UNL     1       1.408   7.826  -5.652  1.00  0.00    -0.206 F 
ATOM     48  C   UNL     1       2.764  10.364  -7.790  1.00  0.00     0.006 A 
ENDBRANCH  27  41
BRANCH  28  49
ATOM     49  C   UNL     1      -1.620  10.518   0.711  1.00  0.00     0.057 A 
ATOM     50  C   UNL     1      -1.826  11.897   0.853  1.00  0.00     0.134 A 
ATOM     51  C   UNL     1      -2.776   9.731   0.560  1.00  0.00     0.134 A 
ATOM     52  F   UNL     1      -0.785  12.734   0.968  1.00  0.00    -0.206 F 
ATOM     53  C   UNL     1      -3.106  12.465   0.811  1.00  0.00     0.040 A 
ATOM     54  C   UNL     1      -4.059  10.284   0.525  1.00  0.00     0.040 A 
ATOM     55  F   UNL     1      -2.692   8.409   0.349  1.00  0.00    -0.206 F 
ATOM     56  C   UNL     1      -4.227  11.659   0.633  1.00  0.00     0.006 A 
ENDBRANCH  28  49
BRANCH  40  57
ATOM     57  C   UNL     1       4.655  10.535   0.734  1.00  0.00     0.057 A 
ATOM     58  C   UNL     1       4.169   9.734   1.778  1.00  0.00     0.134 A 
ATOM     59  C   UNL     1       5.803  11.292   0.999  1.00  0.00     0.134 A 
ATOM     60  F   UNL     1       3.141   8.897   1.590  1.00  0.00    -0.206 F 
ATOM     61  C   UNL     1       4.771   9.725   3.040  1.00  0.00     0.040 A 
ATOM     62  C   UNL     1       6.433  11.265   2.245  1.00  0.00     0.040 A 
ATOM     63  F   UNL     1       6.360  12.038   0.032  1.00  0.00    -0.206 F 
ATOM     64  C   UNL     1       5.910  10.488   3.275  1.00  0.00     0.006 A 
ENDBRANCH  40  57
ENDBRANCH  14  15
ENDBRANCH   7   9
ENDBRANCH   6   7
ENDBRANCH   5   6
ENDBRANCH   4   5
ENDBRANCH   3   4
ENDBRANCH   2   3
ENDBRANCH   1   2
BRANCH   1  65
ATOM     65  O   UNL     1       4.103  -4.188   0.228  1.00  0.00    -0.376 OA
BRANCH  65  66
ATOM     66  C   UNL     1       4.976  -3.908  -0.874  1.00  0.00     0.202 C 
BRANCH  66  67
ATOM     67  C   UNL     1       4.410  -4.280  -2.263  1.00  0.00     0.261 C 
BRANCH  67  68
ATOM     68  O   UNL     1       3.813  -3.151  -2.954  1.00  0.00    -0.463 OA
BRANCH  68  69
ATOM     69  C   UNL     1       2.839  -3.427  -3.874  1.00  0.00     0.310 C 
ATOM     70  O   UNL     1       2.384  -4.536  -4.067  1.00  0.00    -0.252 OA
BRANCH  69  71
ATOM     71  C   UNL     1       2.447  -2.222  -4.743  1.00  0.00     0.119 C 
ATOM     72  C   UNL     1       2.915  -0.806  -4.373  1.00  0.00     0.100 C 
ATOM     73  C   UNL     1       0.955  -2.141  -5.237  1.00  0.00     0.026 C 
ATOM     74  C   UNL     1       1.950   0.255  -4.984  1.00  0.00     0.025 C 
ATOM     75  C   UNL     1       0.094  -1.146  -4.465  1.00  0.00    -0.027 C 
ATOM     76  C   UNL     1       1.012  -1.465  -6.633  1.00  0.00     0.009 C 
ATOM     77  C   UNL     1       0.597   0.094  -4.352  1.00  0.00    -0.027 C 
ATOM     78  C   UNL     1       1.711  -0.077  -6.490  1.00  0.00     0.009 C 
BRANCH  72  79
ATOM     79  C   UNL     1       3.309  -0.525  -2.929  1.00  0.00     0.228 C 
ATOM     80  O   UNL     1       4.450  -0.079  -2.724  1.00  0.00    -0.274 OA
ATOM     81  N   UNL     1       2.506  -0.621  -1.840  1.00  0.00    -0.326 N 
ATOM     82  H   UNL     1       2.970  -0.329  -1.022  1.00  0.00     0.169 HD
BRANCH  81  83
ATOM     83  C   UNL     1       1.191  -1.025  -1.569  1.00  0.00     0.041 A 
ATOM     84  C   UNL     1       0.415  -0.111  -0.871  1.00  0.00     0.026 A 
ATOM     85  C   UNL     1       0.654  -2.292  -1.789  1.00  0.00     0.026 A 
ATOM     86  C   UNL     1      -0.877  -0.410  -0.448  1.00  0.00     0.008 A 
ATOM     87  C   UNL     1      -0.641  -2.615  -1.365  1.00  0.00     0.008 A 
ATOM     88  C   UNL     1      -1.426  -1.667  -0.706  1.00  0.00    -0.026 A 
BRANCH  88  89
ATOM     89  C   UNL     1      -2.828  -1.996  -0.270  1.00  0.00     0.181 C 
BRANCH  89  90
ATOM     90  N   UNL     1      -2.872  -2.537   1.074  1.00  0.00    -0.249 N 
ATOM     91  C   UNL     1      -2.543  -1.914   2.240  1.00  0.00     0.220 A 
ATOM     92  N   UNL     1      -3.409  -3.751   1.313  1.00  0.00    -0.160 NA
ATOM     93  N   UNL     1      -2.841  -2.693   3.254  1.00  0.00    -0.224 NA
ATOM     94  C   UNL     1      -3.356  -3.801   2.647  1.00  0.00     0.246 A 
ENDBRANCH  89  90
ENDBRANCH  88  89
ENDBRANCH  81  83
ENDBRANCH  72  79
ENDBRANCH  69  71
ENDBRANCH  68  69
ENDBRANCH  67  68
ENDBRANCH  66  67
ENDBRANCH  65  66
ENDBRANCH   1  65
TORSDOF 21
