REMARK SMILES O=C(OCCOCCOCCOC(=O)[C@H]1CS[C@H](c2cc(F)ccc2F)[NH2+]1)c1ccc(-c2c3nc(c(-c4c(F)cccc4F)c4ccc([nH]4)c(-c4c(F)cccc4F)c4nc(c(-c5c(F)cccc5F)c5ccc2[nH]5)C=C4)C=C3)cc1
REMARK SMILES IDX 7 1 6 2 5 3 4 4 3 5 2 6 1 7 28 8 29 9 81 10 30 11 80 12
REMARK SMILES IDX 31 13 32 14 33 15 74 16 34 17 79 18 73 19 75 20 35 21 78 22
REMARK SMILES IDX 72 23 71 24 36 26 62 27 45 28 61 29 46 30 49 31 60 32 76 33
REMARK SMILES IDX 47 34 48 35 59 37 77 38 50 39 37 40 38 41 43 42 39 43 40 44
REMARK SMILES IDX 42 45 44 46 41 47 63 48 64 49 69 50 65 51 66 52 68 53 70 54
REMARK SMILES IDX 67 55 51 56 52 57 57 58 53 59 54 60 56 61 58 62 55 63 8 64
REMARK SMILES IDX 9 65 10 66 11 67 12 68 13 69 14 70 15 71 16 72 27 73 17 74
REMARK SMILES IDX 18 75 19 78 20 79 25 80 21 81 24 82 26 83 22 84 23 85
REMARK H PARENT 75 25 49 36 27 76 27 77
REMARK Flexibility Score: inf
ROOT
ATOM      1  C   UNL     1       2.568  -1.963   0.283  1.00  0.00     0.188 C 
ENDROOT
BRANCH   1   2
ATOM      2  O   UNL     1       3.868  -1.616  -0.217  1.00  0.00    -0.376 OA
BRANCH   2   3
ATOM      3  C   UNL     1       4.808  -1.297   0.817  1.00  0.00     0.202 C 
BRANCH   3   4
ATOM      4  C   UNL     1       4.650   0.097   1.443  1.00  0.00     0.261 C 
BRANCH   4   5
ATOM      5  O   UNL     1       3.304   0.592   1.413  1.00  0.00    -0.460 OA
BRANCH   5   6
ATOM      6  C   UNL     1       2.680   1.314   0.450  1.00  0.00     0.338 C 
ATOM      7  O   UNL     1       1.542   1.718   0.686  1.00  0.00    -0.246 OA
BRANCH   6   8
ATOM      8  C   UNL     1       3.263   1.636  -0.896  1.00  0.00     0.060 A 
ATOM      9  C   UNL     1       4.419   1.082  -1.451  1.00  0.00     0.016 A 
ATOM     10  C   UNL     1       2.551   2.562  -1.683  1.00  0.00     0.016 A 
ATOM     11  C   UNL     1       4.895   1.464  -2.702  1.00  0.00     0.010 A 
ATOM     12  C   UNL     1       3.014   2.948  -2.946  1.00  0.00     0.010 A 
ATOM     13  C   UNL     1       4.213   2.421  -3.442  1.00  0.00    -0.014 A 
BRANCH  13  14
ATOM     14  C   UNL     1       4.892   3.040  -4.595  1.00  0.00     0.031 A 
ATOM     15  C   UNL     1       5.502   4.391  -4.384  1.00  0.00     0.074 A 
ATOM     16  C   UNL     1       5.067   2.386  -5.755  1.00  0.00     0.049 A 
ATOM     17  N   UNL     1       6.043   5.201  -5.249  1.00  0.00    -0.248 NA
ATOM     18  C   UNL     1       5.538   4.875  -2.993  1.00  0.00     0.031 C 
ATOM     19  C   UNL     1       4.723   0.991  -6.002  1.00  0.00     0.029 A 
ATOM     20  N   UNL     1       5.569   2.821  -6.954  1.00  0.00    -0.354 N 
ATOM     21  C   UNL     1       6.491   6.285  -4.509  1.00  0.00     0.074 A 
ATOM     22  C   UNL     1       6.123   6.052  -3.132  1.00  0.00     0.031 C 
ATOM     23  C   UNL     1       4.936   0.708  -7.298  1.00  0.00     0.029 A 
ATOM     24  C   UNL     1       5.388   1.913  -7.970  1.00  0.00     0.049 A 
ATOM     25  H   UNL     1       6.011   3.692  -7.075  1.00  0.00     0.167 HD
ATOM     26  C   UNL     1       7.164   7.372  -4.949  1.00  0.00     0.037 A 
ATOM     27  C   UNL     1       5.506   2.072  -9.299  1.00  0.00     0.037 A 
ATOM     28  C   UNL     1       7.488   7.582  -6.333  1.00  0.00     0.049 A 
ATOM     29  C   UNL     1       5.999   3.387  -9.809  1.00  0.00     0.074 A 
ATOM     30  C   UNL     1       8.139   8.650  -6.919  1.00  0.00     0.029 A 
ATOM     31  N   UNL     1       7.155   6.701  -7.354  1.00  0.00    -0.354 N 
ATOM     32  N   UNL     1       6.358   4.446  -9.126  1.00  0.00    -0.248 NA
ATOM     33  C   UNL     1       6.131   3.521 -11.263  1.00  0.00     0.031 C 
ATOM     34  C   UNL     1       8.138   8.446  -8.303  1.00  0.00     0.029 A 
ATOM     35  C   UNL     1       7.548   7.220  -8.574  1.00  0.00     0.049 A 
ATOM     36  H   UNL     1       6.706   5.834  -7.228  1.00  0.00     0.167 HD
ATOM     37  C   UNL     1       6.811   5.360 -10.061  1.00  0.00     0.074 A 
ATOM     38  C   UNL     1       6.643   4.741 -11.363  1.00  0.00     0.031 C 
ATOM     39  C   UNL     1       7.358   6.581  -9.853  1.00  0.00     0.037 A 
BRANCH  26  40
ATOM     40  C   UNL     1       7.494   8.418  -3.928  1.00  0.00     0.057 A 
ATOM     41  C   UNL     1       8.425   8.200  -2.902  1.00  0.00     0.134 A 
ATOM     42  C   UNL     1       6.805   9.637  -3.924  1.00  0.00     0.134 A 
ATOM     43  F   UNL     1       9.097   7.040  -2.827  1.00  0.00    -0.206 F 
ATOM     44  C   UNL     1       8.624   9.137  -1.885  1.00  0.00     0.040 A 
ATOM     45  C   UNL     1       7.017  10.593  -2.930  1.00  0.00     0.040 A 
ATOM     46  F   UNL     1       5.895   9.908  -4.872  1.00  0.00    -0.206 F 
ATOM     47  C   UNL     1       7.918  10.338  -1.899  1.00  0.00     0.006 A 
ENDBRANCH  26  40
BRANCH  27  48
ATOM     48  C   UNL     1       5.041   1.017 -10.226  1.00  0.00     0.057 A 
ATOM     49  C   UNL     1       5.887   0.019 -10.714  1.00  0.00     0.134 A 
ATOM     50  C   UNL     1       3.707   0.999 -10.648  1.00  0.00     0.134 A 
ATOM     51  F   UNL     1       7.183   0.007 -10.375  1.00  0.00    -0.206 F 
ATOM     52  C   UNL     1       5.415  -0.977 -11.574  1.00  0.00     0.040 A 
ATOM     53  C   UNL     1       3.221   0.009 -11.504  1.00  0.00     0.040 A 
ATOM     54  F   UNL     1       2.854   1.944 -10.227  1.00  0.00    -0.206 F 
ATOM     55  C   UNL     1       4.075  -0.989 -11.963  1.00  0.00     0.006 A 
ENDBRANCH  27  48
BRANCH  39  56
ATOM     56  C   UNL     1       7.882   7.294 -11.057  1.00  0.00     0.057 A 
ATOM     57  C   UNL     1       7.039   7.916 -11.982  1.00  0.00     0.134 A 
ATOM     58  C   UNL     1       9.265   7.401 -11.252  1.00  0.00     0.134 A 
ATOM     59  F   UNL     1       5.706   7.823 -11.859  1.00  0.00    -0.206 F 
ATOM     60  C   UNL     1       7.556   8.621 -13.068  1.00  0.00     0.040 A 
ATOM     61  C   UNL     1       9.793   8.127 -12.316  1.00  0.00     0.040 A 
ATOM     62  F   UNL     1      10.121   6.822 -10.396  1.00  0.00    -0.206 F 
ATOM     63  C   UNL     1       8.937   8.738 -13.229  1.00  0.00     0.006 A 
ENDBRANCH  39  56
ENDBRANCH  13  14
ENDBRANCH   6   8
ENDBRANCH   5   6
ENDBRANCH   4   5
ENDBRANCH   3   4
ENDBRANCH   2   3
ENDBRANCH   1   2
BRANCH   1  64
ATOM     64  C   UNL     1       1.948  -3.138  -0.471  1.00  0.00     0.188 C 
BRANCH  64  65
ATOM     65  O   UNL     1       2.566  -4.415  -0.326  1.00  0.00    -0.376 OA
BRANCH  65  66
ATOM     66  C   UNL     1       3.974  -4.497  -0.504  1.00  0.00     0.202 C 
BRANCH  66  67
ATOM     67  C   UNL     1       4.544  -4.284  -1.915  1.00  0.00     0.261 C 
BRANCH  67  68
ATOM     68  O   UNL     1       3.862  -3.300  -2.705  1.00  0.00    -0.459 OA
BRANCH  68  69
ATOM     69  C   UNL     1       2.980  -3.808  -3.608  1.00  0.00     0.365 C 
ATOM     70  O   UNL     1       2.763  -5.010  -3.770  1.00  0.00    -0.245 OA
BRANCH  69  71
ATOM     71  C   UNL     1       2.236  -2.747  -4.413  1.00  0.00     0.304 C 
ATOM     72  C   UNL     1       0.727  -2.911  -4.219  1.00  0.00     0.153 C 
ATOM     73  N   UNL     1       2.673  -1.339  -4.156  1.00  0.00    -0.319 N 
ATOM     74  S   UNL     1       0.124  -1.289  -3.704  1.00  0.00    -0.087 SA
ATOM     75  C   UNL     1       1.545  -0.446  -4.452  1.00  0.00     0.277 C 
ATOM     76  H   UNL     1       3.463  -1.108  -4.757  1.00  0.00     0.348 HD
ATOM     77  H   UNL     1       2.961  -1.232  -3.183  1.00  0.00     0.348 HD
BRANCH  75  78
ATOM     78  C   UNL     1       1.267  -0.102  -5.908  1.00  0.00     0.059 A 
ATOM     79  C   UNL     1       0.282   0.869  -6.200  1.00  0.00     0.053 A 
ATOM     80  C   UNL     1       1.891  -0.705  -7.006  1.00  0.00     0.133 A 
ATOM     81  C   UNL     1      -0.071   1.162  -7.518  1.00  0.00     0.123 A 
ATOM     82  C   UNL     1       1.515  -0.431  -8.320  1.00  0.00     0.043 A 
ATOM     83  F   UNL     1       2.907  -1.563  -6.860  1.00  0.00    -0.206 F 
ATOM     84  F   UNL     1      -1.020   2.075  -7.761  1.00  0.00    -0.207 F 
ATOM     85  C   UNL     1       0.528   0.509  -8.583  1.00  0.00     0.042 A 
ENDBRANCH  75  78
ENDBRANCH  69  71
ENDBRANCH  68  69
ENDBRANCH  67  68
ENDBRANCH  66  67
ENDBRANCH  65  66
ENDBRANCH  64  65
ENDBRANCH   1  64
TORSDOF 18
