REMARK SMILES O=C(OCCOCCOCCOC(=O)[C@@H](Cc1ccccc1)N1C(=O)/C(=C/c2ccncc2)SC1=S)c1ccc(-c2c3nc(c(-c4c(F)cccc4F)c4ccc([nH]4)c(-c4c(F)cccc4F)c4nc(c(-c5c(F)cccc5F)c5ccc2[nH]5)C=C4)C=C3)cc1
REMARK SMILES IDX 7 1 6 2 5 3 4 4 3 5 2 6 1 7 37 8 38 9 90 10 39 11 89 12
REMARK SMILES IDX 40 13 41 14 42 15 83 16 43 17 88 18 82 19 84 20 44 21 87 22
REMARK SMILES IDX 81 23 80 24 45 26 71 27 54 28 70 29 55 30 58 31 69 32 85 33
REMARK SMILES IDX 56 34 57 35 68 37 86 38 59 39 46 40 47 41 52 42 48 43 49 44
REMARK SMILES IDX 51 45 53 46 50 47 72 48 73 49 78 50 74 51 75 52 77 53 79 54
REMARK SMILES IDX 76 55 60 56 61 57 66 58 62 59 63 60 65 61 67 62 64 63 8 64
REMARK SMILES IDX 9 65 10 66 11 67 12 68 13 69 14 70 15 71 16 72 17 73 18 74
REMARK SMILES IDX 22 75 19 76 21 77 20 78 23 79 24 80 35 81 25 82 26 83 34 84
REMARK SMILES IDX 36 85 27 86 28 87 29 88 33 89 30 90 32 91 31 92
REMARK H PARENT 84 25 58 36
REMARK Flexibility Score: inf
ROOT
ATOM      1  C   UNL     1       2.491  -1.057  -1.258  1.00  0.00     0.188 C 
ENDROOT
BRANCH   1   2
ATOM      2  O   UNL     1       3.810  -0.492  -1.204  1.00  0.00    -0.376 OA
BRANCH   2   3
ATOM      3  C   UNL     1       4.727  -1.277  -0.432  1.00  0.00     0.202 C 
BRANCH   3   4
ATOM      4  C   UNL     1       4.533  -1.239   1.093  1.00  0.00     0.261 C 
BRANCH   4   5
ATOM      5  O   UNL     1       3.186  -0.961   1.506  1.00  0.00    -0.460 OA
BRANCH   5   6
ATOM      6  C   UNL     1       2.567   0.224   1.724  1.00  0.00     0.338 C 
ATOM      7  O   UNL     1       1.404   0.194   2.127  1.00  0.00    -0.246 OA
BRANCH   6   8
ATOM      8  C   UNL     1       3.178   1.575   1.489  1.00  0.00     0.060 A 
ATOM      9  C   UNL     1       4.379   1.827   0.830  1.00  0.00     0.016 A 
ATOM     10  C   UNL     1       2.451   2.692   1.956  1.00  0.00     0.016 A 
ATOM     11  C   UNL     1       4.872   3.123   0.691  1.00  0.00     0.010 A 
ATOM     12  C   UNL     1       2.935   4.001   1.815  1.00  0.00     0.010 A 
ATOM     13  C   UNL     1       4.168   4.213   1.204  1.00  0.00    -0.014 A 
BRANCH  13  14
ATOM     14  C   UNL     1       4.891   5.499   1.259  1.00  0.00     0.031 A 
ATOM     15  C   UNL     1       5.795   5.732   2.432  1.00  0.00     0.074 A 
ATOM     16  C   UNL     1       4.879   6.343   0.214  1.00  0.00     0.049 A 
ATOM     17  N   UNL     1       6.634   6.707   2.652  1.00  0.00    -0.248 NA
ATOM     18  C   UNL     1       5.728   4.733   3.512  1.00  0.00     0.031 C 
ATOM     19  C   UNL     1       4.032   6.215  -0.966  1.00  0.00     0.029 A 
ATOM     20  N   UNL     1       5.659   7.438  -0.051  1.00  0.00    -0.354 N 
ATOM     21  C   UNL     1       7.136   6.483   3.926  1.00  0.00     0.074 A 
ATOM     22  C   UNL     1       6.558   5.248   4.405  1.00  0.00     0.031 C 
ATOM     23  C   UNL     1       4.420   7.120  -1.884  1.00  0.00     0.029 A 
ATOM     24  C   UNL     1       5.517   7.907  -1.336  1.00  0.00     0.049 A 
ATOM     25  H   UNL     1       6.261   7.848   0.612  1.00  0.00     0.167 HD
ATOM     26  C   UNL     1       7.956   7.278   4.652  1.00  0.00     0.037 A 
ATOM     27  C   UNL     1       6.219   8.858  -1.978  1.00  0.00     0.037 A 
ATOM     28  C   UNL     1       8.498   8.517   4.163  1.00  0.00     0.049 A 
ATOM     29  C   UNL     1       7.191   9.683  -1.171  1.00  0.00     0.074 A 
ATOM     30  C   UNL     1       9.263   9.455   4.831  1.00  0.00     0.029 A 
ATOM     31  N   UNL     1       8.318   8.990   2.872  1.00  0.00    -0.354 N 
ATOM     32  N   UNL     1       7.616   9.509   0.056  1.00  0.00    -0.248 NA
ATOM     33  C   UNL     1       7.720  10.892  -1.825  1.00  0.00     0.031 C 
ATOM     34  C   UNL     1       9.505  10.520   3.956  1.00  0.00     0.029 A 
ATOM     35  C   UNL     1       8.945  10.214   2.726  1.00  0.00     0.049 A 
ATOM     36  H   UNL     1       7.818   8.524   2.163  1.00  0.00     0.167 HD
ATOM     37  C   UNL     1       8.414  10.609   0.336  1.00  0.00     0.074 A 
ATOM     38  C   UNL     1       8.493  11.395  -0.876  1.00  0.00     0.031 C 
ATOM     39  C   UNL     1       8.989  10.974   1.507  1.00  0.00     0.037 A 
BRANCH  26  40
ATOM     40  C   UNL     1       8.173   6.888   6.082  1.00  0.00     0.057 A 
ATOM     41  C   UNL     1       8.936   5.776   6.458  1.00  0.00     0.134 A 
ATOM     42  C   UNL     1       7.534   7.610   7.100  1.00  0.00     0.134 A 
ATOM     43  F   UNL     1       9.543   5.022   5.530  1.00  0.00    -0.206 F 
ATOM     44  C   UNL     1       9.022   5.372   7.793  1.00  0.00     0.040 A 
ATOM     45  C   UNL     1       7.637   7.234   8.438  1.00  0.00     0.040 A 
ATOM     46  F   UNL     1       6.780   8.680   6.806  1.00  0.00    -0.206 F 
ATOM     47  C   UNL     1       8.372   6.103   8.786  1.00  0.00     0.006 A 
ENDBRANCH  26  40
BRANCH  27  48
ATOM     48  C   UNL     1       6.005   9.212  -3.405  1.00  0.00     0.057 A 
ATOM     49  C   UNL     1       7.069   9.135  -4.318  1.00  0.00     0.134 A 
ATOM     50  C   UNL     1       4.838   9.855  -3.824  1.00  0.00     0.134 A 
ATOM     51  F   UNL     1       8.214   8.529  -3.972  1.00  0.00    -0.206 F 
ATOM     52  C   UNL     1       7.016   9.783  -5.553  1.00  0.00     0.040 A 
ATOM     53  C   UNL     1       4.763  10.482  -5.067  1.00  0.00     0.040 A 
ATOM     54  F   UNL     1       3.777   9.939  -3.010  1.00  0.00    -0.206 F 
ATOM     55  C   UNL     1       5.871  10.489  -5.913  1.00  0.00     0.006 A 
ENDBRANCH  27  48
BRANCH  39  56
ATOM     56  C   UNL     1       9.727  12.278   1.514  1.00  0.00     0.057 A 
ATOM     57  C   UNL     1       9.053  13.505   1.441  1.00  0.00     0.134 A 
ATOM     58  C   UNL     1      11.122  12.307   1.611  1.00  0.00     0.134 A 
ATOM     59  F   UNL     1       7.716  13.542   1.323  1.00  0.00    -0.206 F 
ATOM     60  C   UNL     1       9.745  14.716   1.439  1.00  0.00     0.040 A 
ATOM     61  C   UNL     1      11.823  13.512   1.639  1.00  0.00     0.040 A 
ATOM     62  F   UNL     1      11.823  11.166   1.684  1.00  0.00    -0.206 F 
ATOM     63  C   UNL     1      11.134  14.720   1.546  1.00  0.00     0.006 A 
ENDBRANCH  39  56
ENDBRANCH  13  14
ENDBRANCH   6   8
ENDBRANCH   5   6
ENDBRANCH   4   5
ENDBRANCH   3   4
ENDBRANCH   2   3
ENDBRANCH   1   2
BRANCH   1  64
ATOM     64  C   UNL     1       1.894  -1.047  -2.665  1.00  0.00     0.188 C 
BRANCH  64  65
ATOM     65  O   UNL     1       2.420  -2.018  -3.566  1.00  0.00    -0.376 OA
BRANCH  65  66
ATOM     66  C   UNL     1       3.804  -1.939  -3.890  1.00  0.00     0.202 C 
BRANCH  66  67
ATOM     67  C   UNL     1       4.207  -0.794  -4.812  1.00  0.00     0.261 C 
BRANCH  67  68
ATOM     68  O   UNL     1       3.981   0.491  -4.220  1.00  0.00    -0.462 OA
BRANCH  68  69
ATOM     69  C   UNL     1       3.059   1.282  -4.827  1.00  0.00     0.329 C 
ATOM     70  O   UNL     1       2.300   0.930  -5.724  1.00  0.00    -0.250 OA
BRANCH  69  71
ATOM     71  C   UNL     1       3.126   2.719  -4.326  1.00  0.00     0.206 C 
BRANCH  71  72
ATOM     72  C   UNL     1       3.815   2.967  -2.981  1.00  0.00     0.073 C 
BRANCH  72  73
ATOM     73  C   UNL     1       5.314   3.112  -2.928  1.00  0.00    -0.045 A 
ATOM     74  C   UNL     1       6.108   2.054  -2.473  1.00  0.00     0.004 A 
ATOM     75  C   UNL     1       5.924   4.345  -3.186  1.00  0.00     0.004 A 
ATOM     76  C   UNL     1       7.463   2.246  -2.203  1.00  0.00     0.000 A 
ATOM     77  C   UNL     1       7.275   4.545  -2.900  1.00  0.00     0.000 A 
ATOM     78  C   UNL     1       8.040   3.499  -2.393  1.00  0.00     0.000 A 
ENDBRANCH  72  73
ENDBRANCH  71  72
BRANCH  71  79
ATOM     79  N   UNL     1       3.432   3.686  -5.391  1.00  0.00    -0.278 N 
ATOM     80  C   UNL     1       2.831   4.931  -5.311  1.00  0.00     0.267 C 
ATOM     81  C   UNL     1       4.380   3.531  -6.387  1.00  0.00     0.149 C 
ATOM     82  O   UNL     1       2.112   5.332  -4.400  1.00  0.00    -0.268 OA
ATOM     83  C   UNL     1       3.222   5.768  -6.464  1.00  0.00     0.081 C 
ATOM     84  S   UNL     1       4.351   4.927  -7.446  1.00  0.00    -0.054 SA
ATOM     85  S   UNL     1       5.434   2.280  -6.704  1.00  0.00    -0.052 S 
ATOM     86  C   UNL     1       2.727   6.992  -6.690  1.00  0.00     0.029 C 
BRANCH  86  87
ATOM     87  C   UNL     1       3.046   7.726  -7.915  1.00  0.00    -0.021 A 
ATOM     88  C   UNL     1       2.206   7.614  -9.020  1.00  0.00     0.028 A 
ATOM     89  C   UNL     1       4.255   8.399  -8.049  1.00  0.00     0.028 A 
ATOM     90  C   UNL     1       2.613   8.195 -10.208  1.00  0.00     0.111 A 
ATOM     91  C   UNL     1       4.564   8.969  -9.271  1.00  0.00     0.111 A 
ATOM     92  N   UNL     1       3.765   8.885 -10.354  1.00  0.00    -0.265 NA
ENDBRANCH  86  87
ENDBRANCH  71  79
ENDBRANCH  69  71
ENDBRANCH  68  69
ENDBRANCH  67  68
ENDBRANCH  66  67
ENDBRANCH  65  66
ENDBRANCH  64  65
ENDBRANCH   1  64
TORSDOF 21
