REMARK SMILES O=C1C[C@@H](C(=O)OCCOCCOCCOC(=O)c2ccc(-c3c4nc(c(-c5c(F)cccc5F)c5ccc([nH]5)c(-c5c(F)cccc5F)c5nc(c(-c6c(F)cccc6F)c6ccc3[nH]6)C=C5)C=C4)cc2)C2(CC[NH+](Cc3c[nH]nc3-c3ccc(Cl)cc3)CC2)N1
REMARK SMILES IDX 11 1 10 2 9 3 8 4 7 5 5 6 6 7 4 8 1 9 2 10 3 11 92 12 73 13
REMARK SMILES IDX 74 15 91 16 75 17 90 18 76 19 77 21 78 22 79 23 82 24 80 25
REMARK SMILES IDX 81 26 83 28 84 29 89 30 85 31 88 32 86 33 87 34 12 35 13 36
REMARK SMILES IDX 14 37 15 38 16 39 17 40 18 41 19 42 20 43 72 44 21 45 71 46
REMARK SMILES IDX 22 47 23 48 24 49 65 50 25 51 70 52 64 53 66 54 26 55 69 56
REMARK SMILES IDX 63 57 62 58 27 60 53 61 36 62 52 63 37 64 40 65 51 66 67 67
REMARK SMILES IDX 38 68 39 69 50 71 68 72 41 73 28 74 29 75 34 76 30 77 31 78
REMARK SMILES IDX 33 79 35 80 32 81 54 82 55 83 60 84 56 85 57 86 59 87 61 88
REMARK SMILES IDX 58 89 42 90 43 91 48 92 44 93 45 94 47 95 49 96 46 97
REMARK H PARENT 92 14 76 20 80 27 66 59 40 70
REMARK Flexibility Score: inf
ROOT
ATOM      1  C   UNL     1       5.453   2.940  -3.979  1.00  0.00     0.188 C 
ENDROOT
BRANCH   1   2
ATOM      2  O   UNL     1       4.459   2.917  -4.992  1.00  0.00    -0.376 OA
BRANCH   2   3
ATOM      3  C   UNL     1       3.100   3.131  -4.639  1.00  0.00     0.202 C 
BRANCH   3   4
ATOM      4  C   UNL     1       2.372   2.006  -3.876  1.00  0.00     0.261 C 
BRANCH   4   5
ATOM      5  O   UNL     1       2.857   1.613  -2.556  1.00  0.00    -0.463 OA
BRANCH   5   6
ATOM      6  C   UNL     1       3.624   0.497  -2.526  1.00  0.00     0.311 C 
ATOM      7  O   UNL     1       3.998  -0.082  -3.547  1.00  0.00    -0.252 OA
BRANCH   6   8
ATOM      8  C   UNL     1       3.942  -0.133  -1.164  1.00  0.00     0.134 C 
ATOM      9  O   UNL     1       0.867  -1.095   0.374  1.00  0.00    -0.275 OA
ATOM     10  C   UNL     1       1.987  -0.698   0.084  1.00  0.00     0.221 C 
ATOM     11  C   UNL     1       2.884  -1.246  -0.987  1.00  0.00     0.117 C 
ATOM     12  N   UNL     1       2.655   0.300   0.737  1.00  0.00    -0.349 N 
ATOM     13  C   UNL     1       4.004   0.508   0.254  1.00  0.00     0.064 C 
ATOM     14  H   UNL     1       2.256   0.827   1.466  1.00  0.00     0.164 HD
ATOM     15  C   UNL     1       4.335   1.984   0.412  1.00  0.00     0.091 C 
ATOM     16  C   UNL     1       4.989  -0.316   1.165  1.00  0.00     0.091 C 
ATOM     17  C   UNL     1       5.812   2.227   0.196  1.00  0.00     0.264 C 
ATOM     18  C   UNL     1       6.469   0.119   1.145  1.00  0.00     0.264 C 
ATOM     19  N   UNL     1       6.704   1.552   1.111  1.00  0.00    -0.331 N 
ATOM     20  H   UNL     1       7.641   1.614   0.713  1.00  0.00     0.348 HD
BRANCH  19  21
ATOM     21  C   UNL     1       7.043   2.265   2.355  1.00  0.00     0.303 C 
BRANCH  21  22
ATOM     22  C   UNL     1       5.888   2.433   3.283  1.00  0.00     0.052 A 
ATOM     23  C   UNL     1       5.331   1.431   4.056  1.00  0.00     0.115 A 
ATOM     24  C   UNL     1       5.141   3.608   3.652  1.00  0.00     0.101 A 
ATOM     25  N   UNL     1       4.230   1.962   4.641  1.00  0.00    -0.285 N 
ATOM     26  N   UNL     1       4.110   3.277   4.451  1.00  0.00    -0.175 NA
ATOM     27  H   UNL     1       3.582   1.429   5.156  1.00  0.00     0.189 HD
BRANCH  24  28
ATOM     28  C   UNL     1       5.322   5.023   3.314  1.00  0.00     0.003 A 
ATOM     29  C   UNL     1       5.398   5.975   4.343  1.00  0.00     0.012 A 
ATOM     30  C   UNL     1       5.325   5.480   1.997  1.00  0.00     0.012 A 
ATOM     31  C   UNL     1       5.494   7.343   4.058  1.00  0.00     0.021 A 
ATOM     32  C   UNL     1       5.435   6.846   1.705  1.00  0.00     0.021 A 
ATOM     33  C   UNL     1       5.516   7.773   2.736  1.00  0.00     0.041 A 
ATOM     34  Cl  UNL     1       5.619   9.450   2.371  1.00  0.00    -0.084 Cl
ENDBRANCH  24  28
ENDBRANCH  21  22
ENDBRANCH  19  21
ENDBRANCH   6   8
ENDBRANCH   5   6
ENDBRANCH   4   5
ENDBRANCH   3   4
ENDBRANCH   2   3
ENDBRANCH   1   2
BRANCH   1  35
ATOM     35  C   UNL     1       5.114   3.578  -2.642  1.00  0.00     0.188 C 
BRANCH  35  36
ATOM     36  O   UNL     1       4.353   4.763  -2.737  1.00  0.00    -0.376 OA
BRANCH  36  37
ATOM     37  C   UNL     1       4.813   5.822  -1.918  1.00  0.00     0.202 C 
BRANCH  37  38
ATOM     38  C   UNL     1       6.016   6.513  -2.564  1.00  0.00     0.261 C 
BRANCH  38  39
ATOM     39  O   UNL     1       7.176   5.663  -2.740  1.00  0.00    -0.460 OA
BRANCH  39  40
ATOM     40  C   UNL     1       7.861   5.344  -1.618  1.00  0.00     0.338 C 
ATOM     41  O   UNL     1       7.595   5.692  -0.482  1.00  0.00    -0.246 OA
BRANCH  40  42
ATOM     42  C   UNL     1       8.905   4.347  -1.936  1.00  0.00     0.060 A 
ATOM     43  C   UNL     1       8.677   3.008  -1.617  1.00  0.00     0.016 A 
ATOM     44  C   UNL     1      10.146   4.727  -2.426  1.00  0.00     0.016 A 
ATOM     45  C   UNL     1       9.671   2.046  -1.731  1.00  0.00     0.010 A 
ATOM     46  C   UNL     1      11.145   3.754  -2.583  1.00  0.00     0.010 A 
ATOM     47  C   UNL     1      10.923   2.410  -2.215  1.00  0.00    -0.014 A 
BRANCH  47  48
ATOM     48  C   UNL     1      12.026   1.415  -2.243  1.00  0.00     0.031 A 
ATOM     49  C   UNL     1      13.241   1.648  -1.393  1.00  0.00     0.074 A 
ATOM     50  C   UNL     1      11.948   0.312  -3.010  1.00  0.00     0.049 A 
ATOM     51  N   UNL     1      14.409   1.063  -1.433  1.00  0.00    -0.248 NA
ATOM     52  C   UNL     1      13.124   2.698  -0.369  1.00  0.00     0.031 C 
ATOM     53  C   UNL     1      10.789  -0.089  -3.809  1.00  0.00     0.029 A 
ATOM     54  N   UNL     1      12.880  -0.666  -3.261  1.00  0.00    -0.354 N 
ATOM     55  C   UNL     1      15.189   1.720  -0.490  1.00  0.00     0.074 A 
ATOM     56  C   UNL     1      14.360   2.747   0.104  1.00  0.00     0.031 C 
ATOM     57  C   UNL     1      11.084  -1.217  -4.473  1.00  0.00     0.029 A 
ATOM     58  C   UNL     1      12.476  -1.568  -4.215  1.00  0.00     0.049 A 
ATOM     59  H   UNL     1      13.749  -0.715  -2.802  1.00  0.00     0.167 HD
ATOM     60  C   UNL     1      16.484   1.491  -0.164  1.00  0.00     0.037 A 
ATOM     61  C   UNL     1      13.167  -2.527  -4.861  1.00  0.00     0.037 A 
ATOM     62  C   UNL     1      17.283   0.443  -0.745  1.00  0.00     0.049 A 
ATOM     63  C   UNL     1      14.621  -2.724  -4.538  1.00  0.00     0.074 A 
ATOM     64  C   UNL     1      18.596   0.106  -0.470  1.00  0.00     0.029 A 
ATOM     65  N   UNL     1      16.842  -0.437  -1.724  1.00  0.00    -0.354 N 
ATOM     66  N   UNL     1      15.371  -2.079  -3.676  1.00  0.00    -0.248 NA
ATOM     67  C   UNL     1      15.329  -3.775  -5.282  1.00  0.00     0.031 C 
ATOM     68  C   UNL     1      18.969  -0.934  -1.329  1.00  0.00     0.029 A 
ATOM     69  C   UNL     1      17.868  -1.294  -2.090  1.00  0.00     0.049 A 
ATOM     70  H   UNL     1      15.934  -0.450  -2.104  1.00  0.00     0.167 HD
ATOM     71  C   UNL     1      16.631  -2.657  -3.758  1.00  0.00     0.074 A 
ATOM     72  C   UNL     1      16.540  -3.715  -4.744  1.00  0.00     0.031 C 
ATOM     73  C   UNL     1      17.761  -2.341  -3.077  1.00  0.00     0.037 A 
BRANCH  60  74
ATOM     74  C   UNL     1      17.127   2.441   0.807  1.00  0.00     0.057 A 
ATOM     75  C   UNL     1      16.762   2.507   2.158  1.00  0.00     0.134 A 
ATOM     76  C   UNL     1      18.125   3.323   0.369  1.00  0.00     0.134 A 
ATOM     77  F   UNL     1      15.803   1.704   2.644  1.00  0.00    -0.206 F 
ATOM     78  C   UNL     1      17.330   3.444   3.025  1.00  0.00     0.040 A 
ATOM     79  C   UNL     1      18.726   4.239   1.233  1.00  0.00     0.040 A 
ATOM     80  F   UNL     1      18.530   3.313  -0.910  1.00  0.00    -0.206 F 
ATOM     81  C   UNL     1      18.318   4.311   2.563  1.00  0.00     0.006 A 
ENDBRANCH  60  74
BRANCH  61  82
ATOM     82  C   UNL     1      12.497  -3.327  -5.919  1.00  0.00     0.057 A 
ATOM     83  C   UNL     1      12.223  -4.686  -5.739  1.00  0.00     0.134 A 
ATOM     84  C   UNL     1      12.087  -2.741  -7.125  1.00  0.00     0.134 A 
ATOM     85  F   UNL     1      12.611  -5.310  -4.617  1.00  0.00    -0.206 F 
ATOM     86  C   UNL     1      11.567  -5.436  -6.718  1.00  0.00     0.040 A 
ATOM     87  C   UNL     1      11.404  -3.471  -8.099  1.00  0.00     0.040 A 
ATOM     88  F   UNL     1      12.317  -1.441  -7.359  1.00  0.00    -0.206 F 
ATOM     89  C   UNL     1      11.146  -4.824  -7.897  1.00  0.00     0.006 A 
ENDBRANCH  61  82
BRANCH  73  90
ATOM     90  C   UNL     1      18.981  -3.176  -3.345  1.00  0.00     0.057 A 
ATOM     91  C   UNL     1      19.689  -3.095  -4.551  1.00  0.00     0.134 A 
ATOM     92  C   UNL     1      19.476  -4.044  -2.363  1.00  0.00     0.134 A 
ATOM     93  F   UNL     1      19.262  -2.294  -5.539  1.00  0.00    -0.206 F 
ATOM     94  C   UNL     1      20.831  -3.866  -4.780  1.00  0.00     0.040 A 
ATOM     95  C   UNL     1      20.634  -4.795  -2.568  1.00  0.00     0.040 A 
ATOM     96  F   UNL     1      18.852  -4.164  -1.181  1.00  0.00    -0.206 F 
ATOM     97  C   UNL     1      21.311  -4.712  -3.782  1.00  0.00     0.006 A 
ENDBRANCH  73  90
ENDBRANCH  47  48
ENDBRANCH  40  42
ENDBRANCH  39  40
ENDBRANCH  38  39
ENDBRANCH  37  38
ENDBRANCH  36  37
ENDBRANCH  35  36
ENDBRANCH   1  35
TORSDOF 20
