REMARK SMILES Cc1cccc(OCC(=O)Nc2cc(C(=O)OCCOCCOCCOC(=O)c3ccc(-c4c5nc(c(-c6c(F)cccc6F)c6ccc([nH]6)c(-c6c(F)cccc6F)c6nc(c(-c7c(F)cccc7F)c7ccc4[nH]7)C=C6)C=C5)cc3)c(Cl)cc2Cl)c1
REMARK SMILES IDX 21 1 20 2 19 3 18 4 17 5 15 6 16 7 14 8 12 9 13 10 86 11
REMARK SMILES IDX 85 12 87 13 83 14 84 15 11 16 9 17 10 18 8 20 7 21 6 22 1 23
REMARK SMILES IDX 2 24 3 25 88 26 4 27 5 28 22 29 23 30 24 31 25 32 26 33
REMARK SMILES IDX 27 34 28 35 29 36 30 37 82 38 31 39 81 40 32 41 33 42 34 43
REMARK SMILES IDX 75 44 35 45 80 46 74 47 76 48 36 49 79 50 73 51 72 52 37 54
REMARK SMILES IDX 63 55 46 56 62 57 47 58 50 59 61 60 77 61 48 62 49 63 60 65
REMARK SMILES IDX 78 66 51 67 38 68 39 69 44 70 40 71 41 72 43 73 45 74 42 75
REMARK SMILES IDX 64 76 65 77 70 78 66 79 67 80 69 81 71 82 68 83 52 84 53 85
REMARK SMILES IDX 58 86 54 87 55 88 57 89 59 90 56 91
REMARK H PARENT 11 19 76 53 50 64
REMARK Flexibility Score: inf
ROOT
ATOM      1  C   UNL     1      -7.337  -1.804   1.053  1.00  0.00     0.188 C 
ENDROOT
BRANCH   1   2
ATOM      2  O   UNL     1      -7.024  -0.951  -0.039  1.00  0.00    -0.376 OA
BRANCH   2   3
ATOM      3  C   UNL     1      -5.924  -1.353  -0.840  1.00  0.00     0.202 C 
BRANCH   3   4
ATOM      4  C   UNL     1      -4.590  -0.504  -0.727  1.00  0.00     0.261 C 
BRANCH   4   5
ATOM      5  O   UNL     1      -4.011  -0.063   0.682  1.00  0.00    -0.460 OA
BRANCH   5   6
ATOM      6  C   UNL     1      -2.883   0.667   1.303  1.00  0.00     0.339 C 
ATOM      7  O   UNL     1      -1.838   0.011   1.383  1.00  0.00    -0.246 OA
BRANCH   6   8
ATOM      8  C   UNL     1      -2.952   2.200   2.452  1.00  0.00     0.080 A 
ATOM      9  C   UNL     1      -1.346   3.706   3.322  1.00  0.00     0.061 A 
ATOM     10  C   UNL     1      -1.716   2.389   3.038  1.00  0.00     0.045 A 
ATOM     11  C   UNL     1      -2.183   4.476   4.114  1.00  0.00     0.066 A 
ATOM     12  C   UNL     1      -3.510   4.308   3.889  1.00  0.00     0.044 A 
ATOM     13  Cl  UNL     1      -1.653   5.912   4.899  1.00  0.00    -0.082 Cl
ATOM     14  C   UNL     1      -3.873   3.365   2.903  1.00  0.00     0.057 A 
ATOM     15  Cl  UNL     1      -5.381   4.133   2.280  1.00  0.00    -0.083 Cl
BRANCH   9  16
ATOM     16  N   UNL     1      -0.757   4.477   2.272  1.00  0.00    -0.322 N 
ATOM     17  C   UNL     1      -1.193   4.879   1.005  1.00  0.00     0.262 C 
ATOM     18  O   UNL     1      -0.527   5.827   0.544  1.00  0.00    -0.271 OA
ATOM     19  H   UNL     1       0.150   4.793   2.487  1.00  0.00     0.170 HD
BRANCH  17  20
ATOM     20  C   UNL     1      -2.528   4.173  -0.078  1.00  0.00     0.329 C 
BRANCH  20  21
ATOM     21  O   UNL     1      -2.391   2.373  -1.193  1.00  0.00    -0.484 OA
BRANCH  21  22
ATOM     22  C   UNL     1      -1.243   1.169  -1.458  1.00  0.00     0.120 A 
ATOM     23  C   UNL     1       2.271   0.062  -0.190  1.00  0.00     0.044 C 
ATOM     24  C   UNL     1       0.842   0.004  -0.662  1.00  0.00    -0.047 A 
ATOM     25  C   UNL     1       0.154  -1.201  -0.665  1.00  0.00     0.003 A 
ATOM     26  C   UNL     1       0.152   1.170  -1.069  1.00  0.00     0.049 A 
ATOM     27  C   UNL     1      -1.139  -1.242  -1.201  1.00  0.00     0.004 A 
ATOM     28  C   UNL     1      -1.794  -0.073  -1.677  1.00  0.00     0.046 A 
ENDBRANCH  21  22
ENDBRANCH  20  21
ENDBRANCH  17  20
ENDBRANCH   9  16
ENDBRANCH   6   8
ENDBRANCH   5   6
ENDBRANCH   4   5
ENDBRANCH   3   4
ENDBRANCH   2   3
ENDBRANCH   1   2
BRANCH   1  29
ATOM     29  C   UNL     1      -6.124  -2.189   1.853  1.00  0.00     0.188 C 
BRANCH  29  30
ATOM     30  O   UNL     1      -5.505  -3.327   1.283  1.00  0.00    -0.376 OA
BRANCH  30  31
ATOM     31  C   UNL     1      -4.549  -3.971   2.119  1.00  0.00     0.202 C 
BRANCH  31  32
ATOM     32  C   UNL     1      -5.047  -4.202   3.567  1.00  0.00     0.261 C 
BRANCH  32  33
ATOM     33  O   UNL     1      -4.754  -3.035   4.388  1.00  0.00    -0.460 OA
BRANCH  33  34
ATOM     34  C   UNL     1      -5.739  -2.352   5.072  1.00  0.00     0.338 C 
ATOM     35  O   UNL     1      -6.808  -2.806   5.434  1.00  0.00    -0.246 OA
BRANCH  34  36
ATOM     36  C   UNL     1      -5.425  -0.876   4.966  1.00  0.00     0.060 A 
ATOM     37  C   UNL     1      -6.376   0.120   4.692  1.00  0.00     0.016 A 
ATOM     38  C   UNL     1      -4.189  -0.610   4.516  1.00  0.00     0.016 A 
ATOM     39  C   UNL     1      -6.229   1.061   3.587  1.00  0.00     0.010 A 
ATOM     40  C   UNL     1      -4.149   0.180   3.377  1.00  0.00     0.010 A 
ATOM     41  C   UNL     1      -5.169   0.982   2.690  1.00  0.00    -0.014 A 
BRANCH  41  42
ATOM     42  C   UNL     1      -5.090   1.820   1.071  1.00  0.00     0.031 A 
ATOM     43  C   UNL     1      -3.635   2.505   0.097  1.00  0.00     0.074 A 
ATOM     44  C   UNL     1      -6.276   1.825   0.398  1.00  0.00     0.049 A 
ATOM     45  N   UNL     1      -3.983   3.343  -1.203  1.00  0.00    -0.248 NA
ATOM     46  C   UNL     1      -1.585   2.632   0.334  1.00  0.00     0.031 C 
ATOM     47  C   UNL     1      -6.564   2.144  -1.000  1.00  0.00     0.029 A 
ATOM     48  N   UNL     1      -7.525   1.412   0.881  1.00  0.00    -0.354 N 
ATOM     49  C   UNL     1      -2.555   3.936  -2.122  1.00  0.00     0.074 A 
ATOM     50  C   UNL     1      -1.014   3.536  -1.040  1.00  0.00     0.031 C 
ATOM     51  C   UNL     1      -7.888   2.101  -1.222  1.00  0.00     0.029 A 
ATOM     52  C   UNL     1      -8.526   1.962   0.067  1.00  0.00     0.049 A 
ATOM     53  H   UNL     1      -7.675   0.832   1.662  1.00  0.00     0.167 HD
ATOM     54  C   UNL     1      -2.808   4.458  -3.348  1.00  0.00     0.037 A 
ATOM     55  C   UNL     1      -9.460   2.791   0.599  1.00  0.00     0.037 A 
ATOM     56  C   UNL     1      -4.261   4.636  -3.492  1.00  0.00     0.049 A 
ATOM     57  C   UNL     1      -9.217   4.179   0.047  1.00  0.00     0.074 A 
ATOM     58  C   UNL     1      -5.253   3.926  -4.147  1.00  0.00     0.029 A 
ATOM     59  N   UNL     1      -4.946   5.489  -2.606  1.00  0.00    -0.354 N 
ATOM     60  N   UNL     1      -8.081   4.537  -0.509  1.00  0.00    -0.248 NA
ATOM     61  C   UNL     1     -10.240   5.206  -0.091  1.00  0.00     0.031 C 
ATOM     62  C   UNL     1      -6.523   4.355  -3.645  1.00  0.00     0.029 A 
ATOM     63  C   UNL     1      -6.329   5.339  -2.683  1.00  0.00     0.049 A 
ATOM     64  H   UNL     1      -4.498   6.122  -2.000  1.00  0.00     0.167 HD
ATOM     65  C   UNL     1      -8.231   5.712  -1.181  1.00  0.00     0.074 A 
ATOM     66  C   UNL     1      -9.595   6.111  -0.853  1.00  0.00     0.031 C 
ATOM     67  C   UNL     1      -7.262   6.256  -1.989  1.00  0.00     0.037 A 
BRANCH  54  68
ATOM     68  C   UNL     1      -1.748   4.517  -4.414  1.00  0.00     0.057 A 
ATOM     69  C   UNL     1      -2.072   4.426  -5.778  1.00  0.00     0.134 A 
ATOM     70  C   UNL     1      -0.365   4.570  -4.159  1.00  0.00     0.134 A 
ATOM     71  F   UNL     1      -3.346   4.456  -6.192  1.00  0.00    -0.206 F 
ATOM     72  C   UNL     1      -1.101   4.295  -6.786  1.00  0.00     0.040 A 
ATOM     73  C   UNL     1       0.616   4.365  -5.141  1.00  0.00     0.040 A 
ATOM     74  F   UNL     1       0.103   4.913  -2.958  1.00  0.00    -0.206 F 
ATOM     75  C   UNL     1       0.248   4.219  -6.466  1.00  0.00     0.006 A 
ENDBRANCH  54  68
BRANCH  55  76
ATOM     76  C   UNL     1      -9.942   2.261   1.916  1.00  0.00     0.057 A 
ATOM     77  C   UNL     1     -10.513   0.961   1.881  1.00  0.00     0.134 A 
ATOM     78  C   UNL     1      -9.422   2.661   3.147  1.00  0.00     0.134 A 
ATOM     79  F   UNL     1     -11.083   0.512   0.751  1.00  0.00    -0.206 F 
ATOM     80  C   UNL     1     -10.353   0.035   2.918  1.00  0.00     0.040 A 
ATOM     81  C   UNL     1      -9.332   1.759   4.228  1.00  0.00     0.040 A 
ATOM     82  F   UNL     1      -8.820   3.851   3.282  1.00  0.00    -0.206 F 
ATOM     83  C   UNL     1      -9.715   0.422   4.084  1.00  0.00     0.006 A 
ENDBRANCH  55  76
BRANCH  67  84
ATOM     84  C   UNL     1      -7.208   7.738  -2.305  1.00  0.00     0.057 A 
ATOM     85  C   UNL     1      -7.857   8.726  -1.545  1.00  0.00     0.134 A 
ATOM     86  C   UNL     1      -6.350   8.244  -3.308  1.00  0.00     0.134 A 
ATOM     87  F   UNL     1      -8.589   8.428  -0.463  1.00  0.00    -0.206 F 
ATOM     88  C   UNL     1      -7.739  10.092  -1.818  1.00  0.00     0.040 A 
ATOM     89  C   UNL     1      -6.150   9.608  -3.525  1.00  0.00     0.040 A 
ATOM     90  F   UNL     1      -5.634   7.445  -4.110  1.00  0.00    -0.206 F 
ATOM     91  C   UNL     1      -6.868  10.540  -2.798  1.00  0.00     0.006 A 
ENDBRANCH  67  84
ENDBRANCH  41  42
ENDBRANCH  34  36
ENDBRANCH  33  34
ENDBRANCH  32  33
ENDBRANCH  31  32
ENDBRANCH  30  31
ENDBRANCH  29  30
ENDBRANCH   1  29
TORSDOF 21
