REMARK SMILES CC1CCN(C(=O)Nc2nccnc2C(=O)OCCOCCOCCOC(=O)c2ccc(-c3c4nc(c(-c5c(F)cccc5F)c5ccc([nH]5)c(-c5c(F)cccc5F)c5nc(c(-c6c(F)cccc6F)c6ccc3[nH]6)C=C5)C=C4)cc2)CC1
REMARK SMILES IDX 22 1 21 2 20 3 19 4 18 5 17 6 15 7 16 8 14 9 9 10 10 11
REMARK SMILES IDX 11 12 13 13 12 14 8 15 1 16 2 17 3 18 84 19 4 20 83 21 5 22
REMARK SMILES IDX 6 23 7 24 23 26 24 27 25 28 26 29 27 30 28 31 29 32 30 33
REMARK SMILES IDX 82 34 31 35 81 36 32 37 33 38 34 39 75 40 35 41 80 42 74 43
REMARK SMILES IDX 76 44 36 45 79 46 73 47 72 48 37 50 63 51 46 52 62 53 47 54
REMARK SMILES IDX 50 55 61 56 77 57 48 58 49 59 60 61 78 62 51 63 38 64 39 65
REMARK SMILES IDX 44 66 40 67 41 68 43 69 45 70 42 71 64 72 65 73 70 74 66 75
REMARK SMILES IDX 67 76 69 77 71 78 68 79 52 80 53 81 58 82 54 83 55 84 57 85
REMARK SMILES IDX 59 86 56 87
REMARK H PARENT 8 25 76 49 50 60
REMARK Flexibility Score: inf
ROOT
ATOM      1  C   UNL     1       5.508  -2.090   1.115  1.00  0.00     0.188 C 
ENDROOT
BRANCH   1   2
ATOM      2  C   UNL     1       6.386  -3.333   0.870  1.00  0.00     0.188 C 
BRANCH   2   3
ATOM      3  O   UNL     1       7.720  -3.189   0.400  1.00  0.00    -0.376 OA
BRANCH   3   4
ATOM      4  C   UNL     1       8.014  -2.245  -0.622  1.00  0.00     0.202 C 
BRANCH   4   5
ATOM      5  C   UNL     1       7.244  -2.329  -1.948  1.00  0.00     0.261 C 
BRANCH   5   6
ATOM      6  O   UNL     1       5.811  -2.393  -1.802  1.00  0.00    -0.458 OA
BRANCH   6   7
ATOM      7  C   UNL     1       5.227  -3.514  -2.301  1.00  0.00     0.360 C 
ATOM      8  O   UNL     1       5.800  -4.369  -2.961  1.00  0.00    -0.244 OA
BRANCH   7   9
ATOM      9  C   UNL     1       3.808  -3.670  -1.853  1.00  0.00     0.191 A 
ATOM     10  C   UNL     1       2.905  -2.621  -1.604  1.00  0.00     0.167 A 
ATOM     11  N   UNL     1       1.611  -2.918  -1.343  1.00  0.00    -0.235 NA
ATOM     12  C   UNL     1       1.271  -4.219  -1.192  1.00  0.00     0.133 A 
ATOM     13  N   UNL     1       3.458  -4.987  -1.679  1.00  0.00    -0.244 NA
ATOM     14  C   UNL     1       2.187  -5.234  -1.323  1.00  0.00     0.132 A 
BRANCH  10  15
ATOM     15  N   UNL     1       3.311  -1.278  -1.600  1.00  0.00    -0.290 N 
ATOM     16  C   UNL     1      -2.499   0.053  -0.064  1.00  0.00     0.008 C 
ATOM     17  C   UNL     1      -1.053   0.188   0.412  1.00  0.00    -0.011 C 
ATOM     18  C   UNL     1      -0.340   1.323  -0.350  1.00  0.00     0.025 C 
ATOM     19  C   UNL     1      -0.298  -1.144   0.253  1.00  0.00     0.025 C 
ATOM     20  C   UNL     1       1.168   1.357  -0.086  1.00  0.00     0.121 C 
ATOM     21  C   UNL     1       1.181  -0.961   0.601  1.00  0.00     0.121 C 
ATOM     22  N   UNL     1       1.759   0.033  -0.296  1.00  0.00    -0.324 N 
ATOM     23  C   UNL     1       2.765  -0.102  -1.214  1.00  0.00     0.323 C 
ATOM     24  O   UNL     1       3.304   0.897  -1.710  1.00  0.00    -0.248 OA
ATOM     25  H   UNL     1       4.216  -1.163  -1.968  1.00  0.00     0.173 HD
ENDBRANCH  10  15
ENDBRANCH   7   9
ENDBRANCH   6   7
ENDBRANCH   5   6
ENDBRANCH   4   5
ENDBRANCH   3   4
ENDBRANCH   2   3
ENDBRANCH   1   2
BRANCH   1  26
ATOM     26  O   UNL     1       6.144  -0.856   0.849  1.00  0.00    -0.376 OA
BRANCH  26  27
ATOM     27  C   UNL     1       6.351  -0.011   1.975  1.00  0.00     0.202 C 
BRANCH  27  28
ATOM     28  C   UNL     1       7.344  -0.526   3.030  1.00  0.00     0.261 C 
BRANCH  28  29
ATOM     29  O   UNL     1       7.083  -1.848   3.540  1.00  0.00    -0.460 OA
BRANCH  29  30
ATOM     30  C   UNL     1       6.027  -1.991   4.366  1.00  0.00     0.338 C 
ATOM     31  O   UNL     1       5.257  -1.113   4.736  1.00  0.00    -0.246 OA
BRANCH  30  32
ATOM     32  C   UNL     1       5.813  -3.433   4.604  1.00  0.00     0.060 A 
ATOM     33  C   UNL     1       4.588  -4.003   4.234  1.00  0.00     0.016 A 
ATOM     34  C   UNL     1       6.803  -4.218   5.203  1.00  0.00     0.016 A 
ATOM     35  C   UNL     1       4.333  -5.349   4.503  1.00  0.00     0.010 A 
ATOM     36  C   UNL     1       6.539  -5.563   5.488  1.00  0.00     0.010 A 
ATOM     37  C   UNL     1       5.289  -6.124   5.175  1.00  0.00    -0.014 A 
BRANCH  37  38
ATOM     38  C   UNL     1       4.891  -7.444   5.729  1.00  0.00     0.031 A 
ATOM     39  C   UNL     1       4.443  -7.512   7.165  1.00  0.00     0.074 A 
ATOM     40  C   UNL     1       4.872  -8.553   4.970  1.00  0.00     0.049 A 
ATOM     41  N   UNL     1       3.998  -8.532   7.853  1.00  0.00    -0.248 NA
ATOM     42  C   UNL     1       4.506  -6.253   7.925  1.00  0.00     0.031 C 
ATOM     43  C   UNL     1       5.251  -8.624   3.561  1.00  0.00     0.029 A 
ATOM     44  N   UNL     1       4.510  -9.839   5.288  1.00  0.00    -0.354 N 
ATOM     45  C   UNL     1       3.728  -8.039   9.124  1.00  0.00     0.074 A 
ATOM     46  C   UNL     1       4.095  -6.640   9.122  1.00  0.00     0.031 C 
ATOM     47  C   UNL     1       5.095  -9.889   3.132  1.00  0.00     0.029 A 
ATOM     48  C   UNL     1       4.624 -10.720   4.240  1.00  0.00     0.049 A 
ATOM     49  H   UNL     1       4.198 -10.105   6.183  1.00  0.00     0.167 HD
ATOM     50  C   UNL     1       3.210  -8.687  10.195  1.00  0.00     0.037 A 
ATOM     51  C   UNL     1       4.377 -12.043   4.186  1.00  0.00     0.037 A 
ATOM     52  C   UNL     1       2.855 -10.081  10.207  1.00  0.00     0.049 A 
ATOM     53  C   UNL     1       3.865 -12.759   5.408  1.00  0.00     0.074 A 
ATOM     54  C   UNL     1       2.308 -10.824  11.239  1.00  0.00     0.029 A 
ATOM     55  N   UNL     1       3.027 -10.947   9.139  1.00  0.00    -0.354 N 
ATOM     56  N   UNL     1       3.571 -12.275   6.591  1.00  0.00    -0.248 NA
ATOM     57  C   UNL     1       3.642 -14.207   5.281  1.00  0.00     0.031 C 
ATOM     58  C   UNL     1       2.195 -12.151  10.810  1.00  0.00     0.029 A 
ATOM     59  C   UNL     1       2.620 -12.223   9.492  1.00  0.00     0.049 A 
ATOM     60  H   UNL     1       3.387 -10.693   8.258  1.00  0.00     0.167 HD
ATOM     61  C   UNL     1       3.093 -13.348   7.335  1.00  0.00     0.074 A 
ATOM     62  C   UNL     1       3.132 -14.507   6.468  1.00  0.00     0.031 C 
ATOM     63  C   UNL     1       2.653 -13.369   8.618  1.00  0.00     0.037 A 
BRANCH  50  64
ATOM     64  C   UNL     1       3.034  -7.886  11.453  1.00  0.00     0.057 A 
ATOM     65  C   UNL     1       2.062  -6.882  11.563  1.00  0.00     0.134 A 
ATOM     66  C   UNL     1       3.857  -8.112  12.562  1.00  0.00     0.134 A 
ATOM     67  F   UNL     1       1.253  -6.602  10.530  1.00  0.00    -0.206 F 
ATOM     68  C   UNL     1       1.941  -6.107  12.719  1.00  0.00     0.040 A 
ATOM     69  C   UNL     1       3.727  -7.363  13.733  1.00  0.00     0.040 A 
ATOM     70  F   UNL     1       4.806  -9.060  12.525  1.00  0.00    -0.206 F 
ATOM     71  C   UNL     1       2.773  -6.350  13.809  1.00  0.00     0.006 A 
ENDBRANCH  50  64
BRANCH  51  72
ATOM     72  C   UNL     1       4.586 -12.784   2.916  1.00  0.00     0.057 A 
ATOM     73  C   UNL     1       3.502 -13.274   2.179  1.00  0.00     0.134 A 
ATOM     74  C   UNL     1       5.870 -13.034   2.419  1.00  0.00     0.134 A 
ATOM     75  F   UNL     1       2.248 -13.089   2.618  1.00  0.00    -0.206 F 
ATOM     76  C   UNL     1       3.686 -13.997   0.999  1.00  0.00     0.040 A 
ATOM     77  C   UNL     1       6.069 -13.735   1.228  1.00  0.00     0.040 A 
ATOM     78  F   UNL     1       6.950 -12.595   3.082  1.00  0.00    -0.206 F 
ATOM     79  C   UNL     1       4.974 -14.223   0.517  1.00  0.00     0.006 A 
ENDBRANCH  51  72
BRANCH  63  80
ATOM     80  C   UNL     1       2.128 -14.674   9.147  1.00  0.00     0.057 A 
ATOM     81  C   UNL     1       2.969 -15.758   9.430  1.00  0.00     0.134 A 
ATOM     82  C   UNL     1       0.759 -14.836   9.402  1.00  0.00     0.134 A 
ATOM     83  F   UNL     1       4.288 -15.674   9.199  1.00  0.00    -0.206 F 
ATOM     84  C   UNL     1       2.464 -16.966   9.917  1.00  0.00     0.040 A 
ATOM     85  C   UNL     1       0.247 -16.028   9.916  1.00  0.00     0.040 A 
ATOM     86  F   UNL     1      -0.101 -13.835   9.165  1.00  0.00    -0.206 F 
ATOM     87  C   UNL     1       1.099 -17.101  10.167  1.00  0.00     0.006 A 
ENDBRANCH  63  80
ENDBRANCH  37  38
ENDBRANCH  30  32
ENDBRANCH  29  30
ENDBRANCH  28  29
ENDBRANCH  27  28
ENDBRANCH  26  27
ENDBRANCH   1  26
TORSDOF 18
