REMARK SMILES CC[C@@H](C)CNC(=O)N1CCO[C@@H](CC(=O)OCCOCCOCCOC(=O)c2ccc(-c3c4nc(c(-c5c(F)cccc5F)c5ccc([nH]5)c(-c5c(F)cccc5F)c5nc(c(-c6c(F)cccc6F)c6ccc3[nH]6)C=C5)C=C4)cc2)C1
REMARK SMILES IDX 20 1 19 2 18 3 17 4 15 5 16 6 14 7 13 8 9 9 10 10 83 11
REMARK SMILES IDX 11 12 12 13 7 14 6 15 8 17 5 18 3 19 4 20 2 21 1 22 21 23
REMARK SMILES IDX 22 24 23 25 24 26 25 27 26 28 27 29 28 30 29 31 30 32 82 33
REMARK SMILES IDX 31 34 81 35 32 36 33 37 34 38 75 39 35 40 80 41 74 42 76 43
REMARK SMILES IDX 36 44 79 45 73 46 72 47 37 49 63 50 46 51 62 52 47 53 50 54
REMARK SMILES IDX 61 55 77 56 48 57 49 58 60 60 78 61 51 62 38 63 39 64 44 65
REMARK SMILES IDX 40 66 41 67 43 68 45 69 42 70 64 71 65 72 70 73 66 74 67 75
REMARK SMILES IDX 69 76 71 77 68 78 52 79 53 80 58 81 54 82 55 83 57 84 59 85
REMARK SMILES IDX 56 86
REMARK H PARENT 6 16 76 48 50 59
REMARK Flexibility Score: inf
ROOT
ATOM      1  O   UNL     1       8.473  -4.726  -5.396  1.00  0.00    -0.376 OA
ENDROOT
BRANCH   1   2
ATOM      2  C   UNL     1       8.116  -3.733  -6.359  1.00  0.00     0.202 C 
BRANCH   2   3
ATOM      3  C   UNL     1       7.072  -4.148  -7.407  1.00  0.00     0.261 C 
BRANCH   3   4
ATOM      4  O   UNL     1       5.833  -4.636  -6.845  1.00  0.00    -0.463 OA
BRANCH   4   5
ATOM      5  C   UNL     1       5.480  -5.895  -7.200  1.00  0.00     0.308 C 
ATOM      6  O   UNL     1       6.094  -6.588  -8.006  1.00  0.00    -0.252 OA
BRANCH   5   7
ATOM      7  C   UNL     1       4.303  -6.458  -6.446  1.00  0.00     0.156 C 
BRANCH   7   8
ATOM      8  C   UNL     1       3.439  -5.601  -5.524  1.00  0.00     0.149 C 
ATOM      9  N   UNL     1       1.774  -3.775  -5.355  1.00  0.00    -0.320 N 
ATOM     10  C   UNL     1       0.737  -4.752  -5.042  1.00  0.00     0.150 C 
ATOM     11  C   UNL     1       2.840  -4.343  -6.194  1.00  0.00     0.154 C 
ATOM     12  C   UNL     1       1.380  -5.911  -4.287  1.00  0.00     0.182 C 
ATOM     13  O   UNL     1       2.393  -6.524  -5.094  1.00  0.00    -0.374 OA
BRANCH   9  14
ATOM     14  C   UNL     1       1.784  -2.445  -5.052  1.00  0.00     0.317 C 
ATOM     15  N   UNL     1       1.075  -1.954  -4.010  1.00  0.00    -0.338 N 
ATOM     16  H   UNL     1       0.917  -0.984  -4.060  1.00  0.00     0.165 HD
ATOM     17  O   UNL     1       2.452  -1.633  -5.695  1.00  0.00    -0.249 OA
BRANCH  15  18
ATOM     18  C   UNL     1       0.503  -2.581  -2.830  1.00  0.00     0.121 C 
BRANCH  18  19
ATOM     19  C   UNL     1       0.986  -1.963  -1.503  1.00  0.00     0.005 C 
ATOM     20  C   UNL     1       0.557  -2.887  -0.354  1.00  0.00     0.009 C 
BRANCH  19  21
ATOM     21  C   UNL     1       0.458  -0.530  -1.304  1.00  0.00     0.002 C 
ATOM     22  C   UNL     1       0.948   0.121  -0.015  1.00  0.00     0.004 C 
ENDBRANCH  19  21
ENDBRANCH  18  19
ENDBRANCH  15  18
ENDBRANCH   9  14
ENDBRANCH   7   8
ENDBRANCH   5   7
ENDBRANCH   4   5
ENDBRANCH   3   4
ENDBRANCH   2   3
ENDBRANCH   1   2
BRANCH   1  23
ATOM     23  C   UNL     1       7.435  -5.181  -4.532  1.00  0.00     0.188 C 
BRANCH  23  24
ATOM     24  C   UNL     1       6.721  -4.098  -3.724  1.00  0.00     0.188 C 
BRANCH  24  25
ATOM     25  O   UNL     1       6.222  -3.011  -4.487  1.00  0.00    -0.376 OA
BRANCH  25  26
ATOM     26  C   UNL     1       5.683  -1.897  -3.769  1.00  0.00     0.202 C 
BRANCH  26  27
ATOM     27  C   UNL     1       6.524  -1.327  -2.603  1.00  0.00     0.261 C 
BRANCH  27  28
ATOM     28  O   UNL     1       6.835  -2.254  -1.538  1.00  0.00    -0.460 OA
BRANCH  28  29
ATOM     29  C   UNL     1       5.809  -2.938  -0.984  1.00  0.00     0.338 C 
ATOM     30  O   UNL     1       4.622  -2.677  -1.094  1.00  0.00    -0.246 OA
BRANCH  29  31
ATOM     31  C   UNL     1       6.320  -4.222  -0.430  1.00  0.00     0.060 A 
ATOM     32  C   UNL     1       5.521  -5.362  -0.597  1.00  0.00     0.016 A 
ATOM     33  C   UNL     1       7.570  -4.339   0.189  1.00  0.00     0.016 A 
ATOM     34  C   UNL     1       5.930  -6.596  -0.088  1.00  0.00     0.010 A 
ATOM     35  C   UNL     1       7.977  -5.578   0.709  1.00  0.00     0.010 A 
ATOM     36  C   UNL     1       7.136  -6.702   0.618  1.00  0.00    -0.014 A 
BRANCH  36  37
ATOM     37  C   UNL     1       7.380  -7.921   1.435  1.00  0.00     0.031 A 
ATOM     38  C   UNL     1       7.065  -7.870   2.908  1.00  0.00     0.074 A 
ATOM     39  C   UNL     1       7.781  -9.083   0.888  1.00  0.00     0.049 A 
ATOM     40  N   UNL     1       7.097  -8.824   3.805  1.00  0.00    -0.248 NA
ATOM     41  C   UNL     1       6.652  -6.561   3.438  1.00  0.00     0.031 C 
ATOM     42  C   UNL     1       8.082  -9.294  -0.525  1.00  0.00     0.029 A 
ATOM     43  N   UNL     1       7.987 -10.314   1.465  1.00  0.00    -0.354 N 
ATOM     44  C   UNL     1       6.705  -8.232   4.999  1.00  0.00     0.074 A 
ATOM     45  C   UNL     1       6.490  -6.828   4.724  1.00  0.00     0.031 C 
ATOM     46  C   UNL     1       8.417 -10.584  -0.710  1.00  0.00     0.029 A 
ATOM     47  C   UNL     1       8.376 -11.284   0.574  1.00  0.00     0.049 A 
ATOM     48  H   UNL     1       7.866 -10.483   2.427  1.00  0.00     0.167 HD
ATOM     49  C   UNL     1       6.521  -8.802   6.215  1.00  0.00     0.037 A 
ATOM     50  C   UNL     1       8.662 -12.587   0.771  1.00  0.00     0.037 A 
ATOM     51  C   UNL     1       6.747 -10.194   6.503  1.00  0.00     0.049 A 
ATOM     52  C   UNL     1       8.541 -13.184   2.150  1.00  0.00     0.074 A 
ATOM     53  C   UNL     1       6.577 -10.865   7.702  1.00  0.00     0.029 A 
ATOM     54  N   UNL     1       7.212 -11.125   5.587  1.00  0.00    -0.354 N 
ATOM     55  N   UNL     1       8.133 -12.625   3.264  1.00  0.00    -0.248 NA
ATOM     56  C   UNL     1       8.914 -14.600   2.295  1.00  0.00     0.031 C 
ATOM     57  C   UNL     1       7.000 -12.187   7.527  1.00  0.00     0.029 A 
ATOM     58  C   UNL     1       7.367 -12.358   6.202  1.00  0.00     0.049 A 
ATOM     59  H   UNL     1       7.404 -10.939   4.640  1.00  0.00     0.167 HD
ATOM     60  C   UNL     1       8.162 -13.627   4.229  1.00  0.00     0.074 A 
ATOM     61  C   UNL     1       8.624 -14.829   3.568  1.00  0.00     0.031 C 
ATOM     62  C   UNL     1       7.824 -13.556   5.541  1.00  0.00     0.037 A 
BRANCH  49  63
ATOM     63  C   UNL     1       6.090  -7.894   7.333  1.00  0.00     0.057 A 
ATOM     64  C   UNL     1       4.822  -7.295   7.361  1.00  0.00     0.134 A 
ATOM     65  C   UNL     1       6.963  -7.599   8.388  1.00  0.00     0.134 A 
ATOM     66  F   UNL     1       3.941  -7.521   6.374  1.00  0.00    -0.206 F 
ATOM     67  C   UNL     1       4.457  -6.402   8.370  1.00  0.00     0.040 A 
ATOM     68  C   UNL     1       6.596  -6.736   9.421  1.00  0.00     0.040 A 
ATOM     69  F   UNL     1       8.189  -8.142   8.430  1.00  0.00    -0.206 F 
ATOM     70  C   UNL     1       5.345  -6.123   9.406  1.00  0.00     0.006 A 
ENDBRANCH  49  63
BRANCH  50  71
ATOM     71  C   UNL     1       9.071 -13.435  -0.379  1.00  0.00     0.057 A 
ATOM     72  C   UNL     1       8.233 -14.445  -0.868  1.00  0.00     0.134 A 
ATOM     73  C   UNL     1      10.308 -13.263  -1.011  1.00  0.00     0.134 A 
ATOM     74  F   UNL     1       7.048 -14.680  -0.286  1.00  0.00    -0.206 F 
ATOM     75  C   UNL     1       8.612 -15.256  -1.940  1.00  0.00     0.040 A 
ATOM     76  C   UNL     1      10.690 -14.049  -2.100  1.00  0.00     0.040 A 
ATOM     77  F   UNL     1      11.159 -12.318  -0.586  1.00  0.00    -0.206 F 
ATOM     78  C   UNL     1       9.841 -15.052  -2.565  1.00  0.00     0.006 A 
ENDBRANCH  50  71
BRANCH  62  79
ATOM     79  C   UNL     1       7.891 -14.824   6.348  1.00  0.00     0.057 A 
ATOM     80  C   UNL     1       9.107 -15.429   6.692  1.00  0.00     0.134 A 
ATOM     81  C   UNL     1       6.717 -15.426   6.823  1.00  0.00     0.134 A 
ATOM     82  F   UNL     1      10.269 -14.913   6.266  1.00  0.00    -0.206 F 
ATOM     83  C   UNL     1       9.151 -16.601   7.453  1.00  0.00     0.040 A 
ATOM     84  C   UNL     1       6.750 -16.579   7.609  1.00  0.00     0.040 A 
ATOM     85  F   UNL     1       5.518 -14.895   6.543  1.00  0.00    -0.206 F 
ATOM     86  C   UNL     1       7.970 -17.175   7.919  1.00  0.00     0.006 A 
ENDBRANCH  62  79
ENDBRANCH  36  37
ENDBRANCH  29  31
ENDBRANCH  28  29
ENDBRANCH  27  28
ENDBRANCH  26  27
ENDBRANCH  25  26
ENDBRANCH  24  25
ENDBRANCH  23  24
ENDBRANCH   1  23
TORSDOF 22
