REMARK SMILES CSc1ccc(/C=C2\C(C)=C(CC(=O)OCCOCCOCCOC(=O)c3ccc(-c4c5nc(c(-c6c(F)cccc6F)c6ccc([nH]6)c(-c6c(F)cccc6F)c6nc(c(-c7c(F)cccc7F)c7ccc4[nH]7)C=C6)C=C5)cc3)c3cc(F)ccc32)cc1
REMARK SMILES IDX 19 1 18 2 17 3 16 4 15 5 13 6 14 7 12 8 11 9 7 10 8 11 9 12
REMARK SMILES IDX 87 13 10 14 81 15 86 16 82 17 85 18 83 19 84 20 6 21 3 22
REMARK SMILES IDX 4 23 89 24 5 25 88 26 2 27 1 28 20 29 21 30 22 31 23 32
REMARK SMILES IDX 24 33 25 34 26 35 27 36 28 37 80 38 29 39 79 40 30 41 31 42
REMARK SMILES IDX 32 43 73 44 33 45 78 46 72 47 74 48 34 49 77 50 71 51 70 52
REMARK SMILES IDX 35 54 61 55 44 56 60 57 45 58 48 59 59 60 75 61 46 62 47 63
REMARK SMILES IDX 58 65 76 66 49 67 36 68 37 69 42 70 38 71 39 72 41 73 43 74
REMARK SMILES IDX 40 75 62 76 63 77 68 78 64 79 65 80 67 81 69 82 66 83 50 84
REMARK SMILES IDX 51 85 56 86 52 87 53 88 55 89 57 90 54 91
REMARK H PARENT 74 53 48 64
REMARK Flexibility Score: inf
ROOT
ATOM      1  C   UNL     1       9.846   7.789  -0.358  1.00  0.00     0.188 C 
ENDROOT
BRANCH   1   2
ATOM      2  O   UNL     1       9.882   8.612   0.797  1.00  0.00    -0.376 OA
BRANCH   2   3
ATOM      3  C   UNL     1       8.701   8.707   1.592  1.00  0.00     0.202 C 
BRANCH   3   4
ATOM      4  C   UNL     1       7.414   9.072   0.851  1.00  0.00     0.261 C 
BRANCH   4   5
ATOM      5  O   UNL     1       6.859   7.961   0.103  1.00  0.00    -0.463 OA
BRANCH   5   6
ATOM      6  C   UNL     1       6.516   8.239  -1.179  1.00  0.00     0.310 C 
ATOM      7  O   UNL     1       6.662   9.340  -1.706  1.00  0.00    -0.252 OA
BRANCH   6   8
ATOM      8  C   UNL     1       5.882   7.094  -1.961  1.00  0.00     0.159 C 
BRANCH   8   9
ATOM      9  C   UNL     1       5.955   5.620  -1.514  1.00  0.00    -0.025 C 
ATOM     10  C   UNL     1       2.982   4.551  -3.086  1.00  0.00     0.017 C 
ATOM     11  C   UNL     1       4.234   4.684  -2.627  1.00  0.00    -0.014 C 
ATOM     12  C   UNL     1       4.789   4.953  -1.268  1.00  0.00    -0.039 C 
ATOM     13  C   UNL     1       5.413   4.398  -3.476  1.00  0.00    -0.010 A 
ATOM     14  C   UNL     1       4.888   3.708  -0.379  1.00  0.00     0.045 C 
ATOM     15  C   UNL     1       6.473   4.744  -2.625  1.00  0.00    -0.011 A 
ATOM     16  C   UNL     1       5.539   3.436  -4.477  1.00  0.00     0.012 A 
ATOM     17  C   UNL     1       7.584   3.924  -2.604  1.00  0.00     0.048 A 
ATOM     18  C   UNL     1       6.735   2.723  -4.548  1.00  0.00     0.040 A 
ATOM     19  C   UNL     1       7.722   2.940  -3.586  1.00  0.00     0.123 A 
ATOM     20  F   UNL     1       8.784   2.124  -3.549  1.00  0.00    -0.207 F 
BRANCH  10  21
ATOM     21  C   UNL     1       1.738   4.256  -2.349  1.00  0.00    -0.025 A 
ATOM     22  C   UNL     1      -0.116   2.428  -1.337  1.00  0.00     0.007 A 
ATOM     23  C   UNL     1       0.833   3.001  -0.495  1.00  0.00     0.015 A 
ATOM     24  C   UNL     1      -0.286   2.955  -2.618  1.00  0.00     0.015 A 
ATOM     25  C   UNL     1       1.724   3.950  -0.991  1.00  0.00     0.009 A 
ATOM     26  C   UNL     1       0.638   3.872  -3.124  1.00  0.00     0.009 A 
BRANCH  22  27
ATOM     27  S   UNL     1      -1.034   0.980  -0.852  1.00  0.00    -0.130 SA
ATOM     28  C   UNL     1       0.323  -0.040  -0.184  1.00  0.00     0.091 C 
ENDBRANCH  22  27
ENDBRANCH  10  21
ENDBRANCH   8   9
ENDBRANCH   6   8
ENDBRANCH   5   6
ENDBRANCH   4   5
ENDBRANCH   3   4
ENDBRANCH   2   3
ENDBRANCH   1   2
BRANCH   1  29
ATOM     29  C   UNL     1       9.337   6.353  -0.207  1.00  0.00     0.188 C 
BRANCH  29  30
ATOM     30  O   UNL     1       9.152   5.941   1.136  1.00  0.00    -0.376 OA
BRANCH  30  31
ATOM     31  C   UNL     1       9.295   4.542   1.357  1.00  0.00     0.202 C 
BRANCH  31  32
ATOM     32  C   UNL     1      10.776   4.194   1.559  1.00  0.00     0.261 C 
BRANCH  32  33
ATOM     33  O   UNL     1      11.550   4.297   0.345  1.00  0.00    -0.460 OA
BRANCH  33  34
ATOM     34  C   UNL     1      11.264   3.365  -0.592  1.00  0.00     0.338 C 
ATOM     35  O   UNL     1      10.506   2.420  -0.477  1.00  0.00    -0.246 OA
BRANCH  34  36
ATOM     36  C   UNL     1      11.844   3.790  -1.879  1.00  0.00     0.060 A 
ATOM     37  C   UNL     1      10.988   4.333  -2.839  1.00  0.00     0.016 A 
ATOM     38  C   UNL     1      13.183   3.584  -2.182  1.00  0.00     0.016 A 
ATOM     39  C   UNL     1      11.418   4.592  -4.129  1.00  0.00     0.010 A 
ATOM     40  C   UNL     1      13.637   3.889  -3.470  1.00  0.00     0.010 A 
ATOM     41  C   UNL     1      12.750   4.362  -4.458  1.00  0.00    -0.014 A 
BRANCH  41  42
ATOM     42  C   UNL     1      13.188   4.519  -5.860  1.00  0.00     0.031 A 
ATOM     43  C   UNL     1      13.569   3.297  -6.638  1.00  0.00     0.074 A 
ATOM     44  C   UNL     1      13.212   5.730  -6.445  1.00  0.00     0.049 A 
ATOM     45  N   UNL     1      14.204   3.205  -7.776  1.00  0.00    -0.248 NA
ATOM     46  C   UNL     1      13.188   2.002  -6.049  1.00  0.00     0.031 C 
ATOM     47  C   UNL     1      12.749   6.979  -5.839  1.00  0.00     0.029 A 
ATOM     48  N   UNL     1      13.662   6.105  -7.685  1.00  0.00    -0.354 N 
ATOM     49  C   UNL     1      14.352   1.846  -8.011  1.00  0.00     0.074 A 
ATOM     50  C   UNL     1      13.729   1.149  -6.906  1.00  0.00     0.031 C 
ATOM     51  C   UNL     1      12.957   7.986  -6.702  1.00  0.00     0.029 A 
ATOM     52  C   UNL     1      13.636   7.463  -7.883  1.00  0.00     0.049 A 
ATOM     53  H   UNL     1      13.973   5.465  -8.365  1.00  0.00     0.167 HD
ATOM     54  C   UNL     1      14.969   1.242  -9.052  1.00  0.00     0.037 A 
ATOM     55  C   UNL     1      14.162   8.206  -8.875  1.00  0.00     0.037 A 
ATOM     56  C   UNL     1      15.546   1.949 -10.163  1.00  0.00     0.049 A 
ATOM     57  C   UNL     1      14.912   7.521  -9.982  1.00  0.00     0.074 A 
ATOM     58  C   UNL     1      16.193   1.433 -11.272  1.00  0.00     0.029 A 
ATOM     59  N   UNL     1      15.536   3.328 -10.309  1.00  0.00    -0.354 N 
ATOM     60  N   UNL     1      15.125   6.240 -10.167  1.00  0.00    -0.248 NA
ATOM     61  C   UNL     1      15.515   8.384 -11.006  1.00  0.00     0.031 C 
ATOM     62  C   UNL     1      16.607   2.505 -12.072  1.00  0.00     0.029 A 
ATOM     63  C   UNL     1      16.179   3.684 -11.482  1.00  0.00     0.049 A 
ATOM     64  H   UNL     1      15.130   3.961  -9.673  1.00  0.00     0.167 HD
ATOM     65  C   UNL     1      15.869   6.142 -11.335  1.00  0.00     0.074 A 
ATOM     66  C   UNL     1      16.060   7.493 -11.822  1.00  0.00     0.031 C 
ATOM     67  C   UNL     1      16.352   5.035 -11.950  1.00  0.00     0.037 A 
BRANCH  54  68
ATOM     68  C   UNL     1      15.098  -0.249  -9.007  1.00  0.00     0.057 A 
ATOM     69  C   UNL     1      14.014  -1.103  -9.243  1.00  0.00     0.134 A 
ATOM     70  C   UNL     1      16.342  -0.838  -8.742  1.00  0.00     0.134 A 
ATOM     71  F   UNL     1      12.793  -0.601  -9.481  1.00  0.00    -0.206 F 
ATOM     72  C   UNL     1      14.160  -2.491  -9.204  1.00  0.00     0.040 A 
ATOM     73  C   UNL     1      16.505  -2.223  -8.723  1.00  0.00     0.040 A 
ATOM     74  F   UNL     1      17.419  -0.074  -8.503  1.00  0.00    -0.206 F 
ATOM     75  C   UNL     1      15.410  -3.054  -8.950  1.00  0.00     0.006 A 
ENDBRANCH  54  68
BRANCH  55  76
ATOM     76  C   UNL     1      14.057   9.685  -8.827  1.00  0.00     0.057 A 
ATOM     77  C   UNL     1      13.256  10.384  -9.736  1.00  0.00     0.134 A 
ATOM     78  C   UNL     1      14.759  10.434  -7.874  1.00  0.00     0.134 A 
ATOM     79  F   UNL     1      12.580   9.723 -10.687  1.00  0.00    -0.206 F 
ATOM     80  C   UNL     1      13.162  11.776  -9.704  1.00  0.00     0.040 A 
ATOM     81  C   UNL     1      14.655  11.824  -7.815  1.00  0.00     0.040 A 
ATOM     82  F   UNL     1      15.545   9.822  -6.976  1.00  0.00    -0.206 F 
ATOM     83  C   UNL     1      13.858  12.499  -8.737  1.00  0.00     0.006 A 
ENDBRANCH  55  76
BRANCH  67  84
ATOM     84  C   UNL     1      17.099   5.237 -13.233  1.00  0.00     0.057 A 
ATOM     85  C   UNL     1      18.404   5.742 -13.255  1.00  0.00     0.134 A 
ATOM     86  C   UNL     1      16.518   4.881 -14.457  1.00  0.00     0.134 A 
ATOM     87  F   UNL     1      19.009   6.113 -12.117  1.00  0.00    -0.206 F 
ATOM     88  C   UNL     1      19.101   5.902 -14.454  1.00  0.00     0.040 A 
ATOM     89  C   UNL     1      17.213   5.014 -15.659  1.00  0.00     0.040 A 
ATOM     90  F   UNL     1      15.273   4.383 -14.501  1.00  0.00    -0.206 F 
ATOM     91  C   UNL     1      18.508   5.531 -15.659  1.00  0.00     0.006 A 
ENDBRANCH  67  84
ENDBRANCH  41  42
ENDBRANCH  34  36
ENDBRANCH  33  34
ENDBRANCH  32  33
ENDBRANCH  31  32
ENDBRANCH  30  31
ENDBRANCH  29  30
ENDBRANCH   1  29
TORSDOF 20
