REMARK SMILES CC(C)CCn1cc(C(=O)OCCOCCOCCOC(=O)c2ccc(-c3c4nc(c(-c5c(F)cccc5F)c5ccc([nH]5)c(-c5c(F)cccc5F)c5nc(c(-c6c(F)cccc6F)c6ccc3[nH]6)C=C5)C=C4)cc2)c(-c2ccoc2)n1
REMARK SMILES IDX 15 1 14 2 13 3 12 4 11 5 9 6 10 7 8 8 6 9 7 10 83 11 77 12
REMARK SMILES IDX 5 13 4 14 2 15 1 16 3 17 78 18 79 19 82 20 80 21 81 22 16 23
REMARK SMILES IDX 17 24 18 25 19 26 20 27 21 28 22 29 23 30 24 31 76 32 25 33
REMARK SMILES IDX 75 34 26 35 27 36 28 37 69 38 29 39 74 40 68 41 70 42 30 43
REMARK SMILES IDX 73 44 67 45 66 46 31 48 57 49 40 50 56 51 41 52 44 53 55 54
REMARK SMILES IDX 71 55 42 56 43 57 54 59 72 60 45 61 32 62 33 63 38 64 34 65
REMARK SMILES IDX 35 66 37 67 39 68 36 69 58 70 59 71 64 72 60 73 61 74 63 75
REMARK SMILES IDX 65 76 62 77 46 78 47 79 52 80 48 81 49 82 51 83 53 84 50 85
REMARK H PARENT 70 47 44 58
REMARK Flexibility Score: inf
ROOT
ATOM      1  C   UNL     1       2.162   0.409  -6.783  1.00  0.00     0.188 C 
ENDROOT
BRANCH   1   2
ATOM      2  O   UNL     1       2.475   1.489  -7.633  1.00  0.00    -0.376 OA
BRANCH   2   3
ATOM      3  C   UNL     1       1.409   2.210  -8.225  1.00  0.00     0.202 C 
BRANCH   3   4
ATOM      4  C   UNL     1       0.136   2.621  -7.448  1.00  0.00     0.261 C 
BRANCH   4   5
ATOM      5  O   UNL     1      -0.167   1.945  -6.222  1.00  0.00    -0.460 OA
BRANCH   5   6
ATOM      6  C   UNL     1      -0.983   0.839  -6.296  1.00  0.00     0.342 C 
ATOM      7  O   UNL     1      -1.453   0.411  -7.311  1.00  0.00    -0.246 OA
BRANCH   6   8
ATOM      8  C   UNL     1      -1.102   0.188  -4.993  1.00  0.00     0.106 A 
ATOM      9  N   UNL     1      -1.303  -0.223  -2.833  1.00  0.00    -0.271 N 
ATOM     10  C   UNL     1      -1.242   0.788  -3.753  1.00  0.00     0.125 A 
ATOM     11  N   UNL     1      -1.171  -1.440  -3.383  1.00  0.00    -0.172 NA
ATOM     12  C   UNL     1      -1.007  -1.192  -4.685  1.00  0.00     0.110 A 
BRANCH   9  13
ATOM     13  C   UNL     1      -1.584  -0.094  -1.415  1.00  0.00     0.144 C 
BRANCH  13  14
ATOM     14  C   UNL     1      -0.979  -1.175  -0.506  1.00  0.00     0.027 C 
BRANCH  14  15
ATOM     15  C   UNL     1       0.561  -1.204  -0.442  1.00  0.00    -0.016 C 
ATOM     16  C   UNL     1       1.141   0.088   0.132  1.00  0.00     0.007 C 
ATOM     17  C   UNL     1       1.019  -2.394   0.408  1.00  0.00     0.007 C 
ENDBRANCH  14  15
ENDBRANCH  13  14
ENDBRANCH   9  13
BRANCH  12  18
ATOM     18  C   UNL     1      -0.628  -2.262  -5.592  1.00  0.00     0.041 A 
ATOM     19  C   UNL     1      -1.519  -3.129  -6.260  1.00  0.00     0.052 A 
ATOM     20  C   UNL     1       0.642  -2.709  -5.872  1.00  0.00     0.205 A 
ATOM     21  C   UNL     1      -0.728  -4.034  -6.932  1.00  0.00     0.195 A 
ATOM     22  O   UNL     1       0.589  -3.777  -6.712  1.00  0.00    -0.472 OA
ENDBRANCH  12  18
ENDBRANCH   6   8
ENDBRANCH   5   6
ENDBRANCH   4   5
ENDBRANCH   3   4
ENDBRANCH   2   3
ENDBRANCH   1   2
BRANCH   1  23
ATOM     23  C   UNL     1       2.329   0.740  -5.284  1.00  0.00     0.188 C 
BRANCH  23  24
ATOM     24  O   UNL     1       2.569   2.068  -4.833  1.00  0.00    -0.376 OA
BRANCH  24  25
ATOM     25  C   UNL     1       3.451   2.948  -5.515  1.00  0.00     0.202 C 
BRANCH  25  26
ATOM     26  C   UNL     1       4.847   2.509  -5.948  1.00  0.00     0.261 C 
BRANCH  26  27
ATOM     27  O   UNL     1       4.965   1.144  -6.292  1.00  0.00    -0.460 OA
BRANCH  27  28
ATOM     28  C   UNL     1       5.317   0.344  -5.266  1.00  0.00     0.338 C 
ATOM     29  O   UNL     1       5.355   0.624  -4.081  1.00  0.00    -0.246 OA
BRANCH  28  30
ATOM     30  C   UNL     1       5.801  -0.920  -5.827  1.00  0.00     0.060 A 
ATOM     31  C   UNL     1       6.165  -1.903  -4.907  1.00  0.00     0.016 A 
ATOM     32  C   UNL     1       6.261  -0.917  -7.151  1.00  0.00     0.016 A 
ATOM     33  C   UNL     1       7.231  -2.709  -5.227  1.00  0.00     0.010 A 
ATOM     34  C   UNL     1       7.350  -1.688  -7.451  1.00  0.00     0.010 A 
ATOM     35  C   UNL     1       7.878  -2.495  -6.449  1.00  0.00    -0.014 A 
BRANCH  35  36
ATOM     36  C   UNL     1       9.088  -3.228  -6.726  1.00  0.00     0.031 A 
ATOM     37  C   UNL     1       8.797  -4.594  -7.194  1.00  0.00     0.074 A 
ATOM     38  C   UNL     1      10.310  -2.668  -6.651  1.00  0.00     0.049 A 
ATOM     39  N   UNL     1       8.927  -5.679  -6.511  1.00  0.00    -0.248 NA
ATOM     40  C   UNL     1       8.056  -4.759  -8.456  1.00  0.00     0.031 C 
ATOM     41  C   UNL     1      10.668  -1.267  -6.424  1.00  0.00     0.029 A 
ATOM     42  N   UNL     1      11.516  -3.262  -6.856  1.00  0.00    -0.354 N 
ATOM     43  C   UNL     1       8.502  -6.693  -7.357  1.00  0.00     0.074 A 
ATOM     44  C   UNL     1       7.757  -6.057  -8.409  1.00  0.00     0.031 C 
ATOM     45  C   UNL     1      11.975  -1.086  -6.729  1.00  0.00     0.029 A 
ATOM     46  C   UNL     1      12.569  -2.372  -7.054  1.00  0.00     0.049 A 
ATOM     47  H   UNL     1      11.635  -4.239  -6.864  1.00  0.00     0.167 HD
ATOM     48  C   UNL     1       9.063  -7.928  -7.285  1.00  0.00     0.037 A 
ATOM     49  C   UNL     1      13.796  -2.707  -7.534  1.00  0.00     0.037 A 
ATOM     50  C   UNL     1       9.786  -8.093  -6.047  1.00  0.00     0.049 A 
ATOM     51  C   UNL     1      13.959  -4.173  -7.321  1.00  0.00     0.074 A 
ATOM     52  C   UNL     1       9.442  -8.031  -4.710  1.00  0.00     0.029 A 
ATOM     53  N   UNL     1      11.153  -7.955  -6.095  1.00  0.00    -0.354 N 
ATOM     54  N   UNL     1      14.096  -4.714  -6.142  1.00  0.00    -0.248 NA
ATOM     55  C   UNL     1      13.464  -5.065  -8.362  1.00  0.00     0.031 C 
ATOM     56  C   UNL     1      10.546  -7.394  -4.073  1.00  0.00     0.029 A 
ATOM     57  C   UNL     1      11.535  -7.178  -5.033  1.00  0.00     0.049 A 
ATOM     58  H   UNL     1      11.752  -8.345  -6.772  1.00  0.00     0.167 HD
ATOM     59  C   UNL     1      13.292  -5.844  -6.180  1.00  0.00     0.074 A 
ATOM     60  C   UNL     1      12.984  -6.049  -7.595  1.00  0.00     0.031 C 
ATOM     61  C   UNL     1      12.697  -6.321  -5.048  1.00  0.00     0.037 A 
BRANCH  48  62
ATOM     62  C   UNL     1       9.314  -8.805  -8.484  1.00  0.00     0.057 A 
ATOM     63  C   UNL     1       9.789 -10.110  -8.273  1.00  0.00     0.134 A 
ATOM     64  C   UNL     1       9.395  -8.346  -9.816  1.00  0.00     0.134 A 
ATOM     65  F   UNL     1       9.777 -10.656  -7.048  1.00  0.00    -0.206 F 
ATOM     66  C   UNL     1      10.378 -10.866  -9.291  1.00  0.00     0.040 A 
ATOM     67  C   UNL     1       9.929  -9.115 -10.851  1.00  0.00     0.040 A 
ATOM     68  F   UNL     1       9.067  -7.102 -10.180  1.00  0.00    -0.206 F 
ATOM     69  C   UNL     1      10.456 -10.366 -10.585  1.00  0.00     0.006 A 
ENDBRANCH  48  62
BRANCH  49  70
ATOM     70  C   UNL     1      14.693  -1.943  -8.437  1.00  0.00     0.057 A 
ATOM     71  C   UNL     1      16.004  -2.380  -8.694  1.00  0.00     0.134 A 
ATOM     72  C   UNL     1      14.208  -0.939  -9.292  1.00  0.00     0.134 A 
ATOM     73  F   UNL     1      16.554  -3.357  -7.958  1.00  0.00    -0.206 F 
ATOM     74  C   UNL     1      16.767  -1.878  -9.758  1.00  0.00     0.040 A 
ATOM     75  C   UNL     1      14.961  -0.426 -10.354  1.00  0.00     0.040 A 
ATOM     76  F   UNL     1      12.952  -0.483  -9.187  1.00  0.00    -0.206 F 
ATOM     77  C   UNL     1      16.239  -0.908 -10.603  1.00  0.00     0.006 A 
ENDBRANCH  49  70
BRANCH  61  78
ATOM     78  C   UNL     1      13.123  -5.744  -3.727  1.00  0.00     0.057 A 
ATOM     79  C   UNL     1      12.948  -4.402  -3.355  1.00  0.00     0.134 A 
ATOM     80  C   UNL     1      13.576  -6.620  -2.734  1.00  0.00     0.134 A 
ATOM     81  F   UNL     1      12.423  -3.509  -4.205  1.00  0.00    -0.206 F 
ATOM     82  C   UNL     1      13.249  -3.948  -2.067  1.00  0.00     0.040 A 
ATOM     83  C   UNL     1      13.846  -6.187  -1.435  1.00  0.00     0.040 A 
ATOM     84  F   UNL     1      13.712  -7.929  -3.001  1.00  0.00    -0.206 F 
ATOM     85  C   UNL     1      13.693  -4.845  -1.100  1.00  0.00     0.006 A 
ENDBRANCH  61  78
ENDBRANCH  35  36
ENDBRANCH  28  30
ENDBRANCH  27  28
ENDBRANCH  26  27
ENDBRANCH  25  26
ENDBRANCH  24  25
ENDBRANCH  23  24
ENDBRANCH   1  23
TORSDOF 21
