REMARK SMILES [NH3+][C@@]1(C(=O)OCCOCCOCCOC(=O)c2ccc(-c3c4nc(c(-c5c(F)cccc5F)c5ccc([nH]5)c(-c5c(F)cccc5F)c5nc(c(-c6c(F)cccc6F)c6ccc3[nH]6)C=C5)C=C4)cc2)CC[N@H+](Cc2ccc(OCC(=O)N3CCCCC3)cc2)C1
REMARK SMILES IDX 8 1 7 2 6 3 5 4 3 5 4 6 2 7 71 8 91 9 72 10 73 11 1 13 74 17
REMARK SMILES IDX 75 18 76 19 90 20 77 21 89 22 78 23 79 24 80 25 81 26 82 27
REMARK SMILES IDX 83 28 84 29 88 30 85 31 87 32 86 33 9 34 10 35 11 36 12 37
REMARK SMILES IDX 13 38 14 39 15 40 16 41 17 42 18 43 70 44 19 45 69 46 20 47
REMARK SMILES IDX 21 48 22 49 63 50 23 51 68 52 62 53 64 54 24 55 67 56 61 57
REMARK SMILES IDX 60 58 25 60 51 61 34 62 50 63 35 64 38 65 49 66 65 67 36 68
REMARK SMILES IDX 37 69 48 71 66 72 39 73 26 74 27 75 32 76 28 77 29 78 31 79
REMARK SMILES IDX 33 80 30 81 52 82 53 83 58 84 54 85 55 86 57 87 59 88 56 89
REMARK SMILES IDX 40 90 41 91 46 92 42 93 43 94 45 95 47 96 44 97
REMARK H PARENT 73 12 1 14 1 15 1 16 64 59 38 70
REMARK Flexibility Score: inf
ROOT
ATOM      1  O   UNL     1      -1.288   0.374  -3.820  1.00  0.00    -0.376 OA
ENDROOT
BRANCH   1   2
ATOM      2  C   UNL     1      -2.132   1.231  -3.055  1.00  0.00     0.202 C 
BRANCH   2   3
ATOM      3  C   UNL     1      -2.101   0.992  -1.547  1.00  0.00     0.261 C 
BRANCH   3   4
ATOM      4  O   UNL     1      -0.956   1.633  -1.003  1.00  0.00    -0.458 OA
BRANCH   4   5
ATOM      5  C   UNL     1      -0.497   1.123   0.159  1.00  0.00     0.374 C 
ATOM      6  O   UNL     1      -0.959   0.142   0.732  1.00  0.00    -0.244 OA
BRANCH   5   7
ATOM      7  C   UNL     1       0.793   1.839   0.594  1.00  0.00     0.246 C 
ATOM      8  C   UNL     1       0.621   2.323   2.030  1.00  0.00     0.148 C 
ATOM      9  C   UNL     1       1.018   3.176  -0.148  1.00  0.00     0.344 C 
ATOM     10  C   UNL     1      -0.169   3.624   1.860  1.00  0.00     0.270 C 
ATOM     11  N   UNL     1       0.287   4.194   0.603  1.00  0.00    -0.325 N 
ATOM     12  H   UNL     1       0.931   4.940   0.866  1.00  0.00     0.348 HD
BRANCH   7  13
ATOM     13  N   UNL     1       1.909   0.864   0.469  1.00  0.00    -0.338 N 
ATOM     14  H   UNL     1       1.679   0.015   0.985  1.00  0.00     0.345 HD
ATOM     15  H   UNL     1       2.762   1.273   0.851  1.00  0.00     0.345 HD
ATOM     16  H   UNL     1       2.053   0.635  -0.515  1.00  0.00     0.345 HD
ENDBRANCH   7  13
BRANCH  11  17
ATOM     17  C   UNL     1      -0.564   5.129  -0.149  1.00  0.00     0.299 C 
BRANCH  17  18
ATOM     18  C   UNL     1      -1.900   4.660  -0.728  1.00  0.00     0.006 A 
ATOM     19  C   UNL     1      -2.131   4.703  -2.111  1.00  0.00     0.013 A 
ATOM     20  C   UNL     1      -2.974   4.226   0.065  1.00  0.00     0.013 A 
ATOM     21  C   UNL     1      -3.299   4.147  -2.667  1.00  0.00     0.047 A 
ATOM     22  C   UNL     1      -4.115   3.603  -0.493  1.00  0.00     0.047 A 
ATOM     23  C   UNL     1      -4.213   3.450  -1.868  1.00  0.00     0.120 A 
BRANCH  23  24
ATOM     24  O   UNL     1      -5.001   2.559  -2.550  1.00  0.00    -0.484 OA
BRANCH  24  25
ATOM     25  C   UNL     1      -5.720   1.509  -1.915  1.00  0.00     0.329 C 
BRANCH  25  26
ATOM     26  C   UNL     1      -5.192   0.336  -1.003  1.00  0.00     0.260 C 
ATOM     27  O   UNL     1      -5.159   0.533   0.220  1.00  0.00    -0.271 OA
ATOM     28  N   UNL     1      -4.867  -0.927  -1.518  1.00  0.00    -0.340 N 
ATOM     29  C   UNL     1      -4.813  -2.068  -0.596  1.00  0.00     0.119 C 
ATOM     30  C   UNL     1      -4.528  -1.294  -2.897  1.00  0.00     0.119 C 
ATOM     31  C   UNL     1      -3.425  -2.695  -0.547  1.00  0.00     0.022 C 
ATOM     32  C   UNL     1      -3.164  -2.016  -2.973  1.00  0.00     0.022 C 
ATOM     33  C   UNL     1      -2.957  -3.118  -1.937  1.00  0.00     0.004 C 
ENDBRANCH  25  26
ENDBRANCH  24  25
ENDBRANCH  23  24
ENDBRANCH  17  18
ENDBRANCH  11  17
ENDBRANCH   5   7
ENDBRANCH   4   5
ENDBRANCH   3   4
ENDBRANCH   2   3
ENDBRANCH   1   2
BRANCH   1  34
ATOM     34  C   UNL     1       0.056   0.315  -3.368  1.00  0.00     0.188 C 
BRANCH  34  35
ATOM     35  C   UNL     1       0.863   1.612  -3.533  1.00  0.00     0.188 C 
BRANCH  35  36
ATOM     36  O   UNL     1       0.159   2.725  -4.030  1.00  0.00    -0.376 OA
BRANCH  36  37
ATOM     37  C   UNL     1      -0.092   2.833  -5.425  1.00  0.00     0.202 C 
BRANCH  37  38
ATOM     38  C   UNL     1       0.019   1.685  -6.457  1.00  0.00     0.261 C 
BRANCH  38  39
ATOM     39  O   UNL     1       0.744   0.497  -6.121  1.00  0.00    -0.460 OA
BRANCH  39  40
ATOM     40  C   UNL     1       2.092   0.513  -6.198  1.00  0.00     0.338 C 
ATOM     41  O   UNL     1       2.802   1.445  -6.537  1.00  0.00    -0.246 OA
BRANCH  40  42
ATOM     42  C   UNL     1       2.570  -0.734  -5.553  1.00  0.00     0.060 A 
ATOM     43  C   UNL     1       3.266  -0.663  -4.333  1.00  0.00     0.016 A 
ATOM     44  C   UNL     1       2.259  -1.974  -6.112  1.00  0.00     0.016 A 
ATOM     45  C   UNL     1       3.661  -1.827  -3.676  1.00  0.00     0.010 A 
ATOM     46  C   UNL     1       2.704  -3.139  -5.484  1.00  0.00     0.010 A 
ATOM     47  C   UNL     1       3.433  -3.067  -4.282  1.00  0.00    -0.014 A 
BRANCH  47  48
ATOM     48  C   UNL     1       4.200  -4.250  -3.830  1.00  0.00     0.031 A 
ATOM     49  C   UNL     1       5.496  -4.537  -4.538  1.00  0.00     0.074 A 
ATOM     50  C   UNL     1       3.767  -5.046  -2.839  1.00  0.00     0.049 A 
ATOM     51  N   UNL     1       6.295  -5.565  -4.431  1.00  0.00    -0.248 NA
ATOM     52  C   UNL     1       5.942  -3.525  -5.512  1.00  0.00     0.031 C 
ATOM     53  C   UNL     1       2.559  -4.836  -2.045  1.00  0.00     0.029 A 
ATOM     54  N   UNL     1       4.296  -6.214  -2.349  1.00  0.00    -0.354 N 
ATOM     55  C   UNL     1       7.326  -5.331  -5.333  1.00  0.00     0.074 A 
ATOM     56  C   UNL     1       7.041  -4.080  -5.997  1.00  0.00     0.031 C 
ATOM     57  C   UNL     1       2.423  -5.861  -1.183  1.00  0.00     0.029 A 
ATOM     58  C   UNL     1       3.513  -6.813  -1.394  1.00  0.00     0.049 A 
ATOM     59  H   UNL     1       5.156  -6.586  -2.654  1.00  0.00     0.167 HD
ATOM     60  C   UNL     1       8.414  -6.093  -5.584  1.00  0.00     0.037 A 
ATOM     61  C   UNL     1       3.649  -8.011  -0.791  1.00  0.00     0.037 A 
ATOM     62  C   UNL     1       8.686  -7.340  -4.923  1.00  0.00     0.049 A 
ATOM     63  C   UNL     1       4.830  -8.881  -1.145  1.00  0.00     0.074 A 
ATOM     64  C   UNL     1       9.766  -8.186  -5.090  1.00  0.00     0.029 A 
ATOM     65  N   UNL     1       7.860  -7.923  -3.973  1.00  0.00    -0.354 N 
ATOM     66  N   UNL     1       5.811  -8.648  -1.985  1.00  0.00    -0.248 NA
ATOM     67  C   UNL     1       4.923 -10.182  -0.466  1.00  0.00     0.031 C 
ATOM     68  C   UNL     1       9.564  -9.311  -4.285  1.00  0.00     0.029 A 
ATOM     69  C   UNL     1       8.392  -9.133  -3.566  1.00  0.00     0.049 A 
ATOM     70  H   UNL     1       7.020  -7.533  -3.638  1.00  0.00     0.167 HD
ATOM     71  C   UNL     1       6.652  -9.753  -1.908  1.00  0.00     0.074 A 
ATOM     72  C   UNL     1       6.072 -10.650  -0.931  1.00  0.00     0.031 C 
ATOM     73  C   UNL     1       7.802 -10.005  -2.582  1.00  0.00     0.037 A 
BRANCH  60  74
ATOM     74  C   UNL     1       9.366  -5.616  -6.641  1.00  0.00     0.057 A 
ATOM     75  C   UNL     1      10.183  -4.493  -6.456  1.00  0.00     0.134 A 
ATOM     76  C   UNL     1       9.485  -6.307  -7.853  1.00  0.00     0.134 A 
ATOM     77  F   UNL     1      10.103  -3.772  -5.327  1.00  0.00    -0.206 F 
ATOM     78  C   UNL     1      11.070  -4.064  -7.446  1.00  0.00     0.040 A 
ATOM     79  C   UNL     1      10.389  -5.906  -8.838  1.00  0.00     0.040 A 
ATOM     80  F   UNL     1       8.730  -7.389  -8.098  1.00  0.00    -0.206 F 
ATOM     81  C   UNL     1      11.181  -4.778  -8.637  1.00  0.00     0.006 A 
ENDBRANCH  60  74
BRANCH  61  82
ATOM     82  C   UNL     1       2.633  -8.479   0.189  1.00  0.00     0.057 A 
ATOM     83  C   UNL     1       2.954  -8.655   1.541  1.00  0.00     0.134 A 
ATOM     84  C   UNL     1       1.329  -8.801  -0.208  1.00  0.00     0.134 A 
ATOM     85  F   UNL     1       4.193  -8.391   1.980  1.00  0.00    -0.206 F 
ATOM     86  C   UNL     1       2.025  -9.155   2.456  1.00  0.00     0.040 A 
ATOM     87  C   UNL     1       0.381  -9.274   0.702  1.00  0.00     0.040 A 
ATOM     88  F   UNL     1       0.955  -8.659  -1.488  1.00  0.00    -0.206 F 
ATOM     89  C   UNL     1       0.732  -9.461   2.037  1.00  0.00     0.006 A 
ENDBRANCH  61  82
BRANCH  73  90
ATOM     90  C   UNL     1       8.534 -11.275  -2.252  1.00  0.00     0.057 A 
ATOM     91  C   UNL     1       8.045 -12.534  -2.621  1.00  0.00     0.134 A 
ATOM     92  C   UNL     1       9.772 -11.230  -1.596  1.00  0.00     0.134 A 
ATOM     93  F   UNL     1       6.862 -12.649  -3.244  1.00  0.00    -0.206 F 
ATOM     94  C   UNL     1       8.746 -13.704  -2.323  1.00  0.00     0.040 A 
ATOM     95  C   UNL     1      10.497 -12.389  -1.323  1.00  0.00     0.040 A 
ATOM     96  F   UNL     1      10.306 -10.055  -1.228  1.00  0.00    -0.206 F 
ATOM     97  C   UNL     1       9.980 -13.633  -1.679  1.00  0.00     0.006 A 
ENDBRANCH  73  90
ENDBRANCH  47  48
ENDBRANCH  40  42
ENDBRANCH  39  40
ENDBRANCH  38  39
ENDBRANCH  37  38
ENDBRANCH  36  37
ENDBRANCH  35  36
ENDBRANCH  34  35
ENDBRANCH   1  34
TORSDOF 23
