REMARK SMILES O=C(OCCOCCOCCOC(=O)c1nnn(-c2cccc(C(F)(F)F)c2)c1[C@@H]1COc2ccccc2O1)c1ccc(-c2c3nc(c(-c4c(F)cccc4F)c4ccc([nH]4)c(-c4c(F)cccc4F)c4nc(c(-c5c(F)cccc5F)c5ccc2[nH]5)C=C4)C=C3)cc1
REMARK SMILES IDX 7 1 6 2 5 3 4 4 3 5 2 6 1 7 40 8 41 9 93 10 42 11 92 12
REMARK SMILES IDX 43 13 44 14 45 15 86 16 46 17 91 18 85 19 87 20 47 21 90 22
REMARK SMILES IDX 84 23 83 24 48 26 74 27 57 28 73 29 58 30 61 31 72 32 88 33
REMARK SMILES IDX 59 34 60 35 71 37 89 38 62 39 49 40 50 41 55 42 51 43 52 44
REMARK SMILES IDX 54 45 56 46 53 47 75 48 76 49 81 50 77 51 78 52 80 53 82 54
REMARK SMILES IDX 79 55 63 56 64 57 69 58 65 59 66 60 68 61 70 62 67 63 8 64
REMARK SMILES IDX 9 65 10 66 11 67 12 68 13 69 14 70 15 71 16 72 29 73 17 74
REMARK SMILES IDX 18 75 30 76 31 77 39 78 32 79 38 80 33 81 37 82 34 83 36 84
REMARK SMILES IDX 35 85 19 86 20 87 28 88 21 89 23 90 22 91 24 92 25 93 26 94
REMARK SMILES IDX 27 95
REMARK H PARENT 87 25 61 36
REMARK Flexibility Score: inf
ROOT
ATOM      1  C   UNL     1       3.297  -0.205   1.768  1.00  0.00     0.188 C 
ENDROOT
BRANCH   1   2
ATOM      2  O   UNL     1       4.610   0.293   1.534  1.00  0.00    -0.376 OA
BRANCH   2   3
ATOM      3  C   UNL     1       5.142   0.107   0.230  1.00  0.00     0.202 C 
BRANCH   3   4
ATOM      4  C   UNL     1       4.561   1.014  -0.858  1.00  0.00     0.261 C 
BRANCH   4   5
ATOM      5  O   UNL     1       3.144   1.222  -0.778  1.00  0.00    -0.460 OA
BRANCH   5   6
ATOM      6  C   UNL     1       2.129   0.629  -1.431  1.00  0.00     0.338 C 
ATOM      7  O   UNL     1       1.096   1.257  -1.645  1.00  0.00    -0.246 OA
BRANCH   6   8
ATOM      8  C   UNL     1       2.116  -0.830  -1.695  1.00  0.00     0.060 A 
ATOM      9  C   UNL     1       3.200  -1.558  -2.179  1.00  0.00     0.016 A 
ATOM     10  C   UNL     1       0.866  -1.466  -1.558  1.00  0.00     0.016 A 
ATOM     11  C   UNL     1       3.014  -2.867  -2.614  1.00  0.00     0.010 A 
ATOM     12  C   UNL     1       0.678  -2.774  -1.991  1.00  0.00     0.010 A 
ATOM     13  C   UNL     1       1.741  -3.449  -2.584  1.00  0.00    -0.014 A 
BRANCH  13  14
ATOM     14  C   UNL     1       1.569  -4.721  -3.284  1.00  0.00     0.031 A 
ATOM     15  C   UNL     1       2.313  -5.902  -2.767  1.00  0.00     0.074 A 
ATOM     16  C   UNL     1       0.756  -4.858  -4.351  1.00  0.00     0.049 A 
ATOM     17  N   UNL     1       3.223  -6.603  -3.366  1.00  0.00    -0.248 NA
ATOM     18  C   UNL     1       2.025  -6.338  -1.395  1.00  0.00     0.031 C 
ATOM     19  C   UNL     1      -0.258  -3.924  -4.850  1.00  0.00     0.029 A 
ATOM     20  N   UNL     1       0.623  -5.934  -5.180  1.00  0.00    -0.354 N 
ATOM     21  C   UNL     1       3.517  -7.668  -2.515  1.00  0.00     0.074 A 
ATOM     22  C   UNL     1       2.814  -7.408  -1.282  1.00  0.00     0.031 C 
ATOM     23  C   UNL     1      -1.037  -4.556  -5.755  1.00  0.00     0.029 A 
ATOM     24  C   UNL     1      -0.489  -5.878  -6.003  1.00  0.00     0.049 A 
ATOM     25  H   UNL     1       1.261  -6.683  -5.192  1.00  0.00     0.167 HD
ATOM     26  C   UNL     1       4.197  -8.773  -2.929  1.00  0.00     0.037 A 
ATOM     27  C   UNL     1      -0.964  -6.870  -6.792  1.00  0.00     0.037 A 
ATOM     28  C   UNL     1       4.915  -8.546  -4.151  1.00  0.00     0.049 A 
ATOM     29  C   UNL     1       0.135  -7.831  -7.041  1.00  0.00     0.074 A 
ATOM     30  C   UNL     1       5.940  -7.706  -4.542  1.00  0.00     0.029 A 
ATOM     31  N   UNL     1       4.419  -9.082  -5.311  1.00  0.00    -0.354 N 
ATOM     32  N   UNL     1       1.181  -7.583  -7.777  1.00  0.00    -0.248 NA
ATOM     33  C   UNL     1       0.255  -8.978  -6.154  1.00  0.00     0.031 C 
ATOM     34  C   UNL     1       5.681  -7.417  -5.913  1.00  0.00     0.029 A 
ATOM     35  C   UNL     1       4.522  -8.108  -6.268  1.00  0.00     0.049 A 
ATOM     36  H   UNL     1       4.059  -9.991  -5.433  1.00  0.00     0.167 HD
ATOM     37  C   UNL     1       2.217  -8.274  -7.168  1.00  0.00     0.074 A 
ATOM     38  C   UNL     1       1.567  -9.202  -6.250  1.00  0.00     0.031 C 
ATOM     39  C   UNL     1       3.509  -7.842  -7.261  1.00  0.00     0.037 A 
BRANCH  26  40
ATOM     40  C   UNL     1       3.998 -10.161  -2.376  1.00  0.00     0.057 A 
ATOM     41  C   UNL     1       4.915 -11.181  -2.689  1.00  0.00     0.134 A 
ATOM     42  C   UNL     1       2.794 -10.595  -1.788  1.00  0.00     0.134 A 
ATOM     43  F   UNL     1       6.088 -10.898  -3.277  1.00  0.00    -0.206 F 
ATOM     44  C   UNL     1       4.632 -12.537  -2.481  1.00  0.00     0.040 A 
ATOM     45  C   UNL     1       2.521 -11.942  -1.531  1.00  0.00     0.040 A 
ATOM     46  F   UNL     1       1.790  -9.749  -1.524  1.00  0.00    -0.206 F 
ATOM     47  C   UNL     1       3.429 -12.922  -1.904  1.00  0.00     0.006 A 
ENDBRANCH  26  40
BRANCH  27  48
ATOM     48  C   UNL     1      -2.376  -7.169  -7.107  1.00  0.00     0.057 A 
ATOM     49  C   UNL     1      -2.730  -7.969  -8.199  1.00  0.00     0.134 A 
ATOM     50  C   UNL     1      -3.404  -6.882  -6.189  1.00  0.00     0.134 A 
ATOM     51  F   UNL     1      -1.809  -8.337  -9.101  1.00  0.00    -0.206 F 
ATOM     52  C   UNL     1      -4.030  -8.465  -8.365  1.00  0.00     0.040 A 
ATOM     53  C   UNL     1      -4.706  -7.361  -6.348  1.00  0.00     0.040 A 
ATOM     54  F   UNL     1      -3.155  -6.199  -5.062  1.00  0.00    -0.206 F 
ATOM     55  C   UNL     1      -5.021  -8.166  -7.434  1.00  0.00     0.006 A 
ENDBRANCH  27  48
BRANCH  39  56
ATOM     56  C   UNL     1       3.826  -6.777  -8.270  1.00  0.00     0.057 A 
ATOM     57  C   UNL     1       3.332  -5.468  -8.190  1.00  0.00     0.134 A 
ATOM     58  C   UNL     1       4.797  -7.033  -9.245  1.00  0.00     0.134 A 
ATOM     59  F   UNL     1       2.480  -5.108  -7.221  1.00  0.00    -0.206 F 
ATOM     60  C   UNL     1       3.757  -4.467  -9.068  1.00  0.00     0.040 A 
ATOM     61  C   UNL     1       5.254  -6.035 -10.108  1.00  0.00     0.040 A 
ATOM     62  F   UNL     1       5.361  -8.248  -9.336  1.00  0.00    -0.206 F 
ATOM     63  C   UNL     1       4.727  -4.748 -10.027  1.00  0.00     0.006 A 
ENDBRANCH  39  56
ENDBRANCH  13  14
ENDBRANCH   6   8
ENDBRANCH   5   6
ENDBRANCH   4   5
ENDBRANCH   3   4
ENDBRANCH   2   3
ENDBRANCH   1   2
BRANCH   1  64
ATOM     64  C   UNL     1       2.232   0.874   2.068  1.00  0.00     0.188 C 
BRANCH  64  65
ATOM     65  O   UNL     1       2.481   1.961   2.957  1.00  0.00    -0.376 OA
BRANCH  65  66
ATOM     66  C   UNL     1       3.811   2.354   3.237  1.00  0.00     0.202 C 
BRANCH  66  67
ATOM     67  C   UNL     1       4.344   1.691   4.513  1.00  0.00     0.261 C 
BRANCH  67  68
ATOM     68  O   UNL     1       3.888   0.340   4.698  1.00  0.00    -0.458 OA
BRANCH  68  69
ATOM     69  C   UNL     1       2.651   0.217   5.285  1.00  0.00     0.361 C 
ATOM     70  O   UNL     1       2.003   1.141   5.731  1.00  0.00    -0.244 OA
BRANCH  69  71
ATOM     71  C   UNL     1       2.182  -1.168   5.304  1.00  0.00     0.198 A 
ATOM     72  N   UNL     1       0.845  -1.459   5.172  1.00  0.00    -0.122 NA
ATOM     73  C   UNL     1       2.890  -2.362   5.390  1.00  0.00     0.123 A 
ATOM     74  N   UNL     1       0.700  -2.775   5.193  1.00  0.00    -0.061 NA
ATOM     75  N   UNL     1       1.889  -3.311   5.546  1.00  0.00    -0.213 N 
BRANCH  73  76
ATOM     76  C   UNL     1       4.351  -2.669   5.239  1.00  0.00     0.262 C 
ATOM     77  C   UNL     1       4.683  -3.405   3.933  1.00  0.00     0.281 C 
ATOM     78  O   UNL     1       4.857  -3.315   6.411  1.00  0.00    -0.477 OA
ATOM     79  O   UNL     1       4.307  -4.783   3.977  1.00  0.00    -0.485 OA
ATOM     80  C   UNL     1       5.147  -4.645   6.249  1.00  0.00     0.162 A 
ATOM     81  C   UNL     1       4.842  -5.369   5.093  1.00  0.00     0.161 A 
ATOM     82  C   UNL     1       5.699  -5.298   7.349  1.00  0.00     0.050 A 
ATOM     83  C   UNL     1       5.017  -6.750   5.061  1.00  0.00     0.050 A 
ATOM     84  C   UNL     1       5.904  -6.678   7.308  1.00  0.00     0.004 A 
ATOM     85  C   UNL     1       5.549  -7.406   6.171  1.00  0.00     0.004 A 
ENDBRANCH  73  76
BRANCH  75  86
ATOM     86  C   UNL     1       1.873  -4.457   6.363  1.00  0.00     0.067 A 
ATOM     87  C   UNL     1       1.485  -5.686   5.827  1.00  0.00     0.028 A 
ATOM     88  C   UNL     1       2.170  -4.322   7.726  1.00  0.00     0.041 A 
ATOM     89  C   UNL     1       1.484  -6.811   6.651  1.00  0.00     0.003 A 
ATOM     90  C   UNL     1       2.107  -5.440   8.568  1.00  0.00     0.058 A 
ATOM     91  C   UNL     1       1.794  -6.691   8.009  1.00  0.00     0.013 A 
BRANCH  90  92
ATOM     92  C   UNL     1       2.376  -5.309  10.046  1.00  0.00     0.416 C 
ATOM     93  F   UNL     1       1.457  -5.967  10.806  1.00  0.00    -0.166 F 
ATOM     94  F   UNL     1       3.589  -5.815  10.403  1.00  0.00    -0.166 F 
ATOM     95  F   UNL     1       2.365  -4.020  10.487  1.00  0.00    -0.166 F 
ENDBRANCH  90  92
ENDBRANCH  75  86
ENDBRANCH  69  71
ENDBRANCH  68  69
ENDBRANCH  67  68
ENDBRANCH  66  67
ENDBRANCH  65  66
ENDBRANCH  64  65
ENDBRANCH   1  64
TORSDOF 20
