REMARK SMILES COc1ccc(-c2cc(CC3(C(=O)OCCOCCOCCOC(=O)c4ccc(-c5c6nc(c(-c7c(F)cccc7F)c7ccc([nH]7)c(-c7c(F)cccc7F)c7nc(c(-c8c(F)cccc8F)c8ccc5[nH]8)C=C7)C=C6)cc4)CCN(C(=O)C4CCCC4)CC3)on2)cc1
REMARK SMILES IDX 18 1 17 2 16 3 15 4 14 5 12 6 13 7 11 8 80 9 91 10 81 11
REMARK SMILES IDX 90 12 82 13 83 14 84 15 10 16 9 17 7 18 8 19 93 20 92 21
REMARK SMILES IDX 6 22 3 23 4 24 95 25 5 26 94 27 2 28 1 29 85 30 86 31 89 32
REMARK SMILES IDX 87 33 88 34 19 35 20 36 21 37 22 38 23 39 24 40 25 41 26 42
REMARK SMILES IDX 27 43 79 44 28 45 78 46 29 47 30 48 31 49 72 50 32 51 77 52
REMARK SMILES IDX 71 53 73 54 33 55 76 56 70 57 69 58 34 60 60 61 43 62 59 63
REMARK SMILES IDX 44 64 47 65 58 66 74 67 45 68 46 69 57 71 75 72 48 73 35 74
REMARK SMILES IDX 36 75 41 76 37 77 38 78 40 79 42 80 39 81 61 82 62 83 67 84
REMARK SMILES IDX 63 85 64 86 66 87 68 88 65 89 49 90 50 91 55 92 51 93 52 94
REMARK SMILES IDX 54 95 56 96 53 97
REMARK H PARENT 73 59 47 70
REMARK Flexibility Score: inf
ROOT
ATOM      1  C   UNL     1       5.678 -11.733   5.465  1.00  0.00     0.188 C 
ENDROOT
BRANCH   1   2
ATOM      2  O   UNL     1       6.086 -12.133   6.765  1.00  0.00    -0.376 OA
BRANCH   2   3
ATOM      3  C   UNL     1       5.052 -12.506   7.675  1.00  0.00     0.202 C 
BRANCH   3   4
ATOM      4  C   UNL     1       4.011 -11.433   8.029  1.00  0.00     0.261 C 
BRANCH   4   5
ATOM      5  O   UNL     1       3.290 -10.887   6.902  1.00  0.00    -0.463 OA
BRANCH   5   6
ATOM      6  C   UNL     1       3.489  -9.567   6.648  1.00  0.00     0.312 C 
ATOM      7  O   UNL     1       4.266  -8.858   7.283  1.00  0.00    -0.252 OA
BRANCH   6   8
ATOM      8  C   UNL     1       2.665  -9.000   5.471  1.00  0.00     0.078 C 
ATOM      9  C   UNL     1       1.677 -10.035   4.869  1.00  0.00     0.041 C 
ATOM     10  C   UNL     1       1.879  -7.857   6.151  1.00  0.00     0.041 C 
ATOM     11  C   UNL     1       0.464  -9.441   4.145  1.00  0.00     0.120 C 
ATOM     12  C   UNL     1       0.690  -7.330   5.375  1.00  0.00     0.120 C 
ATOM     13  N   UNL     1      -0.189  -8.395   4.928  1.00  0.00    -0.342 N 
ATOM     14  C   UNL     1      -1.578  -8.348   4.952  1.00  0.00     0.225 C 
ATOM     15  O   UNL     1      -2.260  -9.163   4.322  1.00  0.00    -0.275 OA
BRANCH   8  16
ATOM     16  C   UNL     1       3.726  -8.517   4.426  1.00  0.00     0.097 C 
BRANCH  16  17
ATOM     17  C   UNL     1       3.278  -7.488   3.453  1.00  0.00     0.138 A 
ATOM     18  C   UNL     1       2.506  -5.764   2.311  1.00  0.00     0.114 A 
ATOM     19  C   UNL     1       3.290  -6.112   3.441  1.00  0.00     0.077 A 
ATOM     20  N   UNL     1       2.176  -6.858   1.610  1.00  0.00    -0.080 NA
ATOM     21  O   UNL     1       2.695  -7.932   2.309  1.00  0.00    -0.361 OA
BRANCH  18  22
ATOM     22  C   UNL     1       1.991  -4.448   1.971  1.00  0.00     0.004 A 
ATOM     23  C   UNL     1       0.977  -1.891   1.415  1.00  0.00     0.118 A 
ATOM     24  C   UNL     1       0.134  -2.888   1.906  1.00  0.00     0.047 A 
ATOM     25  C   UNL     1       2.333  -2.166   1.223  1.00  0.00     0.047 A 
ATOM     26  C   UNL     1       0.632  -4.166   2.167  1.00  0.00     0.014 A 
ATOM     27  C   UNL     1       2.840  -3.441   1.504  1.00  0.00     0.014 A 
BRANCH  23  28
ATOM     28  O   UNL     1       0.393  -0.671   1.211  1.00  0.00    -0.497 OA
ATOM     29  C   UNL     1       0.894   0.052   0.090  1.00  0.00     0.278 C 
ENDBRANCH  23  28
ENDBRANCH  18  22
ENDBRANCH  16  17
ENDBRANCH   8  16
BRANCH  14  30
ATOM     30  C   UNL     1      -2.306  -7.300   5.800  1.00  0.00     0.078 C 
ATOM     31  C   UNL     1      -1.939  -7.359   7.280  1.00  0.00     0.013 C 
ATOM     32  C   UNL     1      -2.135  -5.853   5.339  1.00  0.00     0.013 C 
ATOM     33  C   UNL     1      -2.055  -5.935   7.795  1.00  0.00     0.001 C 
ATOM     34  C   UNL     1      -1.930  -5.010   6.593  1.00  0.00     0.001 C 
ENDBRANCH  14  30
ENDBRANCH   6   8
ENDBRANCH   5   6
ENDBRANCH   4   5
ENDBRANCH   3   4
ENDBRANCH   2   3
ENDBRANCH   1   2
BRANCH   1  35
ATOM     35  C   UNL     1       4.885 -12.746   4.640  1.00  0.00     0.188 C 
BRANCH  35  36
ATOM     36  O   UNL     1       3.853 -13.443   5.323  1.00  0.00    -0.376 OA
BRANCH  36  37
ATOM     37  C   UNL     1       3.113 -14.386   4.538  1.00  0.00     0.202 C 
BRANCH  37  38
ATOM     38  C   UNL     1       3.949 -15.447   3.790  1.00  0.00     0.261 C 
BRANCH  38  39
ATOM     39  O   UNL     1       4.842 -14.923   2.781  1.00  0.00    -0.460 OA
BRANCH  39  40
ATOM     40  C   UNL     1       4.324 -14.090   1.849  1.00  0.00     0.338 C 
ATOM     41  O   UNL     1       3.141 -13.939   1.590  1.00  0.00    -0.246 OA
BRANCH  40  42
ATOM     42  C   UNL     1       5.403 -13.178   1.379  1.00  0.00     0.060 A 
ATOM     43  C   UNL     1       5.077 -11.835   1.129  1.00  0.00     0.016 A 
ATOM     44  C   UNL     1       6.732 -13.600   1.263  1.00  0.00     0.016 A 
ATOM     45  C   UNL     1       6.062 -10.929   0.721  1.00  0.00     0.010 A 
ATOM     46  C   UNL     1       7.714 -12.697   0.840  1.00  0.00     0.010 A 
ATOM     47  C   UNL     1       7.380 -11.366   0.532  1.00  0.00    -0.014 A 
BRANCH  47  48
ATOM     48  C   UNL     1       8.352 -10.523  -0.213  1.00  0.00     0.031 A 
ATOM     49  C   UNL     1       8.499 -10.769  -1.692  1.00  0.00     0.074 A 
ATOM     50  C   UNL     1       9.101  -9.576   0.383  1.00  0.00     0.049 A 
ATOM     51  N   UNL     1       9.354 -10.260  -2.541  1.00  0.00    -0.248 NA
ATOM     52  C   UNL     1       7.555 -11.728  -2.290  1.00  0.00     0.031 C 
ATOM     53  C   UNL     1       9.036  -9.197   1.792  1.00  0.00     0.029 A 
ATOM     54  N   UNL     1      10.088  -8.771  -0.137  1.00  0.00    -0.354 N 
ATOM     55  C   UNL     1       9.063 -10.849  -3.765  1.00  0.00     0.074 A 
ATOM     56  C   UNL     1       7.963 -11.763  -3.549  1.00  0.00     0.031 C 
ATOM     57  C   UNL     1       9.961  -8.249   2.031  1.00  0.00     0.029 A 
ATOM     58  C   UNL     1      10.709  -7.981   0.801  1.00  0.00     0.049 A 
ATOM     59  H   UNL     1      10.328  -8.761  -1.092  1.00  0.00     0.167 HD
ATOM     60  C   UNL     1       9.655 -10.648  -4.964  1.00  0.00     0.037 A 
ATOM     61  C   UNL     1      11.778  -7.165   0.686  1.00  0.00     0.037 A 
ATOM     62  C   UNL     1      10.736  -9.731  -5.195  1.00  0.00     0.049 A 
ATOM     63  C   UNL     1      12.465  -7.011  -0.651  1.00  0.00     0.074 A 
ATOM     64  C   UNL     1      11.378  -9.444  -6.388  1.00  0.00     0.029 A 
ATOM     65  N   UNL     1      11.338  -8.958  -4.217  1.00  0.00    -0.354 N 
ATOM     66  N   UNL     1      12.162  -7.549  -1.808  1.00  0.00    -0.248 NA
ATOM     67  C   UNL     1      13.651  -6.138  -0.697  1.00  0.00     0.031 C 
ATOM     68  C   UNL     1      12.403  -8.532  -6.122  1.00  0.00     0.029 A 
ATOM     69  C   UNL     1      12.362  -8.213  -4.775  1.00  0.00     0.049 A 
ATOM     70  H   UNL     1      11.077  -8.941  -3.268  1.00  0.00     0.167 HD
ATOM     71  C   UNL     1      13.088  -7.048  -2.718  1.00  0.00     0.074 A 
ATOM     72  C   UNL     1      13.962  -6.161  -1.984  1.00  0.00     0.031 C 
ATOM     73  C   UNL     1      13.204  -7.303  -4.044  1.00  0.00     0.037 A 
BRANCH  60  74
ATOM     74  C   UNL     1       9.165 -11.457  -6.126  1.00  0.00     0.057 A 
ATOM     75  C   UNL     1       7.946 -11.182  -6.757  1.00  0.00     0.134 A 
ATOM     76  C   UNL     1       9.957 -12.481  -6.658  1.00  0.00     0.134 A 
ATOM     77  F   UNL     1       7.136 -10.224  -6.284  1.00  0.00    -0.206 F 
ATOM     78  C   UNL     1       7.529 -11.905  -7.876  1.00  0.00     0.040 A 
ATOM     79  C   UNL     1       9.562 -13.194  -7.790  1.00  0.00     0.040 A 
ATOM     80  F   UNL     1      11.137 -12.791  -6.098  1.00  0.00    -0.206 F 
ATOM     81  C   UNL     1       8.344 -12.906  -8.401  1.00  0.00     0.006 A 
ENDBRANCH  60  74
BRANCH  61  82
ATOM     82  C   UNL     1      12.318  -6.448   1.873  1.00  0.00     0.057 A 
ATOM     83  C   UNL     1      12.286  -5.050   1.958  1.00  0.00     0.134 A 
ATOM     84  C   UNL     1      12.959  -7.139   2.909  1.00  0.00     0.134 A 
ATOM     85  F   UNL     1      11.716  -4.328   0.982  1.00  0.00    -0.206 F 
ATOM     86  C   UNL     1      12.900  -4.365   3.009  1.00  0.00     0.040 A 
ATOM     87  C   UNL     1      13.550  -6.469   3.981  1.00  0.00     0.040 A 
ATOM     88  F   UNL     1      13.032  -8.478   2.886  1.00  0.00    -0.206 F 
ATOM     89  C   UNL     1      13.533  -5.076   4.026  1.00  0.00     0.006 A 
ENDBRANCH  61  82
BRANCH  73  90
ATOM     90  C   UNL     1      14.265  -6.570  -4.813  1.00  0.00     0.057 A 
ATOM     91  C   UNL     1      15.623  -6.887  -4.693  1.00  0.00     0.134 A 
ATOM     92  C   UNL     1      13.911  -5.583  -5.743  1.00  0.00     0.134 A 
ATOM     93  F   UNL     1      16.030  -7.816  -3.815  1.00  0.00    -0.206 F 
ATOM     94  C   UNL     1      16.593  -6.239  -5.461  1.00  0.00     0.040 A 
ATOM     95  C   UNL     1      14.868  -4.947  -6.535  1.00  0.00     0.040 A 
ATOM     96  F   UNL     1      12.625  -5.241  -5.917  1.00  0.00    -0.206 F 
ATOM     97  C   UNL     1      16.215  -5.272  -6.391  1.00  0.00     0.006 A 
ENDBRANCH  73  90
ENDBRANCH  47  48
ENDBRANCH  40  42
ENDBRANCH  39  40
ENDBRANCH  38  39
ENDBRANCH  37  38
ENDBRANCH  36  37
ENDBRANCH  35  36
ENDBRANCH   1  35
TORSDOF 22
