REMARK SMILES Cn1c(C[NH+]2CCC3(CC2)NC(=O)C[C@@H]3C(=O)OCCOCCOCCOC(=O)c2ccc(-c3c4nc(c(-c5c(F)cccc5F)c5ccc([nH]5)c(-c5c(F)cccc5F)c5nc(c(-c6c(F)cccc6F)c6ccc3[nH]6)C=C5)C=C4)cc2)nc2ccccc21
REMARK SMILES IDX 22 1 21 2 20 3 19 4 18 5 16 6 17 7 15 8 5 9 6 10 10 11 7 13
REMARK SMILES IDX 9 14 8 15 11 16 12 17 14 19 13 20 4 21 3 22 1 23 2 24 90 25
REMARK SMILES IDX 84 26 85 27 89 28 86 29 88 30 87 31 23 32 24 33 25 34 26 35
REMARK SMILES IDX 27 36 28 37 29 38 30 39 31 40 83 41 32 42 82 43 33 44 34 45
REMARK SMILES IDX 35 46 76 47 36 48 81 49 75 50 77 51 37 52 80 53 74 54 73 55
REMARK SMILES IDX 38 57 64 58 47 59 63 60 48 61 51 62 62 63 78 64 49 65 50 66
REMARK SMILES IDX 61 68 79 69 52 70 39 71 40 72 45 73 41 74 42 75 44 76 46 77
REMARK SMILES IDX 43 78 65 79 66 80 71 81 67 82 68 83 70 84 72 85 69 86 53 87
REMARK SMILES IDX 54 88 59 89 55 90 56 91 58 92 60 93 57 94
REMARK H PARENT 5 12 11 18 77 56 51 67
REMARK Flexibility Score: inf
ROOT
ATOM      1  C   UNL     1      -4.810  -1.338  -4.214  1.00  0.00     0.188 C 
ENDROOT
BRANCH   1   2
ATOM      2  O   UNL     1      -5.208  -1.883  -5.461  1.00  0.00    -0.376 OA
BRANCH   2   3
ATOM      3  C   UNL     1      -5.205  -3.293  -5.586  1.00  0.00     0.202 C 
BRANCH   3   4
ATOM      4  C   UNL     1      -3.840  -3.983  -5.718  1.00  0.00     0.261 C 
BRANCH   4   5
ATOM      5  O   UNL     1      -2.913  -3.880  -4.607  1.00  0.00    -0.463 OA
BRANCH   5   6
ATOM      6  C   UNL     1      -1.900  -2.981  -4.773  1.00  0.00     0.311 C 
ATOM      7  O   UNL     1      -1.963  -2.026  -5.537  1.00  0.00    -0.252 OA
BRANCH   6   8
ATOM      8  C   UNL     1      -0.624  -3.403  -4.054  1.00  0.00     0.134 C 
ATOM      9  N   UNL     1      -2.468  -2.287  -0.692  1.00  0.00    -0.328 N 
ATOM     10  C   UNL     1      -2.038  -1.327  -1.686  1.00  0.00     0.265 C 
ATOM     11  C   UNL     1      -2.032  -3.651  -0.922  1.00  0.00     0.265 C 
ATOM     12  H   UNL     1      -3.470  -2.370  -0.865  1.00  0.00     0.348 HD
ATOM     13  C   UNL     1      -0.664  -1.440  -2.318  1.00  0.00     0.091 C 
ATOM     14  C   UNL     1      -0.617  -3.806  -1.466  1.00  0.00     0.091 C 
ATOM     15  C   UNL     1      -0.248  -2.876  -2.637  1.00  0.00     0.064 C 
ATOM     16  N   UNL     1       1.213  -2.868  -2.729  1.00  0.00    -0.349 N 
ATOM     17  C   UNL     1       1.705  -2.805  -4.006  1.00  0.00     0.221 C 
ATOM     18  H   UNL     1       1.796  -2.906  -1.937  1.00  0.00     0.164 HD
ATOM     19  C   UNL     1       0.552  -2.925  -4.949  1.00  0.00     0.117 C 
ATOM     20  O   UNL     1       2.870  -2.633  -4.306  1.00  0.00    -0.275 OA
BRANCH   9  21
ATOM     21  C   UNL     1      -2.499  -1.807   0.705  1.00  0.00     0.339 C 
BRANCH  21  22
ATOM     22  C   UNL     1      -1.230  -1.125   1.115  1.00  0.00     0.165 A 
ATOM     23  C   UNL     1      -2.065   1.271   1.225  1.00  0.00     0.152 C 
ATOM     24  N   UNL     1      -1.053   0.245   1.149  1.00  0.00    -0.326 N 
ATOM     25  C   UNL     1       0.275   0.481   0.869  1.00  0.00     0.068 A 
ATOM     26  N   UNL     1      -0.067  -1.737   1.240  1.00  0.00    -0.227 NA
ATOM     27  C   UNL     1       0.867  -0.772   0.985  1.00  0.00     0.089 A 
ATOM     28  C   UNL     1       0.986   1.621   0.480  1.00  0.00     0.028 A 
ATOM     29  C   UNL     1       2.234  -0.924   0.726  1.00  0.00     0.030 A 
ATOM     30  C   UNL     1       2.337   1.438   0.161  1.00  0.00     0.002 A 
ATOM     31  C   UNL     1       2.954   0.190   0.286  1.00  0.00     0.002 A 
ENDBRANCH  21  22
ENDBRANCH   9  21
ENDBRANCH   6   8
ENDBRANCH   5   6
ENDBRANCH   4   5
ENDBRANCH   3   4
ENDBRANCH   2   3
ENDBRANCH   1   2
BRANCH   1  32
ATOM     32  C   UNL     1      -5.063  -2.158  -2.935  1.00  0.00     0.188 C 
BRANCH  32  33
ATOM     33  O   UNL     1      -6.393  -2.590  -2.705  1.00  0.00    -0.376 OA
BRANCH  33  34
ATOM     34  C   UNL     1      -7.360  -1.565  -2.489  1.00  0.00     0.202 C 
BRANCH  34  35
ATOM     35  C   UNL     1      -6.954  -0.449  -1.514  1.00  0.00     0.261 C 
BRANCH  35  36
ATOM     36  O   UNL     1      -6.083   0.524  -2.146  1.00  0.00    -0.460 OA
BRANCH  36  37
ATOM     37  C   UNL     1      -5.288   1.201  -1.288  1.00  0.00     0.338 C 
ATOM     38  O   UNL     1      -5.249   1.066  -0.073  1.00  0.00    -0.246 OA
BRANCH  37  39
ATOM     39  C   UNL     1      -4.375   2.152  -1.957  1.00  0.00     0.060 A 
ATOM     40  C   UNL     1      -3.216   1.683  -2.566  1.00  0.00     0.016 A 
ATOM     41  C   UNL     1      -4.483   3.508  -1.661  1.00  0.00     0.016 A 
ATOM     42  C   UNL     1      -2.095   2.510  -2.689  1.00  0.00     0.010 A 
ATOM     43  C   UNL     1      -3.409   4.370  -1.926  1.00  0.00     0.010 A 
ATOM     44  C   UNL     1      -2.172   3.874  -2.380  1.00  0.00    -0.014 A 
BRANCH  44  45
ATOM     45  C   UNL     1      -0.990   4.786  -2.501  1.00  0.00     0.031 A 
ATOM     46  C   UNL     1      -0.570   5.657  -1.338  1.00  0.00     0.074 A 
ATOM     47  C   UNL     1      -0.291   4.872  -3.651  1.00  0.00     0.049 A 
ATOM     48  N   UNL     1       0.222   6.702  -1.319  1.00  0.00    -0.248 NA
ATOM     49  C   UNL     1      -1.119   5.305  -0.020  1.00  0.00     0.031 C 
ATOM     50  C   UNL     1      -0.493   4.041  -4.838  1.00  0.00     0.029 A 
ATOM     51  N   UNL     1       0.726   5.724  -4.017  1.00  0.00    -0.354 N 
ATOM     52  C   UNL     1       0.218   7.166  -0.008  1.00  0.00     0.074 A 
ATOM     53  C   UNL     1      -0.650   6.282   0.743  1.00  0.00     0.031 C 
ATOM     54  C   UNL     1       0.378   4.406  -5.788  1.00  0.00     0.029 A 
ATOM     55  C   UNL     1       1.115   5.576  -5.328  1.00  0.00     0.049 A 
ATOM     56  H   UNL     1       1.135   6.374  -3.402  1.00  0.00     0.167 HD
ATOM     57  C   UNL     1       0.863   8.238   0.517  1.00  0.00     0.037 A 
ATOM     58  C   UNL     1       1.909   6.332  -6.109  1.00  0.00     0.037 A 
ATOM     59  C   UNL     1       1.744   9.102  -0.231  1.00  0.00     0.049 A 
ATOM     60  C   UNL     1       2.523   7.581  -5.547  1.00  0.00     0.074 A 
ATOM     61  C   UNL     1       2.441  10.217   0.207  1.00  0.00     0.029 A 
ATOM     62  N   UNL     1       2.053   8.946  -1.575  1.00  0.00    -0.354 N 
ATOM     63  N   UNL     1       2.447   8.063  -4.331  1.00  0.00    -0.248 NA
ATOM     64  C   UNL     1       3.310   8.404  -6.475  1.00  0.00     0.031 C 
ATOM     65  C   UNL     1       3.122  10.767  -0.885  1.00  0.00     0.029 A 
ATOM     66  C   UNL     1       2.902   9.961  -1.989  1.00  0.00     0.049 A 
ATOM     67  H   UNL     1       1.717   8.221  -2.150  1.00  0.00     0.167 HD
ATOM     68  C   UNL     1       3.194   9.234  -4.340  1.00  0.00     0.074 A 
ATOM     69  C   UNL     1       3.723   9.382  -5.681  1.00  0.00     0.031 C 
ATOM     70  C   UNL     1       3.421  10.105  -3.326  1.00  0.00     0.037 A 
BRANCH  57  71
ATOM     71  C   UNL     1       0.587   8.580   1.957  1.00  0.00     0.057 A 
ATOM     72  C   UNL     1       1.042   7.791   3.022  1.00  0.00     0.134 A 
ATOM     73  C   UNL     1      -0.139   9.735   2.282  1.00  0.00     0.134 A 
ATOM     74  F   UNL     1       1.733   6.666   2.786  1.00  0.00    -0.206 F 
ATOM     75  C   UNL     1       0.753   8.116   4.350  1.00  0.00     0.040 A 
ATOM     76  C   UNL     1      -0.408  10.087   3.606  1.00  0.00     0.040 A 
ATOM     77  F   UNL     1      -0.597  10.546   1.316  1.00  0.00    -0.206 F 
ATOM     78  C   UNL     1       0.029   9.270   4.645  1.00  0.00     0.006 A 
ENDBRANCH  57  71
BRANCH  58  79
ATOM     79  C   UNL     1       2.114   5.954  -7.531  1.00  0.00     0.057 A 
ATOM     80  C   UNL     1       3.357   5.502  -7.985  1.00  0.00     0.134 A 
ATOM     81  C   UNL     1       1.066   6.003  -8.461  1.00  0.00     0.134 A 
ATOM     82  F   UNL     1       4.405   5.460  -7.150  1.00  0.00    -0.206 F 
ATOM     83  C   UNL     1       3.550   5.108  -9.310  1.00  0.00     0.040 A 
ATOM     84  C   UNL     1       1.237   5.583  -9.780  1.00  0.00     0.040 A 
ATOM     85  F   UNL     1      -0.151   6.428  -8.089  1.00  0.00    -0.206 F 
ATOM     86  C   UNL     1       2.485   5.136 -10.209  1.00  0.00     0.006 A 
ENDBRANCH  58  79
BRANCH  70  87
ATOM     87  C   UNL     1       4.314  11.276  -3.619  1.00  0.00     0.057 A 
ATOM     88  C   UNL     1       3.899  12.345  -4.423  1.00  0.00     0.134 A 
ATOM     89  C   UNL     1       5.602  11.342  -3.071  1.00  0.00     0.134 A 
ATOM     90  F   UNL     1       2.684  12.336  -4.992  1.00  0.00    -0.206 F 
ATOM     91  C   UNL     1       4.741  13.426  -4.692  1.00  0.00     0.040 A 
ATOM     92  C   UNL     1       6.443  12.430  -3.310  1.00  0.00     0.040 A 
ATOM     93  F   UNL     1       6.061  10.355  -2.288  1.00  0.00    -0.206 F 
ATOM     94  C   UNL     1       6.015  13.473  -4.129  1.00  0.00     0.006 A 
ENDBRANCH  70  87
ENDBRANCH  44  45
ENDBRANCH  37  39
ENDBRANCH  36  37
ENDBRANCH  35  36
ENDBRANCH  34  35
ENDBRANCH  33  34
ENDBRANCH  32  33
ENDBRANCH   1  32
TORSDOF 19
