REMARK SMILES CC(C)N(CC1CC1)C(=O)N1CC[C@H](C(=O)OCCOCCOCCOC(=O)c2ccc(-c3c4nc(c(-c5c(F)cccc5F)c5ccc([nH]5)c(-c5c(F)cccc5F)c5nc(c(-c6c(F)cccc6F)c6ccc3[nH]6)C=C5)C=C4)cc2)[C@H]1C
REMARK SMILES IDX 21 1 20 2 19 3 18 4 17 5 15 6 16 7 14 8 11 9 12 10 83 11
REMARK SMILES IDX 13 12 84 13 9 14 10 15 4 16 2 17 1 18 3 19 5 20 6 21 7 22
REMARK SMILES IDX 8 23 22 24 23 25 24 26 25 27 26 28 27 29 28 30 29 31 30 32
REMARK SMILES IDX 82 33 31 34 81 35 32 36 33 37 34 38 75 39 35 40 80 41 74 42
REMARK SMILES IDX 76 43 36 44 79 45 73 46 72 47 37 49 63 50 46 51 62 52 47 53
REMARK SMILES IDX 50 54 61 55 77 56 48 57 49 58 60 60 78 61 51 62 38 63 39 64
REMARK SMILES IDX 44 65 40 66 41 67 43 68 45 69 42 70 64 71 65 72 70 73 66 74
REMARK SMILES IDX 67 75 69 76 71 77 68 78 52 79 53 80 58 81 54 82 55 83 57 84
REMARK SMILES IDX 59 85 56 86
REMARK H PARENT 76 48 50 59
REMARK Flexibility Score: inf
ROOT
ATOM      1  C   UNL     1      -5.480   3.806   3.466  1.00  0.00     0.188 C 
ENDROOT
BRANCH   1   2
ATOM      2  O   UNL     1      -5.786   5.178   3.314  1.00  0.00    -0.376 OA
BRANCH   2   3
ATOM      3  C   UNL     1      -6.367   5.643   2.102  1.00  0.00     0.202 C 
BRANCH   3   4
ATOM      4  C   UNL     1      -5.913   5.102   0.748  1.00  0.00     0.261 C 
BRANCH   4   5
ATOM      5  O   UNL     1      -6.112   3.687   0.603  1.00  0.00    -0.463 OA
BRANCH   5   6
ATOM      6  C   UNL     1      -5.001   2.980   0.248  1.00  0.00     0.311 C 
ATOM      7  O   UNL     1      -3.890   3.468   0.110  1.00  0.00    -0.252 OA
BRANCH   6   8
ATOM      8  C   UNL     1      -5.335   1.517   0.047  1.00  0.00     0.123 C 
ATOM      9  N   UNL     1      -3.203   0.468  -0.143  1.00  0.00    -0.321 N 
ATOM     10  C   UNL     1      -3.646   0.848  -1.490  1.00  0.00     0.122 C 
ATOM     11  C   UNL     1      -4.348   0.586   0.788  1.00  0.00     0.098 C 
ATOM     12  C   UNL     1      -5.143   1.115  -1.409  1.00  0.00     0.039 C 
ATOM     13  C   UNL     1      -5.091  -0.747   1.025  1.00  0.00     0.032 C 
BRANCH   9  14
ATOM     14  C   UNL     1      -1.860   0.734   0.130  1.00  0.00     0.320 C 
ATOM     15  O   UNL     1      -1.226   1.473  -0.631  1.00  0.00    -0.248 OA
BRANCH  14  16
ATOM     16  N   UNL     1      -1.200   0.096   1.170  1.00  0.00    -0.322 N 
BRANCH  16  17
ATOM     17  C   UNL     1       0.267   0.299   1.323  1.00  0.00     0.080 C 
ATOM     18  C   UNL     1       1.065  -0.072   0.066  1.00  0.00     0.031 C 
ATOM     19  C   UNL     1       0.640   1.689   1.840  1.00  0.00     0.031 C 
ENDBRANCH  16  17
BRANCH  16  20
ATOM     20  C   UNL     1      -1.741  -0.964   2.000  1.00  0.00     0.125 C 
BRANCH  20  21
ATOM     21  C   UNL     1      -1.797  -0.579   3.449  1.00  0.00     0.009 C 
ATOM     22  C   UNL     1      -2.251   0.779   3.931  1.00  0.00     0.006 C 
ATOM     23  C   UNL     1      -3.120  -0.422   4.157  1.00  0.00     0.006 C 
ENDBRANCH  20  21
ENDBRANCH  16  20
ENDBRANCH  14  16
ENDBRANCH   9  14
ENDBRANCH   6   8
ENDBRANCH   5   6
ENDBRANCH   4   5
ENDBRANCH   3   4
ENDBRANCH   2   3
ENDBRANCH   1   2
BRANCH   1  24
ATOM     24  C   UNL     1      -6.617   2.769   3.549  1.00  0.00     0.188 C 
BRANCH  24  25
ATOM     25  O   UNL     1      -7.947   3.121   3.233  1.00  0.00    -0.376 OA
BRANCH  25  26
ATOM     26  C   UNL     1      -8.666   4.052   4.028  1.00  0.00     0.202 C 
BRANCH  26  27
ATOM     27  C   UNL     1      -8.495   4.208   5.545  1.00  0.00     0.261 C 
BRANCH  27  28
ATOM     28  O   UNL     1      -7.168   4.051   6.051  1.00  0.00    -0.460 OA
BRANCH  28  29
ATOM     29  C   UNL     1      -7.017   3.013   6.907  1.00  0.00     0.338 C 
ATOM     30  O   UNL     1      -7.863   2.215   7.270  1.00  0.00    -0.246 OA
BRANCH  29  31
ATOM     31  C   UNL     1      -5.593   2.852   7.232  1.00  0.00     0.060 A 
ATOM     32  C   UNL     1      -4.970   1.669   6.826  1.00  0.00     0.016 A 
ATOM     33  C   UNL     1      -4.906   3.799   7.995  1.00  0.00     0.016 A 
ATOM     34  C   UNL     1      -3.654   1.426   7.198  1.00  0.00     0.010 A 
ATOM     35  C   UNL     1      -3.585   3.542   8.380  1.00  0.00     0.010 A 
ATOM     36  C   UNL     1      -2.960   2.347   7.993  1.00  0.00    -0.014 A 
BRANCH  36  37
ATOM     37  C   UNL     1      -1.643   1.945   8.533  1.00  0.00     0.031 A 
ATOM     38  C   UNL     1      -1.602   1.151   9.805  1.00  0.00     0.074 A 
ATOM     39  C   UNL     1      -0.512   2.186   7.847  1.00  0.00     0.049 A 
ATOM     40  N   UNL     1      -0.570   0.676  10.454  1.00  0.00    -0.248 NA
ATOM     41  C   UNL     1      -2.901   0.840  10.423  1.00  0.00     0.031 C 
ATOM     42  C   UNL     1      -0.435   2.872   6.560  1.00  0.00     0.029 A 
ATOM     43  N   UNL     1       0.789   1.853   8.130  1.00  0.00    -0.354 N 
ATOM     44  C   UNL     1      -1.093   0.021  11.560  1.00  0.00     0.074 A 
ATOM     45  C   UNL     1      -2.533   0.155  11.495  1.00  0.00     0.031 C 
ATOM     46  C   UNL     1       0.845   2.885   6.149  1.00  0.00     0.029 A 
ATOM     47  C   UNL     1       1.683   2.265   7.173  1.00  0.00     0.049 A 
ATOM     48  H   UNL     1       1.055   1.365   8.943  1.00  0.00     0.167 HD
ATOM     49  C   UNL     1      -0.432  -0.621  12.550  1.00  0.00     0.037 A 
ATOM     50  C   UNL     1       3.027   2.176   7.146  1.00  0.00     0.037 A 
ATOM     51  C   UNL     1       1.000  -0.731  12.628  1.00  0.00     0.049 A 
ATOM     52  C   UNL     1       3.745   1.543   8.310  1.00  0.00     0.074 A 
ATOM     53  C   UNL     1       1.767  -1.322  13.616  1.00  0.00     0.029 A 
ATOM     54  N   UNL     1       1.880  -0.228  11.683  1.00  0.00    -0.354 N 
ATOM     55  N   UNL     1       3.247   0.955   9.371  1.00  0.00    -0.248 NA
ATOM     56  C   UNL     1       5.215   1.583   8.284  1.00  0.00     0.031 C 
ATOM     57  C   UNL     1       3.115  -1.138  13.289  1.00  0.00     0.029 A 
ATOM     58  C   UNL     1       3.185  -0.475  12.074  1.00  0.00     0.049 A 
ATOM     59  H   UNL     1       1.616   0.236  10.855  1.00  0.00     0.167 HD
ATOM     60  C   UNL     1       4.337   0.544  10.129  1.00  0.00     0.074 A 
ATOM     61  C   UNL     1       5.525   0.931   9.397  1.00  0.00     0.031 C 
ATOM     62  C   UNL     1       4.355  -0.089  11.327  1.00  0.00     0.037 A 
BRANCH  49  63
ATOM     63  C   UNL     1      -1.259  -1.193  13.660  1.00  0.00     0.057 A 
ATOM     64  C   UNL     1      -2.021  -2.356  13.494  1.00  0.00     0.134 A 
ATOM     65  C   UNL     1      -1.293  -0.566  14.912  1.00  0.00     0.134 A 
ATOM     66  F   UNL     1      -2.049  -2.988  12.312  1.00  0.00    -0.206 F 
ATOM     67  C   UNL     1      -2.806  -2.864  14.531  1.00  0.00     0.040 A 
ATOM     68  C   UNL     1      -2.056  -1.077  15.962  1.00  0.00     0.040 A 
ATOM     69  F   UNL     1      -0.588   0.554  15.132  1.00  0.00    -0.206 F 
ATOM     70  C   UNL     1      -2.820  -2.226  15.771  1.00  0.00     0.006 A 
ENDBRANCH  49  63
BRANCH  50  71
ATOM     71  C   UNL     1       3.797   2.745   6.010  1.00  0.00     0.057 A 
ATOM     72  C   UNL     1       4.534   1.928   5.146  1.00  0.00     0.134 A 
ATOM     73  C   UNL     1       3.850   4.128   5.790  1.00  0.00     0.134 A 
ATOM     74  F   UNL     1       4.548   0.598   5.322  1.00  0.00    -0.206 F 
ATOM     75  C   UNL     1       5.310   2.464   4.116  1.00  0.00     0.040 A 
ATOM     76  C   UNL     1       4.598   4.675   4.747  1.00  0.00     0.040 A 
ATOM     77  F   UNL     1       3.174   4.967   6.587  1.00  0.00    -0.206 F 
ATOM     78  C   UNL     1       5.339   3.842   3.912  1.00  0.00     0.006 A 
ENDBRANCH  50  71
BRANCH  62  79
ATOM     79  C   UNL     1       5.696  -0.431  11.908  1.00  0.00     0.057 A 
ATOM     80  C   UNL     1       6.529   0.546  12.466  1.00  0.00     0.134 A 
ATOM     81  C   UNL     1       6.133  -1.761  11.957  1.00  0.00     0.134 A 
ATOM     82  F   UNL     1       6.173   1.839  12.440  1.00  0.00    -0.206 F 
ATOM     83  C   UNL     1       7.760   0.214  13.037  1.00  0.00     0.040 A 
ATOM     84  C   UNL     1       7.349  -2.108  12.547  1.00  0.00     0.040 A 
ATOM     85  F   UNL     1       5.376  -2.746  11.450  1.00  0.00    -0.206 F 
ATOM     86  C   UNL     1       8.168  -1.118  13.085  1.00  0.00     0.006 A 
ENDBRANCH  62  79
ENDBRANCH  36  37
ENDBRANCH  29  31
ENDBRANCH  28  29
ENDBRANCH  27  28
ENDBRANCH  26  27
ENDBRANCH  25  26
ENDBRANCH  24  25
ENDBRANCH   1  24
TORSDOF 22
