REMARK SMILES O=C(OCCOCCOCCOC(=O)[C@H]1[C@H]2CC[C@H](CC2)[C@H]1C(=O)Nc1ccc(C(=O)N2CCCC2)cc1)c1ccc(-c2c3nc(c(-c4c(F)cccc4F)c4ccc([nH]4)c(-c4c(F)cccc4F)c4nc(c(-c5c(F)cccc5F)c5ccc2[nH]5)C=C4)C=C3)cc1
REMARK SMILES IDX 8 1 7 2 6 3 5 4 4 5 3 6 2 7 1 8 39 9 40 10 92 11 41 12 91 13
REMARK SMILES IDX 42 14 43 15 44 16 85 17 45 18 90 19 84 20 86 21 46 22 89 23
REMARK SMILES IDX 83 24 82 25 47 27 73 28 56 29 72 30 57 31 60 32 71 33 87 34
REMARK SMILES IDX 58 35 59 36 70 38 88 39 61 40 48 41 49 42 54 43 50 44 51 45
REMARK SMILES IDX 53 46 55 47 52 48 74 49 75 50 80 51 76 52 77 53 79 54 81 55
REMARK SMILES IDX 78 56 62 57 63 58 68 59 64 60 65 61 67 62 69 63 66 64 9 65
REMARK SMILES IDX 10 66 11 67 12 68 13 69 14 70 15 71 16 72 22 73 21 74 17 75
REMARK SMILES IDX 19 76 20 77 18 78 23 79 24 80 25 81 26 83 27 84 38 85 28 86
REMARK SMILES IDX 37 87 29 88 30 89 31 90 32 91 33 92 36 93 34 94 35 95
REMARK H PARENT 86 26 60 37 25 82
REMARK Flexibility Score: inf
ROOT
ATOM      1  C   UNL     1       1.965   1.113   2.491  1.00  0.00     0.188 C 
ENDROOT
BRANCH   1   2
ATOM      2  C   UNL     1       2.575   1.308   1.107  1.00  0.00     0.188 C 
BRANCH   2   3
ATOM      3  O   UNL     1       3.772   0.551   0.944  1.00  0.00    -0.376 OA
BRANCH   3   4
ATOM      4  C   UNL     1       4.798   1.199   0.190  1.00  0.00     0.202 C 
BRANCH   4   5
ATOM      5  C   UNL     1       4.440   1.514  -1.266  1.00  0.00     0.261 C 
BRANCH   5   6
ATOM      6  O   UNL     1       3.998   0.379  -2.029  1.00  0.00    -0.460 OA
BRANCH   6   7
ATOM      7  C   UNL     1       2.849  -0.262  -1.713  1.00  0.00     0.338 C 
ATOM      8  O   UNL     1       1.710   0.167  -1.768  1.00  0.00    -0.246 OA
BRANCH   7   9
ATOM      9  C   UNL     1       3.234  -1.674  -1.544  1.00  0.00     0.060 A 
ATOM     10  C   UNL     1       4.287  -1.999  -0.682  1.00  0.00     0.016 A 
ATOM     11  C   UNL     1       2.653  -2.648  -2.350  1.00  0.00     0.016 A 
ATOM     12  C   UNL     1       4.863  -3.246  -0.715  1.00  0.00     0.010 A 
ATOM     13  C   UNL     1       3.203  -3.930  -2.353  1.00  0.00     0.010 A 
ATOM     14  C   UNL     1       4.340  -4.207  -1.574  1.00  0.00    -0.014 A 
BRANCH  14  15
ATOM     15  C   UNL     1       5.114  -5.447  -1.739  1.00  0.00     0.031 A 
ATOM     16  C   UNL     1       5.941  -5.596  -2.973  1.00  0.00     0.074 A 
ATOM     17  C   UNL     1       5.162  -6.332  -0.729  1.00  0.00     0.049 A 
ATOM     18  N   UNL     1       6.705  -6.590  -3.329  1.00  0.00    -0.248 NA
ATOM     19  C   UNL     1       5.923  -4.473  -3.928  1.00  0.00     0.031 C 
ATOM     20  C   UNL     1       4.483  -6.150   0.551  1.00  0.00     0.029 A 
ATOM     21  N   UNL     1       5.814  -7.526  -0.588  1.00  0.00    -0.354 N 
ATOM     22  C   UNL     1       7.214  -6.238  -4.570  1.00  0.00     0.074 A 
ATOM     23  C   UNL     1       6.692  -4.934  -4.903  1.00  0.00     0.031 C 
ATOM     24  C   UNL     1       4.773  -7.182   1.355  1.00  0.00     0.029 A 
ATOM     25  C   UNL     1       5.586  -8.139   0.623  1.00  0.00     0.049 A 
ATOM     26  H   UNL     1       6.393  -7.909  -1.286  1.00  0.00     0.167 HD
ATOM     27  C   UNL     1       8.033  -6.967  -5.358  1.00  0.00     0.037 A 
ATOM     28  C   UNL     1       5.977  -9.348   1.073  1.00  0.00     0.037 A 
ATOM     29  C   UNL     1       8.541  -8.255  -4.974  1.00  0.00     0.049 A 
ATOM     30  C   UNL     1       6.864 -10.141   0.148  1.00  0.00     0.074 A 
ATOM     31  C   UNL     1       9.338  -9.121  -5.694  1.00  0.00     0.029 A 
ATOM     32  N   UNL     1       8.292  -8.857  -3.745  1.00  0.00    -0.354 N 
ATOM     33  N   UNL     1       7.365  -9.786  -1.014  1.00  0.00    -0.248 NA
ATOM     34  C   UNL     1       7.260 -11.480   0.589  1.00  0.00     0.031 C 
ATOM     35  C   UNL     1       9.535 -10.268  -4.918  1.00  0.00     0.029 A 
ATOM     36  C   UNL     1       8.898 -10.098  -3.696  1.00  0.00     0.049 A 
ATOM     37  H   UNL     1       7.762  -8.458  -3.018  1.00  0.00     0.167 HD
ATOM     38  C   UNL     1       8.163 -10.842  -1.425  1.00  0.00     0.074 A 
ATOM     39  C   UNL     1       8.118 -11.825  -0.359  1.00  0.00     0.031 C 
ATOM     40  C   UNL     1       8.851 -11.011  -2.582  1.00  0.00     0.037 A 
BRANCH  27  41
ATOM     41  C   UNL     1       8.334  -6.423  -6.721  1.00  0.00     0.057 A 
ATOM     42  C   UNL     1       9.194  -5.338  -6.927  1.00  0.00     0.134 A 
ATOM     43  C   UNL     1       7.723  -6.987  -7.848  1.00  0.00     0.134 A 
ATOM     44  F   UNL     1       9.782  -4.728  -5.886  1.00  0.00    -0.206 F 
ATOM     45  C   UNL     1       9.425  -4.824  -8.206  1.00  0.00     0.040 A 
ATOM     46  C   UNL     1       7.961  -6.497  -9.132  1.00  0.00     0.040 A 
ATOM     47  F   UNL     1       6.874  -8.018  -7.716  1.00  0.00    -0.206 F 
ATOM     48  C   UNL     1       8.812  -5.409  -9.313  1.00  0.00     0.006 A 
ENDBRANCH  27  41
BRANCH  28  49
ATOM     49  C   UNL     1       5.586  -9.842   2.433  1.00  0.00     0.057 A 
ATOM     50  C   UNL     1       6.544 -10.231   3.380  1.00  0.00     0.134 A 
ATOM     51  C   UNL     1       4.246  -9.915   2.846  1.00  0.00     0.134 A 
ATOM     52  F   UNL     1       7.850 -10.205   3.074  1.00  0.00    -0.206 F 
ATOM     53  C   UNL     1       6.199 -10.646   4.670  1.00  0.00     0.040 A 
ATOM     54  C   UNL     1       3.886 -10.294   4.144  1.00  0.00     0.040 A 
ATOM     55  F   UNL     1       3.255  -9.585   2.004  1.00  0.00    -0.206 F 
ATOM     56  C   UNL     1       4.865 -10.662   5.060  1.00  0.00     0.006 A 
ENDBRANCH  28  49
BRANCH  40  57
ATOM     57  C   UNL     1       9.622 -12.288  -2.714  1.00  0.00     0.057 A 
ATOM     58  C   UNL     1       8.974 -13.518  -2.889  1.00  0.00     0.134 A 
ATOM     59  C   UNL     1      11.021 -12.282  -2.698  1.00  0.00     0.134 A 
ATOM     60  F   UNL     1       7.634 -13.585  -2.902  1.00  0.00    -0.206 F 
ATOM     61  C   UNL     1       9.693 -14.705  -3.005  1.00  0.00     0.040 A 
ATOM     62  C   UNL     1      11.752 -13.460  -2.847  1.00  0.00     0.040 A 
ATOM     63  F   UNL     1      11.697 -11.133  -2.549  1.00  0.00    -0.206 F 
ATOM     64  C   UNL     1      11.087 -14.677  -2.991  1.00  0.00     0.006 A 
ENDBRANCH  40  57
ENDBRANCH  14  15
ENDBRANCH   7   9
ENDBRANCH   6   7
ENDBRANCH   5   6
ENDBRANCH   4   5
ENDBRANCH   3   4
ENDBRANCH   2   3
ENDBRANCH   1   2
BRANCH   1  65
ATOM     65  O   UNL     1       2.735   1.579   3.592  1.00  0.00    -0.376 OA
BRANCH  65  66
ATOM     66  C   UNL     1       4.084   1.155   3.683  1.00  0.00     0.202 C 
BRANCH  66  67
ATOM     67  C   UNL     1       4.432  -0.326   3.931  1.00  0.00     0.261 C 
BRANCH  67  68
ATOM     68  O   UNL     1       3.674  -1.393   3.312  1.00  0.00    -0.463 OA
BRANCH  68  69
ATOM     69  C   UNL     1       2.605  -1.748   4.072  1.00  0.00     0.310 C 
ATOM     70  O   UNL     1       2.084  -0.963   4.858  1.00  0.00    -0.252 OA
BRANCH  69  71
ATOM     71  C   UNL     1       2.055  -3.173   3.880  1.00  0.00     0.115 C 
ATOM     72  C   UNL     1       2.776  -4.518   3.475  1.00  0.00     0.004 C 
ATOM     73  C   UNL     1       1.162  -3.496   5.079  1.00  0.00     0.096 C 
ATOM     74  C   UNL     1       3.122  -5.568   4.595  1.00  0.00     0.005 C 
ATOM     75  C   UNL     1       1.684  -5.309   2.697  1.00  0.00     0.005 C 
ATOM     76  C   UNL     1       0.774  -4.998   5.072  1.00  0.00     0.002 C 
ATOM     77  C   UNL     1       1.963  -5.811   5.558  1.00  0.00     0.005 C 
ATOM     78  C   UNL     1       0.454  -5.475   3.623  1.00  0.00     0.005 C 
BRANCH  73  79
ATOM     79  C   UNL     1       1.549  -2.943   6.480  1.00  0.00     0.228 C 
ATOM     80  O   UNL     1       0.602  -2.566   7.197  1.00  0.00    -0.274 OA
ATOM     81  N   UNL     1       2.756  -2.926   7.122  1.00  0.00    -0.326 N 
ATOM     82  H   UNL     1       2.649  -2.542   8.023  1.00  0.00     0.169 HD
BRANCH  81  83
ATOM     83  C   UNL     1       4.104  -3.283   6.911  1.00  0.00     0.041 A 
ATOM     84  C   UNL     1       4.806  -3.779   8.012  1.00  0.00     0.027 A 
ATOM     85  C   UNL     1       4.796  -3.262   5.715  1.00  0.00     0.027 A 
ATOM     86  C   UNL     1       6.020  -4.473   7.840  1.00  0.00     0.016 A 
ATOM     87  C   UNL     1       6.008  -3.937   5.522  1.00  0.00     0.016 A 
ATOM     88  C   UNL     1       6.587  -4.635   6.567  1.00  0.00     0.040 A 
BRANCH  88  89
ATOM     89  C   UNL     1       7.498  -5.798   6.320  1.00  0.00     0.253 C 
ATOM     90  O   UNL     1       7.566  -6.661   7.197  1.00  0.00    -0.269 OA
ATOM     91  N   UNL     1       8.024  -6.019   5.058  1.00  0.00    -0.339 N 
ATOM     92  C   UNL     1       8.662  -5.103   4.123  1.00  0.00     0.120 C 
ATOM     93  C   UNL     1       8.017  -7.366   4.516  1.00  0.00     0.120 C 
ATOM     94  C   UNL     1       8.441  -5.779   2.778  1.00  0.00     0.023 C 
ATOM     95  C   UNL     1       8.647  -7.247   3.132  1.00  0.00     0.023 C 
ENDBRANCH  88  89
ENDBRANCH  81  83
ENDBRANCH  73  79
ENDBRANCH  69  71
ENDBRANCH  68  69
ENDBRANCH  67  68
ENDBRANCH  66  67
ENDBRANCH  65  66
ENDBRANCH   1  65
TORSDOF 20
