REMARK SMILES O=C(COc1ccc(/C=N/NC(=O)C(=O)Nc2ccc(F)cc2)cc1)OCCOCCOCCOC(=O)c1ccc(-c2c3nc(c(-c4c(F)cccc4F)c4ccc([nH]4)c(-c4c(F)cccc4F)c4nc(c(-c5c(F)cccc5F)c5ccc2[nH]5)C=C4)C=C3)cc1
REMARK SMILES IDX 28 1 27 2 26 3 2 4 1 5 3 6 4 7 5 8 6 9 25 10 7 11 24 12 8 13
REMARK SMILES IDX 9 14 10 15 11 16 12 17 13 19 14 20 15 21 16 22 17 24 18 25
REMARK SMILES IDX 23 26 19 27 22 28 20 29 21 30 29 31 30 32 31 33 32 34 33 35
REMARK SMILES IDX 34 36 35 37 36 38 37 39 38 40 39 41 91 42 40 43 90 44 41 45
REMARK SMILES IDX 42 46 43 47 84 48 44 49 89 50 83 51 85 52 45 53 88 54 82 55
REMARK SMILES IDX 81 56 46 58 72 59 55 60 71 61 56 62 59 63 70 64 86 65 57 66
REMARK SMILES IDX 58 67 69 69 87 70 60 71 47 72 48 73 53 74 49 75 50 76 52 77
REMARK SMILES IDX 54 78 51 79 73 80 74 81 79 82 75 83 76 84 78 85 80 86 77 87
REMARK SMILES IDX 61 88 62 89 67 90 63 91 64 92 66 93 68 94 65 95
REMARK H PARENT 11 18 16 23 85 57 59 68
REMARK Flexibility Score: inf
ROOT
ATOM      1  C   UNL     1       4.998   0.174   0.508  1.00  0.00     0.202 C 
ENDROOT
BRANCH   1   2
ATOM      2  C   UNL     1       4.232   0.754  -0.678  1.00  0.00     0.261 C 
BRANCH   2   3
ATOM      3  O   UNL     1       2.789   0.622  -0.645  1.00  0.00    -0.461 OA
BRANCH   3   4
ATOM      4  C   UNL     1       2.047  -0.503  -0.540  1.00  0.00     0.344 C 
ATOM      5  O   UNL     1       0.824  -0.416  -0.448  1.00  0.00    -0.248 OA
BRANCH   4   6
ATOM      6  C   UNL     1       2.742  -1.857  -0.439  1.00  0.00     0.351 C 
BRANCH   6   7
ATOM      7  O   UNL     1       3.927  -2.036  -1.206  1.00  0.00    -0.482 OA
BRANCH   7   8
ATOM      8  C   UNL     1       3.572  -2.424  -2.463  1.00  0.00     0.120 A 
ATOM      9  C   UNL     1       3.765  -3.761  -2.800  1.00  0.00     0.047 A 
ATOM     10  C   UNL     1       2.949  -1.522  -3.325  1.00  0.00     0.047 A 
ATOM     11  C   UNL     1       3.225  -4.236  -3.986  1.00  0.00     0.013 A 
ATOM     12  C   UNL     1       2.413  -1.991  -4.505  1.00  0.00     0.013 A 
ATOM     13  C   UNL     1       2.542  -3.345  -4.814  1.00  0.00    -0.005 A 
BRANCH  13  14
ATOM     14  C   UNL     1       1.879  -3.784  -6.032  1.00  0.00     0.141 C 
ATOM     15  N   UNL     1       1.270  -4.922  -6.121  1.00  0.00    -0.180 NA
BRANCH  15  16
ATOM     16  N   UNL     1       0.576  -5.098  -7.278  1.00  0.00    -0.239 N 
ATOM     17  C   UNL     1      -0.210  -4.187  -7.971  1.00  0.00     0.329 C 
ATOM     18  H   UNL     1       0.640  -5.995  -7.679  1.00  0.00     0.194 HD
ATOM     19  O   UNL     1      -0.380  -4.361  -9.174  1.00  0.00    -0.262 OA
BRANCH  17  20
ATOM     20  C   UNL     1      -0.854  -2.960  -7.222  1.00  0.00     0.315 C 
ATOM     21  O   UNL     1      -0.469  -2.568  -6.125  1.00  0.00    -0.263 OA
ATOM     22  N   UNL     1      -1.784  -2.186  -7.892  1.00  0.00    -0.318 N 
ATOM     23  H   UNL     1      -1.864  -1.257  -7.577  1.00  0.00     0.170 HD
BRANCH  22  24
ATOM     24  C   UNL     1      -2.626  -2.534  -8.951  1.00  0.00     0.041 A 
ATOM     25  C   UNL     1      -3.008  -1.526  -9.842  1.00  0.00     0.029 A 
ATOM     26  C   UNL     1      -3.124  -3.831  -9.111  1.00  0.00     0.029 A 
ATOM     27  C   UNL     1      -3.806  -1.840 -10.943  1.00  0.00     0.041 A 
ATOM     28  C   UNL     1      -3.932  -4.139 -10.204  1.00  0.00     0.041 A 
ATOM     29  C   UNL     1      -4.252  -3.145 -11.118  1.00  0.00     0.123 A 
ATOM     30  F   UNL     1      -5.007  -3.447 -12.182  1.00  0.00    -0.207 F 
ENDBRANCH  22  24
ENDBRANCH  17  20
ENDBRANCH  15  16
ENDBRANCH  13  14
ENDBRANCH   7   8
ENDBRANCH   6   7
ENDBRANCH   4   6
ENDBRANCH   3   4
ENDBRANCH   2   3
ENDBRANCH   1   2
BRANCH   1  31
ATOM     31  O   UNL     1       4.630   0.757   1.739  1.00  0.00    -0.376 OA
BRANCH  31  32
ATOM     32  C   UNL     1       3.348   0.448   2.249  1.00  0.00     0.188 C 
BRANCH  32  33
ATOM     33  C   UNL     1       2.441   1.674   2.430  1.00  0.00     0.188 C 
BRANCH  33  34
ATOM     34  O   UNL     1       3.004   2.956   2.678  1.00  0.00    -0.376 OA
BRANCH  34  35
ATOM     35  C   UNL     1       4.296   3.064   3.253  1.00  0.00     0.202 C 
BRANCH  35  36
ATOM     36  C   UNL     1       4.479   2.565   4.694  1.00  0.00     0.261 C 
BRANCH  36  37
ATOM     37  O   UNL     1       4.137   1.183   4.933  1.00  0.00    -0.460 OA
BRANCH  37  38
ATOM     38  C   UNL     1       2.970   0.959   5.578  1.00  0.00     0.338 C 
ATOM     39  O   UNL     1       2.200   1.812   6.018  1.00  0.00    -0.246 OA
BRANCH  38  40
ATOM     40  C   UNL     1       2.610  -0.481   5.580  1.00  0.00     0.060 A 
ATOM     41  C   UNL     1       1.348  -0.850   5.089  1.00  0.00     0.016 A 
ATOM     42  C   UNL     1       3.442  -1.450   6.147  1.00  0.00     0.016 A 
ATOM     43  C   UNL     1       0.879  -2.158   5.239  1.00  0.00     0.010 A 
ATOM     44  C   UNL     1       2.962  -2.760   6.315  1.00  0.00     0.010 A 
ATOM     45  C   UNL     1       1.655  -3.105   5.918  1.00  0.00    -0.014 A 
BRANCH  45  46
ATOM     46  C   UNL     1       0.999  -4.332   6.456  1.00  0.00     0.031 A 
ATOM     47  C   UNL     1       0.523  -4.310   7.889  1.00  0.00     0.074 A 
ATOM     48  C   UNL     1       0.775  -5.427   5.707  1.00  0.00     0.049 A 
ATOM     49  N   UNL     1      -0.063  -5.246   8.593  1.00  0.00    -0.248 NA
ATOM     50  C   UNL     1       0.745  -3.056   8.627  1.00  0.00     0.031 C 
ATOM     51  C   UNL     1       1.124  -5.579   4.298  1.00  0.00     0.029 A 
ATOM     52  N   UNL     1       0.192  -6.627   6.042  1.00  0.00    -0.354 N 
ATOM     53  C   UNL     1      -0.264  -4.699   9.856  1.00  0.00     0.074 A 
ATOM     54  C   UNL     1       0.292  -3.364   9.831  1.00  0.00     0.031 C 
ATOM     55  C   UNL     1       0.751  -6.806   3.887  1.00  0.00     0.029 A 
ATOM     56  C   UNL     1       0.162  -7.535   5.011  1.00  0.00     0.049 A 
ATOM     57  H   UNL     1      -0.170  -6.818   6.937  1.00  0.00     0.167 HD
ATOM     58  C   UNL     1      -0.864  -5.248  10.940  1.00  0.00     0.037 A 
ATOM     59  C   UNL     1      -0.282  -8.808   4.980  1.00  0.00     0.037 A 
ATOM     60  C   UNL     1      -1.427  -6.572  10.976  1.00  0.00     0.049 A 
ATOM     61  C   UNL     1      -0.883  -9.427   6.219  1.00  0.00     0.074 A 
ATOM     62  C   UNL     1      -2.074  -7.206  12.023  1.00  0.00     0.029 A 
ATOM     63  N   UNL     1      -1.401  -7.470   9.920  1.00  0.00    -0.354 N 
ATOM     64  N   UNL     1      -1.090  -8.892   7.398  1.00  0.00    -0.248 NA
ATOM     65  C   UNL     1      -1.320 -10.828   6.115  1.00  0.00     0.031 C 
ATOM     66  C   UNL     1      -2.389  -8.507  11.619  1.00  0.00     0.029 A 
ATOM     67  C   UNL     1      -1.997  -8.662  10.299  1.00  0.00     0.049 A 
ATOM     68  H   UNL     1      -1.016  -7.288   9.033  1.00  0.00     0.167 HD
ATOM     69  C   UNL     1      -1.722  -9.872   8.158  1.00  0.00     0.074 A 
ATOM     70  C   UNL     1      -1.864 -11.034   7.306  1.00  0.00     0.031 C 
ATOM     71  C   UNL     1      -2.154  -9.810   9.442  1.00  0.00     0.037 A 
BRANCH  58  72
ATOM     72  C   UNL     1      -0.904  -4.421  12.193  1.00  0.00     0.057 A 
ATOM     73  C   UNL     1      -1.704  -3.275  12.307  1.00  0.00     0.134 A 
ATOM     74  C   UNL     1      -0.131  -4.780  13.305  1.00  0.00     0.134 A 
ATOM     75  F   UNL     1      -2.456  -2.866  11.274  1.00  0.00    -0.206 F 
ATOM     76  C   UNL     1      -1.704  -2.497  13.466  1.00  0.00     0.040 A 
ATOM     77  C   UNL     1      -0.148  -4.029  14.481  1.00  0.00     0.040 A 
ATOM     78  F   UNL     1       0.652  -5.869  13.267  1.00  0.00    -0.206 F 
ATOM     79  C   UNL     1      -0.928  -2.877  14.560  1.00  0.00     0.006 A 
ENDBRANCH  58  72
BRANCH  59  80
ATOM     80  C   UNL     1      -0.191  -9.602   3.726  1.00  0.00     0.057 A 
ATOM     81  C   UNL     1      -1.341  -9.979   3.022  1.00  0.00     0.134 A 
ATOM     82  C   UNL     1       1.042 -10.036   3.223  1.00  0.00     0.134 A 
ATOM     83  F   UNL     1      -2.554  -9.621   3.470  1.00  0.00    -0.206 F 
ATOM     84  C   UNL     1      -1.272 -10.771   1.875  1.00  0.00     0.040 A 
ATOM     85  C   UNL     1       1.128 -10.808   2.063  1.00  0.00     0.040 A 
ATOM     86  F   UNL     1       2.181  -9.716   3.853  1.00  0.00    -0.206 F 
ATOM     87  C   UNL     1      -0.033 -11.184   1.389  1.00  0.00     0.006 A 
ENDBRANCH  59  80
BRANCH  71  88
ATOM     88  C   UNL     1      -2.885 -11.004   9.992  1.00  0.00     0.057 A 
ATOM     89  C   UNL     1      -2.241 -12.216  10.272  1.00  0.00     0.134 A 
ATOM     90  C   UNL     1      -4.256 -10.924  10.276  1.00  0.00     0.134 A 
ATOM     91  F   UNL     1      -0.932 -12.366  10.017  1.00  0.00    -0.206 F 
ATOM     92  C   UNL     1      -2.938 -13.312  10.786  1.00  0.00     0.040 A 
ATOM     93  C   UNL     1      -4.957 -12.003  10.817  1.00  0.00     0.040 A 
ATOM     94  F   UNL     1      -4.935  -9.790  10.044  1.00  0.00    -0.206 F 
ATOM     95  C   UNL     1      -4.300 -13.205  11.065  1.00  0.00     0.006 A 
ENDBRANCH  71  88
ENDBRANCH  45  46
ENDBRANCH  38  40
ENDBRANCH  37  38
ENDBRANCH  36  37
ENDBRANCH  35  36
ENDBRANCH  34  35
ENDBRANCH  33  34
ENDBRANCH  32  33
ENDBRANCH  31  32
ENDBRANCH   1  31
TORSDOF 23
