REMARK SMILES CC(=O)C1=C(c2ccccc2)NC(=S)N[C@@H]1c1cc(Cl)ccc1OCC(=O)OCCOCCOCCOC(=O)c1ccc(-c2c3nc(c(-c4c(F)cccc4F)c4ccc([nH]4)c(-c4c(F)cccc4F)c4nc(c(-c5c(F)cccc5F)c5ccc2[nH]5)C=C4)C=C3)cc1
REMARK SMILES IDX 32 1 31 2 30 3 29 4 28 5 26 6 27 7 25 8 24 9 23 10 17 11
REMARK SMILES IDX 18 12 19 13 22 14 20 15 21 16 16 17 4 18 5 19 12 20 15 21
REMARK SMILES IDX 13 22 14 25 2 26 1 27 3 28 6 29 7 30 11 31 8 32 10 33 9 34
REMARK SMILES IDX 33 35 34 36 35 37 36 38 37 39 38 40 39 41 40 42 41 43 93 44
REMARK SMILES IDX 42 45 92 46 43 47 44 48 45 49 86 50 46 51 91 52 85 53 87 54
REMARK SMILES IDX 47 55 90 56 84 57 83 58 48 60 74 61 57 62 73 63 58 64 61 65
REMARK SMILES IDX 72 66 88 67 59 68 60 69 71 71 89 72 62 73 49 74 50 75 55 76
REMARK SMILES IDX 51 77 52 78 54 79 56 80 53 81 75 82 76 83 81 84 77 85 78 86
REMARK SMILES IDX 80 87 82 88 79 89 63 90 64 91 69 92 65 93 66 94 68 95 70 96
REMARK SMILES IDX 67 97
REMARK H PARENT 12 23 15 24 87 59 61 70
REMARK Flexibility Score: inf
ROOT
ATOM      1  C   UNL     1       2.491  -5.761  -1.307  1.00  0.00     0.188 C 
ENDROOT
BRANCH   1   2
ATOM      2  O   UNL     1       2.776  -7.002  -1.952  1.00  0.00    -0.376 OA
BRANCH   2   3
ATOM      3  C   UNL     1       2.701  -6.939  -3.373  1.00  0.00     0.202 C 
BRANCH   3   4
ATOM      4  C   UNL     1       4.058  -6.566  -3.976  1.00  0.00     0.261 C 
BRANCH   4   5
ATOM      5  O   UNL     1       4.406  -5.197  -3.689  1.00  0.00    -0.461 OA
BRANCH   5   6
ATOM      6  C   UNL     1       5.009  -4.509  -4.695  1.00  0.00     0.344 C 
ATOM      7  O   UNL     1       5.181  -4.929  -5.834  1.00  0.00    -0.248 OA
BRANCH   6   8
ATOM      8  C   UNL     1       5.475  -3.125  -4.263  1.00  0.00     0.351 C 
BRANCH   8   9
ATOM      9  O   UNL     1       5.831  -2.973  -2.928  1.00  0.00    -0.482 OA
BRANCH   9  10
ATOM     10  C   UNL     1       5.066  -2.673  -1.855  1.00  0.00     0.125 A 
ATOM     11  C   UNL     1       3.712  -2.327  -1.638  1.00  0.00     0.023 A 
ATOM     12  C   UNL     1       3.429  -2.019  -0.256  1.00  0.00     0.030 A 
ATOM     13  C   UNL     1       4.381  -2.008   0.782  1.00  0.00     0.041 A 
ATOM     14  C   UNL     1       5.990  -2.722  -0.764  1.00  0.00     0.048 A 
ATOM     15  Cl  UNL     1       3.993  -1.456   2.360  1.00  0.00    -0.084 Cl
ATOM     16  C   UNL     1       5.671  -2.384   0.535  1.00  0.00     0.024 A 
BRANCH  11  17
ATOM     17  C   UNL     1       2.565  -2.017  -2.679  1.00  0.00     0.152 C 
ATOM     18  C   UNL     1       1.130  -2.088  -2.175  1.00  0.00     0.046 C 
ATOM     19  C   UNL     1       0.238  -3.035  -2.553  1.00  0.00     0.057 C 
ATOM     20  N   UNL     1       0.575  -3.830  -3.618  1.00  0.00    -0.332 N 
ATOM     21  N   UNL     1       2.556  -2.681  -3.978  1.00  0.00    -0.351 N 
ATOM     22  C   UNL     1       1.618  -3.553  -4.433  1.00  0.00     0.171 C 
ATOM     23  H   UNL     1       0.036  -4.635  -3.797  1.00  0.00     0.169 HD
ATOM     24  H   UNL     1       3.304  -2.478  -4.585  1.00  0.00     0.163 HD
ATOM     25  S   UNL     1       1.645  -4.128  -5.991  1.00  0.00    -0.041 S 
BRANCH  18  26
ATOM     26  C   UNL     1       0.704  -1.019  -1.263  1.00  0.00     0.160 C 
ATOM     27  C   UNL     1       1.130   0.405  -1.493  1.00  0.00     0.093 C 
ATOM     28  O   UNL     1       0.089  -1.351  -0.260  1.00  0.00    -0.295 OA
ENDBRANCH  18  26
BRANCH  19  29
ATOM     29  C   UNL     1      -1.154  -3.264  -2.082  1.00  0.00    -0.002 A 
ATOM     30  C   UNL     1      -1.454  -4.322  -1.211  1.00  0.00     0.010 A 
ATOM     31  C   UNL     1      -2.218  -2.503  -2.582  1.00  0.00     0.010 A 
ATOM     32  C   UNL     1      -2.773  -4.575  -0.809  1.00  0.00     0.001 A 
ATOM     33  C   UNL     1      -3.533  -2.729  -2.149  1.00  0.00     0.001 A 
ATOM     34  C   UNL     1      -3.809  -3.761  -1.256  1.00  0.00     0.000 A 
ENDBRANCH  19  29
ENDBRANCH  11  17
ENDBRANCH   9  10
ENDBRANCH   8   9
ENDBRANCH   6   8
ENDBRANCH   5   6
ENDBRANCH   4   5
ENDBRANCH   3   4
ENDBRANCH   2   3
ENDBRANCH   1   2
BRANCH   1  35
ATOM     35  C   UNL     1       3.350  -5.610  -0.053  1.00  0.00     0.188 C 
BRANCH  35  36
ATOM     36  O   UNL     1       3.360  -6.724   0.835  1.00  0.00    -0.376 OA
BRANCH  36  37
ATOM     37  C   UNL     1       2.100  -7.319   1.125  1.00  0.00     0.202 C 
BRANCH  37  38
ATOM     38  C   UNL     1       1.288  -6.598   2.205  1.00  0.00     0.261 C 
BRANCH  38  39
ATOM     39  O   UNL     1       0.664  -5.357   1.790  1.00  0.00    -0.460 OA
BRANCH  39  40
ATOM     40  C   UNL     1       0.736  -4.365   2.725  1.00  0.00     0.338 C 
ATOM     41  O   UNL     1       1.420  -4.390   3.739  1.00  0.00    -0.246 OA
BRANCH  40  42
ATOM     42  C   UNL     1      -0.089  -3.171   2.407  1.00  0.00     0.060 A 
ATOM     43  C   UNL     1       0.488  -1.921   2.630  1.00  0.00     0.016 A 
ATOM     44  C   UNL     1      -1.430  -3.226   2.017  1.00  0.00     0.016 A 
ATOM     45  C   UNL     1      -0.210  -0.742   2.348  1.00  0.00     0.010 A 
ATOM     46  C   UNL     1      -2.158  -2.035   1.774  1.00  0.00     0.010 A 
ATOM     47  C   UNL     1      -1.547  -0.776   1.905  1.00  0.00    -0.014 A 
BRANCH  47  48
ATOM     48  C   UNL     1      -2.264   0.526   1.697  1.00  0.00     0.031 A 
ATOM     49  C   UNL     1      -2.450   1.408   2.894  1.00  0.00     0.074 A 
ATOM     50  C   UNL     1      -2.623   1.017   0.490  1.00  0.00     0.049 A 
ATOM     51  N   UNL     1      -2.913   2.629   2.960  1.00  0.00    -0.248 NA
ATOM     52  C   UNL     1      -2.013   0.853   4.184  1.00  0.00     0.031 C 
ATOM     53  C   UNL     1      -2.409   0.342  -0.776  1.00  0.00     0.029 A 
ATOM     54  N   UNL     1      -3.203   2.210   0.109  1.00  0.00    -0.354 N 
ATOM     55  C   UNL     1      -2.783   2.997   4.288  1.00  0.00     0.074 A 
ATOM     56  C   UNL     1      -2.166   1.890   4.986  1.00  0.00     0.031 C 
ATOM     57  C   UNL     1      -2.790   1.126  -1.796  1.00  0.00     0.029 A 
ATOM     58  C   UNL     1      -3.371   2.347  -1.255  1.00  0.00     0.049 A 
ATOM     59  H   UNL     1      -3.474   2.903   0.754  1.00  0.00     0.167 HD
ATOM     60  C   UNL     1      -3.196   4.130   4.898  1.00  0.00     0.037 A 
ATOM     61  C   UNL     1      -3.959   3.319  -1.986  1.00  0.00     0.037 A 
ATOM     62  C   UNL     1      -3.961   5.159   4.258  1.00  0.00     0.049 A 
ATOM     63  C   UNL     1      -4.585   4.480  -1.259  1.00  0.00     0.074 A 
ATOM     64  C   UNL     1      -4.593   6.245   4.831  1.00  0.00     0.029 A 
ATOM     65  N   UNL     1      -4.240   5.198   2.900  1.00  0.00    -0.354 N 
ATOM     66  N   UNL     1      -4.517   4.784   0.014  1.00  0.00    -0.248 NA
ATOM     67  C   UNL     1      -5.404   5.409  -2.054  1.00  0.00     0.031 C 
ATOM     68  C   UNL     1      -5.303   6.914   3.827  1.00  0.00     0.029 A 
ATOM     69  C   UNL     1      -5.063   6.276   2.620  1.00  0.00     0.049 A 
ATOM     70  H   UNL     1      -3.904   4.556   2.234  1.00  0.00     0.167 HD
ATOM     71  C   UNL     1      -5.278   5.934   0.173  1.00  0.00     0.074 A 
ATOM     72  C   UNL     1      -5.776   6.293  -1.138  1.00  0.00     0.031 C 
ATOM     73  C   UNL     1      -5.549   6.621   1.309  1.00  0.00     0.037 A 
BRANCH  60  74
ATOM     74  C   UNL     1      -2.945   4.186   6.369  1.00  0.00     0.057 A 
ATOM     75  C   UNL     1      -1.671   4.445   6.889  1.00  0.00     0.134 A 
ATOM     76  C   UNL     1      -3.958   3.821   7.264  1.00  0.00     0.134 A 
ATOM     77  F   UNL     1      -0.650   4.746   6.072  1.00  0.00    -0.206 F 
ATOM     78  C   UNL     1      -1.406   4.308   8.252  1.00  0.00     0.040 A 
ATOM     79  C   UNL     1      -3.708   3.697   8.629  1.00  0.00     0.040 A 
ATOM     80  F   UNL     1      -5.188   3.529   6.816  1.00  0.00    -0.206 F 
ATOM     81  C   UNL     1      -2.427   3.929   9.124  1.00  0.00     0.006 A 
ENDBRANCH  60  74
BRANCH  61  82
ATOM     82  C   UNL     1      -4.080   3.219  -3.473  1.00  0.00     0.057 A 
ATOM     83  C   UNL     1      -3.507   4.176  -4.323  1.00  0.00     0.134 A 
ATOM     84  C   UNL     1      -4.839   2.209  -4.081  1.00  0.00     0.134 A 
ATOM     85  F   UNL     1      -2.798   5.194  -3.813  1.00  0.00    -0.206 F 
ATOM     86  C   UNL     1      -3.694   4.139  -5.710  1.00  0.00     0.040 A 
ATOM     87  C   UNL     1      -5.009   2.143  -5.467  1.00  0.00     0.040 A 
ATOM     88  F   UNL     1      -5.433   1.266  -3.335  1.00  0.00    -0.206 F 
ATOM     89  C   UNL     1      -4.443   3.116  -6.285  1.00  0.00     0.006 A 
ENDBRANCH  61  82
BRANCH  73  90
ATOM     90  C   UNL     1      -6.405   7.845   1.185  1.00  0.00     0.057 A 
ATOM     91  C   UNL     1      -7.786   7.763   0.970  1.00  0.00     0.134 A 
ATOM     92  C   UNL     1      -5.845   9.118   1.342  1.00  0.00     0.134 A 
ATOM     93  F   UNL     1      -8.379   6.572   0.797  1.00  0.00    -0.206 F 
ATOM     94  C   UNL     1      -8.580   8.909   0.904  1.00  0.00     0.040 A 
ATOM     95  C   UNL     1      -6.632  10.269   1.302  1.00  0.00     0.040 A 
ATOM     96  F   UNL     1      -4.529   9.262   1.556  1.00  0.00    -0.206 F 
ATOM     97  C   UNL     1      -8.004  10.166   1.079  1.00  0.00     0.006 A 
ENDBRANCH  73  90
ENDBRANCH  47  48
ENDBRANCH  40  42
ENDBRANCH  39  40
ENDBRANCH  38  39
ENDBRANCH  37  38
ENDBRANCH  36  37
ENDBRANCH  35  36
ENDBRANCH   1  35
TORSDOF 22
