REMARK SMILES CC[C@@H](C)[C@H](NC(=O)NCc1ccc(C)cc1)C(=O)OCCOCCOCCOC(=O)c1ccc(-c2c3nc(c(-c4c(F)cccc4F)c4ccc([nH]4)c(-c4c(F)cccc4F)c4nc(c(-c5c(F)cccc5F)c5ccc2[nH]5)C=C4)C=C3)cc1
REMARK SMILES IDX 24 1 23 2 22 3 21 4 20 5 18 6 19 7 5 8 3 9 4 10 2 11 1 12
REMARK SMILES IDX 6 13 7 14 8 16 9 17 10 19 11 20 12 21 17 22 13 23 16 24
REMARK SMILES IDX 14 25 15 26 25 27 26 28 27 29 28 30 29 31 30 32 31 33 32 34
REMARK SMILES IDX 33 35 85 36 34 37 84 38 35 39 36 40 37 41 78 42 38 43 83 44
REMARK SMILES IDX 77 45 79 46 39 47 82 48 76 49 75 50 40 52 66 53 49 54 65 55
REMARK SMILES IDX 50 56 53 57 64 58 80 59 51 60 52 61 63 63 81 64 54 65 41 66
REMARK SMILES IDX 42 67 47 68 43 69 44 70 46 71 48 72 45 73 67 74 68 75 73 76
REMARK SMILES IDX 69 77 70 78 72 79 74 80 71 81 55 82 56 83 61 84 57 85 58 86
REMARK SMILES IDX 60 87 62 88 59 89
REMARK H PARENT 6 15 9 18 79 51 53 62
REMARK Flexibility Score: inf
ROOT
ATOM      1  C   UNL     1      -0.318   3.290  -6.744  1.00  0.00     0.188 C 
ENDROOT
BRANCH   1   2
ATOM      2  O   UNL     1       0.430   4.424  -7.132  1.00  0.00    -0.376 OA
BRANCH   2   3
ATOM      3  C   UNL     1       1.083   5.060  -6.043  1.00  0.00     0.202 C 
BRANCH   3   4
ATOM      4  C   UNL     1       1.488   4.262  -4.778  1.00  0.00     0.261 C 
BRANCH   4   5
ATOM      5  O   UNL     1       0.705   3.757  -3.465  1.00  0.00    -0.462 OA
BRANCH   5   6
ATOM      6  C   UNL     1      -0.456   3.534  -2.784  1.00  0.00     0.329 C 
ATOM      7  O   UNL     1      -1.515   3.614  -3.406  1.00  0.00    -0.250 OA
BRANCH   6   8
ATOM      8  C   UNL     1      -0.478   3.288  -1.059  1.00  0.00     0.196 C 
BRANCH   8   9
ATOM      9  C   UNL     1       0.139   4.175   0.189  1.00  0.00     0.019 C 
ATOM     10  C   UNL     1       1.432   3.651   0.867  1.00  0.00     0.010 C 
BRANCH   9  11
ATOM     11  C   UNL     1      -0.912   4.234   1.392  1.00  0.00     0.002 C 
ATOM     12  C   UNL     1      -0.465   4.891   2.705  1.00  0.00     0.004 C 
ENDBRANCH   9  11
ENDBRANCH   8   9
BRANCH   8  13
ATOM     13  N   UNL     1      -0.803   1.946  -0.484  1.00  0.00    -0.324 N 
ATOM     14  C   UNL     1      -0.426   0.732  -0.910  1.00  0.00     0.315 C 
ATOM     15  H   UNL     1      -1.372   1.955   0.319  1.00  0.00     0.166 HD
ATOM     16  O   UNL     1       0.531   0.152  -0.411  1.00  0.00    -0.249 OA
ATOM     17  N   UNL     1      -1.286   0.096  -1.726  1.00  0.00    -0.334 N 
ATOM     18  H   UNL     1      -0.966  -0.703  -2.203  1.00  0.00     0.165 HD
BRANCH  17  19
ATOM     19  C   UNL     1      -2.649   0.513  -1.945  1.00  0.00     0.153 C 
BRANCH  19  20
ATOM     20  C   UNL     1      -3.130   0.347  -3.353  1.00  0.00    -0.029 A 
ATOM     21  C   UNL     1      -4.373   0.909  -3.676  1.00  0.00     0.006 A 
ATOM     22  C   UNL     1      -2.397  -0.306  -4.350  1.00  0.00     0.006 A 
ATOM     23  C   UNL     1      -4.851   0.863  -4.980  1.00  0.00     0.004 A 
ATOM     24  C   UNL     1      -2.880  -0.355  -5.656  1.00  0.00     0.004 A 
ATOM     25  C   UNL     1      -4.097   0.250  -5.984  1.00  0.00    -0.051 A 
ATOM     26  C   UNL     1      -4.583   0.285  -7.399  1.00  0.00     0.044 C 
ENDBRANCH  19  20
ENDBRANCH  17  19
ENDBRANCH   8  13
ENDBRANCH   6   8
ENDBRANCH   5   6
ENDBRANCH   4   5
ENDBRANCH   3   4
ENDBRANCH   2   3
ENDBRANCH   1   2
BRANCH   1  27
ATOM     27  C   UNL     1       0.520   2.009  -6.817  1.00  0.00     0.188 C 
BRANCH  27  28
ATOM     28  O   UNL     1       1.816   2.189  -6.284  1.00  0.00    -0.376 OA
BRANCH  28  29
ATOM     29  C   UNL     1       2.946   2.007  -7.120  1.00  0.00     0.202 C 
BRANCH  29  30
ATOM     30  C   UNL     1       3.296   0.523  -7.129  1.00  0.00     0.261 C 
BRANCH  30  31
ATOM     31  O   UNL     1       3.821   0.147  -5.834  1.00  0.00    -0.460 OA
BRANCH  31  32
ATOM     32  C   UNL     1       2.894   0.068  -4.844  1.00  0.00     0.338 C 
ATOM     33  O   UNL     1       1.853  -0.570  -4.900  1.00  0.00    -0.246 OA
BRANCH  32  34
ATOM     34  C   UNL     1       3.224   1.076  -3.785  1.00  0.00     0.060 A 
ATOM     35  C   UNL     1       2.328   1.248  -2.757  1.00  0.00     0.016 A 
ATOM     36  C   UNL     1       4.232   2.036  -3.922  1.00  0.00     0.016 A 
ATOM     37  C   UNL     1       2.339   2.441  -2.017  1.00  0.00     0.010 A 
ATOM     38  C   UNL     1       4.111   3.296  -3.288  1.00  0.00     0.010 A 
ATOM     39  C   UNL     1       3.041   3.583  -2.426  1.00  0.00    -0.014 A 
BRANCH  39  40
ATOM     40  C   UNL     1       2.713   5.068  -2.059  1.00  0.00     0.031 A 
ATOM     41  C   UNL     1       3.487   5.520  -0.887  1.00  0.00     0.074 A 
ATOM     42  C   UNL     1       1.815   6.063  -2.489  1.00  0.00     0.049 A 
ATOM     43  N   UNL     1       3.054   6.386  -0.032  1.00  0.00    -0.248 NA
ATOM     44  C   UNL     1       4.734   4.866  -0.504  1.00  0.00     0.031 C 
ATOM     45  C   UNL     1       2.144   7.504  -2.460  1.00  0.00     0.029 A 
ATOM     46  N   UNL     1       0.591   6.146  -3.197  1.00  0.00    -0.354 N 
ATOM     47  C   UNL     1       4.106   6.629   0.801  1.00  0.00     0.074 A 
ATOM     48  C   UNL     1       5.012   5.517   0.622  1.00  0.00     0.031 C 
ATOM     49  C   UNL     1       1.143   8.246  -2.973  1.00  0.00     0.029 A 
ATOM     50  C   UNL     1       0.017   7.391  -3.288  1.00  0.00     0.049 A 
ATOM     51  H   UNL     1       0.173   5.352  -3.604  1.00  0.00     0.167 HD
ATOM     52  C   UNL     1       4.284   7.857   1.354  1.00  0.00     0.037 A 
ATOM     53  C   UNL     1      -1.314   7.708  -3.299  1.00  0.00     0.037 A 
ATOM     54  C   UNL     1       3.316   8.830   0.854  1.00  0.00     0.049 A 
ATOM     55  C   UNL     1      -1.546   8.616  -2.127  1.00  0.00     0.074 A 
ATOM     56  C   UNL     1       3.402   9.751  -0.181  1.00  0.00     0.029 A 
ATOM     57  N   UNL     1       1.963   8.743   1.177  1.00  0.00    -0.354 N 
ATOM     58  N   UNL     1      -0.676   8.671  -1.161  1.00  0.00    -0.248 NA
ATOM     59  C   UNL     1      -2.692   9.487  -1.896  1.00  0.00     0.031 C 
ATOM     60  C   UNL     1       2.112  10.266  -0.435  1.00  0.00     0.029 A 
ATOM     61  C   UNL     1       1.231   9.667   0.448  1.00  0.00     0.049 A 
ATOM     62  H   UNL     1       1.581   8.115   1.831  1.00  0.00     0.167 HD
ATOM     63  C   UNL     1      -1.032   9.632  -0.276  1.00  0.00     0.074 A 
ATOM     64  C   UNL     1      -2.335  10.077  -0.738  1.00  0.00     0.031 C 
ATOM     65  C   UNL     1      -0.173   9.961   0.728  1.00  0.00     0.037 A 
BRANCH  52  66
ATOM     66  C   UNL     1       5.637   8.168   1.935  1.00  0.00     0.057 A 
ATOM     67  C   UNL     1       6.325   9.351   1.636  1.00  0.00     0.134 A 
ATOM     68  C   UNL     1       6.352   7.240   2.716  1.00  0.00     0.134 A 
ATOM     69  F   UNL     1       5.738  10.369   0.997  1.00  0.00    -0.206 F 
ATOM     70  C   UNL     1       7.672   9.535   1.965  1.00  0.00     0.040 A 
ATOM     71  C   UNL     1       7.717   7.377   2.987  1.00  0.00     0.040 A 
ATOM     72  F   UNL     1       5.751   6.141   3.201  1.00  0.00    -0.206 F 
ATOM     73  C   UNL     1       8.386   8.527   2.597  1.00  0.00     0.006 A 
ENDBRANCH  52  66
BRANCH  53  74
ATOM     74  C   UNL     1      -2.344   6.788  -3.864  1.00  0.00     0.057 A 
ATOM     75  C   UNL     1      -2.349   6.535  -5.249  1.00  0.00     0.134 A 
ATOM     76  C   UNL     1      -3.222   6.014  -3.097  1.00  0.00     0.134 A 
ATOM     77  F   UNL     1      -1.629   7.311  -6.074  1.00  0.00    -0.206 F 
ATOM     78  C   UNL     1      -3.048   5.463  -5.818  1.00  0.00     0.040 A 
ATOM     79  C   UNL     1      -3.943   4.942  -3.655  1.00  0.00     0.040 A 
ATOM     80  F   UNL     1      -3.324   6.210  -1.774  1.00  0.00    -0.206 F 
ATOM     81  C   UNL     1      -3.807   4.629  -5.008  1.00  0.00     0.006 A 
ENDBRANCH  53  74
BRANCH  65  82
ATOM     82  C   UNL     1      -0.510  10.747   1.956  1.00  0.00     0.057 A 
ATOM     83  C   UNL     1      -1.805  10.887   2.466  1.00  0.00     0.134 A 
ATOM     84  C   UNL     1       0.521  11.271   2.770  1.00  0.00     0.134 A 
ATOM     85  F   UNL     1      -2.867  10.339   1.862  1.00  0.00    -0.206 F 
ATOM     86  C   UNL     1      -2.063  11.551   3.669  1.00  0.00     0.040 A 
ATOM     87  C   UNL     1       0.281  11.876   4.000  1.00  0.00     0.040 A 
ATOM     88  F   UNL     1       1.815  11.193   2.430  1.00  0.00    -0.206 F 
ATOM     89  C   UNL     1      -1.018  12.034   4.447  1.00  0.00     0.006 A 
ENDBRANCH  65  82
ENDBRANCH  39  40
ENDBRANCH  32  34
ENDBRANCH  31  32
ENDBRANCH  30  31
ENDBRANCH  29  30
ENDBRANCH  28  29
ENDBRANCH  27  28
ENDBRANCH   1  27
TORSDOF 22
