REMARK SMILES O=C(OCCOCCOCCOC(=O)[C@@H]1CCCN(C(=O)Nc2ccccc2)C1)c1ccc(-c2c3nc(c(-c4c(F)cccc4F)c4ccc([nH]4)c(-c4c(F)cccc4F)c4nc(c(-c5c(F)cccc5F)c5ccc2[nH]5)C=C4)C=C3)cc1
REMARK SMILES IDX 7 1 6 2 5 3 4 4 3 5 2 6 1 7 30 8 31 9 83 10 32 11 82 12
REMARK SMILES IDX 33 13 34 14 35 15 76 16 36 17 81 18 75 19 77 20 37 21 80 22
REMARK SMILES IDX 74 23 73 24 38 26 64 27 47 28 63 29 48 30 51 31 62 32 78 33
REMARK SMILES IDX 49 34 50 35 61 37 79 38 52 39 39 40 40 41 45 42 41 43 42 44
REMARK SMILES IDX 44 45 46 46 43 47 65 48 66 49 71 50 67 51 68 52 70 53 72 54
REMARK SMILES IDX 69 55 53 56 54 57 59 58 55 59 56 60 58 61 60 62 57 63 8 64
REMARK SMILES IDX 9 65 10 66 11 67 12 68 13 69 14 70 15 71 16 72 29 73 17 74
REMARK SMILES IDX 19 75 18 76 20 77 21 78 22 79 23 81 24 82 28 83 25 84 27 85
REMARK SMILES IDX 26 86
REMARK H PARENT 77 25 51 36 22 80
REMARK Flexibility Score: inf
ROOT
ATOM      1  C   UNL     1       2.594   0.525  -1.559  1.00  0.00     0.188 C 
ENDROOT
BRANCH   1   2
ATOM      2  O   UNL     1       3.964   0.755  -1.228  1.00  0.00    -0.376 OA
BRANCH   2   3
ATOM      3  C   UNL     1       4.795  -0.408  -1.334  1.00  0.00     0.202 C 
BRANCH   3   4
ATOM      4  C   UNL     1       4.569  -1.527  -0.299  1.00  0.00     0.261 C 
BRANCH   4   5
ATOM      5  O   UNL     1       3.219  -1.637   0.182  1.00  0.00    -0.460 OA
BRANCH   5   6
ATOM      6  C   UNL     1       2.605  -0.984   1.197  1.00  0.00     0.338 C 
ATOM      7  O   UNL     1       1.429  -1.262   1.434  1.00  0.00    -0.246 OA
BRANCH   6   8
ATOM      8  C   UNL     1       3.255   0.063   2.049  1.00  0.00     0.060 A 
ATOM      9  C   UNL     1       4.486   0.662   1.794  1.00  0.00     0.016 A 
ATOM     10  C   UNL     1       2.548   0.489   3.192  1.00  0.00     0.016 A 
ATOM     11  C   UNL     1       5.052   1.563   2.681  1.00  0.00     0.010 A 
ATOM     12  C   UNL     1       3.098   1.416   4.086  1.00  0.00     0.010 A 
ATOM     13  C   UNL     1       4.382   1.910   3.850  1.00  0.00    -0.014 A 
BRANCH  13  14
ATOM     14  C   UNL     1       5.182   2.606   4.872  1.00  0.00     0.031 A 
ATOM     15  C   UNL     1       5.837   1.766   5.921  1.00  0.00     0.074 A 
ATOM     16  C   UNL     1       5.486   3.904   4.710  1.00  0.00     0.049 A 
ATOM     17  N   UNL     1       6.703   2.111   6.833  1.00  0.00    -0.248 NA
ATOM     18  C   UNL     1       5.482   0.336   5.932  1.00  0.00     0.031 C 
ATOM     19  C   UNL     1       4.958   4.744   3.642  1.00  0.00     0.029 A 
ATOM     20  N   UNL     1       6.346   4.725   5.387  1.00  0.00    -0.354 N 
ATOM     21  C   UNL     1       6.970   0.951   7.546  1.00  0.00     0.074 A 
ATOM     22  C   UNL     1       6.183  -0.109   6.961  1.00  0.00     0.031 C 
ATOM     23  C   UNL     1       5.548   5.948   3.693  1.00  0.00     0.029 A 
ATOM     24  C   UNL     1       6.466   5.974   4.824  1.00  0.00     0.049 A 
ATOM     25  H   UNL     1       6.831   4.448   6.198  1.00  0.00     0.167 HD
ATOM     26  C   UNL     1       7.788   0.802   8.611  1.00  0.00     0.037 A 
ATOM     27  C   UNL     1       7.239   7.011   5.195  1.00  0.00     0.037 A 
ATOM     28  C   UNL     1       8.544   1.886   9.174  1.00  0.00     0.049 A 
ATOM     29  C   UNL     1       8.101   6.827   6.415  1.00  0.00     0.074 A 
ATOM     30  C   UNL     1       9.344   1.893  10.300  1.00  0.00     0.029 A 
ATOM     31  N   UNL     1       8.581   3.171   8.643  1.00  0.00    -0.354 N 
ATOM     32  N   UNL     1       8.304   5.744   7.129  1.00  0.00    -0.248 NA
ATOM     33  C   UNL     1       8.819   8.011   6.901  1.00  0.00     0.031 C 
ATOM     34  C   UNL     1       9.819   3.196  10.482  1.00  0.00     0.029 A 
ATOM     35  C   UNL     1       9.373   3.985   9.432  1.00  0.00     0.049 A 
ATOM     36  H   UNL     1       8.113   3.458   7.826  1.00  0.00     0.167 HD
ATOM     37  C   UNL     1       9.176   6.112   8.142  1.00  0.00     0.074 A 
ATOM     38  C   UNL     1       9.494   7.510   7.925  1.00  0.00     0.031 C 
ATOM     39  C   UNL     1       9.662   5.374   9.171  1.00  0.00     0.037 A 
BRANCH  26  40
ATOM     40  C   UNL     1       7.789  -0.542   9.274  1.00  0.00     0.057 A 
ATOM     41  C   UNL     1       8.354  -1.678   8.680  1.00  0.00     0.134 A 
ATOM     42  C   UNL     1       7.138  -0.713  10.502  1.00  0.00     0.134 A 
ATOM     43  F   UNL     1       8.959  -1.593   7.485  1.00  0.00    -0.206 F 
ATOM     44  C   UNL     1       8.240  -2.941   9.267  1.00  0.00     0.040 A 
ATOM     45  C   UNL     1       7.041  -1.964  11.112  1.00  0.00     0.040 A 
ATOM     46  F   UNL     1       6.563   0.330  11.119  1.00  0.00    -0.206 F 
ATOM     47  C   UNL     1       7.583  -3.085  10.488  1.00  0.00     0.006 A 
ENDBRANCH  26  40
BRANCH  27  48
ATOM     48  C   UNL     1       7.218   8.305   4.459  1.00  0.00     0.057 A 
ATOM     49  C   UNL     1       8.375   8.825   3.863  1.00  0.00     0.134 A 
ATOM     50  C   UNL     1       6.058   9.088   4.384  1.00  0.00     0.134 A 
ATOM     51  F   UNL     1       9.523   8.133   3.900  1.00  0.00    -0.206 F 
ATOM     52  C   UNL     1       8.389  10.086   3.261  1.00  0.00     0.040 A 
ATOM     53  C   UNL     1       6.049  10.334   3.754  1.00  0.00     0.040 A 
ATOM     54  F   UNL     1       4.908   8.653   4.920  1.00  0.00    -0.206 F 
ATOM     55  C   UNL     1       7.223  10.846   3.210  1.00  0.00     0.006 A 
ENDBRANCH  27  48
BRANCH  39  56
ATOM     56  C   UNL     1      10.605   6.068  10.107  1.00  0.00     0.057 A 
ATOM     57  C   UNL     1      10.171   7.053  11.002  1.00  0.00     0.134 A 
ATOM     58  C   UNL     1      11.961   5.719  10.129  1.00  0.00     0.134 A 
ATOM     59  F   UNL     1       8.886   7.440  11.018  1.00  0.00    -0.206 F 
ATOM     60  C   UNL     1      11.060   7.690  11.867  1.00  0.00     0.040 A 
ATOM     61  C   UNL     1      12.852   6.325  11.012  1.00  0.00     0.040 A 
ATOM     62  F   UNL     1      12.436   4.775   9.302  1.00  0.00    -0.206 F 
ATOM     63  C   UNL     1      12.404   7.320  11.878  1.00  0.00     0.006 A 
ENDBRANCH  39  56
ENDBRANCH  13  14
ENDBRANCH   6   8
ENDBRANCH   5   6
ENDBRANCH   4   5
ENDBRANCH   3   4
ENDBRANCH   2   3
ENDBRANCH   1   2
BRANCH   1  64
ATOM     64  C   UNL     1       2.007   1.406  -2.663  1.00  0.00     0.188 C 
BRANCH  64  65
ATOM     65  O   UNL     1       2.629   1.417  -3.940  1.00  0.00    -0.376 OA
BRANCH  65  66
ATOM     66  C   UNL     1       4.021   1.692  -4.022  1.00  0.00     0.202 C 
BRANCH  66  67
ATOM     67  C   UNL     1       4.550   3.056  -3.561  1.00  0.00     0.261 C 
BRANCH  67  68
ATOM     68  O   UNL     1       4.053   3.482  -2.290  1.00  0.00    -0.463 OA
BRANCH  68  69
ATOM     69  C   UNL     1       3.070   4.419  -2.335  1.00  0.00     0.310 C 
ATOM     70  O   UNL     1       2.581   4.861  -3.365  1.00  0.00    -0.252 OA
BRANCH  69  71
ATOM     71  C   UNL     1       2.556   4.788  -0.948  1.00  0.00     0.119 C 
ATOM     72  C   UNL     1       2.030   6.223  -0.960  1.00  0.00     0.019 C 
ATOM     73  C   UNL     1       3.611   4.675   0.146  1.00  0.00     0.136 C 
ATOM     74  C   UNL     1       3.170   7.175  -1.270  1.00  0.00     0.023 C 
ATOM     75  N   UNL     1       4.754   5.564  -0.078  1.00  0.00    -0.324 N 
ATOM     76  C   UNL     1       4.404   6.953  -0.398  1.00  0.00     0.121 C 
BRANCH  75  77
ATOM     77  C   UNL     1       6.008   5.016   0.127  1.00  0.00     0.321 C 
ATOM     78  O   UNL     1       6.152   3.828   0.442  1.00  0.00    -0.248 OA
ATOM     79  N   UNL     1       7.165   5.679  -0.127  1.00  0.00    -0.308 N 
ATOM     80  H   UNL     1       7.956   5.092  -0.125  1.00  0.00     0.171 HD
BRANCH  79  81
ATOM     81  C   UNL     1       7.471   7.011  -0.390  1.00  0.00     0.042 A 
ATOM     82  C   UNL     1       8.198   7.290  -1.547  1.00  0.00     0.026 A 
ATOM     83  C   UNL     1       7.017   8.053   0.416  1.00  0.00     0.026 A 
ATOM     84  C   UNL     1       8.319   8.609  -1.984  1.00  0.00     0.002 A 
ATOM     85  C   UNL     1       7.128   9.369  -0.029  1.00  0.00     0.002 A 
ATOM     86  C   UNL     1       7.758   9.645  -1.240  1.00  0.00     0.000 A 
ENDBRANCH  79  81
ENDBRANCH  75  77
ENDBRANCH  69  71
ENDBRANCH  68  69
ENDBRANCH  67  68
ENDBRANCH  66  67
ENDBRANCH  65  66
ENDBRANCH  64  65
ENDBRANCH   1  64
TORSDOF 19
