REMARK SMILES C[NH2+][C@@]1(C(=O)OCCOCCOCCOC(=O)c2ccc(-c3c4nc(c(-c5c(F)cccc5F)c5ccc([nH]5)c(-c5c(F)cccc5F)c5nc(c(-c6c(F)cccc6F)c6ccc3[nH]6)C=C5)C=C4)cc2)CCC[C@H]1CCSc1nccc(=O)[nH]1
REMARK SMILES IDX 10 1 9 2 8 3 7 4 6 5 4 6 5 7 3 8 72 9 75 10 73 11 74 12 2 13
REMARK SMILES IDX 1 14 76 17 77 18 78 19 79 20 80 21 85 22 81 23 83 24 82 26
REMARK SMILES IDX 84 27 11 28 12 29 13 30 14 31 15 32 16 33 17 34 18 35 19 36
REMARK SMILES IDX 71 37 20 38 70 39 21 40 22 41 23 42 64 43 24 44 69 45 63 46
REMARK SMILES IDX 65 47 25 48 68 49 62 50 61 51 26 53 52 54 35 55 51 56 36 57
REMARK SMILES IDX 39 58 50 59 66 60 37 61 38 62 49 64 67 65 40 66 27 67 28 68
REMARK SMILES IDX 33 69 29 70 30 71 32 72 34 73 31 74 53 75 54 76 59 77 55 78
REMARK SMILES IDX 56 79 58 80 60 81 57 82 41 83 42 84 47 85 43 86 44 87 46 88
REMARK SMILES IDX 48 89 45 90
REMARK H PARENT 2 15 2 16 85 25 65 52 39 63
REMARK Flexibility Score: inf
ROOT
ATOM      1  C   UNL     1      -1.058  -0.985   1.487  1.00  0.00     0.188 C 
ENDROOT
BRANCH   1   2
ATOM      2  O   UNL     1      -0.958   0.541   2.122  1.00  0.00    -0.376 OA
BRANCH   2   3
ATOM      3  C   UNL     1      -1.877   1.308   2.945  1.00  0.00     0.202 C 
BRANCH   3   4
ATOM      4  C   UNL     1      -2.497   2.507   2.156  1.00  0.00     0.261 C 
BRANCH   4   5
ATOM      5  O   UNL     1      -2.485   2.296   0.714  1.00  0.00    -0.459 OA
BRANCH   5   6
ATOM      6  C   UNL     1      -1.277   2.555   0.162  1.00  0.00     0.368 C 
ATOM      7  O   UNL     1      -0.437   3.216   0.788  1.00  0.00    -0.245 OA
BRANCH   6   8
ATOM      8  C   UNL     1      -1.017   2.159  -1.375  1.00  0.00     0.197 C 
ATOM      9  C   UNL     1      -1.655   3.362  -2.121  1.00  0.00     0.081 C 
ATOM     10  C   UNL     1      -1.667   1.052  -2.304  1.00  0.00     0.063 C 
ATOM     11  C   UNL     1      -3.115   2.968  -2.360  1.00  0.00     0.008 C 
ATOM     12  C   UNL     1      -3.084   1.495  -2.661  1.00  0.00     0.011 C 
BRANCH   8  13
ATOM     13  N   UNL     1       0.488   2.232  -1.526  1.00  0.00    -0.334 N 
ATOM     14  C   UNL     1       1.271   1.416  -0.575  1.00  0.00     0.331 C 
ATOM     15  H   UNL     1       0.724   1.925  -2.470  1.00  0.00     0.347 HD
ATOM     16  H   UNL     1       0.740   3.202  -1.332  1.00  0.00     0.347 HD
ENDBRANCH   8  13
BRANCH  10  17
ATOM     17  C   UNL     1      -0.844   0.485  -3.472  1.00  0.00     0.022 C 
BRANCH  17  18
ATOM     18  C   UNL     1       0.267  -0.474  -3.034  1.00  0.00     0.079 C 
BRANCH  18  19
ATOM     19  S   UNL     1      -0.245  -1.919  -2.071  1.00  0.00    -0.088 SA
BRANCH  19  20
ATOM     20  C   UNL     1      -1.107  -1.500  -0.604  1.00  0.00     0.168 A 
ATOM     21  N   UNL     1      -2.054  -0.428  -0.198  1.00  0.00    -0.233 NA
ATOM     22  N   UNL     1      -0.734  -2.705   0.409  1.00  0.00    -0.301 N 
ATOM     23  C   UNL     1      -2.975  -0.352   1.303  1.00  0.00     0.120 A 
ATOM     24  C   UNL     1      -1.492  -2.975   1.894  1.00  0.00     0.251 A 
ATOM     25  H   UNL     1      -0.016  -3.324   0.141  1.00  0.00     0.172 HD
ATOM     26  C   UNL     1      -2.651  -1.411   2.451  1.00  0.00     0.091 A 
ATOM     27  O   UNL     1      -1.635  -4.192   2.077  1.00  0.00    -0.269 OA
ENDBRANCH  19  20
ENDBRANCH  18  19
ENDBRANCH  17  18
ENDBRANCH  10  17
ENDBRANCH   6   8
ENDBRANCH   5   6
ENDBRANCH   4   5
ENDBRANCH   3   4
ENDBRANCH   2   3
ENDBRANCH   1   2
BRANCH   1  28
ATOM     28  C   UNL     1      -2.709  -2.182   0.641  1.00  0.00     0.188 C 
BRANCH  28  29
ATOM     29  O   UNL     1      -3.807  -3.099   1.562  1.00  0.00    -0.376 OA
BRANCH  29  30
ATOM     30  C   UNL     1      -3.873  -3.340   3.054  1.00  0.00     0.202 C 
BRANCH  30  31
ATOM     31  C   UNL     1      -2.583  -3.644   4.222  1.00  0.00     0.261 C 
BRANCH  31  32
ATOM     32  O   UNL     1      -1.109  -3.058   4.143  1.00  0.00    -0.460 OA
BRANCH  32  33
ATOM     33  C   UNL     1       0.008  -3.909   3.956  1.00  0.00     0.338 C 
ATOM     34  O   UNL     1      -0.075  -5.120   4.154  1.00  0.00    -0.246 OA
BRANCH  33  35
ATOM     35  C   UNL     1       1.392  -3.393   3.374  1.00  0.00     0.060 A 
ATOM     36  C   UNL     1       1.654  -2.623   2.223  1.00  0.00     0.016 A 
ATOM     37  C   UNL     1       2.555  -3.981   3.871  1.00  0.00     0.016 A 
ATOM     38  C   UNL     1       2.907  -2.406   1.602  1.00  0.00     0.010 A 
ATOM     39  C   UNL     1       3.844  -3.751   3.296  1.00  0.00     0.010 A 
ATOM     40  C   UNL     1       4.039  -2.950   2.158  1.00  0.00    -0.014 A 
BRANCH  40  41
ATOM     41  C   UNL     1       5.379  -2.748   1.536  1.00  0.00     0.031 A 
ATOM     42  C   UNL     1       6.119  -3.938   1.003  1.00  0.00     0.074 A 
ATOM     43  C   UNL     1       5.954  -1.528   1.473  1.00  0.00     0.049 A 
ATOM     44  N   UNL     1       7.396  -4.093   0.776  1.00  0.00    -0.248 NA
ATOM     45  C   UNL     1       5.299  -5.121   0.699  1.00  0.00     0.031 C 
ATOM     46  C   UNL     1       5.300  -0.257   1.791  1.00  0.00     0.029 A 
ATOM     47  N   UNL     1       7.245  -1.162   1.163  1.00  0.00    -0.354 N 
ATOM     48  C   UNL     1       7.547  -5.416   0.378  1.00  0.00     0.074 A 
ATOM     49  C   UNL     1       6.228  -6.012   0.381  1.00  0.00     0.031 C 
ATOM     50  C   UNL     1       6.202   0.736   1.717  1.00  0.00     0.029 A 
ATOM     51  C   UNL     1       7.512   0.164   1.429  1.00  0.00     0.049 A 
ATOM     52  H   UNL     1       7.911  -1.785   0.790  1.00  0.00     0.167 HD
ATOM     53  C   UNL     1       8.693  -6.069   0.067  1.00  0.00     0.037 A 
ATOM     54  C   UNL     1       8.685   0.823   1.512  1.00  0.00     0.037 A 
ATOM     55  C   UNL     1       9.989  -5.440   0.068  1.00  0.00     0.049 A 
ATOM     56  C   UNL     1       9.961   0.055   1.285  1.00  0.00     0.074 A 
ATOM     57  C   UNL     1      11.222  -6.001  -0.213  1.00  0.00     0.029 A 
ATOM     58  N   UNL     1      10.217  -4.104   0.371  1.00  0.00    -0.354 N 
ATOM     59  N   UNL     1      10.121  -1.212   0.984  1.00  0.00    -0.248 NA
ATOM     60  C   UNL     1      11.220   0.801   1.419  1.00  0.00     0.031 C 
ATOM     61  C   UNL     1      12.201  -5.024  -0.007  1.00  0.00     0.029 A 
ATOM     62  C   UNL     1      11.573  -3.830   0.315  1.00  0.00     0.049 A 
ATOM     63  H   UNL     1       9.517  -3.449   0.594  1.00  0.00     0.167 HD
ATOM     64  C   UNL     1      11.491  -1.405   0.851  1.00  0.00     0.074 A 
ATOM     65  C   UNL     1      12.115  -0.120   1.095  1.00  0.00     0.031 C 
ATOM     66  C   UNL     1      12.172  -2.539   0.550  1.00  0.00     0.037 A 
BRANCH  53  67
ATOM     67  C   UNL     1       8.600  -7.541  -0.219  1.00  0.00     0.057 A 
ATOM     68  C   UNL     1       7.958  -8.052  -1.354  1.00  0.00     0.134 A 
ATOM     69  C   UNL     1       9.171  -8.469   0.665  1.00  0.00     0.134 A 
ATOM     70  F   UNL     1       7.378  -7.224  -2.237  1.00  0.00    -0.206 F 
ATOM     71  C   UNL     1       7.854  -9.426  -1.580  1.00  0.00     0.040 A 
ATOM     72  C   UNL     1       9.105  -9.843   0.432  1.00  0.00     0.040 A 
ATOM     73  F   UNL     1       9.807  -8.054   1.771  1.00  0.00    -0.206 F 
ATOM     74  C   UNL     1       8.434 -10.326  -0.688  1.00  0.00     0.006 A 
ENDBRANCH  53  67
BRANCH  54  75
ATOM     75  C   UNL     1       8.722   2.266   1.883  1.00  0.00     0.057 A 
ATOM     76  C   UNL     1       9.194   3.232   0.986  1.00  0.00     0.134 A 
ATOM     77  C   UNL     1       8.318   2.715   3.148  1.00  0.00     0.134 A 
ATOM     78  F   UNL     1       9.621   2.869  -0.232  1.00  0.00    -0.206 F 
ATOM     79  C   UNL     1       9.281   4.582   1.336  1.00  0.00     0.040 A 
ATOM     80  C   UNL     1       8.366   4.066   3.500  1.00  0.00     0.040 A 
ATOM     81  F   UNL     1       7.857   1.848   4.062  1.00  0.00    -0.206 F 
ATOM     82  C   UNL     1       8.859   5.003   2.595  1.00  0.00     0.006 A 
ENDBRANCH  54  75
BRANCH  66  83
ATOM     83  C   UNL     1      13.663  -2.427   0.401  1.00  0.00     0.057 A 
ATOM     84  C   UNL     1      14.510  -2.182   1.489  1.00  0.00     0.134 A 
ATOM     85  C   UNL     1      14.261  -2.611  -0.853  1.00  0.00     0.134 A 
ATOM     86  F   UNL     1      14.003  -1.985   2.716  1.00  0.00    -0.206 F 
ATOM     87  C   UNL     1      15.894  -2.092   1.329  1.00  0.00     0.040 A 
ATOM     88  C   UNL     1      15.645  -2.564  -1.018  1.00  0.00     0.040 A 
ATOM     89  F   UNL     1      13.510  -2.862  -1.937  1.00  0.00    -0.206 F 
ATOM     90  C   UNL     1      16.465  -2.293   0.074  1.00  0.00     0.006 A 
ENDBRANCH  66  83
ENDBRANCH  40  41
ENDBRANCH  33  35
ENDBRANCH  32  33
ENDBRANCH  31  32
ENDBRANCH  30  31
ENDBRANCH  29  30
ENDBRANCH  28  29
ENDBRANCH   1  28
TORSDOF 22
