REMARK SMILES Cc1ccc(CNC(=O)NC[C@@H](CC(C)C)C(=O)OCCOCCOCCOC(=O)c2ccc(-c3c4nc(c(-c5c(F)cccc5F)c5ccc([nH]5)c(-c5c(F)cccc5F)c5nc(c(-c6c(F)cccc6F)c6ccc3[nH]6)C=C5)C=C4)cc2)s1
REMARK SMILES IDX 23 1 22 2 21 3 20 4 19 5 17 6 18 7 12 8 11 9 10 10 7 11 8 12
REMARK SMILES IDX 9 14 6 16 5 17 1 18 2 19 3 20 85 21 4 22 13 23 14 24 15 25
REMARK SMILES IDX 16 26 24 27 25 28 26 29 27 30 28 31 29 32 30 33 31 34 32 35
REMARK SMILES IDX 84 36 33 37 83 38 34 39 35 40 36 41 77 42 37 43 82 44 76 45
REMARK SMILES IDX 78 46 38 47 81 48 75 49 74 50 39 52 65 53 48 54 64 55 49 56
REMARK SMILES IDX 52 57 63 58 79 59 50 60 51 61 62 63 80 64 53 65 40 66 41 67
REMARK SMILES IDX 46 68 42 69 43 70 45 71 47 72 44 73 66 74 67 75 72 76 68 77
REMARK SMILES IDX 69 78 71 79 73 80 70 81 54 82 55 83 60 84 56 85 57 86 59 87
REMARK SMILES IDX 61 88 58 89
REMARK H PARENT 7 13 10 15 78 51 52 62
REMARK Flexibility Score: inf
ROOT
ATOM      1  C   UNL     1      -5.171  -0.423  -4.133  1.00  0.00     0.188 C 
ENDROOT
BRANCH   1   2
ATOM      2  O   UNL     1      -5.275  -0.418  -5.547  1.00  0.00    -0.376 OA
BRANCH   2   3
ATOM      3  C   UNL     1      -4.392   0.453  -6.248  1.00  0.00     0.202 C 
BRANCH   3   4
ATOM      4  C   UNL     1      -4.472   1.949  -5.915  1.00  0.00     0.261 C 
BRANCH   4   5
ATOM      5  O   UNL     1      -4.205   2.314  -4.537  1.00  0.00    -0.463 OA
BRANCH   5   6
ATOM      6  C   UNL     1      -5.259   2.871  -3.883  1.00  0.00     0.310 C 
ATOM      7  O   UNL     1      -6.408   2.883  -4.319  1.00  0.00    -0.252 OA
BRANCH   6   8
ATOM      8  C   UNL     1      -4.920   3.580  -2.582  1.00  0.00     0.119 C 
BRANCH   8   9
ATOM      9  C   UNL     1      -3.699   3.112  -1.772  1.00  0.00     0.133 C 
BRANCH   9  10
ATOM     10  N   UNL     1      -3.725   3.716  -0.426  1.00  0.00    -0.337 N 
ATOM     11  N   UNL     1      -2.580   2.417   1.198  1.00  0.00    -0.333 N 
ATOM     12  C   UNL     1      -3.227   3.504   0.793  1.00  0.00     0.315 C 
ATOM     13  H   UNL     1      -2.097   2.543   2.046  1.00  0.00     0.165 HD
ATOM     14  O   UNL     1      -3.390   4.406   1.620  1.00  0.00    -0.249 OA
ATOM     15  H   UNL     1      -4.283   4.527  -0.428  1.00  0.00     0.165 HD
BRANCH  11  16
ATOM     16  C   UNL     1      -2.440   1.101   0.655  1.00  0.00     0.164 C 
BRANCH  16  17
ATOM     17  C   UNL     1      -1.080   0.541   0.915  1.00  0.00     0.024 A 
ATOM     18  C   UNL     1       2.718  -0.070   0.184  1.00  0.00     0.056 C 
ATOM     19  C   UNL     1       1.304  -0.037   0.647  1.00  0.00     0.002 A 
ATOM     20  C   UNL     1       0.625  -0.973   1.397  1.00  0.00     0.015 A 
ATOM     21  S   UNL     1       0.300   1.279   0.220  1.00  0.00    -0.144 S 
ATOM     22  C   UNL     1      -0.747  -0.625   1.578  1.00  0.00     0.017 A 
ENDBRANCH  16  17
ENDBRANCH  11  16
ENDBRANCH   9  10
ENDBRANCH   8   9
BRANCH   8  23
ATOM     23  C   UNL     1      -5.038   5.100  -2.826  1.00  0.00     0.020 C 
BRANCH  23  24
ATOM     24  C   UNL     1      -3.859   5.848  -3.482  1.00  0.00    -0.017 C 
ATOM     25  C   UNL     1      -3.350   5.231  -4.782  1.00  0.00     0.007 C 
ATOM     26  C   UNL     1      -4.303   7.289  -3.764  1.00  0.00     0.007 C 
ENDBRANCH  23  24
ENDBRANCH   8  23
ENDBRANCH   6   8
ENDBRANCH   5   6
ENDBRANCH   4   5
ENDBRANCH   3   4
ENDBRANCH   2   3
ENDBRANCH   1   2
BRANCH   1  27
ATOM     27  C   UNL     1      -3.824  -0.836  -3.541  1.00  0.00     0.188 C 
BRANCH  27  28
ATOM     28  O   UNL     1      -2.663  -0.345  -4.198  1.00  0.00    -0.376 OA
BRANCH  28  29
ATOM     29  C   UNL     1      -1.419  -0.772  -3.626  1.00  0.00     0.202 C 
BRANCH  29  30
ATOM     30  C   UNL     1      -1.178  -2.300  -3.652  1.00  0.00     0.261 C 
BRANCH  30  31
ATOM     31  O   UNL     1      -2.111  -3.063  -2.853  1.00  0.00    -0.460 OA
BRANCH  31  32
ATOM     32  C   UNL     1      -2.127  -2.740  -1.539  1.00  0.00     0.338 C 
ATOM     33  O   UNL     1      -1.291  -2.090  -0.958  1.00  0.00    -0.246 OA
BRANCH  32  34
ATOM     34  C   UNL     1      -3.455  -3.047  -0.955  1.00  0.00     0.060 A 
ATOM     35  C   UNL     1      -4.118  -2.009  -0.289  1.00  0.00     0.016 A 
ATOM     36  C   UNL     1      -4.037  -4.308  -1.026  1.00  0.00     0.016 A 
ATOM     37  C   UNL     1      -5.323  -2.228   0.370  1.00  0.00     0.010 A 
ATOM     38  C   UNL     1      -5.247  -4.537  -0.358  1.00  0.00     0.010 A 
ATOM     39  C   UNL     1      -5.875  -3.510   0.376  1.00  0.00    -0.014 A 
BRANCH  39  40
ATOM     40  C   UNL     1      -6.985  -3.818   1.310  1.00  0.00     0.031 A 
ATOM     41  C   UNL     1      -6.662  -4.545   2.586  1.00  0.00     0.074 A 
ATOM     42  C   UNL     1      -8.245  -3.408   1.078  1.00  0.00     0.049 A 
ATOM     43  N   UNL     1      -7.465  -5.031   3.496  1.00  0.00    -0.248 NA
ATOM     44  C   UNL     1      -5.232  -4.745   2.874  1.00  0.00     0.031 C 
ATOM     45  C   UNL     1      -8.679  -2.597  -0.057  1.00  0.00     0.029 A 
ATOM     46  N   UNL     1      -9.393  -3.623   1.799  1.00  0.00    -0.354 N 
ATOM     47  C   UNL     1      -6.642  -5.620   4.448  1.00  0.00     0.074 A 
ATOM     48  C   UNL     1      -5.278  -5.439   4.001  1.00  0.00     0.031 C 
ATOM     49  C   UNL     1     -10.004  -2.389   0.040  1.00  0.00     0.029 A 
ATOM     50  C   UNL     1     -10.517  -3.094   1.213  1.00  0.00     0.049 A 
ATOM     51  H   UNL     1      -9.409  -4.109   2.655  1.00  0.00     0.167 HD
ATOM     52  C   UNL     1      -6.990  -6.256   5.591  1.00  0.00     0.037 A 
ATOM     53  C   UNL     1     -11.813  -3.200   1.566  1.00  0.00     0.037 A 
ATOM     54  C   UNL     1      -8.344  -6.425   6.044  1.00  0.00     0.049 A 
ATOM     55  C   UNL     1     -12.187  -3.999   2.787  1.00  0.00     0.074 A 
ATOM     56  C   UNL     1      -8.802  -7.079   7.175  1.00  0.00     0.029 A 
ATOM     57  N   UNL     1      -9.460  -5.927   5.389  1.00  0.00    -0.354 N 
ATOM     58  N   UNL     1     -11.410  -4.609   3.649  1.00  0.00    -0.248 NA
ATOM     59  C   UNL     1     -13.623  -4.136   3.074  1.00  0.00     0.031 C 
ATOM     60  C   UNL     1     -10.200  -7.009   7.184  1.00  0.00     0.029 A 
ATOM     61  C   UNL     1     -10.608  -6.273   6.083  1.00  0.00     0.049 A 
ATOM     62  H   UNL     1      -9.440  -5.406   4.554  1.00  0.00     0.167 HD
ATOM     63  C   UNL     1     -12.258  -5.175   4.594  1.00  0.00     0.074 A 
ATOM     64  C   UNL     1     -13.609  -4.830   4.204  1.00  0.00     0.031 C 
ATOM     65  C   UNL     1     -11.945  -5.912   5.689  1.00  0.00     0.037 A 
BRANCH  52  66
ATOM     66  C   UNL     1      -5.881  -6.859   6.399  1.00  0.00     0.057 A 
ATOM     67  C   UNL     1      -4.991  -6.075   7.144  1.00  0.00     0.134 A 
ATOM     68  C   UNL     1      -5.697  -8.247   6.423  1.00  0.00     0.134 A 
ATOM     69  F   UNL     1      -5.098  -4.738   7.142  1.00  0.00    -0.206 F 
ATOM     70  C   UNL     1      -3.942  -6.649   7.864  1.00  0.00     0.040 A 
ATOM     71  C   UNL     1      -4.668  -8.835   7.158  1.00  0.00     0.040 A 
ATOM     72  F   UNL     1      -6.514  -9.054   5.728  1.00  0.00    -0.206 F 
ATOM     73  C   UNL     1      -3.781  -8.034   7.876  1.00  0.00     0.006 A 
ENDBRANCH  52  66
BRANCH  53  74
ATOM     74  C   UNL     1     -12.866  -2.563   0.736  1.00  0.00     0.057 A 
ATOM     75  C   UNL     1     -13.610  -1.479   1.215  1.00  0.00     0.134 A 
ATOM     76  C   UNL     1     -13.176  -3.043  -0.542  1.00  0.00     0.134 A 
ATOM     77  F   UNL     1     -13.381  -0.994   2.444  1.00  0.00    -0.206 F 
ATOM     78  C   UNL     1     -14.631  -0.901   0.458  1.00  0.00     0.040 A 
ATOM     79  C   UNL     1     -14.178  -2.461  -1.320  1.00  0.00     0.040 A 
ATOM     80  F   UNL     1     -12.505  -4.085  -1.055  1.00  0.00    -0.206 F 
ATOM     81  C   UNL     1     -14.913  -1.390  -0.817  1.00  0.00     0.006 A 
ENDBRANCH  53  74
BRANCH  65  82
ATOM     82  C   UNL     1     -13.078  -6.356   6.567  1.00  0.00     0.057 A 
ATOM     83  C   UNL     1     -13.953  -7.381   6.188  1.00  0.00     0.134 A 
ATOM     84  C   UNL     1     -13.270  -5.774   7.827  1.00  0.00     0.134 A 
ATOM     85  F   UNL     1     -13.830  -7.971   4.989  1.00  0.00    -0.206 F 
ATOM     86  C   UNL     1     -14.993  -7.798   7.022  1.00  0.00     0.040 A 
ATOM     87  C   UNL     1     -14.291  -6.198   8.679  1.00  0.00     0.040 A 
ATOM     88  F   UNL     1     -12.461  -4.793   8.255  1.00  0.00    -0.206 F 
ATOM     89  C   UNL     1     -15.159  -7.209   8.274  1.00  0.00     0.006 A 
ENDBRANCH  65  82
ENDBRANCH  39  40
ENDBRANCH  32  34
ENDBRANCH  31  32
ENDBRANCH  30  31
ENDBRANCH  29  30
ENDBRANCH  28  29
ENDBRANCH  27  28
ENDBRANCH   1  27
TORSDOF 23
