REMARK SMILES O=C(Cn1cnc2c(S)ncnc21)OCCOCCOCCOC(=O)c1ccc(-c2c3nc(c(-c4c(F)cccc4F)c4ccc([nH]4)c(-c4c(F)cccc4F)c4nc(c(-c5c(F)cccc5F)c5ccc2[nH]5)C=C4)C=C3)cc1
REMARK SMILES IDX 18 1 17 2 16 3 15 4 14 5 2 6 1 7 3 8 4 9 5 10 13 11 6 12
REMARK SMILES IDX 7 13 12 14 8 15 11 16 10 17 9 18 19 20 20 21 21 22 22 23
REMARK SMILES IDX 23 24 24 25 25 26 26 27 27 28 79 29 28 30 78 31 29 32 30 33
REMARK SMILES IDX 31 34 72 35 32 36 77 37 71 38 73 39 33 40 76 41 70 42 69 43
REMARK SMILES IDX 34 45 60 46 43 47 59 48 44 49 47 50 58 51 74 52 45 53 46 54
REMARK SMILES IDX 57 56 75 57 48 58 35 59 36 60 41 61 37 62 38 63 40 64 42 65
REMARK SMILES IDX 39 66 61 67 62 68 67 69 63 70 64 71 66 72 68 73 65 74 49 75
REMARK SMILES IDX 50 76 55 77 51 78 52 79 54 80 56 81 53 82
REMARK H PARENT 9 19 73 44 47 55
REMARK Flexibility Score: inf
ROOT
ATOM      1  C   UNL     1       2.795   1.146  -1.834  1.00  0.00     0.188 C 
ENDROOT
BRANCH   1   2
ATOM      2  O   UNL     1       4.201   1.037  -1.698  1.00  0.00    -0.376 OA
BRANCH   2   3
ATOM      3  C   UNL     1       4.682   0.500  -0.470  1.00  0.00     0.202 C 
BRANCH   3   4
ATOM      4  C   UNL     1       4.122  -0.858  -0.040  1.00  0.00     0.261 C 
BRANCH   4   5
ATOM      5  O   UNL     1       2.699  -0.914   0.224  1.00  0.00    -0.462 OA
BRANCH   5   6
ATOM      6  C   UNL     1       1.956  -0.300   1.167  1.00  0.00     0.326 C 
ATOM      7  O   UNL     1       0.747  -0.535   1.226  1.00  0.00    -0.250 OA
BRANCH   6   8
ATOM      8  C   UNL     1       2.537   0.798   2.011  1.00  0.00     0.247 C 
BRANCH   8   9
ATOM      9  N   UNL     1       3.665   0.463   2.847  1.00  0.00    -0.304 N 
ATOM     10  C   UNL     1       4.589   1.361   3.311  1.00  0.00     0.202 A 
ATOM     11  C   UNL     1       3.986  -0.759   3.360  1.00  0.00     0.164 A 
ATOM     12  N   UNL     1       5.502   0.778   4.057  1.00  0.00    -0.232 NA
ATOM     13  C   UNL     1       5.139  -0.554   4.100  1.00  0.00     0.140 A 
ATOM     14  N   UNL     1       3.348  -1.919   3.148  1.00  0.00    -0.217 NA
ATOM     15  C   UNL     1       5.673  -1.694   4.701  1.00  0.00     0.124 A 
ATOM     16  C   UNL     1       3.969  -2.944   3.756  1.00  0.00     0.225 A 
ATOM     17  N   UNL     1       5.082  -2.901   4.514  1.00  0.00    -0.228 NA
BRANCH  15  18
ATOM     18  S   UNL     1       7.117  -1.601   5.697  1.00  0.00    -0.121 SA
ATOM     19  H   UNL     1       7.546  -0.312   5.754  1.00  0.00     0.110 HD
ENDBRANCH  15  18
ENDBRANCH   8   9
ENDBRANCH   6   8
ENDBRANCH   5   6
ENDBRANCH   4   5
ENDBRANCH   3   4
ENDBRANCH   2   3
ENDBRANCH   1   2
BRANCH   1  20
ATOM     20  C   UNL     1       2.131   0.039  -2.676  1.00  0.00     0.188 C 
BRANCH  20  21
ATOM     21  O   UNL     1       2.877  -1.121  -3.024  1.00  0.00    -0.376 OA
BRANCH  21  22
ATOM     22  C   UNL     1       4.114  -1.006  -3.724  1.00  0.00     0.202 C 
BRANCH  22  23
ATOM     23  C   UNL     1       4.171  -0.138  -4.976  1.00  0.00     0.261 C 
BRANCH  23  24
ATOM     24  O   UNL     1       4.235   1.248  -4.633  1.00  0.00    -0.460 OA
BRANCH  24  25
ATOM     25  C   UNL     1       3.173   1.992  -5.001  1.00  0.00     0.338 C 
ATOM     26  O   UNL     1       2.165   1.605  -5.566  1.00  0.00    -0.246 OA
BRANCH  25  27
ATOM     27  C   UNL     1       3.402   3.407  -4.659  1.00  0.00     0.060 A 
ATOM     28  C   UNL     1       2.338   4.282  -4.896  1.00  0.00     0.016 A 
ATOM     29  C   UNL     1       4.675   3.885  -4.314  1.00  0.00     0.016 A 
ATOM     30  C   UNL     1       2.603   5.629  -5.031  1.00  0.00     0.010 A 
ATOM     31  C   UNL     1       4.940   5.237  -4.446  1.00  0.00     0.010 A 
ATOM     32  C   UNL     1       3.925   6.069  -4.919  1.00  0.00    -0.014 A 
BRANCH  32  33
ATOM     33  C   UNL     1       4.231   7.338  -5.558  1.00  0.00     0.031 A 
ATOM     34  C   UNL     1       3.860   8.584  -4.858  1.00  0.00     0.074 A 
ATOM     35  C   UNL     1       4.834   7.367  -6.763  1.00  0.00     0.049 A 
ATOM     36  N   UNL     1       3.053   9.514  -5.256  1.00  0.00    -0.248 NA
ATOM     37  C   UNL     1       4.454   8.812  -3.536  1.00  0.00     0.031 C 
ATOM     38  C   UNL     1       5.503   6.267  -7.466  1.00  0.00     0.029 A 
ATOM     39  N   UNL     1       5.047   8.437  -7.579  1.00  0.00    -0.354 N 
ATOM     40  C   UNL     1       3.145  10.524  -4.306  1.00  0.00     0.074 A 
ATOM     41  C   UNL     1       3.958  10.011  -3.229  1.00  0.00     0.031 C 
ATOM     42  C   UNL     1       6.220   6.770  -8.493  1.00  0.00     0.029 A 
ATOM     43  C   UNL     1       5.953   8.195  -8.597  1.00  0.00     0.049 A 
ATOM     44  H   UNL     1       4.597   9.304  -7.456  1.00  0.00     0.167 HD
ATOM     45  C   UNL     1       2.680  11.783  -4.521  1.00  0.00     0.037 A 
ATOM     46  C   UNL     1       6.502   9.117  -9.419  1.00  0.00     0.037 A 
ATOM     47  C   UNL     1       1.754  11.861  -5.613  1.00  0.00     0.049 A 
ATOM     48  C   UNL     1       5.639  10.320  -9.406  1.00  0.00     0.074 A 
ATOM     49  C   UNL     1       0.501  11.338  -5.867  1.00  0.00     0.029 A 
ATOM     50  N   UNL     1       2.199  12.357  -6.811  1.00  0.00    -0.354 N 
ATOM     51  N   UNL     1       4.453  10.390  -9.942  1.00  0.00    -0.248 NA
ATOM     52  C   UNL     1       5.963  11.390  -8.474  1.00  0.00     0.031 C 
ATOM     53  C   UNL     1       0.445  11.152  -7.278  1.00  0.00     0.029 A 
ATOM     54  C   UNL     1       1.672  11.565  -7.800  1.00  0.00     0.049 A 
ATOM     55  H   UNL     1       2.787  13.136  -6.938  1.00  0.00     0.167 HD
ATOM     56  C   UNL     1       3.746  11.265  -9.131  1.00  0.00     0.074 A 
ATOM     57  C   UNL     1       4.758  11.946  -8.335  1.00  0.00     0.031 C 
ATOM     58  C   UNL     1       2.394  11.158  -8.984  1.00  0.00     0.037 A 
BRANCH  45  59
ATOM     59  C   UNL     1       3.271  12.996  -3.870  1.00  0.00     0.057 A 
ATOM     60  C   UNL     1       2.531  14.181  -3.755  1.00  0.00     0.134 A 
ATOM     61  C   UNL     1       4.640  13.095  -3.552  1.00  0.00     0.134 A 
ATOM     62  F   UNL     1       1.232  14.215  -4.087  1.00  0.00    -0.206 F 
ATOM     63  C   UNL     1       3.116  15.386  -3.346  1.00  0.00     0.040 A 
ATOM     64  C   UNL     1       5.225  14.278  -3.097  1.00  0.00     0.040 A 
ATOM     65  F   UNL     1       5.482  12.069  -3.746  1.00  0.00    -0.206 F 
ATOM     66  C   UNL     1       4.465  15.434  -3.007  1.00  0.00     0.006 A 
ENDBRANCH  45  59
BRANCH  46  67
ATOM     67  C   UNL     1       7.863   9.117  -9.995  1.00  0.00     0.057 A 
ATOM     68  C   UNL     1       8.193   9.947 -11.073  1.00  0.00     0.134 A 
ATOM     69  C   UNL     1       8.942   8.495  -9.339  1.00  0.00     0.134 A 
ATOM     70  F   UNL     1       7.238  10.618 -11.732  1.00  0.00    -0.206 F 
ATOM     71  C   UNL     1       9.519  10.160 -11.467  1.00  0.00     0.040 A 
ATOM     72  C   UNL     1      10.269   8.688  -9.731  1.00  0.00     0.040 A 
ATOM     73  F   UNL     1       8.753   7.748  -8.242  1.00  0.00    -0.206 F 
ATOM     74  C   UNL     1      10.563   9.535 -10.791  1.00  0.00     0.006 A 
ENDBRANCH  46  67
BRANCH  58  75
ATOM     75  C   UNL     1       1.657  10.288  -9.963  1.00  0.00     0.057 A 
ATOM     76  C   UNL     1       1.829   8.898 -10.041  1.00  0.00     0.134 A 
ATOM     77  C   UNL     1       0.647  10.848 -10.753  1.00  0.00     0.134 A 
ATOM     78  F   UNL     1       2.702   8.265  -9.245  1.00  0.00    -0.206 F 
ATOM     79  C   UNL     1       1.063   8.109 -10.904  1.00  0.00     0.040 A 
ATOM     80  C   UNL     1      -0.147  10.066 -11.596  1.00  0.00     0.040 A 
ATOM     81  F   UNL     1       0.383  12.163 -10.683  1.00  0.00    -0.206 F 
ATOM     82  C   UNL     1       0.068   8.693 -11.682  1.00  0.00     0.006 A 
ENDBRANCH  58  75
ENDBRANCH  32  33
ENDBRANCH  25  27
ENDBRANCH  24  25
ENDBRANCH  23  24
ENDBRANCH  22  23
ENDBRANCH  21  22
ENDBRANCH  20  21
ENDBRANCH   1  20
TORSDOF 19
