REMARK SMILES COc1ccccc1C[C@@H](C(=O)OCCOCCOCCOC(=O)c1ccc(-c2c3nc(c(-c4c(F)cccc4F)c4ccc([nH]4)c(-c4c(F)cccc4F)c4nc(c(-c5c(F)cccc5F)c5ccc2[nH]5)C=C4)C=C3)cc1)[C@@H]1C[C@H](C)C[C@H](C)C1
REMARK SMILES IDX 17 1 16 2 15 3 14 4 13 5 11 6 12 7 10 8 9 9 8 10 3 11 4 12
REMARK SMILES IDX 5 13 7 14 6 15 2 16 1 17 79 18 86 19 80 20 84 21 81 22 85 23
REMARK SMILES IDX 83 24 82 25 18 26 19 27 20 28 21 29 22 30 23 31 24 32 25 33
REMARK SMILES IDX 26 34 78 35 27 36 77 37 28 38 29 39 30 40 71 41 31 42 76 43
REMARK SMILES IDX 70 44 72 45 32 46 75 47 69 48 68 49 33 51 59 52 42 53 58 54
REMARK SMILES IDX 43 55 46 56 57 57 73 58 44 59 45 60 56 62 74 63 47 64 34 65
REMARK SMILES IDX 35 66 40 67 36 68 37 69 39 70 41 71 38 72 60 73 61 74 66 75
REMARK SMILES IDX 62 76 63 77 65 78 67 79 64 80 48 81 49 82 54 83 50 84 51 85
REMARK SMILES IDX 53 86 55 87 52 88
REMARK H PARENT 72 50 46 61
REMARK Flexibility Score: inf
ROOT
ATOM      1  C   UNL     1       5.484   3.899  -1.491  1.00  0.00     0.188 C 
ENDROOT
BRANCH   1   2
ATOM      2  O   UNL     1       5.297   4.570  -2.729  1.00  0.00    -0.376 OA
BRANCH   2   3
ATOM      3  C   UNL     1       6.112   4.162  -3.815  1.00  0.00     0.202 C 
BRANCH   3   4
ATOM      4  C   UNL     1       5.261   3.324  -4.789  1.00  0.00     0.261 C 
BRANCH   4   5
ATOM      5  O   UNL     1       4.543   2.197  -4.224  1.00  0.00    -0.463 OA
BRANCH   5   6
ATOM      6  C   UNL     1       5.245   1.403  -3.394  1.00  0.00     0.309 C 
ATOM      7  O   UNL     1       6.447   1.569  -3.247  1.00  0.00    -0.252 OA
BRANCH   6   8
ATOM      8  C   UNL     1       4.441   0.279  -2.741  1.00  0.00     0.107 C 
BRANCH   8   9
ATOM      9  C   UNL     1       3.216   0.685  -1.839  1.00  0.00     0.055 C 
BRANCH   9  10
ATOM     10  C   UNL     1       1.986   1.418  -2.358  1.00  0.00    -0.005 A 
ATOM     11  C   UNL     1       0.681   0.935  -2.142  1.00  0.00     0.122 A 
ATOM     12  C   UNL     1      -0.447   1.588  -2.665  1.00  0.00     0.047 A 
ATOM     13  C   UNL     1      -0.307   2.794  -3.343  1.00  0.00     0.004 A 
ATOM     14  C   UNL     1       2.069   2.684  -2.952  1.00  0.00     0.007 A 
ATOM     15  C   UNL     1       0.953   3.359  -3.456  1.00  0.00     0.001 A 
BRANCH  11  16
ATOM     16  O   UNL     1       0.445  -0.196  -1.399  1.00  0.00    -0.496 OA
ATOM     17  C   UNL     1       0.373   0.139  -0.007  1.00  0.00     0.278 C 
ENDBRANCH  11  16
ENDBRANCH   9  10
ENDBRANCH   8   9
BRANCH   8  18
ATOM     18  C   UNL     1       5.381  -0.661  -1.853  1.00  0.00     0.004 C 
ATOM     19  C   UNL     1       4.883  -2.122  -1.800  1.00  0.00     0.007 C 
ATOM     20  C   UNL     1       6.912  -0.734  -2.077  1.00  0.00     0.007 C 
ATOM     21  C   UNL     1       5.290  -3.000  -2.996  1.00  0.00    -0.014 C 
ATOM     22  C   UNL     1       7.375  -1.470  -3.341  1.00  0.00    -0.014 C 
ATOM     23  C   UNL     1       4.371  -2.826  -4.204  1.00  0.00     0.007 C 
ATOM     24  C   UNL     1       6.780  -2.882  -3.364  1.00  0.00     0.006 C 
ATOM     25  C   UNL     1       7.185  -0.744  -4.674  1.00  0.00     0.007 C 
ENDBRANCH   8  18
ENDBRANCH   6   8
ENDBRANCH   5   6
ENDBRANCH   4   5
ENDBRANCH   3   4
ENDBRANCH   2   3
ENDBRANCH   1   2
BRANCH   1  26
ATOM     26  C   UNL     1       4.228   4.058  -0.625  1.00  0.00     0.188 C 
BRANCH  26  27
ATOM     27  O   UNL     1       3.453   5.239  -0.734  1.00  0.00    -0.376 OA
BRANCH  27  28
ATOM     28  C   UNL     1       4.145   6.458  -0.926  1.00  0.00     0.202 C 
BRANCH  28  29
ATOM     29  C   UNL     1       5.121   6.891   0.178  1.00  0.00     0.261 C 
BRANCH  29  30
ATOM     30  O   UNL     1       6.033   5.878   0.657  1.00  0.00    -0.460 OA
BRANCH  30  31
ATOM     31  C   UNL     1       5.729   5.323   1.853  1.00  0.00     0.338 C 
ATOM     32  O   UNL     1       4.772   5.604   2.574  1.00  0.00    -0.246 OA
BRANCH  31  33
ATOM     33  C   UNL     1       6.628   4.191   2.167  1.00  0.00     0.060 A 
ATOM     34  C   UNL     1       6.096   2.896   2.277  1.00  0.00     0.016 A 
ATOM     35  C   UNL     1       7.959   4.427   2.510  1.00  0.00     0.016 A 
ATOM     36  C   UNL     1       6.878   1.844   2.760  1.00  0.00     0.010 A 
ATOM     37  C   UNL     1       8.735   3.377   3.022  1.00  0.00     0.010 A 
ATOM     38  C   UNL     1       8.187   2.091   3.187  1.00  0.00    -0.014 A 
BRANCH  38  39
ATOM     39  C   UNL     1       8.905   1.066   3.988  1.00  0.00     0.031 A 
ATOM     40  C   UNL     1       8.915   1.193   5.489  1.00  0.00     0.074 A 
ATOM     41  C   UNL     1       9.518   0.021   3.406  1.00  0.00     0.049 A 
ATOM     42  N   UNL     1       9.514   0.454   6.388  1.00  0.00    -0.248 NA
ATOM     43  C   UNL     1       8.141   2.312   6.048  1.00  0.00     0.031 C 
ATOM     44  C   UNL     1       9.534  -0.260   1.973  1.00  0.00     0.029 A 
ATOM     45  N   UNL     1      10.253  -0.997   3.961  1.00  0.00    -0.354 N 
ATOM     46  C   UNL     1       9.203   1.026   7.617  1.00  0.00     0.074 A 
ATOM     47  C   UNL     1       8.389   2.191   7.343  1.00  0.00     0.031 C 
ATOM     48  C   UNL     1      10.252  -1.377   1.759  1.00  0.00     0.029 A 
ATOM     49  C   UNL     1      10.773  -1.867   3.035  1.00  0.00     0.049 A 
ATOM     50  H   UNL     1      10.394  -1.095   4.931  1.00  0.00     0.167 HD
ATOM     51  C   UNL     1       9.557   0.618   8.860  1.00  0.00     0.037 A 
ATOM     52  C   UNL     1      11.590  -2.925   3.198  1.00  0.00     0.037 A 
ATOM     53  C   UNL     1      10.378  -0.534   9.134  1.00  0.00     0.049 A 
ATOM     54  C   UNL     1      12.051  -3.307   4.580  1.00  0.00     0.074 A 
ATOM     55  C   UNL     1      10.782  -1.038  10.358  1.00  0.00     0.029 A 
ATOM     56  N   UNL     1      10.935  -1.356   8.164  1.00  0.00    -0.354 N 
ATOM     57  N   UNL     1      11.744  -2.770   5.737  1.00  0.00    -0.248 NA
ATOM     58  C   UNL     1      12.972  -4.449   4.676  1.00  0.00     0.031 C 
ATOM     59  C   UNL     1      11.633  -2.126  10.127  1.00  0.00     0.029 A 
ATOM     60  C   UNL     1      11.707  -2.341   8.761  1.00  0.00     0.049 A 
ATOM     61  H   UNL     1      10.802  -1.254   7.194  1.00  0.00     0.167 HD
ATOM     62  C   UNL     1      12.411  -3.522   6.698  1.00  0.00     0.074 A 
ATOM     63  C   UNL     1      13.124  -4.564   5.988  1.00  0.00     0.031 C 
ATOM     64  C   UNL     1      12.427  -3.368   8.046  1.00  0.00     0.037 A 
BRANCH  51  65
ATOM     65  C   UNL     1       9.091   1.464  10.013  1.00  0.00     0.057 A 
ATOM     66  C   UNL     1       7.740   1.556  10.375  1.00  0.00     0.134 A 
ATOM     67  C   UNL     1      10.008   2.215  10.760  1.00  0.00     0.134 A 
ATOM     68  F   UNL     1       6.806   0.875   9.694  1.00  0.00    -0.206 F 
ATOM     69  C   UNL     1       7.314   2.397  11.405  1.00  0.00     0.040 A 
ATOM     70  C   UNL     1       9.598   3.034  11.814  1.00  0.00     0.040 A 
ATOM     71  F   UNL     1      11.318   2.171  10.476  1.00  0.00    -0.206 F 
ATOM     72  C   UNL     1       8.245   3.137  12.130  1.00  0.00     0.006 A 
ENDBRANCH  51  65
BRANCH  52  73
ATOM     73  C   UNL     1      12.024  -3.712   2.015  1.00  0.00     0.057 A 
ATOM     74  C   UNL     1      11.566  -5.018   1.812  1.00  0.00     0.134 A 
ATOM     75  C   UNL     1      12.907  -3.182   1.066  1.00  0.00     0.134 A 
ATOM     76  F   UNL     1      10.743  -5.591   2.702  1.00  0.00    -0.206 F 
ATOM     77  C   UNL     1      11.973  -5.772   0.710  1.00  0.00     0.040 A 
ATOM     78  C   UNL     1      13.302  -3.915  -0.054  1.00  0.00     0.040 A 
ATOM     79  F   UNL     1      13.386  -1.937   1.207  1.00  0.00    -0.206 F 
ATOM     80  C   UNL     1      12.837  -5.217  -0.232  1.00  0.00     0.006 A 
ENDBRANCH  52  73
BRANCH  64  81
ATOM     81  C   UNL     1      13.221  -4.368   8.842  1.00  0.00     0.057 A 
ATOM     82  C   UNL     1      14.621  -4.415   8.796  1.00  0.00     0.134 A 
ATOM     83  C   UNL     1      12.575  -5.298   9.668  1.00  0.00     0.134 A 
ATOM     84  F   UNL     1      15.305  -3.562   8.017  1.00  0.00    -0.206 F 
ATOM     85  C   UNL     1      15.346  -5.373   9.508  1.00  0.00     0.040 A 
ATOM     86  C   UNL     1      13.291  -6.239  10.411  1.00  0.00     0.040 A 
ATOM     87  F   UNL     1      11.238  -5.305   9.772  1.00  0.00    -0.206 F 
ATOM     88  C   UNL     1      14.680  -6.287  10.322  1.00  0.00     0.006 A 
ENDBRANCH  64  81
ENDBRANCH  38  39
ENDBRANCH  31  33
ENDBRANCH  30  31
ENDBRANCH  29  30
ENDBRANCH  28  29
ENDBRANCH  27  28
ENDBRANCH  26  27
ENDBRANCH   1  26
TORSDOF 21
