REMARK SMILES CC(=O)c1cccc(-c2ccc(C(=O)OCCOCCOCCOC(=O)c3ccc(-c4c5nc(c(-c6c(F)cccc6F)c6ccc([nH]6)c(-c6c(F)cccc6F)c6nc(c(-c7c(F)cccc7F)c7ccc4[nH]7)C=C6)C=C5)cc3)cc2F)c1
REMARK SMILES IDX 19 1 18 2 17 3 16 4 15 5 13 6 14 7 12 8 9 9 10 10 82 11
REMARK SMILES IDX 11 12 81 13 83 14 8 15 4 16 5 17 84 18 6 19 7 20 2 21 1 22
REMARK SMILES IDX 3 23 20 24 21 25 22 26 23 27 24 28 25 29 26 30 27 31 28 32
REMARK SMILES IDX 80 33 29 34 79 35 30 36 31 37 32 38 73 39 33 40 78 41 72 42
REMARK SMILES IDX 74 43 34 44 77 45 71 46 70 47 35 49 61 50 44 51 60 52 45 53
REMARK SMILES IDX 48 54 59 55 75 56 46 57 47 58 58 60 76 61 49 62 36 63 37 64
REMARK SMILES IDX 42 65 38 66 39 67 41 68 43 69 40 70 62 71 63 72 68 73 64 74
REMARK SMILES IDX 65 75 67 76 69 77 66 78 50 79 51 80 56 81 52 82 53 83 55 84
REMARK SMILES IDX 57 85 54 86
REMARK H PARENT 74 48 48 59
REMARK Flexibility Score: inf
ROOT
ATOM      1  C   UNL     1       8.746   3.235   6.617  1.00  0.00     0.188 C 
ENDROOT
BRANCH   1   2
ATOM      2  O   UNL     1      10.094   2.779   6.695  1.00  0.00    -0.376 OA
BRANCH   2   3
ATOM      3  C   UNL     1      10.855   2.595   5.507  1.00  0.00     0.202 C 
BRANCH   3   4
ATOM      4  C   UNL     1      10.317   1.663   4.413  1.00  0.00     0.261 C 
BRANCH   4   5
ATOM      5  O   UNL     1       8.971   1.948   4.001  1.00  0.00    -0.460 OA
BRANCH   5   6
ATOM      6  C   UNL     1       8.063   0.984   4.288  1.00  0.00     0.338 C 
ATOM      7  O   UNL     1       8.277  -0.105   4.792  1.00  0.00    -0.246 OA
BRANCH   6   8
ATOM      8  C   UNL     1       6.691   1.488   4.056  1.00  0.00     0.063 A 
ATOM      9  C   UNL     1       4.009   2.230   3.636  1.00  0.00     0.018 A 
ATOM     10  C   UNL     1       4.377   1.525   4.791  1.00  0.00     0.012 A 
ATOM     11  C   UNL     1       5.028   2.613   2.743  1.00  0.00     0.131 A 
ATOM     12  C   UNL     1       5.706   1.145   4.992  1.00  0.00     0.016 A 
ATOM     13  C   UNL     1       6.361   2.258   2.943  1.00  0.00     0.055 A 
ATOM     14  F   UNL     1       4.720   3.303   1.634  1.00  0.00    -0.206 F 
BRANCH   9  15
ATOM     15  C   UNL     1       2.590   2.433   3.309  1.00  0.00    -0.015 A 
ATOM     16  C   UNL     1       0.720   1.973   1.804  1.00  0.00     0.018 A 
ATOM     17  C   UNL     1      -0.128   2.713   2.633  1.00  0.00     0.012 A 
ATOM     18  C   UNL     1       2.069   1.843   2.143  1.00  0.00     0.020 A 
ATOM     19  C   UNL     1       0.369   3.294   3.802  1.00  0.00     0.001 A 
ATOM     20  C   UNL     1       1.718   3.151   4.140  1.00  0.00     0.009 A 
BRANCH  16  21
ATOM     21  C   UNL     1       0.159   1.336   0.580  1.00  0.00     0.159 C 
ATOM     22  C   UNL     1       0.838   0.107   0.029  1.00  0.00     0.093 C 
ATOM     23  O   UNL     1      -0.865   1.787   0.074  1.00  0.00    -0.295 OA
ENDBRANCH  16  21
ENDBRANCH   9  15
ENDBRANCH   6   8
ENDBRANCH   5   6
ENDBRANCH   4   5
ENDBRANCH   3   4
ENDBRANCH   2   3
ENDBRANCH   1   2
BRANCH   1  24
ATOM     24  C   UNL     1       8.368   4.383   5.657  1.00  0.00     0.188 C 
BRANCH  24  25
ATOM     25  O   UNL     1       9.467   4.911   4.951  1.00  0.00    -0.376 OA
BRANCH  25  26
ATOM     26  C   UNL     1       9.992   6.169   5.335  1.00  0.00     0.202 C 
BRANCH  26  27
ATOM     27  C   UNL     1      10.254   6.534   6.809  1.00  0.00     0.261 C 
BRANCH  27  28
ATOM     28  O   UNL     1       9.406   5.944   7.801  1.00  0.00    -0.460 OA
BRANCH  28  29
ATOM     29  C   UNL     1       8.266   6.604   8.104  1.00  0.00     0.338 C 
ATOM     30  O   UNL     1       7.840   7.617   7.586  1.00  0.00    -0.246 OA
BRANCH  29  31
ATOM     31  C   UNL     1       7.513   5.791   9.083  1.00  0.00     0.060 A 
ATOM     32  C   UNL     1       6.250   5.306   8.724  1.00  0.00     0.016 A 
ATOM     33  C   UNL     1       8.037   5.533  10.353  1.00  0.00     0.016 A 
ATOM     34  C   UNL     1       5.487   4.596   9.652  1.00  0.00     0.010 A 
ATOM     35  C   UNL     1       7.264   4.834  11.287  1.00  0.00     0.010 A 
ATOM     36  C   UNL     1       5.972   4.394  10.952  1.00  0.00    -0.014 A 
BRANCH  36  37
ATOM     37  C   UNL     1       5.055   3.898  12.008  1.00  0.00     0.031 A 
ATOM     38  C   UNL     1       4.369   4.904  12.892  1.00  0.00     0.074 A 
ATOM     39  C   UNL     1       4.811   2.586  12.167  1.00  0.00     0.049 A 
ATOM     40  N   UNL     1       3.535   4.712  13.881  1.00  0.00    -0.248 NA
ATOM     41  C   UNL     1       4.666   6.320  12.619  1.00  0.00     0.031 C 
ATOM     42  C   UNL     1       5.382   1.513  11.356  1.00  0.00     0.029 A 
ATOM     43  N   UNL     1       4.013   1.935  13.075  1.00  0.00    -0.354 N 
ATOM     44  C   UNL     1       3.209   5.979  14.350  1.00  0.00     0.074 A 
ATOM     45  C   UNL     1       3.960   6.930  13.559  1.00  0.00     0.031 C 
ATOM     46  C   UNL     1       4.917   0.334  11.806  1.00  0.00     0.029 A 
ATOM     47  C   UNL     1       4.039   0.568  12.952  1.00  0.00     0.049 A 
ATOM     48  H   UNL     1       3.473   2.405  13.751  1.00  0.00     0.167 HD
ATOM     49  C   UNL     1       2.356   6.322  15.343  1.00  0.00     0.037 A 
ATOM     50  C   UNL     1       3.434  -0.382  13.691  1.00  0.00     0.037 A 
ATOM     51  C   UNL     1       1.615   5.380  16.138  1.00  0.00     0.049 A 
ATOM     52  C   UNL     1       2.553   0.022  14.845  1.00  0.00     0.074 A 
ATOM     53  C   UNL     1       0.713   5.630  17.157  1.00  0.00     0.029 A 
ATOM     54  N   UNL     1       1.702   4.002  16.010  1.00  0.00    -0.354 N 
ATOM     55  N   UNL     1       2.224   1.222  15.257  1.00  0.00    -0.248 NA
ATOM     56  C   UNL     1       1.957  -1.066  15.635  1.00  0.00     0.031 C 
ATOM     57  C   UNL     1       0.290   4.402  17.678  1.00  0.00     0.029 A 
ATOM     58  C   UNL     1       0.889   3.388  16.949  1.00  0.00     0.049 A 
ATOM     59  H   UNL     1       2.259   3.530  15.350  1.00  0.00     0.167 HD
ATOM     60  C   UNL     1       1.357   1.034  16.328  1.00  0.00     0.074 A 
ATOM     61  C   UNL     1       1.206  -0.396  16.497  1.00  0.00     0.031 C 
ATOM     62  C   UNL     1       0.739   1.963  17.099  1.00  0.00     0.037 A 
BRANCH  49  63
ATOM     63  C   UNL     1       2.204   7.785  15.640  1.00  0.00     0.057 A 
ATOM     64  C   UNL     1       1.535   8.653  14.767  1.00  0.00     0.134 A 
ATOM     65  C   UNL     1       2.730   8.332  16.817  1.00  0.00     0.134 A 
ATOM     66  F   UNL     1       1.024   8.196  13.614  1.00  0.00    -0.206 F 
ATOM     67  C   UNL     1       1.418  10.017  15.041  1.00  0.00     0.040 A 
ATOM     68  C   UNL     1       2.596   9.689  17.115  1.00  0.00     0.040 A 
ATOM     69  F   UNL     1       3.381   7.556  17.697  1.00  0.00    -0.206 F 
ATOM     70  C   UNL     1       1.946  10.537  16.221  1.00  0.00     0.006 A 
ENDBRANCH  49  63
BRANCH  50  71
ATOM     71  C   UNL     1       3.633  -1.818  13.369  1.00  0.00     0.057 A 
ATOM     72  C   UNL     1       2.587  -2.597  12.861  1.00  0.00     0.134 A 
ATOM     73  C   UNL     1       4.860  -2.454  13.593  1.00  0.00     0.134 A 
ATOM     74  F   UNL     1       1.380  -2.050  12.650  1.00  0.00    -0.206 F 
ATOM     75  C   UNL     1       2.748  -3.959  12.602  1.00  0.00     0.040 A 
ATOM     76  C   UNL     1       5.042  -3.810  13.317  1.00  0.00     0.040 A 
ATOM     77  F   UNL     1       5.901  -1.764  14.083  1.00  0.00    -0.206 F 
ATOM     78  C   UNL     1       3.981  -4.568  12.826  1.00  0.00     0.006 A 
ENDBRANCH  50  71
BRANCH  62  79
ATOM     79  C   UNL     1      -0.196   1.464  18.163  1.00  0.00     0.057 A 
ATOM     80  C   UNL     1       0.269   0.845  19.330  1.00  0.00     0.134 A 
ATOM     81  C   UNL     1      -1.580   1.641  18.033  1.00  0.00     0.134 A 
ATOM     82  F   UNL     1       1.581   0.635  19.512  1.00  0.00    -0.206 F 
ATOM     83  C   UNL     1      -0.611   0.398  20.318  1.00  0.00     0.040 A 
ATOM     84  C   UNL     1      -2.467   1.222  19.025  1.00  0.00     0.040 A 
ATOM     85  F   UNL     1      -2.091   2.236  16.945  1.00  0.00    -0.206 F 
ATOM     86  C   UNL     1      -1.983   0.592  20.169  1.00  0.00     0.006 A 
ENDBRANCH  62  79
ENDBRANCH  36  37
ENDBRANCH  29  31
ENDBRANCH  28  29
ENDBRANCH  27  28
ENDBRANCH  26  27
ENDBRANCH  25  26
ENDBRANCH  24  25
ENDBRANCH   1  24
TORSDOF 19
