REMARK SMILES O=C(COc1ccc2c(c1)CCC2)N[C@@H](CO)C(=O)OCCOCCOCCOC(=O)c1ccc(-c2c3nc(c(-c4c(F)cccc4F)c4ccc([nH]4)c(-c4c(F)cccc4F)c4nc(c(-c5c(F)cccc5F)c5ccc2[nH]5)C=C4)C=C3)cc1
REMARK SMILES IDX 24 1 23 2 22 3 21 4 20 5 18 6 19 7 15 8 14 9 1 10 2 11 3 13
REMARK SMILES IDX 4 14 5 15 6 16 10 17 7 18 9 19 8 20 11 21 13 22 12 23 16 24
REMARK SMILES IDX 17 25 25 27 26 28 27 29 28 30 29 31 30 32 31 33 32 34 33 35
REMARK SMILES IDX 85 36 34 37 84 38 35 39 36 40 37 41 78 42 38 43 83 44 77 45
REMARK SMILES IDX 79 46 39 47 82 48 76 49 75 50 40 52 66 53 49 54 65 55 50 56
REMARK SMILES IDX 53 57 64 58 80 59 51 60 52 61 63 63 81 64 54 65 41 66 42 67
REMARK SMILES IDX 47 68 43 69 44 70 46 71 48 72 45 73 67 74 68 75 73 76 69 77
REMARK SMILES IDX 70 78 72 79 74 80 71 81 55 82 56 83 61 84 57 85 58 86 60 87
REMARK SMILES IDX 62 88 59 89
REMARK H PARENT 14 12 17 26 79 51 53 62
REMARK Flexibility Score: inf
ROOT
ATOM      1  C   UNL     1       2.422  -0.216   4.503  1.00  0.00     0.188 C 
ENDROOT
BRANCH   1   2
ATOM      2  O   UNL     1       2.904  -0.699   5.750  1.00  0.00    -0.376 OA
BRANCH   2   3
ATOM      3  C   UNL     1       4.129  -1.423   5.772  1.00  0.00     0.202 C 
BRANCH   3   4
ATOM      4  C   UNL     1       4.232  -2.651   4.860  1.00  0.00     0.261 C 
BRANCH   4   5
ATOM      5  O   UNL     1       4.057  -2.349   3.456  1.00  0.00    -0.462 OA
BRANCH   5   6
ATOM      6  C   UNL     1       3.148  -3.125   2.803  1.00  0.00     0.331 C 
ATOM      7  O   UNL     1       2.572  -4.083   3.312  1.00  0.00    -0.250 OA
BRANCH   6   8
ATOM      8  C   UNL     1       2.830  -2.651   1.369  1.00  0.00     0.218 C 
BRANCH   8   9
ATOM      9  N   UNL     1       3.490  -1.460   0.786  1.00  0.00    -0.338 N 
ATOM     10  O   UNL     1       1.576  -0.732  -0.231  1.00  0.00    -0.271 OA
ATOM     11  C   UNL     1       2.779  -0.584  -0.019  1.00  0.00     0.258 C 
ATOM     12  H   UNL     1       4.442  -1.289   0.972  1.00  0.00     0.164 HD
BRANCH  11  13
ATOM     13  C   UNL     1       3.570   0.553  -0.690  1.00  0.00     0.329 C 
BRANCH  13  14
ATOM     14  O   UNL     1       4.064   1.582   0.151  1.00  0.00    -0.484 OA
BRANCH  14  15
ATOM     15  C   UNL     1       3.287   2.699   0.327  1.00  0.00     0.120 A 
ATOM     16  C   UNL     1       1.889   2.737   0.228  1.00  0.00     0.047 A 
ATOM     17  C   UNL     1       3.982   3.853   0.716  1.00  0.00     0.050 A 
ATOM     18  C   UNL     1       1.177   3.892   0.588  1.00  0.00     0.008 A 
ATOM     19  C   UNL     1       3.267   4.986   1.083  1.00  0.00    -0.041 A 
ATOM     20  C   UNL     1       1.873   4.986   1.071  1.00  0.00    -0.045 A 
ATOM     21  C   UNL     1       3.788   6.329   1.489  1.00  0.00     0.036 C 
ATOM     22  C   UNL     1       1.326   6.265   1.626  1.00  0.00     0.036 C 
ATOM     23  C   UNL     1       2.582   6.903   2.243  1.00  0.00     0.010 C 
ENDBRANCH  14  15
ENDBRANCH  13  14
ENDBRANCH  11  13
ENDBRANCH   8   9
BRANCH   8  24
ATOM     24  C   UNL     1       3.026  -3.854   0.438  1.00  0.00     0.193 C 
BRANCH  24  25
ATOM     25  O   UNL     1       4.418  -4.111   0.234  1.00  0.00    -0.394 OA
ATOM     26  H   UNL     1       4.834  -3.335  -0.173  1.00  0.00     0.210 HD
ENDBRANCH  24  25
ENDBRANCH   8  24
ENDBRANCH   6   8
ENDBRANCH   5   6
ENDBRANCH   4   5
ENDBRANCH   3   4
ENDBRANCH   2   3
ENDBRANCH   1   2
BRANCH   1  27
ATOM     27  C   UNL     1       3.402   0.483   3.538  1.00  0.00     0.188 C 
BRANCH  27  28
ATOM     28  O   UNL     1       4.697   0.748   4.051  1.00  0.00    -0.376 OA
BRANCH  28  29
ATOM     29  C   UNL     1       4.974   2.126   4.279  1.00  0.00     0.202 C 
BRANCH  29  30
ATOM     30  C   UNL     1       4.086   2.764   5.349  1.00  0.00     0.261 C 
BRANCH  30  31
ATOM     31  O   UNL     1       2.709   2.727   4.924  1.00  0.00    -0.460 OA
BRANCH  31  32
ATOM     32  C   UNL     1       1.997   3.864   4.935  1.00  0.00     0.338 C 
ATOM     33  O   UNL     1       2.386   4.962   5.314  1.00  0.00    -0.246 OA
BRANCH  32  34
ATOM     34  C   UNL     1       0.613   3.596   4.467  1.00  0.00     0.060 A 
ATOM     35  C   UNL     1       0.318   2.665   3.462  1.00  0.00     0.016 A 
ATOM     36  C   UNL     1      -0.421   4.360   5.005  1.00  0.00     0.016 A 
ATOM     37  C   UNL     1      -0.979   2.532   2.958  1.00  0.00     0.010 A 
ATOM     38  C   UNL     1      -1.723   4.215   4.521  1.00  0.00     0.010 A 
ATOM     39  C   UNL     1      -2.006   3.325   3.471  1.00  0.00    -0.014 A 
BRANCH  39  40
ATOM     40  C   UNL     1      -3.369   3.292   2.895  1.00  0.00     0.031 A 
ATOM     41  C   UNL     1      -3.874   4.476   2.122  1.00  0.00     0.074 A 
ATOM     42  C   UNL     1      -4.171   2.234   3.110  1.00  0.00     0.049 A 
ATOM     43  N   UNL     1      -5.097   4.780   1.777  1.00  0.00    -0.248 NA
ATOM     44  C   UNL     1      -2.861   5.447   1.677  1.00  0.00     0.031 C 
ATOM     45  C   UNL     1      -3.776   0.988   3.764  1.00  0.00     0.029 A 
ATOM     46  N   UNL     1      -5.505   2.062   2.832  1.00  0.00    -0.354 N 
ATOM     47  C   UNL     1      -5.009   5.994   1.108  1.00  0.00     0.074 A 
ATOM     48  C   UNL     1      -3.611   6.366   1.081  1.00  0.00     0.031 C 
ATOM     49  C   UNL     1      -4.854   0.195   3.877  1.00  0.00     0.029 A 
ATOM     50  C   UNL     1      -6.022   0.909   3.370  1.00  0.00     0.049 A 
ATOM     51  H   UNL     1      -6.036   2.700   2.303  1.00  0.00     0.167 HD
ATOM     52  C   UNL     1      -6.013   6.733   0.580  1.00  0.00     0.037 A 
ATOM     53  C   UNL     1      -7.300   0.509   3.507  1.00  0.00     0.037 A 
ATOM     54  C   UNL     1      -7.399   6.345   0.599  1.00  0.00     0.049 A 
ATOM     55  C   UNL     1      -8.407   1.397   3.013  1.00  0.00     0.074 A 
ATOM     56  C   UNL     1      -8.490   7.013   0.070  1.00  0.00     0.029 A 
ATOM     57  N   UNL     1      -7.884   5.186   1.184  1.00  0.00    -0.354 N 
ATOM     58  N   UNL     1      -8.328   2.560   2.413  1.00  0.00    -0.248 NA
ATOM     59  C   UNL     1      -9.781   0.926   3.233  1.00  0.00     0.031 C 
ATOM     60  C   UNL     1      -9.641   6.280   0.376  1.00  0.00     0.029 A 
ATOM     61  C   UNL     1      -9.262   5.135   1.056  1.00  0.00     0.049 A 
ATOM     62  H   UNL     1      -7.331   4.502   1.625  1.00  0.00     0.167 HD
ATOM     63  C   UNL     1      -9.637   2.949   2.163  1.00  0.00     0.074 A 
ATOM     64  C   UNL     1     -10.491   1.894   2.670  1.00  0.00     0.031 C 
ATOM     65  C   UNL     1     -10.094   4.076   1.565  1.00  0.00     0.037 A 
BRANCH  52  66
ATOM     66  C   UNL     1      -5.666   8.060  -0.026  1.00  0.00     0.057 A 
ATOM     67  C   UNL     1      -5.079   8.170  -1.291  1.00  0.00     0.134 A 
ATOM     68  C   UNL     1      -6.001   9.246   0.640  1.00  0.00     0.134 A 
ATOM     69  F   UNL     1      -4.723   7.072  -1.974  1.00  0.00    -0.206 F 
ATOM     70  C   UNL     1      -4.838   9.416  -1.874  1.00  0.00     0.040 A 
ATOM     71  C   UNL     1      -5.781  10.496   0.060  1.00  0.00     0.040 A 
ATOM     72  F   UNL     1      -6.567   9.207   1.856  1.00  0.00    -0.206 F 
ATOM     73  C   UNL     1      -5.199  10.583  -1.202  1.00  0.00     0.006 A 
ENDBRANCH  52  66
BRANCH  53  74
ATOM     74  C   UNL     1      -7.603  -0.762   4.208  1.00  0.00     0.057 A 
ATOM     75  C   UNL     1      -8.115  -1.866   3.519  1.00  0.00     0.134 A 
ATOM     76  C   UNL     1      -7.395  -0.900   5.587  1.00  0.00     0.134 A 
ATOM     77  F   UNL     1      -8.363  -1.784   2.204  1.00  0.00    -0.206 F 
ATOM     78  C   UNL     1      -8.415  -3.060   4.176  1.00  0.00     0.040 A 
ATOM     79  C   UNL     1      -7.665  -2.096   6.251  1.00  0.00     0.040 A 
ATOM     80  F   UNL     1      -6.910   0.124   6.304  1.00  0.00    -0.206 F 
ATOM     81  C   UNL     1      -8.183  -3.180   5.545  1.00  0.00     0.006 A 
ENDBRANCH  53  74
BRANCH  65  82
ATOM     82  C   UNL     1     -11.577   4.203   1.394  1.00  0.00     0.057 A 
ATOM     83  C   UNL     1     -12.420   4.506   2.470  1.00  0.00     0.134 A 
ATOM     84  C   UNL     1     -12.164   4.038   0.134  1.00  0.00     0.134 A 
ATOM     85  F   UNL     1     -11.919   4.661   3.704  1.00  0.00    -0.206 F 
ATOM     86  C   UNL     1     -13.801   4.617   2.301  1.00  0.00     0.040 A 
ATOM     87  C   UNL     1     -13.541   4.169  -0.051  1.00  0.00     0.040 A 
ATOM     88  F   UNL     1     -11.409   3.754  -0.938  1.00  0.00    -0.206 F 
ATOM     89  C   UNL     1     -14.364   4.454   1.036  1.00  0.00     0.006 A 
ENDBRANCH  65  82
ENDBRANCH  39  40
ENDBRANCH  32  34
ENDBRANCH  31  32
ENDBRANCH  30  31
ENDBRANCH  29  30
ENDBRANCH  28  29
ENDBRANCH  27  28
ENDBRANCH   1  27
TORSDOF 23
