REMARK SMILES C[NH2+][C@]1(C(=O)OCCOCCOCCOC(=O)c2ccc(-c3c4nc(c(-c5c(F)cccc5F)c5ccc([nH]5)c(-c5c(F)cccc5F)c5nc(c(-c6c(F)cccc6F)c6ccc3[nH]6)C=C5)C=C4)cc2)CC[C@H](SC2CCCCC2)C1
REMARK SMILES IDX 10 1 9 2 8 3 7 4 6 5 4 6 5 7 3 8 72 9 82 10 73 11 74 12 2 13
REMARK SMILES IDX 1 14 75 17 76 18 77 19 81 20 78 21 80 22 79 23 11 24 12 25
REMARK SMILES IDX 13 26 14 27 15 28 16 29 17 30 18 31 19 32 71 33 20 34 70 35
REMARK SMILES IDX 21 36 22 37 23 38 64 39 24 40 69 41 63 42 65 43 25 44 68 45
REMARK SMILES IDX 62 46 61 47 26 49 52 50 35 51 51 52 36 53 39 54 50 55 66 56
REMARK SMILES IDX 37 57 38 58 49 60 67 61 40 62 27 63 28 64 33 65 29 66 30 67
REMARK SMILES IDX 32 68 34 69 31 70 53 71 54 72 59 73 55 74 56 75 58 76 60 77
REMARK SMILES IDX 57 78 41 79 42 80 47 81 43 82 44 83 46 84 48 85 45 86
REMARK H PARENT 2 15 2 16 65 48 39 59
REMARK Flexibility Score: inf
ROOT
ATOM      1  C   UNL     1       2.265   2.289   0.040  1.00  0.00     0.188 C 
ENDROOT
BRANCH   1   2
ATOM      2  O   UNL     1       3.526   1.783  -0.368  1.00  0.00    -0.376 OA
BRANCH   2   3
ATOM      3  C   UNL     1       3.627   1.116  -1.621  1.00  0.00     0.202 C 
BRANCH   3   4
ATOM      4  C   UNL     1       2.662  -0.038  -1.952  1.00  0.00     0.261 C 
BRANCH   4   5
ATOM      5  O   UNL     1       1.259   0.302  -1.948  1.00  0.00    -0.459 OA
BRANCH   5   6
ATOM      6  C   UNL     1       0.444  -0.450  -1.154  1.00  0.00     0.368 C 
ATOM      7  O   UNL     1       0.834  -1.398  -0.477  1.00  0.00    -0.245 OA
BRANCH   6   8
ATOM      8  C   UNL     1      -1.045   0.001  -1.170  1.00  0.00     0.195 C 
ATOM      9  C   UNL     1      -1.441   1.255  -1.964  1.00  0.00     0.082 C 
ATOM     10  C   UNL     1      -1.839  -1.056  -1.973  1.00  0.00     0.095 C 
ATOM     11  C   UNL     1      -2.927   1.092  -2.258  1.00  0.00     0.022 C 
ATOM     12  C   UNL     1      -3.195  -0.410  -2.319  1.00  0.00     0.054 C 
BRANCH   8  13
ATOM     13  N   UNL     1      -1.606   0.037   0.209  1.00  0.00    -0.335 N 
ATOM     14  C   UNL     1      -0.933   0.894   1.166  1.00  0.00     0.331 C 
ATOM     15  H   UNL     1      -2.574   0.350   0.141  1.00  0.00     0.347 HD
ATOM     16  H   UNL     1      -1.488  -0.910   0.570  1.00  0.00     0.347 HD
ENDBRANCH   8  13
BRANCH  12  17
ATOM     17  S   UNL     1      -4.500  -0.962  -1.144  1.00  0.00    -0.155 SA
BRANCH  17  18
ATOM     18  C   UNL     1      -6.041  -0.203  -1.802  1.00  0.00     0.047 C 
ATOM     19  C   UNL     1      -6.119   1.322  -1.654  1.00  0.00     0.014 C 
ATOM     20  C   UNL     1      -6.333  -0.649  -3.236  1.00  0.00     0.014 C 
ATOM     21  C   UNL     1      -7.462   1.863  -2.140  1.00  0.00     0.001 C 
ATOM     22  C   UNL     1      -7.672  -0.091  -3.720  1.00  0.00     0.001 C 
ATOM     23  C   UNL     1      -7.732   1.427  -3.578  1.00  0.00     0.000 C 
ENDBRANCH  17  18
ENDBRANCH  12  17
ENDBRANCH   6   8
ENDBRANCH   5   6
ENDBRANCH   4   5
ENDBRANCH   3   4
ENDBRANCH   2   3
ENDBRANCH   1   2
BRANCH   1  24
ATOM     24  C   UNL     1       1.397   3.031  -0.983  1.00  0.00     0.188 C 
BRANCH  24  25
ATOM     25  O   UNL     1       1.998   3.343  -2.210  1.00  0.00    -0.376 OA
BRANCH  25  26
ATOM     26  C   UNL     1       2.649   4.579  -2.404  1.00  0.00     0.202 C 
BRANCH  26  27
ATOM     27  C   UNL     1       3.127   5.507  -1.272  1.00  0.00     0.261 C 
BRANCH  27  28
ATOM     28  O   UNL     1       2.575   5.332   0.037  1.00  0.00    -0.460 OA
BRANCH  28  29
ATOM     29  C   UNL     1       1.416   5.973   0.311  1.00  0.00     0.338 C 
ATOM     30  O   UNL     1       0.762   6.668  -0.450  1.00  0.00    -0.246 OA
BRANCH  29  31
ATOM     31  C   UNL     1       0.953   5.526   1.646  1.00  0.00     0.060 A 
ATOM     32  C   UNL     1      -0.314   4.939   1.766  1.00  0.00     0.016 A 
ATOM     33  C   UNL     1       1.763   5.682   2.773  1.00  0.00     0.016 A 
ATOM     34  C   UNL     1      -0.786   4.535   3.019  1.00  0.00     0.010 A 
ATOM     35  C   UNL     1       1.281   5.298   4.029  1.00  0.00     0.010 A 
ATOM     36  C   UNL     1      -0.008   4.749   4.164  1.00  0.00    -0.014 A 
BRANCH  36  37
ATOM     37  C   UNL     1      -0.598   4.578   5.517  1.00  0.00     0.031 A 
ATOM     38  C   UNL     1      -1.150   5.791   6.218  1.00  0.00     0.074 A 
ATOM     39  C   UNL     1      -0.642   3.380   6.127  1.00  0.00     0.049 A 
ATOM     40  N   UNL     1      -1.641   5.905   7.426  1.00  0.00    -0.248 NA
ATOM     41  C   UNL     1      -1.142   7.045   5.449  1.00  0.00     0.031 C 
ATOM     42  C   UNL     1      -0.185   2.118   5.551  1.00  0.00     0.029 A 
ATOM     43  N   UNL     1      -1.084   3.038   7.383  1.00  0.00    -0.354 N 
ATOM     44  C   UNL     1      -1.998   7.241   7.562  1.00  0.00     0.074 A 
ATOM     45  C   UNL     1      -1.639   7.903   6.327  1.00  0.00     0.031 C 
ATOM     46  C   UNL     1      -0.353   1.140   6.460  1.00  0.00     0.029 A 
ATOM     47  C   UNL     1      -0.896   1.713   7.692  1.00  0.00     0.049 A 
ATOM     48  H   UNL     1      -1.496   3.683   8.002  1.00  0.00     0.167 HD
ATOM     49  C   UNL     1      -2.578   7.861   8.618  1.00  0.00     0.037 A 
ATOM     50  C   UNL     1      -1.112   1.046   8.844  1.00  0.00     0.037 A 
ATOM     51  C   UNL     1      -2.923   7.211   9.855  1.00  0.00     0.049 A 
ATOM     52  C   UNL     1      -1.670   1.779  10.040  1.00  0.00     0.074 A 
ATOM     53  C   UNL     1      -3.522   7.758  10.977  1.00  0.00     0.029 A 
ATOM     54  N   UNL     1      -2.686   5.876  10.140  1.00  0.00    -0.354 N 
ATOM     55  N   UNL     1      -2.030   3.035  10.151  1.00  0.00    -0.248 NA
ATOM     56  C   UNL     1      -1.853   0.997  11.273  1.00  0.00     0.031 C 
ATOM     57  C   UNL     1      -3.593   6.768  11.962  1.00  0.00     0.029 A 
ATOM     58  C   UNL     1      -3.098   5.588  11.431  1.00  0.00     0.049 A 
ATOM     59  H   UNL     1      -2.284   5.228   9.517  1.00  0.00     0.167 HD
ATOM     60  C   UNL     1      -2.514   3.182  11.447  1.00  0.00     0.074 A 
ATOM     61  C   UNL     1      -2.410   1.887  12.082  1.00  0.00     0.031 C 
ATOM     62  C   UNL     1      -3.003   4.292  12.055  1.00  0.00     0.037 A 
BRANCH  49  63
ATOM     63  C   UNL     1      -2.845   9.333   8.489  1.00  0.00     0.057 A 
ATOM     64  C   UNL     1      -3.840   9.835   7.640  1.00  0.00     0.134 A 
ATOM     65  C   UNL     1      -2.117  10.258   9.248  1.00  0.00     0.134 A 
ATOM     66  F   UNL     1      -4.564   9.004   6.875  1.00  0.00    -0.206 F 
ATOM     67  C   UNL     1      -4.082  11.205   7.529  1.00  0.00     0.040 A 
ATOM     68  C   UNL     1      -2.369  11.628   9.168  1.00  0.00     0.040 A 
ATOM     69  F   UNL     1      -1.153   9.845  10.085  1.00  0.00    -0.206 F 
ATOM     70  C   UNL     1      -3.350  12.105   8.301  1.00  0.00     0.006 A 
ENDBRANCH  49  63
BRANCH  50  71
ATOM     71  C   UNL     1      -0.782  -0.400   8.946  1.00  0.00     0.057 A 
ATOM     72  C   UNL     1      -1.782  -1.364   9.115  1.00  0.00     0.134 A 
ATOM     73  C   UNL     1       0.545  -0.848   8.923  1.00  0.00     0.134 A 
ATOM     74  F   UNL     1      -3.071  -0.996   9.176  1.00  0.00    -0.206 F 
ATOM     75  C   UNL     1      -1.477  -2.717   9.279  1.00  0.00     0.040 A 
ATOM     76  C   UNL     1       0.864  -2.200   9.057  1.00  0.00     0.040 A 
ATOM     77  F   UNL     1       1.552   0.025   8.771  1.00  0.00    -0.206 F 
ATOM     78  C   UNL     1      -0.149  -3.138   9.245  1.00  0.00     0.006 A 
ENDBRANCH  50  71
BRANCH  62  79
ATOM     79  C   UNL     1      -3.511   4.151  13.463  1.00  0.00     0.057 A 
ATOM     80  C   UNL     1      -2.652   3.946  14.550  1.00  0.00     0.134 A 
ATOM     81  C   UNL     1      -4.881   4.272  13.739  1.00  0.00     0.134 A 
ATOM     82  F   UNL     1      -1.332   3.811  14.357  1.00  0.00    -0.206 F 
ATOM     83  C   UNL     1      -3.138   3.842  15.856  1.00  0.00     0.040 A 
ATOM     84  C   UNL     1      -5.375   4.200  15.043  1.00  0.00     0.040 A 
ATOM     85  F   UNL     1      -5.760   4.482  12.748  1.00  0.00    -0.206 F 
ATOM     86  C   UNL     1      -4.502   3.978  16.105  1.00  0.00     0.006 A 
ENDBRANCH  62  79
ENDBRANCH  36  37
ENDBRANCH  29  31
ENDBRANCH  28  29
ENDBRANCH  27  28
ENDBRANCH  26  27
ENDBRANCH  25  26
ENDBRANCH  24  25
ENDBRANCH   1  24
TORSDOF 20
