REMARK SMILES Cc1cc(C(=O)OCCOCCOCCOC(=O)c2ccc(-c3c4nc(c(-c5c(F)cccc5F)c5ccc([nH]5)c(-c5c(F)cccc5F)c5nc(c(-c6c(F)cccc6F)c6ccc3[nH]6)C=C5)C=C4)cc2)ccc1NC(=O)N1C[C@@H](C)[C@H](C)C1
REMARK SMILES IDX 12 1 11 2 10 3 9 4 8 5 7 6 5 7 6 8 4 9 1 10 2 11 3 12 75 13
REMARK SMILES IDX 74 14 73 15 76 16 77 17 78 19 79 20 80 21 85 22 81 23 83 24
REMARK SMILES IDX 82 25 84 26 13 27 14 28 15 29 16 30 17 31 18 32 19 33 20 34
REMARK SMILES IDX 72 35 21 36 71 37 22 38 23 39 24 40 65 41 25 42 70 43 64 44
REMARK SMILES IDX 66 45 26 46 69 47 63 48 62 49 27 51 53 52 36 53 52 54 37 55
REMARK SMILES IDX 40 56 51 57 67 58 38 59 39 60 50 62 68 63 41 64 28 65 29 66
REMARK SMILES IDX 34 67 30 68 31 69 33 70 35 71 32 72 54 73 55 74 60 75 56 76
REMARK SMILES IDX 57 77 59 78 61 79 58 80 42 81 43 82 48 83 44 84 45 85 47 86
REMARK SMILES IDX 49 87 46 88
REMARK H PARENT 76 18 66 50 40 61
REMARK Flexibility Score: inf
ROOT
ATOM      1  C   UNL     1      -3.752  -5.372  -3.694  1.00  0.00     0.188 C 
ENDROOT
BRANCH   1   2
ATOM      2  C   UNL     1      -3.475  -5.455  -2.204  1.00  0.00     0.188 C 
BRANCH   2   3
ATOM      3  O   UNL     1      -4.126  -4.620  -1.243  1.00  0.00    -0.376 OA
BRANCH   3   4
ATOM      4  C   UNL     1      -5.259  -3.757  -1.370  1.00  0.00     0.202 C 
BRANCH   4   5
ATOM      5  C   UNL     1      -5.258  -2.072  -1.707  1.00  0.00     0.261 C 
BRANCH   5   6
ATOM      6  O   UNL     1      -4.056  -0.992  -1.447  1.00  0.00    -0.460 OA
BRANCH   6   7
ATOM      7  C   UNL     1      -3.334  -0.267  -0.515  1.00  0.00     0.338 C 
ATOM      8  O   UNL     1      -3.687   0.110   0.592  1.00  0.00    -0.246 OA
BRANCH   7   9
ATOM      9  C   UNL     1      -1.980   0.267  -0.920  1.00  0.00     0.060 A 
ATOM     10  C   UNL     1       1.711   0.565   0.281  1.00  0.00     0.046 C 
ATOM     11  C   UNL     1       0.365   0.902  -0.316  1.00  0.00    -0.027 A 
ATOM     12  C   UNL     1      -0.739   0.010  -0.240  1.00  0.00     0.021 A 
ATOM     13  C   UNL     1       0.102   2.127  -0.924  1.00  0.00     0.045 A 
ATOM     14  C   UNL     1      -1.023   2.273  -1.758  1.00  0.00     0.027 A 
ATOM     15  C   UNL     1      -2.057   1.350  -1.768  1.00  0.00     0.018 A 
BRANCH  13  16
ATOM     16  N   UNL     1       0.816   3.290  -0.562  1.00  0.00    -0.308 N 
ATOM     17  C   UNL     1       0.244   4.538  -0.431  1.00  0.00     0.321 C 
ATOM     18  H   UNL     1       1.782   3.204  -0.392  1.00  0.00     0.171 HD
ATOM     19  O   UNL     1       0.895   5.555  -0.659  1.00  0.00    -0.248 OA
ATOM     20  N   UNL     1      -1.079   4.571  -0.042  1.00  0.00    -0.324 N 
ATOM     21  C   UNL     1      -2.043   5.464  -0.643  1.00  0.00     0.125 C 
ATOM     22  C   UNL     1      -1.614   3.921   1.153  1.00  0.00     0.125 C 
ATOM     23  C   UNL     1      -3.239   5.478   0.309  1.00  0.00     0.010 C 
ATOM     24  C   UNL     1      -3.124   4.144   1.073  1.00  0.00     0.010 C 
ATOM     25  C   UNL     1      -4.566   5.622  -0.422  1.00  0.00     0.010 C 
ATOM     26  C   UNL     1      -3.802   4.191   2.438  1.00  0.00     0.010 C 
ENDBRANCH  13  16
ENDBRANCH   7   9
ENDBRANCH   6   7
ENDBRANCH   5   6
ENDBRANCH   4   5
ENDBRANCH   3   4
ENDBRANCH   2   3
ENDBRANCH   1   2
BRANCH   1  27
ATOM     27  O   UNL     1      -4.081  -4.044  -4.048  1.00  0.00    -0.376 OA
BRANCH  27  28
ATOM     28  C   UNL     1      -4.186  -3.821  -5.448  1.00  0.00     0.202 C 
BRANCH  28  29
ATOM     29  C   UNL     1      -2.825  -3.798  -6.182  1.00  0.00     0.261 C 
BRANCH  29  30
ATOM     30  O   UNL     1      -1.912  -2.877  -5.537  1.00  0.00    -0.460 OA
BRANCH  30  31
ATOM     31  C   UNL     1      -0.790  -3.393  -4.909  1.00  0.00     0.338 C 
ATOM     32  O   UNL     1      -0.100  -4.269  -5.334  1.00  0.00    -0.246 OA
BRANCH  31  33
ATOM     33  C   UNL     1      -0.749  -2.876  -3.481  1.00  0.00     0.060 A 
ATOM     34  C   UNL     1       0.016  -3.419  -2.437  1.00  0.00     0.016 A 
ATOM     35  C   UNL     1      -1.829  -2.175  -3.084  1.00  0.00     0.016 A 
ATOM     36  C   UNL     1      -0.447  -3.392  -1.044  1.00  0.00     0.010 A 
ATOM     37  C   UNL     1      -2.326  -2.562  -1.838  1.00  0.00     0.010 A 
ATOM     38  C   UNL     1      -1.739  -3.016  -0.676  1.00  0.00    -0.014 A 
BRANCH  38  39
ATOM     39  C   UNL     1      -2.566  -3.368   0.639  1.00  0.00     0.031 A 
ATOM     40  C   UNL     1      -3.538  -2.550   1.607  1.00  0.00     0.074 A 
ATOM     41  C   UNL     1      -2.464  -4.648   1.064  1.00  0.00     0.049 A 
ATOM     42  N   UNL     1      -3.358  -2.371   2.905  1.00  0.00    -0.248 NA
ATOM     43  C   UNL     1      -4.858  -1.989   1.264  1.00  0.00     0.031 C 
ATOM     44  C   UNL     1      -3.143  -5.292   2.187  1.00  0.00     0.029 A 
ATOM     45  N   UNL     1      -1.557  -5.611   0.615  1.00  0.00    -0.354 N 
ATOM     46  C   UNL     1      -4.477  -1.689   3.436  1.00  0.00     0.074 A 
ATOM     47  C   UNL     1      -5.297  -1.347   2.340  1.00  0.00     0.031 C 
ATOM     48  C   UNL     1      -2.407  -6.353   2.559  1.00  0.00     0.029 A 
ATOM     49  C   UNL     1      -1.204  -6.362   1.741  1.00  0.00     0.049 A 
ATOM     50  H   UNL     1      -1.232  -5.736  -0.305  1.00  0.00     0.167 HD
ATOM     51  C   UNL     1      -4.872  -1.595   4.740  1.00  0.00     0.037 A 
ATOM     52  C   UNL     1       0.084  -6.356   2.178  1.00  0.00     0.037 A 
ATOM     53  C   UNL     1      -4.240  -2.637   5.490  1.00  0.00     0.049 A 
ATOM     54  C   UNL     1       0.208  -5.820   3.583  1.00  0.00     0.074 A 
ATOM     55  C   UNL     1      -4.633  -3.947   5.704  1.00  0.00     0.029 A 
ATOM     56  N   UNL     1      -2.889  -2.560   5.736  1.00  0.00    -0.354 N 
ATOM     57  N   UNL     1      -0.720  -5.133   4.195  1.00  0.00    -0.248 NA
ATOM     58  C   UNL     1       1.394  -6.014   4.410  1.00  0.00     0.031 C 
ATOM     59  C   UNL     1      -3.461  -4.699   5.945  1.00  0.00     0.029 A 
ATOM     60  C   UNL     1      -2.391  -3.822   5.976  1.00  0.00     0.049 A 
ATOM     61  H   UNL     1      -2.360  -1.730   5.741  1.00  0.00     0.167 HD
ATOM     62  C   UNL     1      -0.266  -4.764   5.433  1.00  0.00     0.074 A 
ATOM     63  C   UNL     1       1.049  -5.360   5.531  1.00  0.00     0.031 C 
ATOM     64  C   UNL     1      -0.988  -3.981   6.282  1.00  0.00     0.037 A 
BRANCH  51  65
ATOM     65  C   UNL     1      -6.123  -0.829   5.170  1.00  0.00     0.057 A 
ATOM     66  C   UNL     1      -7.051  -1.328   6.101  1.00  0.00     0.134 A 
ATOM     67  C   UNL     1      -6.460   0.435   4.637  1.00  0.00     0.134 A 
ATOM     68  F   UNL     1      -6.816  -2.456   6.784  1.00  0.00    -0.206 F 
ATOM     69  C   UNL     1      -8.281  -0.695   6.365  1.00  0.00     0.040 A 
ATOM     70  C   UNL     1      -7.702   1.057   4.857  1.00  0.00     0.040 A 
ATOM     71  F   UNL     1      -5.596   1.099   3.853  1.00  0.00    -0.206 F 
ATOM     72  C   UNL     1      -8.632   0.476   5.707  1.00  0.00     0.006 A 
ENDBRANCH  51  65
BRANCH  52  73
ATOM     73  C   UNL     1       1.107  -6.257   1.088  1.00  0.00     0.057 A 
ATOM     74  C   UNL     1       1.038  -7.180   0.020  1.00  0.00     0.134 A 
ATOM     75  C   UNL     1       1.943  -5.152   0.894  1.00  0.00     0.134 A 
ATOM     76  F   UNL     1       0.259  -8.270   0.122  1.00  0.00    -0.206 F 
ATOM     77  C   UNL     1       1.671  -6.965  -1.208  1.00  0.00     0.040 A 
ATOM     78  C   UNL     1       2.603  -4.936  -0.332  1.00  0.00     0.040 A 
ATOM     79  F   UNL     1       2.022  -4.183   1.816  1.00  0.00    -0.206 F 
ATOM     80  C   UNL     1       2.446  -5.828  -1.393  1.00  0.00     0.006 A 
ENDBRANCH  52  73
BRANCH  64  81
ATOM     81  C   UNL     1      -0.460  -3.300   7.513  1.00  0.00     0.057 A 
ATOM     82  C   UNL     1       0.848  -2.813   7.619  1.00  0.00     0.134 A 
ATOM     83  C   UNL     1      -1.336  -2.930   8.560  1.00  0.00     0.134 A 
ATOM     84  F   UNL     1       1.746  -3.002   6.643  1.00  0.00    -0.206 F 
ATOM     85  C   UNL     1       1.272  -2.052   8.714  1.00  0.00     0.040 A 
ATOM     86  C   UNL     1      -0.940  -2.119   9.624  1.00  0.00     0.040 A 
ATOM     87  F   UNL     1      -2.623  -3.311   8.570  1.00  0.00    -0.206 F 
ATOM     88  C   UNL     1       0.374  -1.689   9.711  1.00  0.00     0.006 A 
ENDBRANCH  64  81
ENDBRANCH  38  39
ENDBRANCH  31  33
ENDBRANCH  30  31
ENDBRANCH  29  30
ENDBRANCH  28  29
ENDBRANCH  27  28
ENDBRANCH   1  27
TORSDOF 18
