REMARK SMILES O=C(CC[C@]12C[C@H]3C[C@H](C[C@H](C3)C1)C2)OCCOCCOCCOC(=O)c1ccc(-c2c3nc(c(-c4c(F)cccc4F)c4ccc([nH]4)c(-c4c(F)cccc4F)c4nc(c(-c5c(F)cccc5F)c5ccc2[nH]5)C=C4)C=C3)cc1
REMARK SMILES IDX 19 1 18 2 17 3 16 4 15 5 2 6 1 7 3 8 4 9 5 10 6 11 13 12
REMARK SMILES IDX 14 13 7 14 11 15 9 16 8 17 12 18 10 19 20 20 21 21 22 22
REMARK SMILES IDX 23 23 24 24 25 25 26 26 27 27 28 28 80 29 29 30 79 31 30 32
REMARK SMILES IDX 31 33 32 34 73 35 33 36 78 37 72 38 74 39 34 40 77 41 71 42
REMARK SMILES IDX 70 43 35 45 61 46 44 47 60 48 45 49 48 50 59 51 75 52 46 53
REMARK SMILES IDX 47 54 58 56 76 57 49 58 36 59 37 60 42 61 38 62 39 63 41 64
REMARK SMILES IDX 43 65 40 66 62 67 63 68 68 69 64 70 65 71 67 72 69 73 66 74
REMARK SMILES IDX 50 75 51 76 56 77 52 78 53 79 55 80 57 81 54 82
REMARK H PARENT 74 44 48 55
REMARK Flexibility Score: inf
ROOT
ATOM      1  C   UNL     1       2.311   1.693  -1.689  1.00  0.00     0.188 C 
ENDROOT
BRANCH   1   2
ATOM      2  O   UNL     1       3.709   1.550  -1.523  1.00  0.00    -0.376 OA
BRANCH   2   3
ATOM      3  C   UNL     1       4.254   0.271  -1.782  1.00  0.00     0.202 C 
BRANCH   3   4
ATOM      4  C   UNL     1       3.423  -0.966  -1.396  1.00  0.00     0.261 C 
BRANCH   4   5
ATOM      5  O   UNL     1       2.521  -0.975  -0.246  1.00  0.00    -0.463 OA
BRANCH   5   6
ATOM      6  C   UNL     1       2.526  -0.621   1.050  1.00  0.00     0.305 C 
ATOM      7  O   UNL     1       1.668  -1.098   1.795  1.00  0.00    -0.252 OA
BRANCH   6   8
ATOM      8  C   UNL     1       3.481   0.409   1.594  1.00  0.00     0.123 C 
BRANCH   8   9
ATOM      9  C   UNL     1       4.480  -0.103   2.662  1.00  0.00     0.019 C 
BRANCH   9  10
ATOM     10  C   UNL     1       5.591  -1.073   2.165  1.00  0.00    -0.028 C 
ATOM     11  C   UNL     1       6.909  -0.971   2.967  1.00  0.00     0.010 C 
ATOM     12  C   UNL     1       5.962  -0.731   0.730  1.00  0.00     0.010 C 
ATOM     13  C   UNL     1       5.098  -2.540   2.223  1.00  0.00     0.010 C 
ATOM     14  C   UNL     1       7.981  -1.914   2.357  1.00  0.00    -0.010 C 
ATOM     15  C   UNL     1       6.961  -1.678   0.088  1.00  0.00    -0.010 C 
ATOM     16  C   UNL     1       6.150  -3.492   1.626  1.00  0.00    -0.010 C 
ATOM     17  C   UNL     1       7.464  -3.362   2.412  1.00  0.00     0.007 C 
ATOM     18  C   UNL     1       8.255  -1.553   0.883  1.00  0.00     0.007 C 
ATOM     19  C   UNL     1       6.409  -3.110   0.162  1.00  0.00     0.007 C 
ENDBRANCH   9  10
ENDBRANCH   8   9
ENDBRANCH   6   8
ENDBRANCH   5   6
ENDBRANCH   4   5
ENDBRANCH   3   4
ENDBRANCH   2   3
ENDBRANCH   1   2
BRANCH   1  20
ATOM     20  C   UNL     1       1.716   1.287  -3.047  1.00  0.00     0.188 C 
BRANCH  20  21
ATOM     21  O   UNL     1       2.608   0.571  -3.891  1.00  0.00    -0.376 OA
BRANCH  21  22
ATOM     22  C   UNL     1       3.171   1.295  -4.983  1.00  0.00     0.202 C 
BRANCH  22  23
ATOM     23  C   UNL     1       4.192   2.405  -4.663  1.00  0.00     0.261 C 
BRANCH  23  24
ATOM     24  O   UNL     1       3.767   3.422  -3.743  1.00  0.00    -0.460 OA
BRANCH  24  25
ATOM     25  C   UNL     1       2.740   4.206  -4.119  1.00  0.00     0.338 C 
ATOM     26  O   UNL     1       2.123   4.156  -5.175  1.00  0.00    -0.246 OA
BRANCH  25  27
ATOM     27  C   UNL     1       2.334   5.024  -2.961  1.00  0.00     0.060 A 
ATOM     28  C   UNL     1       1.034   4.870  -2.465  1.00  0.00     0.016 A 
ATOM     29  C   UNL     1       3.217   5.932  -2.367  1.00  0.00     0.016 A 
ATOM     30  C   UNL     1       0.604   5.635  -1.385  1.00  0.00     0.010 A 
ATOM     31  C   UNL     1       2.768   6.737  -1.313  1.00  0.00     0.010 A 
ATOM     32  C   UNL     1       1.447   6.615  -0.846  1.00  0.00    -0.014 A 
BRANCH  32  33
ATOM     33  C   UNL     1       0.826   7.662  -0.002  1.00  0.00     0.031 A 
ATOM     34  C   UNL     1       0.306   8.895  -0.692  1.00  0.00     0.074 A 
ATOM     35  C   UNL     1       0.614   7.477   1.313  1.00  0.00     0.049 A 
ATOM     36  N   UNL     1      -0.356   9.909  -0.199  1.00  0.00    -0.248 NA
ATOM     37  C   UNL     1       0.557   8.987  -2.141  1.00  0.00     0.031 C 
ATOM     38  C   UNL     1       1.022   6.303   2.081  1.00  0.00     0.029 A 
ATOM     39  N   UNL     1      -0.017   8.280   2.230  1.00  0.00    -0.354 N 
ATOM     40  C   UNL     1      -0.619  10.745  -1.278  1.00  0.00     0.074 A 
ATOM     41  C   UNL     1      -0.008  10.146  -2.443  1.00  0.00     0.031 C 
ATOM     42  C   UNL     1       0.635   6.466   3.360  1.00  0.00     0.029 A 
ATOM     43  C   UNL     1      -0.030   7.760   3.501  1.00  0.00     0.049 A 
ATOM     44  H   UNL     1      -0.422   9.147   1.998  1.00  0.00     0.167 HD
ATOM     45  C   UNL     1      -1.323  11.900  -1.302  1.00  0.00     0.037 A 
ATOM     46  C   UNL     1      -0.516   8.280   4.645  1.00  0.00     0.037 A 
ATOM     47  C   UNL     1      -1.914  12.507  -0.141  1.00  0.00     0.049 A 
ATOM     48  C   UNL     1      -1.220   9.614   4.607  1.00  0.00     0.074 A 
ATOM     49  C   UNL     1      -2.627  13.690  -0.054  1.00  0.00     0.029 A 
ATOM     50  N   UNL     1      -1.856  11.979   1.140  1.00  0.00    -0.354 N 
ATOM     51  N   UNL     1      -1.473  10.390   3.580  1.00  0.00    -0.248 NA
ATOM     52  C   UNL     1      -1.716  10.138   5.888  1.00  0.00     0.031 C 
ATOM     53  C   UNL     1      -2.959  13.901   1.288  1.00  0.00     0.029 A 
ATOM     54  C   UNL     1      -2.502  12.822   2.028  1.00  0.00     0.049 A 
ATOM     55  H   UNL     1      -1.419  11.130   1.382  1.00  0.00     0.167 HD
ATOM     56  C   UNL     1      -2.175  11.478   4.086  1.00  0.00     0.074 A 
ATOM     57  C   UNL     1      -2.333  11.246   5.507  1.00  0.00     0.031 C 
ATOM     58  C   UNL     1      -2.645  12.574   3.440  1.00  0.00     0.037 A 
BRANCH  45  59
ATOM     59  C   UNL     1      -1.470  12.590  -2.625  1.00  0.00     0.057 A 
ATOM     60  C   UNL     1      -2.296  12.081  -3.636  1.00  0.00     0.134 A 
ATOM     61  C   UNL     1      -0.802  13.794  -2.882  1.00  0.00     0.134 A 
ATOM     62  F   UNL     1      -2.946  10.920  -3.462  1.00  0.00    -0.206 F 
ATOM     63  C   UNL     1      -2.442  12.738  -4.859  1.00  0.00     0.040 A 
ATOM     64  C   UNL     1      -0.960  14.473  -4.090  1.00  0.00     0.040 A 
ATOM     65  F   UNL     1       0.008  14.334  -1.958  1.00  0.00    -0.206 F 
ATOM     66  C   UNL     1      -1.780  13.943  -5.085  1.00  0.00     0.006 A 
ENDBRANCH  45  59
BRANCH  46  67
ATOM     67  C   UNL     1      -0.334   7.563   5.935  1.00  0.00     0.057 A 
ATOM     68  C   UNL     1      -1.422   7.062   6.660  1.00  0.00     0.134 A 
ATOM     69  C   UNL     1       0.938   7.414   6.503  1.00  0.00     0.134 A 
ATOM     70  F   UNL     1      -2.670   7.197   6.186  1.00  0.00    -0.206 F 
ATOM     71  C   UNL     1      -1.256   6.465   7.912  1.00  0.00     0.040 A 
ATOM     72  C   UNL     1       1.122   6.793   7.739  1.00  0.00     0.040 A 
ATOM     73  F   UNL     1       2.023   7.874   5.863  1.00  0.00    -0.206 F 
ATOM     74  C   UNL     1       0.020   6.327   8.453  1.00  0.00     0.006 A 
ENDBRANCH  46  67
BRANCH  58  75
ATOM     75  C   UNL     1      -3.393  13.586   4.261  1.00  0.00     0.057 A 
ATOM     76  C   UNL     1      -2.750  14.390   5.212  1.00  0.00     0.134 A 
ATOM     77  C   UNL     1      -4.772  13.767   4.091  1.00  0.00     0.134 A 
ATOM     78  F   UNL     1      -1.433  14.262   5.431  1.00  0.00    -0.206 F 
ATOM     79  C   UNL     1      -3.458  15.307   5.991  1.00  0.00     0.040 A 
ATOM     80  C   UNL     1      -5.485  14.703   4.841  1.00  0.00     0.040 A 
ATOM     81  F   UNL     1      -5.449  13.041   3.187  1.00  0.00    -0.206 F 
ATOM     82  C   UNL     1      -4.829  15.467   5.803  1.00  0.00     0.006 A 
ENDBRANCH  58  75
ENDBRANCH  32  33
ENDBRANCH  25  27
ENDBRANCH  24  25
ENDBRANCH  23  24
ENDBRANCH  22  23
ENDBRANCH  21  22
ENDBRANCH  20  21
ENDBRANCH   1  20
TORSDOF 19
