REMARK SMILES O=C(OCCOCCOCCOC(=O)c1cc(Br)cc2c1OCC2)c1ccc(-c2c3nc(c(-c4c(F)cccc4F)c4ccc([nH]4)c(-c4c(F)cccc4F)c4nc(c(-c5c(F)cccc5F)c5ccc2[nH]5)C=C4)C=C3)cc1
REMARK SMILES IDX 7 1 6 2 5 3 4 4 3 5 2 6 1 7 25 8 26 9 78 10 27 11 77 12
REMARK SMILES IDX 28 13 29 14 30 15 71 16 31 17 76 18 70 19 72 20 32 21 75 22
REMARK SMILES IDX 69 23 68 24 33 26 59 27 42 28 58 29 43 30 46 31 57 32 73 33
REMARK SMILES IDX 44 34 45 35 56 37 74 38 47 39 34 40 35 41 40 42 36 43 37 44
REMARK SMILES IDX 39 45 41 46 38 47 60 48 61 49 66 50 62 51 63 52 65 53 67 54
REMARK SMILES IDX 64 55 48 56 49 57 54 58 50 59 51 60 53 61 55 62 52 63 8 64
REMARK SMILES IDX 9 65 10 66 11 67 12 68 13 69 14 70 15 71 16 72 21 73 17 74
REMARK SMILES IDX 20 75 22 76 18 77 19 78 24 79 23 80
REMARK H PARENT 72 25 46 36
REMARK Flexibility Score: inf
ROOT
ATOM      1  C   UNL     1       2.516  -1.878  -1.086  1.00  0.00     0.188 C 
ENDROOT
BRANCH   1   2
ATOM      2  O   UNL     1       3.779  -1.203  -0.993  1.00  0.00    -0.376 OA
BRANCH   2   3
ATOM      3  C   UNL     1       4.610  -1.678   0.068  1.00  0.00     0.202 C 
BRANCH   3   4
ATOM      4  C   UNL     1       4.457  -0.886   1.369  1.00  0.00     0.261 C 
BRANCH   4   5
ATOM      5  O   UNL     1       3.084  -0.544   1.619  1.00  0.00    -0.460 OA
BRANCH   5   6
ATOM      6  C   UNL     1       2.452   0.617   1.316  1.00  0.00     0.338 C 
ATOM      7  O   UNL     1       1.252   0.724   1.562  1.00  0.00    -0.246 OA
BRANCH   6   8
ATOM      8  C   UNL     1       3.153   1.821   0.773  1.00  0.00     0.060 A 
ATOM      9  C   UNL     1       4.232   1.797  -0.111  1.00  0.00     0.016 A 
ATOM     10  C   UNL     1       2.620   3.073   1.130  1.00  0.00     0.016 A 
ATOM     11  C   UNL     1       4.856   2.975  -0.516  1.00  0.00     0.010 A 
ATOM     12  C   UNL     1       3.193   4.260   0.663  1.00  0.00     0.010 A 
ATOM     13  C   UNL     1       4.351   4.215  -0.120  1.00  0.00    -0.014 A 
BRANCH  13  14
ATOM     14  C   UNL     1       5.119   5.444  -0.422  1.00  0.00     0.031 A 
ATOM     15  C   UNL     1       5.825   6.149   0.701  1.00  0.00     0.074 A 
ATOM     16  C   UNL     1       5.258   5.871  -1.690  1.00  0.00     0.049 A 
ATOM     17  N   UNL     1       6.525   7.253   0.679  1.00  0.00    -0.248 NA
ATOM     18  C   UNL     1       5.737   5.519   2.029  1.00  0.00     0.031 C 
ATOM     19  C   UNL     1       4.685   5.223  -2.871  1.00  0.00     0.029 A 
ATOM     20  N   UNL     1       5.946   6.942  -2.198  1.00  0.00    -0.354 N 
ATOM     21  C   UNL     1       6.944   7.458   1.987  1.00  0.00     0.074 A 
ATOM     22  C   UNL     1       6.402   6.380   2.784  1.00  0.00     0.031 C 
ATOM     23  C   UNL     1       5.063   5.901  -3.967  1.00  0.00     0.029 A 
ATOM     24  C   UNL     1       5.861   7.051  -3.564  1.00  0.00     0.049 A 
ATOM     25  H   UNL     1       6.452   7.573  -1.637  1.00  0.00     0.167 HD
ATOM     26  C   UNL     1       7.719   8.452   2.479  1.00  0.00     0.037 A 
ATOM     27  C   UNL     1       6.360   7.987  -4.391  1.00  0.00     0.037 A 
ATOM     28  C   UNL     1       8.263   9.516   1.683  1.00  0.00     0.049 A 
ATOM     29  C   UNL     1       7.159   9.119  -3.813  1.00  0.00     0.074 A 
ATOM     30  C   UNL     1       9.023  10.599   2.086  1.00  0.00     0.029 A 
ATOM     31  N   UNL     1       8.106   9.622   0.309  1.00  0.00    -0.354 N 
ATOM     32  N   UNL     1       7.499   9.334  -2.565  1.00  0.00    -0.248 NA
ATOM     33  C   UNL     1       7.633  10.141  -4.755  1.00  0.00     0.031 C 
ATOM     34  C   UNL     1       9.305  11.376   0.955  1.00  0.00     0.029 A 
ATOM     35  C   UNL     1       8.746  10.758  -0.153  1.00  0.00     0.049 A 
ATOM     36  H   UNL     1       7.611   8.984  -0.254  1.00  0.00     0.167 HD
ATOM     37  C   UNL     1       8.231  10.513  -2.571  1.00  0.00     0.074 A 
ATOM     38  C   UNL     1       8.301  10.955  -3.950  1.00  0.00     0.031 C 
ATOM     39  C   UNL     1       8.792  11.174  -1.530  1.00  0.00     0.037 A 
BRANCH  26  40
ATOM     40  C   UNL     1       7.977   8.436   3.955  1.00  0.00     0.057 A 
ATOM     41  C   UNL     1       8.867   7.525   4.540  1.00  0.00     0.134 A 
ATOM     42  C   UNL     1       7.297   9.316   4.805  1.00  0.00     0.134 A 
ATOM     43  F   UNL     1       9.526   6.636   3.781  1.00  0.00    -0.206 F 
ATOM     44  C   UNL     1       9.051   7.473   5.923  1.00  0.00     0.040 A 
ATOM     45  C   UNL     1       7.487   9.285   6.188  1.00  0.00     0.040 A 
ATOM     46  F   UNL     1       6.426  10.206   4.308  1.00  0.00    -0.206 F 
ATOM     47  C   UNL     1       8.361   8.356   6.750  1.00  0.00     0.006 A 
ENDBRANCH  26  40
BRANCH  27  48
ATOM     48  C   UNL     1       6.089   7.923  -5.847  1.00  0.00     0.057 A 
ATOM     49  C   UNL     1       7.085   7.555  -6.757  1.00  0.00     0.134 A 
ATOM     50  C   UNL     1       4.832   8.259  -6.362  1.00  0.00     0.134 A 
ATOM     51  F   UNL     1       8.316   7.247  -6.322  1.00  0.00    -0.206 F 
ATOM     52  C   UNL     1       6.844   7.532  -8.132  1.00  0.00     0.040 A 
ATOM     53  C   UNL     1       4.575   8.234  -7.733  1.00  0.00     0.040 A 
ATOM     54  F   UNL     1       3.837   8.616  -5.537  1.00  0.00    -0.206 F 
ATOM     55  C   UNL     1       5.583   7.869  -8.623  1.00  0.00     0.006 A 
ENDBRANCH  27  48
BRANCH  39  56
ATOM     56  C   UNL     1       9.532  12.433  -1.853  1.00  0.00     0.057 A 
ATOM     57  C   UNL     1       8.856  13.628  -2.127  1.00  0.00     0.134 A 
ATOM     58  C   UNL     1      10.931  12.457  -1.858  1.00  0.00     0.134 A 
ATOM     59  F   UNL     1       7.515  13.659  -2.151  1.00  0.00    -0.206 F 
ATOM     60  C   UNL     1       9.549  14.804  -2.410  1.00  0.00     0.040 A 
ATOM     61  C   UNL     1      11.635  13.632  -2.122  1.00  0.00     0.040 A 
ATOM     62  F   UNL     1      11.633  11.343  -1.600  1.00  0.00    -0.206 F 
ATOM     63  C   UNL     1      10.943  14.809  -2.402  1.00  0.00     0.006 A 
ENDBRANCH  39  56
ENDBRANCH  13  14
ENDBRANCH   6   8
ENDBRANCH   5   6
ENDBRANCH   4   5
ENDBRANCH   3   4
ENDBRANCH   2   3
ENDBRANCH   1   2
BRANCH   1  64
ATOM     64  C   UNL     1       2.019  -1.913  -2.534  1.00  0.00     0.188 C 
BRANCH  64  65
ATOM     65  O   UNL     1       2.747  -2.795  -3.394  1.00  0.00    -0.376 OA
BRANCH  65  66
ATOM     66  C   UNL     1       4.106  -2.451  -3.651  1.00  0.00     0.202 C 
BRANCH  66  67
ATOM     67  C   UNL     1       4.346  -1.301  -4.635  1.00  0.00     0.261 C 
BRANCH  67  68
ATOM     68  O   UNL     1       3.744  -0.046  -4.266  1.00  0.00    -0.460 OA
BRANCH  68  69
ATOM     69  C   UNL     1       2.764   0.370  -5.104  1.00  0.00     0.342 C 
ATOM     70  O   UNL     1       2.315  -0.230  -6.074  1.00  0.00    -0.246 OA
BRANCH  69  71
ATOM     71  C   UNL     1       2.402   1.770  -4.859  1.00  0.00     0.103 A 
ATOM     72  C   UNL     1       2.724   2.693  -5.864  1.00  0.00     0.035 A 
ATOM     73  C   UNL     1       1.597   2.182  -3.809  1.00  0.00     0.137 A 
ATOM     74  C   UNL     1       2.231   4.000  -5.799  1.00  0.00     0.019 A 
ATOM     75  C   UNL     1       1.121   3.487  -3.751  1.00  0.00    -0.000 A 
ATOM     76  O   UNL     1       1.110   1.391  -2.805  1.00  0.00    -0.492 OA
ATOM     77  Br  UNL     1       2.579   5.185  -7.228  1.00  0.00    -0.051 Br
ATOM     78  C   UNL     1       1.430   4.415  -4.735  1.00  0.00     0.023 A 
ATOM     79  C   UNL     1       0.184   3.638  -2.616  1.00  0.00     0.081 C 
ATOM     80  C   UNL     1       0.366   2.281  -1.941  1.00  0.00     0.234 C 
ENDBRANCH  69  71
ENDBRANCH  68  69
ENDBRANCH  67  68
ENDBRANCH  66  67
ENDBRANCH  65  66
ENDBRANCH  64  65
ENDBRANCH   1  64
TORSDOF 17
