REMARK SMILES O=C(NCc1ccc(C(=O)OCCOCCOCCOC(=O)c2ccc(-c3c4nc(c(-c5c(F)cccc5F)c5ccc([nH]5)c(-c5c(F)cccc5F)c5nc(c(-c6c(F)cccc6F)c6ccc3[nH]6)C=C5)C=C4)cc2)o1)c1cccnc1
REMARK SMILES IDX 15 1 14 2 13 3 12 4 11 5 9 6 10 7 8 8 5 9 6 10 77 11 7 12
REMARK SMILES IDX 4 13 3 14 1 15 2 16 78 18 79 19 83 20 80 21 82 22 81 23
REMARK SMILES IDX 16 24 17 25 18 26 19 27 20 28 21 29 22 30 23 31 24 32 76 33
REMARK SMILES IDX 25 34 75 35 26 36 27 37 28 38 69 39 29 40 74 41 68 42 70 43
REMARK SMILES IDX 30 44 73 45 67 46 66 47 31 49 57 50 40 51 56 52 41 53 44 54
REMARK SMILES IDX 55 55 71 56 42 57 43 58 54 60 72 61 45 62 32 63 33 64 38 65
REMARK SMILES IDX 34 66 35 67 37 68 39 69 36 70 58 71 59 72 64 73 60 74 61 75
REMARK SMILES IDX 63 76 65 77 62 78 46 79 47 80 52 81 48 82 49 83 51 84 53 85
REMARK SMILES IDX 50 86
REMARK H PARENT 3 17 70 48 44 59
REMARK Flexibility Score: inf
ROOT
ATOM      1  C   UNL     1       2.932  -6.676   0.048  1.00  0.00     0.188 C 
ENDROOT
BRANCH   1   2
ATOM      2  O   UNL     1       3.168  -7.960  -0.522  1.00  0.00    -0.376 OA
BRANCH   2   3
ATOM      3  C   UNL     1       4.407  -8.619  -0.293  1.00  0.00     0.202 C 
BRANCH   3   4
ATOM      4  C   UNL     1       5.632  -8.010  -0.975  1.00  0.00     0.261 C 
BRANCH   4   5
ATOM      5  O   UNL     1       5.929  -6.697  -0.472  1.00  0.00    -0.457 OA
BRANCH   5   6
ATOM      6  C   UNL     1       5.859  -5.680  -1.380  1.00  0.00     0.374 C 
ATOM      7  O   UNL     1       5.702  -5.828  -2.586  1.00  0.00    -0.242 OA
BRANCH   6   8
ATOM      8  C   UNL     1       5.887  -4.411  -0.690  1.00  0.00     0.211 A 
ATOM      9  C   UNL     1       5.392  -2.271  -0.471  1.00  0.00     0.124 A 
ATOM     10  C   UNL     1       6.002  -2.648   0.706  1.00  0.00     0.048 A 
ATOM     11  O   UNL     1       5.330  -3.331  -1.323  1.00  0.00    -0.452 OA
ATOM     12  C   UNL     1       6.324  -4.021   0.565  1.00  0.00     0.058 A 
BRANCH   9  13
ATOM     13  C   UNL     1       4.840  -0.989  -0.972  1.00  0.00     0.191 C 
BRANCH  13  14
ATOM     14  N   UNL     1       3.405  -0.974  -0.757  1.00  0.00    -0.345 N 
ATOM     15  O   UNL     1       1.447  -0.551   0.257  1.00  0.00    -0.269 OA
ATOM     16  C   UNL     1       2.635  -0.268   0.127  1.00  0.00     0.253 C 
ATOM     17  H   UNL     1       2.898  -1.576  -1.350  1.00  0.00     0.164 HD
BRANCH  16  18
ATOM     18  C   UNL     1       3.199   0.799   0.970  1.00  0.00     0.058 A 
ATOM     19  C   UNL     1       2.822   0.877   2.312  1.00  0.00     0.017 A 
ATOM     20  C   UNL     1       4.028   1.791   0.470  1.00  0.00     0.124 A 
ATOM     21  C   UNL     1       3.341   1.893   3.111  1.00  0.00     0.021 A 
ATOM     22  N   UNL     1       4.570   2.775   1.229  1.00  0.00    -0.264 NA
ATOM     23  C   UNL     1       4.215   2.800   2.533  1.00  0.00     0.111 A 
ENDBRANCH  16  18
ENDBRANCH  13  14
ENDBRANCH   9  13
ENDBRANCH   6   8
ENDBRANCH   5   6
ENDBRANCH   4   5
ENDBRANCH   3   4
ENDBRANCH   2   3
ENDBRANCH   1   2
BRANCH   1  24
ATOM     24  C   UNL     1       3.462  -6.355   1.458  1.00  0.00     0.188 C 
BRANCH  24  25
ATOM     25  O   UNL     1       3.609  -7.497   2.291  1.00  0.00    -0.376 OA
BRANCH  25  26
ATOM     26  C   UNL     1       2.796  -7.521   3.456  1.00  0.00     0.202 C 
BRANCH  26  27
ATOM     27  C   UNL     1       1.397  -8.066   3.163  1.00  0.00     0.261 C 
BRANCH  27  28
ATOM     28  O   UNL     1       0.623  -7.250   2.269  1.00  0.00    -0.460 OA
BRANCH  28  29
ATOM     29  C   UNL     1       0.284  -6.017   2.707  1.00  0.00     0.338 C 
ATOM     30  O   UNL     1       0.557  -5.511   3.780  1.00  0.00    -0.246 OA
BRANCH  29  31
ATOM     31  C   UNL     1      -0.356  -5.311   1.581  1.00  0.00     0.060 A 
ATOM     32  C   UNL     1       0.150  -4.071   1.181  1.00  0.00     0.016 A 
ATOM     33  C   UNL     1      -1.442  -5.887   0.914  1.00  0.00     0.016 A 
ATOM     34  C   UNL     1      -0.437  -3.401   0.105  1.00  0.00     0.010 A 
ATOM     35  C   UNL     1      -2.035  -5.207  -0.150  1.00  0.00     0.010 A 
ATOM     36  C   UNL     1      -1.543  -3.956  -0.552  1.00  0.00    -0.014 A 
BRANCH  36  37
ATOM     37  C   UNL     1      -2.264  -3.186  -1.591  1.00  0.00     0.031 A 
ATOM     38  C   UNL     1      -3.443  -2.349  -1.189  1.00  0.00     0.074 A 
ATOM     39  C   UNL     1      -1.891  -3.252  -2.880  1.00  0.00     0.049 A 
ATOM     40  N   UNL     1      -4.275  -1.673  -1.939  1.00  0.00    -0.248 NA
ATOM     41  C   UNL     1      -3.726  -2.272   0.253  1.00  0.00     0.031 C 
ATOM     42  C   UNL     1      -0.744  -3.998  -3.393  1.00  0.00     0.029 A 
ATOM     43  N   UNL     1      -2.458  -2.691  -3.997  1.00  0.00    -0.354 N 
ATOM     44  C   UNL     1      -5.176  -1.085  -1.062  1.00  0.00     0.074 A 
ATOM     45  C   UNL     1      -4.808  -1.507   0.273  1.00  0.00     0.031 C 
ATOM     46  C   UNL     1      -0.700  -3.861  -4.730  1.00  0.00     0.029 A 
ATOM     47  C   UNL     1      -1.833  -3.046  -5.166  1.00  0.00     0.049 A 
ATOM     48  H   UNL     1      -3.238  -2.091  -3.963  1.00  0.00     0.167 HD
ATOM     49  C   UNL     1      -6.213  -0.262  -1.344  1.00  0.00     0.037 A 
ATOM     50  C   UNL     1      -2.157  -2.767  -6.443  1.00  0.00     0.037 A 
ATOM     51  C   UNL     1      -6.589   0.150  -2.669  1.00  0.00     0.049 A 
ATOM     52  C   UNL     1      -3.377  -1.936  -6.738  1.00  0.00     0.074 A 
ATOM     53  C   UNL     1      -7.611   1.001  -3.052  1.00  0.00     0.029 A 
ATOM     54  N   UNL     1      -5.963  -0.273  -3.832  1.00  0.00    -0.354 N 
ATOM     55  N   UNL     1      -4.211  -1.365  -5.904  1.00  0.00    -0.248 NA
ATOM     56  C   UNL     1      -3.707  -1.721  -8.155  1.00  0.00     0.031 C 
ATOM     57  C   UNL     1      -7.631   1.058  -4.450  1.00  0.00     0.029 A 
ATOM     58  C   UNL     1      -6.598   0.273  -4.935  1.00  0.00     0.049 A 
ATOM     59  H   UNL     1      -5.183  -0.872  -3.867  1.00  0.00     0.167 HD
ATOM     60  C   UNL     1      -5.150  -0.709  -6.690  1.00  0.00     0.074 A 
ATOM     61  C   UNL     1      -4.780  -0.946  -8.070  1.00  0.00     0.031 C 
ATOM     62  C   UNL     1      -6.222   0.025  -6.303  1.00  0.00     0.037 A 
BRANCH  49  63
ATOM     63  C   UNL     1      -7.028   0.225  -0.186  1.00  0.00     0.057 A 
ATOM     64  C   UNL     1      -6.548   1.206   0.691  1.00  0.00     0.134 A 
ATOM     65  C   UNL     1      -8.310  -0.286   0.050  1.00  0.00     0.134 A 
ATOM     66  F   UNL     1      -5.322   1.724   0.527  1.00  0.00    -0.206 F 
ATOM     67  C   UNL     1      -7.307   1.646   1.777  1.00  0.00     0.040 A 
ATOM     68  C   UNL     1      -9.086   0.160   1.120  1.00  0.00     0.040 A 
ATOM     69  F   UNL     1      -8.827  -1.227  -0.755  1.00  0.00    -0.206 F 
ATOM     70  C   UNL     1      -8.582   1.125   1.991  1.00  0.00     0.006 A 
ENDBRANCH  49  63
BRANCH  50  71
ATOM     71  C   UNL     1      -1.327  -3.298  -7.551  1.00  0.00     0.057 A 
ATOM     72  C   UNL     1      -0.509  -2.453  -8.309  1.00  0.00     0.134 A 
ATOM     73  C   UNL     1      -1.345  -4.657  -7.888  1.00  0.00     0.134 A 
ATOM     74  F   UNL     1      -0.473  -1.138  -8.050  1.00  0.00    -0.206 F 
ATOM     75  C   UNL     1       0.258  -2.939  -9.369  1.00  0.00     0.040 A 
ATOM     76  C   UNL     1      -0.568  -5.159  -8.933  1.00  0.00     0.040 A 
ATOM     77  F   UNL     1      -2.115  -5.514  -7.204  1.00  0.00    -0.206 F 
ATOM     78  C   UNL     1       0.233  -4.297  -9.680  1.00  0.00     0.006 A 
ENDBRANCH  50  71
BRANCH  62  79
ATOM     79  C   UNL     1      -7.063   0.638  -7.382  1.00  0.00     0.057 A 
ATOM     80  C   UNL     1      -7.962  -0.126  -8.136  1.00  0.00     0.134 A 
ATOM     81  C   UNL     1      -7.009   2.014  -7.636  1.00  0.00     0.134 A 
ATOM     82  F   UNL     1      -8.050  -1.452  -7.949  1.00  0.00    -0.206 F 
ATOM     83  C   UNL     1      -8.771   0.456  -9.113  1.00  0.00     0.040 A 
ATOM     84  C   UNL     1      -7.828   2.611  -8.596  1.00  0.00     0.040 A 
ATOM     85  F   UNL     1      -6.174   2.803  -6.944  1.00  0.00    -0.206 F 
ATOM     86  C   UNL     1      -8.710   1.830  -9.340  1.00  0.00     0.006 A 
ENDBRANCH  62  79
ENDBRANCH  36  37
ENDBRANCH  29  31
ENDBRANCH  28  29
ENDBRANCH  27  28
ENDBRANCH  26  27
ENDBRANCH  25  26
ENDBRANCH  24  25
ENDBRANCH   1  24
TORSDOF 20
