REMARK SMILES C[C@H]1C[NH+](CC[C@@H]2CCC[C@]2([NH3+])C(=O)OCCOCCOCCOC(=O)c2ccc(-c3c4nc(c(-c5c(F)cccc5F)c5ccc([nH]5)c(-c5c(F)cccc5F)c5nc(c(-c6c(F)cccc6F)c6ccc3[nH]6)C=C5)C=C4)cc2)C[C@H](C)O1
REMARK SMILES IDX 19 1 18 2 17 3 16 4 15 5 13 6 14 7 11 8 7 9 8 10 9 11 10 12
REMARK SMILES IDX 6 13 5 14 4 15 1 16 2 17 3 18 84 19 82 20 81 21 83 23 12 24
REMARK SMILES IDX 20 28 21 29 22 30 23 31 24 32 25 33 26 34 27 35 28 36 80 37
REMARK SMILES IDX 29 38 79 39 30 40 31 41 32 42 73 43 33 44 78 45 72 46 74 47
REMARK SMILES IDX 34 48 77 49 71 50 70 51 35 53 61 54 44 55 60 56 45 57 48 58
REMARK SMILES IDX 59 59 75 60 46 61 47 62 58 64 76 65 49 66 36 67 37 68 42 69
REMARK SMILES IDX 38 70 39 71 41 72 43 73 40 74 62 75 63 76 68 77 64 78 65 79
REMARK SMILES IDX 67 80 69 81 66 82 50 83 51 84 56 85 52 86 53 87 55 88 57 89
REMARK SMILES IDX 54 90
REMARK H PARENT 4 22 12 25 12 26 12 27 74 52 48 63
REMARK Flexibility Score: inf
ROOT
ATOM      1  C   UNL     1      -1.980  -4.607   7.327  1.00  0.00     0.188 C 
ENDROOT
BRANCH   1   2
ATOM      2  O   UNL     1      -0.779  -4.765   8.072  1.00  0.00    -0.376 OA
BRANCH   2   3
ATOM      3  C   UNL     1       0.390  -4.057   7.695  1.00  0.00     0.202 C 
BRANCH   3   4
ATOM      4  C   UNL     1       1.074  -4.451   6.377  1.00  0.00     0.261 C 
BRANCH   4   5
ATOM      5  O   UNL     1       0.267  -4.384   5.181  1.00  0.00    -0.459 OA
BRANCH   5   6
ATOM      6  C   UNL     1      -0.237  -5.561   4.726  1.00  0.00     0.368 C 
ATOM      7  O   UNL     1      -0.062  -6.626   5.312  1.00  0.00    -0.245 OA
BRANCH   6   8
ATOM      8  C   UNL     1      -0.920  -5.464   3.308  1.00  0.00     0.195 C 
ATOM      9  C   UNL     1      -1.755  -4.224   2.791  1.00  0.00     0.068 C 
ATOM     10  C   UNL     1      -3.240  -4.537   3.115  1.00  0.00     0.011 C 
ATOM     11  C   UNL     1      -3.275  -5.919   3.730  1.00  0.00     0.008 C 
ATOM     12  C   UNL     1      -2.003  -6.579   3.246  1.00  0.00     0.081 C 
BRANCH   9  13
ATOM     13  C   UNL     1      -1.511  -2.702   3.016  1.00  0.00     0.072 C 
BRANCH  13  14
ATOM     14  C   UNL     1      -0.116  -2.065   3.077  1.00  0.00     0.262 C 
BRANCH  14  15
ATOM     15  N   UNL     1       0.661  -1.904   1.848  1.00  0.00    -0.331 N 
ATOM     16  C   UNL     1       0.940   0.497  -1.063  1.00  0.00     0.045 C 
ATOM     17  C   UNL     1       1.230  -0.699  -0.172  1.00  0.00     0.170 C 
ATOM     18  C   UNL     1       0.194  -0.831   0.963  1.00  0.00     0.294 C 
ATOM     19  O   UNL     1       1.213  -1.870  -1.006  1.00  0.00    -0.364 OA
ATOM     20  C   UNL     1       1.488  -3.074  -0.283  1.00  0.00     0.170 C 
ATOM     21  C   UNL     1       0.790  -3.138   1.084  1.00  0.00     0.294 C 
ATOM     22  H   UNL     1       1.581  -1.632   2.195  1.00  0.00     0.348 HD
ATOM     23  C   UNL     1       2.979  -3.348  -0.185  1.00  0.00     0.045 C 
ENDBRANCH  14  15
ENDBRANCH  13  14
ENDBRANCH   9  13
BRANCH   8  24
ATOM     24  N   UNL     1       0.099  -5.937   2.341  1.00  0.00    -0.343 N 
ATOM     25  H   UNL     1      -0.285  -5.898   1.397  1.00  0.00     0.345 HD
ATOM     26  H   UNL     1       0.358  -6.898   2.563  1.00  0.00     0.345 HD
ATOM     27  H   UNL     1       0.924  -5.340   2.398  1.00  0.00     0.345 HD
ENDBRANCH   8  24
ENDBRANCH   6   8
ENDBRANCH   5   6
ENDBRANCH   4   5
ENDBRANCH   3   4
ENDBRANCH   2   3
ENDBRANCH   1   2
BRANCH   1  28
ATOM     28  C   UNL     1      -2.174  -3.382   6.431  1.00  0.00     0.188 C 
BRANCH  28  29
ATOM     29  O   UNL     1      -1.582  -2.189   6.909  1.00  0.00    -0.376 OA
BRANCH  29  30
ATOM     30  C   UNL     1      -2.474  -1.101   7.099  1.00  0.00     0.202 C 
BRANCH  30  31
ATOM     31  C   UNL     1      -3.337  -1.281   8.353  1.00  0.00     0.261 C 
BRANCH  31  32
ATOM     32  O   UNL     1      -4.207  -2.434   8.325  1.00  0.00    -0.460 OA
BRANCH  32  33
ATOM     33  C   UNL     1      -5.186  -2.441   7.392  1.00  0.00     0.338 C 
ATOM     34  O   UNL     1      -5.454  -1.538   6.612  1.00  0.00    -0.246 OA
BRANCH  33  35
ATOM     35  C   UNL     1      -5.717  -3.820   7.271  1.00  0.00     0.060 A 
ATOM     36  C   UNL     1      -5.727  -4.415   6.004  1.00  0.00     0.016 A 
ATOM     37  C   UNL     1      -6.182  -4.535   8.375  1.00  0.00     0.016 A 
ATOM     38  C   UNL     1      -6.184  -5.723   5.833  1.00  0.00     0.010 A 
ATOM     39  C   UNL     1      -6.682  -5.834   8.197  1.00  0.00     0.010 A 
ATOM     40  C   UNL     1      -6.694  -6.434   6.924  1.00  0.00    -0.014 A 
BRANCH  40  41
ATOM     41  C   UNL     1      -7.429  -7.705   6.689  1.00  0.00     0.031 A 
ATOM     42  C   UNL     1      -8.926  -7.642   6.550  1.00  0.00     0.074 A 
ATOM     43  C   UNL     1      -6.802  -8.888   6.553  1.00  0.00     0.049 A 
ATOM     44  N   UNL     1      -9.797  -8.612   6.446  1.00  0.00    -0.248 NA
ATOM     45  C   UNL     1      -9.514  -6.294   6.514  1.00  0.00     0.031 C 
ATOM     46  C   UNL     1      -5.355  -9.091   6.559  1.00  0.00     0.029 A 
ATOM     47  N   UNL     1      -7.318 -10.153   6.387  1.00  0.00    -0.354 N 
ATOM     48  C   UNL     1     -11.037  -7.993   6.352  1.00  0.00     0.074 A 
ATOM     49  C   UNL     1     -10.806  -6.567   6.423  1.00  0.00     0.031 C 
ATOM     50  C   UNL     1      -5.100 -10.406   6.428  1.00  0.00     0.029 A 
ATOM     51  C   UNL     1      -6.363 -11.142   6.376  1.00  0.00     0.049 A 
ATOM     52  H   UNL     1      -8.281 -10.333   6.286  1.00  0.00     0.167 HD
ATOM     53  C   UNL     1     -12.260  -8.560   6.222  1.00  0.00     0.037 A 
ATOM     54  C   UNL     1      -6.497 -12.485   6.365  1.00  0.00     0.037 A 
ATOM     55  C   UNL     1     -12.496  -9.978   6.155  1.00  0.00     0.049 A 
ATOM     56  C   UNL     1      -7.876 -13.099   6.342  1.00  0.00     0.074 A 
ATOM     57  C   UNL     1     -13.703 -10.645   6.035  1.00  0.00     0.029 A 
ATOM     58  N   UNL     1     -11.507 -10.947   6.211  1.00  0.00    -0.354 N 
ATOM     59  N   UNL     1      -9.047 -12.511   6.276  1.00  0.00    -0.248 NA
ATOM     60  C   UNL     1      -7.952 -14.568   6.400  1.00  0.00     0.031 C 
ATOM     61  C   UNL     1     -13.449 -12.019   6.081  1.00  0.00     0.029 A 
ATOM     62  C   UNL     1     -12.079 -12.208   6.160  1.00  0.00     0.049 A 
ATOM     63  H   UNL     1     -10.541 -10.767   6.278  1.00  0.00     0.167 HD
ATOM     64  C   UNL     1      -9.990 -13.533   6.250  1.00  0.00     0.074 A 
ATOM     65  C   UNL     1      -9.257 -14.780   6.295  1.00  0.00     0.031 C 
ATOM     66  C   UNL     1     -11.342 -13.447   6.192  1.00  0.00     0.037 A 
BRANCH  53  67
ATOM     67  C   UNL     1     -13.445  -7.639   6.201  1.00  0.00     0.057 A 
ATOM     68  C   UNL     1     -13.721  -6.801   5.113  1.00  0.00     0.134 A 
ATOM     69  C   UNL     1     -14.330  -7.602   7.286  1.00  0.00     0.134 A 
ATOM     70  F   UNL     1     -12.902  -6.772   4.051  1.00  0.00    -0.206 F 
ATOM     71  C   UNL     1     -14.820  -5.941   5.117  1.00  0.00     0.040 A 
ATOM     72  C   UNL     1     -15.449  -6.769   7.288  1.00  0.00     0.040 A 
ATOM     73  F   UNL     1     -14.125  -8.381   8.359  1.00  0.00    -0.206 F 
ATOM     74  C   UNL     1     -15.692  -5.929   6.204  1.00  0.00     0.006 A 
ENDBRANCH  53  67
BRANCH  54  75
ATOM     75  C   UNL     1      -5.295 -13.362   6.430  1.00  0.00     0.057 A 
ATOM     76  C   UNL     1      -4.953 -14.211   5.370  1.00  0.00     0.134 A 
ATOM     77  C   UNL     1      -4.496 -13.416   7.579  1.00  0.00     0.134 A 
ATOM     78  F   UNL     1      -5.699 -14.235   4.256  1.00  0.00    -0.206 F 
ATOM     79  C   UNL     1      -3.874 -15.095   5.458  1.00  0.00     0.040 A 
ATOM     80  C   UNL     1      -3.397 -14.272   7.668  1.00  0.00     0.040 A 
ATOM     81  F   UNL     1      -4.776 -12.640   8.636  1.00  0.00    -0.206 F 
ATOM     82  C   UNL     1      -3.089 -15.122   6.609  1.00  0.00     0.006 A 
ENDBRANCH  54  75
BRANCH  66  83
ATOM     83  C   UNL     1     -12.124 -14.729   6.121  1.00  0.00     0.057 A 
ATOM     84  C   UNL     1     -12.235 -15.598   7.215  1.00  0.00     0.134 A 
ATOM     85  C   UNL     1     -12.820 -15.074   4.954  1.00  0.00     0.134 A 
ATOM     86  F   UNL     1     -11.588 -15.335   8.360  1.00  0.00    -0.206 F 
ATOM     87  C   UNL     1     -12.988 -16.772   7.142  1.00  0.00     0.040 A 
ATOM     88  C   UNL     1     -13.601 -16.229   4.879  1.00  0.00     0.040 A 
ATOM     89  F   UNL     1     -12.770 -14.283   3.872  1.00  0.00    -0.206 F 
ATOM     90  C   UNL     1     -13.681 -17.086   5.974  1.00  0.00     0.006 A 
ENDBRANCH  66  83
ENDBRANCH  40  41
ENDBRANCH  33  35
ENDBRANCH  32  33
ENDBRANCH  31  32
ENDBRANCH  30  31
ENDBRANCH  29  30
ENDBRANCH  28  29
ENDBRANCH   1  28
TORSDOF 21
