REMARK SMILES O=C(C[N@@H+]1C[C@@]2([N+](=O)[O-])CC=C(Cl)[C@@]([N+](=O)[O-])(C1)C2)OCCOCCOCCOC(=O)c1ccc(-c2c3nc(c(-c4c(F)cccc4F)c4ccc([nH]4)c(-c4c(F)cccc4F)c4nc(c(-c5c(F)cccc5F)c5ccc2[nH]5)C=C4)C=C3)cc1
REMARK SMILES IDX 24 1 23 2 22 3 21 4 20 5 2 6 1 7 3 8 4 9 5 10 18 11 6 13
REMARK SMILES IDX 14 14 10 15 19 16 12 17 11 18 13 19 7 20 8 21 9 22 15 23
REMARK SMILES IDX 16 24 17 25 25 26 26 27 27 28 28 29 29 30 30 31 31 32 32 33
REMARK SMILES IDX 33 34 85 35 34 36 84 37 35 38 36 39 37 40 78 41 38 42 83 43
REMARK SMILES IDX 77 44 79 45 39 46 82 47 76 48 75 49 40 51 66 52 49 53 65 54
REMARK SMILES IDX 50 55 53 56 64 57 80 58 51 59 52 60 63 62 81 63 54 64 41 65
REMARK SMILES IDX 42 66 47 67 43 68 44 69 46 70 48 71 45 72 67 73 68 74 73 75
REMARK SMILES IDX 69 76 70 77 72 78 74 79 71 80 55 81 56 82 61 83 57 84 58 85
REMARK SMILES IDX 60 86 62 87 59 88
REMARK H PARENT 4 12 79 50 53 61
REMARK Flexibility Score: inf
ROOT
ATOM      1  C   UNL     1       2.906  -1.026  -2.018  1.00  0.00     0.188 C 
ENDROOT
BRANCH   1   2
ATOM      2  O   UNL     1       4.294  -1.102  -1.797  1.00  0.00    -0.376 OA
BRANCH   2   3
ATOM      3  C   UNL     1       4.787  -0.851  -0.499  1.00  0.00     0.202 C 
BRANCH   3   4
ATOM      4  C   UNL     1       4.006  -1.406   0.685  1.00  0.00     0.261 C 
BRANCH   4   5
ATOM      5  O   UNL     1       2.699  -0.857   1.010  1.00  0.00    -0.459 OA
BRANCH   5   6
ATOM      6  C   UNL     1       2.150   0.370   1.053  1.00  0.00     0.361 C 
ATOM      7  O   UNL     1       1.025   0.491   1.542  1.00  0.00    -0.245 OA
BRANCH   6   8
ATOM      8  C   UNL     1       2.798   1.567   0.381  1.00  0.00     0.386 C 
BRANCH   8   9
ATOM      9  N   UNL     1       4.050   2.082   0.903  1.00  0.00    -0.313 N 
ATOM     10  C   UNL     1       4.784   2.989   0.019  1.00  0.00     0.350 C 
ATOM     11  C   UNL     1       4.786   1.461   1.998  1.00  0.00     0.356 C 
ATOM     12  H   UNL     1       3.568   2.627   1.618  1.00  0.00     0.349 HD
ATOM     13  C   UNL     1       5.563   4.043   0.831  1.00  0.00     0.280 C 
ATOM     14  C   UNL     1       5.539   2.533   2.818  1.00  0.00     0.311 C 
ATOM     15  C   UNL     1       4.626   5.046   1.558  1.00  0.00     0.121 C 
ATOM     16  C   UNL     1       6.459   3.335   1.864  1.00  0.00     0.191 C 
ATOM     17  C   UNL     1       4.514   3.437   3.481  1.00  0.00     0.097 C 
ATOM     18  C   UNL     1       4.094   4.569   2.890  1.00  0.00     0.004 C 
ATOM     19  Cl  UNL     1       3.733   2.898   4.926  1.00  0.00    -0.081 Cl
BRANCH  13  20
ATOM     20  N   UNL     1       6.413   4.796  -0.180  1.00  0.00     0.032 N 
ATOM     21  O   UNL     1       5.954   5.845  -0.650  1.00  0.00    -0.264 OA
ATOM     22  O   UNL     1       7.487   4.280  -0.514  1.00  0.00    -0.264 OA
ENDBRANCH  13  20
BRANCH  14  23
ATOM     23  N   UNL     1       6.424   1.860   3.857  1.00  0.00     0.038 N 
ATOM     24  O   UNL     1       6.401   0.623   3.928  1.00  0.00    -0.263 OA
ATOM     25  O   UNL     1       7.157   2.592   4.536  1.00  0.00    -0.263 OA
ENDBRANCH  14  23
ENDBRANCH   8   9
ENDBRANCH   6   8
ENDBRANCH   5   6
ENDBRANCH   4   5
ENDBRANCH   3   4
ENDBRANCH   2   3
ENDBRANCH   1   2
BRANCH   1  26
ATOM     26  C   UNL     1       2.182  -2.370  -2.141  1.00  0.00     0.188 C 
BRANCH  26  27
ATOM     27  O   UNL     1       2.921  -3.577  -2.076  1.00  0.00    -0.376 OA
BRANCH  27  28
ATOM     28  C   UNL     1       4.167  -3.683  -2.751  1.00  0.00     0.202 C 
BRANCH  28  29
ATOM     29  C   UNL     1       4.249  -3.341  -4.248  1.00  0.00     0.261 C 
BRANCH  29  30
ATOM     30  O   UNL     1       3.873  -1.995  -4.606  1.00  0.00    -0.460 OA
BRANCH  30  31
ATOM     31  C   UNL     1       2.745  -1.870  -5.353  1.00  0.00     0.338 C 
ATOM     32  O   UNL     1       2.008  -2.764  -5.726  1.00  0.00    -0.246 OA
BRANCH  31  33
ATOM     33  C   UNL     1       2.413  -0.441  -5.552  1.00  0.00     0.060 A 
ATOM     34  C   UNL     1       1.216   0.054  -5.011  1.00  0.00     0.016 A 
ATOM     35  C   UNL     1       3.229   0.391  -6.319  1.00  0.00     0.016 A 
ATOM     36  C   UNL     1       0.831   1.379  -5.238  1.00  0.00     0.010 A 
ATOM     37  C   UNL     1       2.825   1.708  -6.573  1.00  0.00     0.010 A 
ATOM     38  C   UNL     1       1.616   2.206  -6.050  1.00  0.00    -0.014 A 
BRANCH  38  39
ATOM     39  C   UNL     1       1.121   3.545  -6.468  1.00  0.00     0.031 A 
ATOM     40  C   UNL     1       0.446   3.689  -7.805  1.00  0.00     0.074 A 
ATOM     41  C   UNL     1       1.286   4.626  -5.684  1.00  0.00     0.049 A 
ATOM     42  N   UNL     1       0.050   4.774  -8.422  1.00  0.00    -0.248 NA
ATOM     43  C   UNL     1       0.184   2.445  -8.546  1.00  0.00     0.031 C 
ATOM     44  C   UNL     1       1.881   4.622  -4.350  1.00  0.00     0.029 A 
ATOM     45  N   UNL     1       0.988   5.949  -5.916  1.00  0.00    -0.354 N 
ATOM     46  C   UNL     1      -0.493   4.346  -9.628  1.00  0.00     0.074 A 
ATOM     47  C   UNL     1      -0.367   2.904  -9.660  1.00  0.00     0.031 C 
ATOM     48  C   UNL     1       1.938   5.887  -3.894  1.00  0.00     0.029 A 
ATOM     49  C   UNL     1       1.419   6.792  -4.920  1.00  0.00     0.049 A 
ATOM     50  H   UNL     1       0.512   6.261  -6.719  1.00  0.00     0.167 HD
ATOM     51  C   UNL     1      -1.045   5.087 -10.617  1.00  0.00     0.037 A 
ATOM     52  C   UNL     1       1.434   8.139  -4.861  1.00  0.00     0.037 A 
ATOM     53  C   UNL     1      -1.178   6.520 -10.587  1.00  0.00     0.049 A 
ATOM     54  C   UNL     1       0.894   8.945  -6.017  1.00  0.00     0.074 A 
ATOM     55  C   UNL     1      -1.766   7.348 -11.528  1.00  0.00     0.029 A 
ATOM     56  N   UNL     1      -0.706   7.338  -9.574  1.00  0.00    -0.354 N 
ATOM     57  N   UNL     1       0.343   8.529  -7.132  1.00  0.00    -0.248 NA
ATOM     58  C   UNL     1       0.985  10.410  -5.910  1.00  0.00     0.031 C 
ATOM     59  C   UNL     1      -1.597   8.672 -11.113  1.00  0.00     0.029 A 
ATOM     60  C   UNL     1      -0.951   8.665  -9.887  1.00  0.00     0.049 A 
ATOM     61  H   UNL     1      -0.261   7.023  -8.754  1.00  0.00     0.167 HD
ATOM     62  C   UNL     1       0.004   9.675  -7.843  1.00  0.00     0.074 A 
ATOM     63  C   UNL     1       0.390  10.805  -7.026  1.00  0.00     0.031 C 
ATOM     64  C   UNL     1      -0.570   9.783  -9.066  1.00  0.00     0.037 A 
BRANCH  51  65
ATOM     65  C   UNL     1      -1.529   4.372 -11.843  1.00  0.00     0.057 A 
ATOM     66  C   UNL     1      -2.709   3.618 -11.843  1.00  0.00     0.134 A 
ATOM     67  C   UNL     1      -0.848   4.510 -13.059  1.00  0.00     0.134 A 
ATOM     68  F   UNL     1      -3.402   3.440 -10.708  1.00  0.00    -0.206 F 
ATOM     69  C   UNL     1      -3.192   3.022 -13.010  1.00  0.00     0.040 A 
ATOM     70  C   UNL     1      -1.332   3.938 -14.236  1.00  0.00     0.040 A 
ATOM     71  F   UNL     1       0.286   5.224 -13.127  1.00  0.00    -0.206 F 
ATOM     72  C   UNL     1      -2.508   3.191 -14.213  1.00  0.00     0.006 A 
ENDBRANCH  51  65
BRANCH  52  73
ATOM     73  C   UNL     1       2.033   8.835  -3.691  1.00  0.00     0.057 A 
ATOM     74  C   UNL     1       1.256   9.621  -2.833  1.00  0.00     0.134 A 
ATOM     75  C   UNL     1       3.411   8.783  -3.443  1.00  0.00     0.134 A 
ATOM     76  F   UNL     1      -0.066   9.736  -3.034  1.00  0.00    -0.206 F 
ATOM     77  C   UNL     1       1.828  10.353  -1.790  1.00  0.00     0.040 A 
ATOM     78  C   UNL     1       3.992   9.483  -2.385  1.00  0.00     0.040 A 
ATOM     79  F   UNL     1       4.213   8.053  -4.232  1.00  0.00    -0.206 F 
ATOM     80  C   UNL     1       3.201  10.282  -1.562  1.00  0.00     0.006 A 
ENDBRANCH  52  73
BRANCH  64  81
ATOM     81  C   UNL     1      -0.839  11.165  -9.589  1.00  0.00     0.057 A 
ATOM     82  C   UNL     1       0.195  12.004 -10.025  1.00  0.00     0.134 A 
ATOM     83  C   UNL     1      -2.151  11.645  -9.705  1.00  0.00     0.134 A 
ATOM     84  F   UNL     1       1.474  11.611  -9.931  1.00  0.00    -0.206 F 
ATOM     85  C   UNL     1      -0.065  13.276 -10.539  1.00  0.00     0.040 A 
ATOM     86  C   UNL     1      -2.425  12.903 -10.242  1.00  0.00     0.040 A 
ATOM     87  F   UNL     1      -3.189  10.889  -9.317  1.00  0.00    -0.206 F 
ATOM     88  C   UNL     1      -1.379  13.726 -10.656  1.00  0.00     0.006 A 
ENDBRANCH  64  81
ENDBRANCH  38  39
ENDBRANCH  31  33
ENDBRANCH  30  31
ENDBRANCH  29  30
ENDBRANCH  28  29
ENDBRANCH  27  28
ENDBRANCH  26  27
ENDBRANCH   1  26
TORSDOF 20
