REMARK SMILES C[C@@H]([NH+]1CCC(n2cccc2C(=O)OCCOCCOCCOC(=O)c2ccc(-c3c4nc(c(-c5c(F)cccc5F)c5ccc([nH]5)c(-c5c(F)cccc5F)c5nc(c(-c6c(F)cccc6F)c6ccc3[nH]6)C=C5)C=C4)cc2)CC1)C1(C)CC1
REMARK SMILES IDX 18 1 17 2 16 3 15 4 14 5 12 6 13 7 11 8 7 9 8 10 9 11 10 12
REMARK SMILES IDX 6 13 3 14 4 15 81 16 5 18 80 19 2 20 1 21 82 22 83 23 84 24
REMARK SMILES IDX 85 25 19 26 20 27 21 28 22 29 23 30 24 31 25 32 26 33 27 34
REMARK SMILES IDX 79 35 28 36 78 37 29 38 30 39 31 40 72 41 32 42 77 43 71 44
REMARK SMILES IDX 73 45 33 46 76 47 70 48 69 49 34 51 60 52 43 53 59 54 44 55
REMARK SMILES IDX 47 56 58 57 74 58 45 59 46 60 57 62 75 63 48 64 35 65 36 66
REMARK SMILES IDX 41 67 37 68 38 69 40 70 42 71 39 72 61 73 62 74 67 75 63 76
REMARK SMILES IDX 64 77 66 78 68 79 65 80 49 81 50 82 55 83 51 84 52 85 54 86
REMARK SMILES IDX 56 87 53 88
REMARK H PARENT 3 17 73 50 47 61
REMARK Flexibility Score: inf
ROOT
ATOM      1  C   UNL     1       4.449  -0.018  -6.763  1.00  0.00     0.188 C 
ENDROOT
BRANCH   1   2
ATOM      2  O   UNL     1       4.255   1.347  -6.463  1.00  0.00    -0.376 OA
BRANCH   2   3
ATOM      3  C   UNL     1       3.237   2.086  -7.118  1.00  0.00     0.202 C 
BRANCH   3   4
ATOM      4  C   UNL     1       1.887   1.458  -7.504  1.00  0.00     0.261 C 
BRANCH   4   5
ATOM      5  O   UNL     1       1.748   0.104  -7.085  1.00  0.00    -0.459 OA
BRANCH   5   6
ATOM      6  C   UNL     1       0.979  -0.707  -7.864  1.00  0.00     0.355 C 
ATOM      7  O   UNL     1       0.464  -0.375  -8.904  1.00  0.00    -0.244 OA
BRANCH   6   8
ATOM      8  C   UNL     1       1.012  -2.060  -7.331  1.00  0.00     0.127 A 
ATOM      9  N   UNL     1       0.684  -2.557  -6.069  1.00  0.00    -0.339 N 
ATOM     10  C   UNL     1       0.774  -3.941  -6.128  1.00  0.00     0.086 A 
ATOM     11  C   UNL     1       1.280  -4.319  -7.345  1.00  0.00     0.020 A 
ATOM     12  C   UNL     1       1.410  -3.147  -8.104  1.00  0.00     0.035 A 
BRANCH   9  13
ATOM     13  C   UNL     1       0.160  -1.877  -4.861  1.00  0.00     0.098 C 
ATOM     14  N   UNL     1       0.314  -0.294  -2.360  1.00  0.00    -0.332 N 
ATOM     15  C   UNL     1       0.219  -1.747  -2.295  1.00  0.00     0.264 C 
ATOM     16  C   UNL     1      -0.224   0.287  -3.576  1.00  0.00     0.264 C 
ATOM     17  H   UNL     1       1.323  -0.163  -2.424  1.00  0.00     0.348 HD
ATOM     18  C   UNL     1       0.764  -2.436  -3.554  1.00  0.00     0.087 C 
ATOM     19  C   UNL     1       0.317  -0.361  -4.832  1.00  0.00     0.087 C 
BRANCH  14  20
ATOM     20  C   UNL     1       0.017   0.465  -1.127  1.00  0.00     0.186 C 
ATOM     21  C   UNL     1       0.958  -0.017  -0.000  1.00  0.00     0.076 C 
BRANCH  20  22
ATOM     22  C   UNL     1      -1.458   0.600  -0.652  1.00  0.00     0.019 C 
ATOM     23  C   UNL     1      -1.644   0.850   0.833  1.00  0.00     0.018 C 
ATOM     24  C   UNL     1      -2.401   1.427  -1.519  1.00  0.00     0.013 C 
ATOM     25  C   UNL     1      -2.634  -0.047  -1.370  1.00  0.00     0.013 C 
ENDBRANCH  20  22
ENDBRANCH  14  20
ENDBRANCH   9  13
ENDBRANCH   6   8
ENDBRANCH   5   6
ENDBRANCH   4   5
ENDBRANCH   3   4
ENDBRANCH   2   3
ENDBRANCH   1   2
BRANCH   1  26
ATOM     26  C   UNL     1       4.110  -0.979  -5.602  1.00  0.00     0.188 C 
BRANCH  26  27
ATOM     27  O   UNL     1       3.681  -0.543  -4.318  1.00  0.00    -0.376 OA
BRANCH  27  28
ATOM     28  C   UNL     1       3.933   0.762  -3.833  1.00  0.00     0.202 C 
BRANCH  28  29
ATOM     29  C   UNL     1       5.381   1.194  -3.591  1.00  0.00     0.261 C 
BRANCH  29  30
ATOM     30  O   UNL     1       6.375   0.458  -4.294  1.00  0.00    -0.460 OA
BRANCH  30  31
ATOM     31  C   UNL     1       6.645  -0.729  -3.711  1.00  0.00     0.338 C 
ATOM     32  O   UNL     1       6.055  -1.280  -2.797  1.00  0.00    -0.246 OA
BRANCH  31  33
ATOM     33  C   UNL     1       7.863  -1.281  -4.291  1.00  0.00     0.060 A 
ATOM     34  C   UNL     1       7.895  -2.648  -4.577  1.00  0.00     0.016 A 
ATOM     35  C   UNL     1       9.013  -0.483  -4.321  1.00  0.00     0.016 A 
ATOM     36  C   UNL     1       9.115  -3.245  -4.828  1.00  0.00     0.010 A 
ATOM     37  C   UNL     1      10.237  -1.089  -4.533  1.00  0.00     0.010 A 
ATOM     38  C   UNL     1      10.281  -2.471  -4.762  1.00  0.00    -0.014 A 
BRANCH  38  39
ATOM     39  C   UNL     1      11.569  -3.139  -5.008  1.00  0.00     0.031 A 
ATOM     40  C   UNL     1      11.944  -3.135  -6.490  1.00  0.00     0.074 A 
ATOM     41  C   UNL     1      12.179  -3.667  -3.905  1.00  0.00     0.049 A 
ATOM     42  N   UNL     1      12.751  -3.909  -7.147  1.00  0.00    -0.248 NA
ATOM     43  C   UNL     1      11.283  -2.153  -7.395  1.00  0.00     0.031 C 
ATOM     44  C   UNL     1      11.655  -3.548  -2.526  1.00  0.00     0.029 A 
ATOM     45  N   UNL     1      13.328  -4.402  -3.697  1.00  0.00    -0.354 N 
ATOM     46  C   UNL     1      12.868  -3.377  -8.447  1.00  0.00     0.074 A 
ATOM     47  C   UNL     1      11.855  -2.378  -8.577  1.00  0.00     0.031 C 
ATOM     48  C   UNL     1      12.420  -4.241  -1.658  1.00  0.00     0.029 A 
ATOM     49  C   UNL     1      13.530  -4.849  -2.364  1.00  0.00     0.049 A 
ATOM     50  H   UNL     1      13.963  -4.603  -4.422  1.00  0.00     0.167 HD
ATOM     51  C   UNL     1      13.894  -3.687  -9.289  1.00  0.00     0.037 A 
ATOM     52  C   UNL     1      14.498  -5.680  -1.865  1.00  0.00     0.037 A 
ATOM     53  C   UNL     1      14.713  -4.705  -8.725  1.00  0.00     0.049 A 
ATOM     54  C   UNL     1      15.420  -5.920  -2.985  1.00  0.00     0.074 A 
ATOM     55  C   UNL     1      14.531  -6.048  -8.534  1.00  0.00     0.029 A 
ATOM     56  N   UNL     1      15.790  -4.291  -7.984  1.00  0.00    -0.354 N 
ATOM     57  N   UNL     1      16.297  -5.064  -3.416  1.00  0.00    -0.248 NA
ATOM     58  C   UNL     1      15.303  -7.172  -3.743  1.00  0.00     0.031 C 
ATOM     59  C   UNL     1      15.264  -6.333  -7.363  1.00  0.00     0.029 A 
ATOM     60  C   UNL     1      15.955  -5.186  -6.957  1.00  0.00     0.049 A 
ATOM     61  H   UNL     1      16.345  -3.496  -8.158  1.00  0.00     0.167 HD
ATOM     62  C   UNL     1      16.580  -5.543  -4.673  1.00  0.00     0.074 A 
ATOM     63  C   UNL     1      16.229  -6.944  -4.668  1.00  0.00     0.031 C 
ATOM     64  C   UNL     1      16.560  -4.700  -5.737  1.00  0.00     0.037 A 
BRANCH  51  65
ATOM     65  C   UNL     1      14.405  -2.979 -10.511  1.00  0.00     0.057 A 
ATOM     66  C   UNL     1      15.269  -3.683 -11.382  1.00  0.00     0.134 A 
ATOM     67  C   UNL     1      14.381  -1.589 -10.671  1.00  0.00     0.134 A 
ATOM     68  F   UNL     1      15.344  -5.023 -11.347  1.00  0.00    -0.206 F 
ATOM     69  C   UNL     1      16.144  -3.036 -12.258  1.00  0.00     0.040 A 
ATOM     70  C   UNL     1      15.220  -0.933 -11.582  1.00  0.00     0.040 A 
ATOM     71  F   UNL     1      13.622  -0.805  -9.894  1.00  0.00    -0.206 F 
ATOM     72  C   UNL     1      16.135  -1.652 -12.345  1.00  0.00     0.006 A 
ENDBRANCH  51  65
BRANCH  52  73
ATOM     73  C   UNL     1      14.811  -6.395  -0.569  1.00  0.00     0.057 A 
ATOM     74  C   UNL     1      14.257  -6.117   0.684  1.00  0.00     0.134 A 
ATOM     75  C   UNL     1      15.741  -7.474  -0.547  1.00  0.00     0.134 A 
ATOM     76  F   UNL     1      13.464  -5.059   0.880  1.00  0.00    -0.206 F 
ATOM     77  C   UNL     1      14.524  -6.903   1.827  1.00  0.00     0.040 A 
ATOM     78  C   UNL     1      16.000  -8.274   0.571  1.00  0.00     0.040 A 
ATOM     79  F   UNL     1      16.463  -7.815  -1.622  1.00  0.00    -0.206 F 
ATOM     80  C   UNL     1      15.374  -8.001   1.768  1.00  0.00     0.006 A 
ENDBRANCH  52  73
BRANCH  64  81
ATOM     81  C   UNL     1      16.771  -3.246  -5.367  1.00  0.00     0.057 A 
ATOM     82  C   UNL     1      17.995  -2.822  -4.838  1.00  0.00     0.134 A 
ATOM     83  C   UNL     1      15.755  -2.278  -5.396  1.00  0.00     0.134 A 
ATOM     84  F   UNL     1      19.031  -3.672  -4.774  1.00  0.00    -0.206 F 
ATOM     85  C   UNL     1      18.188  -1.520  -4.353  1.00  0.00     0.040 A 
ATOM     86  C   UNL     1      15.930  -0.972  -4.926  1.00  0.00     0.040 A 
ATOM     87  F   UNL     1      14.549  -2.572  -5.876  1.00  0.00    -0.206 F 
ATOM     88  C   UNL     1      17.152  -0.590  -4.392  1.00  0.00     0.006 A 
ENDBRANCH  64  81
ENDBRANCH  38  39
ENDBRANCH  31  33
ENDBRANCH  30  31
ENDBRANCH  29  30
ENDBRANCH  28  29
ENDBRANCH  27  28
ENDBRANCH  26  27
ENDBRANCH   1  26
TORSDOF 20
