REMARK SMILES Cc1oc2cc3c(cc2c1C)[C@H](C)[C@@H](CC(=O)N[C@H](CC1=c2ccccc2=NC1)C(=O)OCCOCCOCCOC(=O)c1ccc(-c2c4nc(c(-c5c(F)cccc5F)c5ccc([nH]5)c(-c5c(F)cccc5F)c5nc(c(-c6c(F)cccc6F)c6ccc2[nH]6)C=C5)C=C4)cc1)C(=O)O3
REMARK SMILES IDX 36 1 35 2 34 3 33 4 32 5 30 6 31 7 19 8 18 9 16 10 17 11
REMARK SMILES IDX 15 13 14 14 1 15 2 16 3 17 10 18 4 19 9 20 11 21 5 22 8 23
REMARK SMILES IDX 6 24 7 25 100 26 12 27 98 28 13 29 99 30 20 31 21 32 22 33
REMARK SMILES IDX 29 34 23 35 27 36 28 37 24 38 26 39 25 40 37 41 38 42 39 43
REMARK SMILES IDX 40 44 41 45 42 46 43 47 44 48 45 49 97 50 46 51 96 52 47 53
REMARK SMILES IDX 48 54 49 55 90 56 50 57 95 58 89 59 91 60 51 61 94 62 88 63
REMARK SMILES IDX 87 64 52 66 78 67 61 68 77 69 62 70 65 71 76 72 92 73 63 74
REMARK SMILES IDX 64 75 75 77 93 78 66 79 53 80 54 81 59 82 55 83 56 84 58 85
REMARK SMILES IDX 60 86 57 87 79 88 80 89 85 90 81 91 82 92 84 93 86 94 83 95
REMARK SMILES IDX 67 96 68 97 73 98 69 99 70 100 72 101 74 102 71 103
REMARK H PARENT 18 12 91 65 65 76
REMARK Flexibility Score: inf
ROOT
ATOM      1  C   UNL     1       0.118  10.839   6.119  1.00  0.00     0.188 C 
ENDROOT
BRANCH   1   2
ATOM      2  O   UNL     1       1.121  11.675   6.658  1.00  0.00    -0.376 OA
BRANCH   2   3
ATOM      3  C   UNL     1       1.924  12.392   5.729  1.00  0.00     0.202 C 
BRANCH   3   4
ATOM      4  C   UNL     1       2.447  11.620   4.514  1.00  0.00     0.261 C 
BRANCH   4   5
ATOM      5  O   UNL     1       1.377  11.202   3.629  1.00  0.00    -0.462 OA
BRANCH   5   6
ATOM      6  C   UNL     1       1.500   9.990   3.031  1.00  0.00     0.329 C 
ATOM      7  O   UNL     1       2.468   9.259   3.241  1.00  0.00    -0.250 OA
BRANCH   6   8
ATOM      8  C   UNL     1       0.498   9.682   1.871  1.00  0.00     0.196 C 
BRANCH   8   9
ATOM      9  N   UNL     1       1.132  10.026   0.573  1.00  0.00    -0.342 N 
ATOM     10  C   UNL     1       1.567  11.175  -0.003  1.00  0.00     0.221 C 
ATOM     11  O   UNL     1       1.860  11.114  -1.201  1.00  0.00    -0.275 OA
ATOM     12  H   UNL     1       1.268   9.239  -0.002  1.00  0.00     0.164 HD
BRANCH  10  13
ATOM     13  C   UNL     1       1.778  12.491   0.745  1.00  0.00     0.116 C 
BRANCH  13  14
ATOM     14  C   UNL     1       0.598  13.464   0.717  1.00  0.00     0.116 C 
ATOM     15  C   UNL     1      -5.228  18.510   4.332  1.00  0.00     0.088 C 
ATOM     16  C   UNL     1      -4.068  17.751   3.821  1.00  0.00     0.105 A 
ATOM     17  O   UNL     1      -4.370  16.558   3.242  1.00  0.00    -0.461 OA
ATOM     18  C   UNL     1      -2.707  17.997   3.742  1.00  0.00    -0.002 A 
ATOM     19  C   UNL     1      -3.214  16.049   2.749  1.00  0.00     0.138 A 
ATOM     20  C   UNL     1      -2.143  16.878   3.054  1.00  0.00     0.024 A 
ATOM     21  C   UNL     1      -1.968  19.193   4.208  1.00  0.00     0.049 C 
ATOM     22  C   UNL     1      -3.115  14.876   2.025  1.00  0.00     0.095 A 
ATOM     23  C   UNL     1      -0.841  16.496   2.654  1.00  0.00     0.020 A 
ATOM     24  C   UNL     1      -1.828  14.557   1.590  1.00  0.00     0.138 A 
ATOM     25  C   UNL     1      -0.672  15.327   1.897  1.00  0.00    -0.001 A 
ATOM     26  O   UNL     1      -1.738  13.374   0.864  1.00  0.00    -0.426 OA
ATOM     27  C   UNL     1       0.728  14.729   1.614  1.00  0.00     0.035 C 
ATOM     28  C   UNL     1      -0.589  12.864   1.366  1.00  0.00     0.315 C 
ATOM     29  C   UNL     1       1.776  15.695   1.074  1.00  0.00     0.014 C 
ATOM     30  O   UNL     1      -0.526  12.253   2.415  1.00  0.00    -0.251 OA
ENDBRANCH  13  14
ENDBRANCH  10  13
ENDBRANCH   8   9
BRANCH   8  31
ATOM     31  C   UNL     1      -1.074   9.870   1.841  1.00  0.00     0.070 C 
BRANCH  31  32
ATOM     32  C   UNL     1      -2.014   8.662   1.755  1.00  0.00    -0.037 C 
ATOM     33  C   UNL     1      -2.170   8.053   0.571  1.00  0.00     0.001 A 
ATOM     34  C   UNL     1      -1.749   7.629   2.809  1.00  0.00     0.174 C 
ATOM     35  C   UNL     1      -3.371   7.518  -0.052  1.00  0.00     0.010 A 
ATOM     36  C   UNL     1      -1.235   6.920   0.848  1.00  0.00     0.065 A 
ATOM     37  N   UNL     1      -0.939   6.635   2.078  1.00  0.00    -0.280 NA
ATOM     38  C   UNL     1      -3.197   6.520  -0.944  1.00  0.00     0.001 A 
ATOM     39  C   UNL     1      -0.838   6.214  -0.380  1.00  0.00     0.028 A 
ATOM     40  C   UNL     1      -1.845   6.054  -1.259  1.00  0.00     0.002 A 
ENDBRANCH  31  32
ENDBRANCH   8  31
ENDBRANCH   6   8
ENDBRANCH   5   6
ENDBRANCH   4   5
ENDBRANCH   3   4
ENDBRANCH   2   3
ENDBRANCH   1   2
BRANCH   1  41
ATOM     41  C   UNL     1      -1.061  11.477   5.367  1.00  0.00     0.188 C 
BRANCH  41  42
ATOM     42  O   UNL     1      -1.097  12.860   5.091  1.00  0.00    -0.376 OA
BRANCH  42  43
ATOM     43  C   UNL     1      -1.267  13.752   6.182  1.00  0.00     0.202 C 
BRANCH  43  44
ATOM     44  C   UNL     1      -2.514  13.587   7.063  1.00  0.00     0.261 C 
BRANCH  44  45
ATOM     45  O   UNL     1      -2.458  12.377   7.839  1.00  0.00    -0.460 OA
BRANCH  45  46
ATOM     46  C   UNL     1      -3.423  11.444   7.624  1.00  0.00     0.338 C 
ATOM     47  O   UNL     1      -4.441  11.557   6.960  1.00  0.00    -0.246 OA
BRANCH  46  48
ATOM     48  C   UNL     1      -2.845  10.156   8.069  1.00  0.00     0.060 A 
ATOM     49  C   UNL     1      -2.226  10.071   9.315  1.00  0.00     0.016 A 
ATOM     50  C   UNL     1      -2.715   9.117   7.134  1.00  0.00     0.016 A 
ATOM     51  C   UNL     1      -1.427   8.970   9.607  1.00  0.00     0.010 A 
ATOM     52  C   UNL     1      -1.874   8.039   7.414  1.00  0.00     0.010 A 
ATOM     53  C   UNL     1      -1.224   7.958   8.655  1.00  0.00    -0.014 A 
BRANCH  53  54
ATOM     54  C   UNL     1      -0.479   6.756   9.076  1.00  0.00     0.031 A 
ATOM     55  C   UNL     1      -0.960   5.462   8.489  1.00  0.00     0.074 A 
ATOM     56  C   UNL     1       0.779   6.847   9.558  1.00  0.00     0.049 A 
ATOM     57  N   UNL     1      -0.509   4.897   7.407  1.00  0.00    -0.248 NA
ATOM     58  C   UNL     1      -2.207   4.870   8.983  1.00  0.00     0.031 C 
ATOM     59  C   UNL     1       1.913   7.436   8.844  1.00  0.00     0.029 A 
ATOM     60  N   UNL     1       1.345   6.226  10.652  1.00  0.00    -0.354 N 
ATOM     61  C   UNL     1      -1.393   3.874   7.079  1.00  0.00     0.074 A 
ATOM     62  C   UNL     1      -2.440   3.913   8.075  1.00  0.00     0.031 C 
ATOM     63  C   UNL     1       3.054   6.999   9.419  1.00  0.00     0.029 A 
ATOM     64  C   UNL     1       2.735   6.181  10.591  1.00  0.00     0.049 A 
ATOM     65  H   UNL     1       0.821   5.854  11.398  1.00  0.00     0.167 HD
ATOM     66  C   UNL     1      -1.213   3.022   6.034  1.00  0.00     0.037 A 
ATOM     67  C   UNL     1       3.482   5.139  11.056  1.00  0.00     0.037 A 
ATOM     68  C   UNL     1      -0.007   3.207   5.290  1.00  0.00     0.049 A 
ATOM     69  C   UNL     1       3.349   4.170   9.903  1.00  0.00     0.074 A 
ATOM     70  C   UNL     1       0.401   3.793   4.113  1.00  0.00     0.029 A 
ATOM     71  N   UNL     1       1.142   2.683   5.832  1.00  0.00    -0.354 N 
ATOM     72  N   UNL     1       3.981   4.229   8.761  1.00  0.00    -0.248 NA
ATOM     73  C   UNL     1       2.155   3.320   9.897  1.00  0.00     0.031 C 
ATOM     74  C   UNL     1       1.810   4.000   4.266  1.00  0.00     0.029 A 
ATOM     75  C   UNL     1       2.155   3.554   5.541  1.00  0.00     0.049 A 
ATOM     76  H   UNL     1       1.220   1.841   6.334  1.00  0.00     0.167 HD
ATOM     77  C   UNL     1       3.108   3.664   7.827  1.00  0.00     0.074 A 
ATOM     78  C   UNL     1       2.014   3.106   8.597  1.00  0.00     0.031 C 
ATOM     79  C   UNL     1       3.216   3.844   6.478  1.00  0.00     0.037 A 
BRANCH  66  80
ATOM     80  C   UNL     1      -2.002   1.795   5.783  1.00  0.00     0.057 A 
ATOM     81  C   UNL     1      -1.435   0.569   6.165  1.00  0.00     0.134 A 
ATOM     82  C   UNL     1      -3.131   1.759   4.965  1.00  0.00     0.134 A 
ATOM     83  F   UNL     1      -0.346   0.546   6.952  1.00  0.00    -0.206 F 
ATOM     84  C   UNL     1      -1.924  -0.648   5.696  1.00  0.00     0.040 A 
ATOM     85  C   UNL     1      -3.645   0.541   4.502  1.00  0.00     0.040 A 
ATOM     86  F   UNL     1      -3.720   2.893   4.560  1.00  0.00    -0.206 F 
ATOM     87  C   UNL     1      -3.026  -0.662   4.847  1.00  0.00     0.006 A 
ENDBRANCH  66  80
BRANCH  67  88
ATOM     88  C   UNL     1       3.272   4.748  12.488  1.00  0.00     0.057 A 
ATOM     89  C   UNL     1       3.289   5.760  13.468  1.00  0.00     0.134 A 
ATOM     90  C   UNL     1       3.051   3.450  12.966  1.00  0.00     0.134 A 
ATOM     91  F   UNL     1       3.626   7.017  13.139  1.00  0.00    -0.206 F 
ATOM     92  C   UNL     1       2.955   5.521  14.804  1.00  0.00     0.040 A 
ATOM     93  C   UNL     1       2.690   3.197  14.297  1.00  0.00     0.040 A 
ATOM     94  F   UNL     1       3.162   2.381  12.165  1.00  0.00    -0.206 F 
ATOM     95  C   UNL     1       2.614   4.239  15.214  1.00  0.00     0.006 A 
ENDBRANCH  67  88
BRANCH  79  96
ATOM     96  C   UNL     1       4.412   4.594   6.010  1.00  0.00     0.057 A 
ATOM     97  C   UNL     1       5.684   4.023   6.079  1.00  0.00     0.134 A 
ATOM     98  C   UNL     1       4.298   5.862   5.422  1.00  0.00     0.134 A 
ATOM     99  F   UNL     1       5.859   2.808   6.622  1.00  0.00    -0.206 F 
ATOM    100  C   UNL     1       6.801   4.676   5.558  1.00  0.00     0.040 A 
ATOM    101  C   UNL     1       5.401   6.510   4.866  1.00  0.00     0.040 A 
ATOM    102  F   UNL     1       3.111   6.486   5.352  1.00  0.00    -0.206 F 
ATOM    103  C   UNL     1       6.659   5.915   4.933  1.00  0.00     0.006 A 
ENDBRANCH  79  96
ENDBRANCH  53  54
ENDBRANCH  46  48
ENDBRANCH  45  46
ENDBRANCH  44  45
ENDBRANCH  43  44
ENDBRANCH  42  43
ENDBRANCH  41  42
ENDBRANCH   1  41
TORSDOF 22
