REMARK SMILES NC(=O)Nc1ccc(C(=O)N2C[C@@H](O)C[C@@H]2C(=O)OCCOCCOCCOC(=O)c2ccc(-c3c4nc(c(-c5c(F)cccc5F)c5ccc([nH]5)c(-c5c(F)cccc5F)c5nc(c(-c6c(F)cccc6F)c6ccc3[nH]6)C=C5)C=C4)cc2)cc1
REMARK SMILES IDX 23 1 22 2 21 3 20 4 19 5 17 6 18 7 16 8 11 9 12 10 13 11
REMARK SMILES IDX 15 12 9 13 10 14 8 15 5 16 6 17 86 18 7 19 85 20 4 21 1 22
REMARK SMILES IDX 2 23 3 26 14 28 24 30 25 31 26 32 27 33 28 34 29 35 30 36
REMARK SMILES IDX 31 37 32 38 84 39 33 40 83 41 34 42 35 43 36 44 77 45 37 46
REMARK SMILES IDX 82 47 76 48 78 49 38 50 81 51 75 52 74 53 39 55 65 56 48 57
REMARK SMILES IDX 64 58 49 59 52 60 63 61 79 62 50 63 51 64 62 66 80 67 53 68
REMARK SMILES IDX 40 69 41 70 46 71 42 72 43 73 45 74 47 75 44 76 66 77 67 78
REMARK SMILES IDX 72 79 68 80 69 81 71 82 73 83 70 84 54 85 55 86 60 87 56 88
REMARK SMILES IDX 57 89 59 90 61 91 58 92
REMARK H PARENT 1 24 1 25 4 27 14 29 78 54 52 65
REMARK Flexibility Score: inf
ROOT
ATOM      1  C   UNL     1       6.128   1.184   1.263  1.00  0.00     0.188 C 
ENDROOT
BRANCH   1   2
ATOM      2  O   UNL     1       6.290   2.599   1.200  1.00  0.00    -0.376 OA
BRANCH   2   3
ATOM      3  C   UNL     1       6.794   3.168  -0.011  1.00  0.00     0.202 C 
BRANCH   3   4
ATOM      4  C   UNL     1       8.131   2.606  -0.507  1.00  0.00     0.261 C 
BRANCH   4   5
ATOM      5  O   UNL     1       8.017   1.244  -0.978  1.00  0.00    -0.462 OA
BRANCH   5   6
ATOM      6  C   UNL     1       9.169   0.532  -0.999  1.00  0.00     0.329 C 
ATOM      7  O   UNL     1      10.267   1.029  -0.756  1.00  0.00    -0.250 OA
BRANCH   6   8
ATOM      8  C   UNL     1       9.007  -0.988  -1.296  1.00  0.00     0.198 C 
ATOM      9  N   UNL     1       7.689  -1.666  -1.488  1.00  0.00    -0.322 N 
ATOM     10  C   UNL     1       7.582  -2.796  -0.584  1.00  0.00     0.152 C 
ATOM     11  C   UNL     1       8.505  -2.447   0.571  1.00  0.00     0.136 C 
ATOM     12  C   UNL     1       9.665  -1.757  -0.128  1.00  0.00     0.071 C 
BRANCH   9  13
ATOM     13  C   UNL     1       6.975  -1.468  -2.670  1.00  0.00     0.254 C 
ATOM     14  O   UNL     1       7.537  -0.883  -3.600  1.00  0.00    -0.269 OA
BRANCH  13  15
ATOM     15  C   UNL     1       5.493  -1.784  -2.839  1.00  0.00     0.040 A 
ATOM     16  C   UNL     1       2.636  -1.777  -3.162  1.00  0.00     0.042 A 
ATOM     17  C   UNL     1       3.466  -1.110  -4.062  1.00  0.00     0.027 A 
ATOM     18  C   UNL     1       3.248  -2.572  -2.196  1.00  0.00     0.027 A 
ATOM     19  C   UNL     1       4.860  -1.101  -3.892  1.00  0.00     0.016 A 
ATOM     20  C   UNL     1       4.661  -2.580  -2.040  1.00  0.00     0.016 A 
BRANCH  16  21
ATOM     21  N   UNL     1       1.255  -1.548  -3.308  1.00  0.00    -0.308 N 
ATOM     22  N   UNL     1       0.330  -1.916  -1.197  1.00  0.00    -0.351 N 
ATOM     23  C   UNL     1       0.179  -1.636  -2.494  1.00  0.00     0.316 C 
ATOM     24  H   UNL     1      -0.460  -1.978  -0.612  1.00  0.00     0.161 HD
ATOM     25  H   UNL     1       1.230  -2.060  -0.826  1.00  0.00     0.161 HD
ATOM     26  O   UNL     1      -0.943  -1.380  -2.929  1.00  0.00    -0.249 OA
ATOM     27  H   UNL     1       1.016  -1.255  -4.217  1.00  0.00     0.171 HD
ENDBRANCH  16  21
ENDBRANCH  13  15
ENDBRANCH   9  13
BRANCH  11  28
ATOM     28  O   UNL     1       8.900  -3.582   1.316  1.00  0.00    -0.391 OA
ATOM     29  H   UNL     1       9.340  -4.217   0.730  1.00  0.00     0.211 HD
ENDBRANCH  11  28
ENDBRANCH   6   8
ENDBRANCH   5   6
ENDBRANCH   4   5
ENDBRANCH   3   4
ENDBRANCH   2   3
ENDBRANCH   1   2
BRANCH   1  30
ATOM     30  C   UNL     1       5.500   0.492   0.050  1.00  0.00     0.188 C 
BRANCH  30  31
ATOM     31  O   UNL     1       4.748   1.371  -0.759  1.00  0.00    -0.376 OA
BRANCH  31  32
ATOM     32  C   UNL     1       3.369   1.086  -0.875  1.00  0.00     0.202 C 
BRANCH  32  33
ATOM     33  C   UNL     1       2.578   1.190   0.433  1.00  0.00     0.261 C 
BRANCH  33  34
ATOM     34  O   UNL     1       3.044   0.341   1.508  1.00  0.00    -0.460 OA
BRANCH  34  35
ATOM     35  C   UNL     1       2.815  -0.981   1.368  1.00  0.00     0.338 C 
ATOM     36  O   UNL     1       2.255  -1.539   0.447  1.00  0.00    -0.246 OA
BRANCH  35  37
ATOM     37  C   UNL     1       3.449  -1.746   2.444  1.00  0.00     0.060 A 
ATOM     38  C   UNL     1       4.654  -2.414   2.192  1.00  0.00     0.016 A 
ATOM     39  C   UNL     1       2.765  -1.930   3.640  1.00  0.00     0.016 A 
ATOM     40  C   UNL     1       5.199  -3.257   3.152  1.00  0.00     0.010 A 
ATOM     41  C   UNL     1       3.307  -2.779   4.601  1.00  0.00     0.010 A 
ATOM     42  C   UNL     1       4.524  -3.444   4.361  1.00  0.00    -0.014 A 
BRANCH  42  43
ATOM     43  C   UNL     1       5.082  -4.323   5.405  1.00  0.00     0.031 A 
ATOM     44  C   UNL     1       4.478  -5.669   5.652  1.00  0.00     0.074 A 
ATOM     45  C   UNL     1       6.097  -3.867   6.158  1.00  0.00     0.049 A 
ATOM     46  N   UNL     1       4.668  -6.487   6.652  1.00  0.00    -0.248 NA
ATOM     47  C   UNL     1       3.530  -6.158   4.639  1.00  0.00     0.031 C 
ATOM     48  C   UNL     1       6.792  -2.594   5.953  1.00  0.00     0.029 A 
ATOM     49  N   UNL     1       6.698  -4.407   7.263  1.00  0.00    -0.354 N 
ATOM     50  C   UNL     1       3.848  -7.579   6.406  1.00  0.00     0.074 A 
ATOM     51  C   UNL     1       3.157  -7.319   5.160  1.00  0.00     0.031 C 
ATOM     52  C   UNL     1       7.708  -2.438   6.920  1.00  0.00     0.029 A 
ATOM     53  C   UNL     1       7.618  -3.567   7.840  1.00  0.00     0.049 A 
ATOM     54  H   UNL     1       6.491  -5.305   7.609  1.00  0.00     0.167 HD
ATOM     55  C   UNL     1       3.687  -8.690   7.164  1.00  0.00     0.037 A 
ATOM     56  C   UNL     1       8.271  -3.674   9.011  1.00  0.00     0.037 A 
ATOM     57  C   UNL     1       4.381  -8.920   8.405  1.00  0.00     0.049 A 
ATOM     58  C   UNL     1       8.012  -4.875   9.873  1.00  0.00     0.074 A 
ATOM     59  C   UNL     1       4.291 -10.004   9.259  1.00  0.00     0.029 A 
ATOM     60  N   UNL     1       5.296  -8.041   8.969  1.00  0.00    -0.354 N 
ATOM     61  N   UNL     1       7.214  -5.893   9.655  1.00  0.00    -0.248 NA
ATOM     62  C   UNL     1       8.734  -4.937  11.150  1.00  0.00     0.031 C 
ATOM     63  C   UNL     1       5.121  -9.762  10.361  1.00  0.00     0.029 A 
ATOM     64  C   UNL     1       5.763  -8.548  10.170  1.00  0.00     0.049 A 
ATOM     65  H   UNL     1       5.573  -7.183   8.573  1.00  0.00     0.167 HD
ATOM     66  C   UNL     1       7.348  -6.725  10.757  1.00  0.00     0.074 A 
ATOM     67  C   UNL     1       8.319  -6.099  11.633  1.00  0.00     0.031 C 
ATOM     68  C   UNL     1       6.726  -7.899  11.024  1.00  0.00     0.037 A 
BRANCH  55  69
ATOM     69  C   UNL     1       2.693  -9.710   6.695  1.00  0.00     0.057 A 
ATOM     70  C   UNL     1       2.948 -10.548   5.602  1.00  0.00     0.134 A 
ATOM     71  C   UNL     1       1.473  -9.874   7.363  1.00  0.00     0.134 A 
ATOM     72  F   UNL     1       4.089 -10.431   4.907  1.00  0.00    -0.206 F 
ATOM     73  C   UNL     1       2.018 -11.502   5.181  1.00  0.00     0.040 A 
ATOM     74  C   UNL     1       0.545 -10.838   6.965  1.00  0.00     0.040 A 
ATOM     75  F   UNL     1       1.166  -9.104   8.418  1.00  0.00    -0.206 F 
ATOM     76  C   UNL     1       0.814 -11.652   5.868  1.00  0.00     0.006 A 
ENDBRANCH  55  69
BRANCH  56  77
ATOM     77  C   UNL     1       9.190  -2.595   9.445  1.00  0.00     0.057 A 
ATOM     78  C   UNL     1      10.572  -2.800   9.492  1.00  0.00     0.134 A 
ATOM     79  C   UNL     1       8.710  -1.331   9.812  1.00  0.00     0.134 A 
ATOM     80  F   UNL     1      11.088  -3.995   9.170  1.00  0.00    -0.206 F 
ATOM     81  C   UNL     1      11.446  -1.791   9.898  1.00  0.00     0.040 A 
ATOM     82  C   UNL     1       9.574  -0.305  10.196  1.00  0.00     0.040 A 
ATOM     83  F   UNL     1       7.395  -1.070   9.782  1.00  0.00    -0.206 F 
ATOM     84  C   UNL     1      10.947  -0.536  10.245  1.00  0.00     0.006 A 
ENDBRANCH  56  77
BRANCH  68  85
ATOM     85  C   UNL     1       7.103  -8.584  12.303  1.00  0.00     0.057 A 
ATOM     86  C   UNL     1       6.673  -8.108  13.548  1.00  0.00     0.134 A 
ATOM     87  C   UNL     1       7.897  -9.737  12.286  1.00  0.00     0.134 A 
ATOM     88  F   UNL     1       5.925  -6.997  13.630  1.00  0.00    -0.206 F 
ATOM     89  C   UNL     1       7.043  -8.741  14.735  1.00  0.00     0.040 A 
ATOM     90  C   UNL     1       8.252 -10.393  13.464  1.00  0.00     0.040 A 
ATOM     91  F   UNL     1       8.335 -10.245  11.124  1.00  0.00    -0.206 F 
ATOM     92  C   UNL     1       7.831  -9.890  14.694  1.00  0.00     0.006 A 
ENDBRANCH  68  85
ENDBRANCH  42  43
ENDBRANCH  35  37
ENDBRANCH  34  35
ENDBRANCH  33  34
ENDBRANCH  32  33
ENDBRANCH  31  32
ENDBRANCH  30  31
ENDBRANCH   1  30
TORSDOF 21
