REMARK SMILES C[C@H](C(=O)OCCOCCOCCOC(=O)c1ccc(-c2c3nc(c(-c4c(F)cccc4F)c4ccc([nH]4)c(-c4c(F)cccc4F)c4nc(c(-c5c(F)cccc5F)c5ccc2[nH]5)C=C4)C=C3)cc1)[C@H](C)[NH+]1CCN(S(C)(=O)=O)CC1
REMARK SMILES IDX 9 1 8 2 7 3 6 4 5 5 3 6 4 7 2 8 1 9 71 10 72 11 73 12 74 13
REMARK SMILES IDX 82 14 75 16 81 17 76 18 77 19 78 20 79 21 80 22 10 23 11 24
REMARK SMILES IDX 12 25 13 26 14 27 15 28 16 29 17 30 18 31 70 32 19 33 69 34
REMARK SMILES IDX 20 35 21 36 22 37 63 38 23 39 68 40 62 41 64 42 24 43 67 44
REMARK SMILES IDX 61 45 60 46 25 48 51 49 34 50 50 51 35 52 38 53 49 54 65 55
REMARK SMILES IDX 36 56 37 57 48 59 66 60 39 61 26 62 27 63 32 64 28 65 29 66
REMARK SMILES IDX 31 67 33 68 30 69 52 70 53 71 58 72 54 73 55 74 57 75 59 76
REMARK SMILES IDX 56 77 40 78 41 79 46 80 42 81 43 82 45 83 47 84 44 85
REMARK H PARENT 73 15 64 47 38 58
REMARK Flexibility Score: inf
ROOT
ATOM      1  C   UNL     1      -3.196  -1.527  -1.676  1.00  0.00     0.188 C 
ENDROOT
BRANCH   1   2
ATOM      2  O   UNL     1      -2.862  -2.131  -2.915  1.00  0.00    -0.376 OA
BRANCH   2   3
ATOM      3  C   UNL     1      -1.532  -1.919  -3.373  1.00  0.00     0.202 C 
BRANCH   3   4
ATOM      4  C   UNL     1      -0.413  -2.549  -2.529  1.00  0.00     0.261 C 
BRANCH   4   5
ATOM      5  O   UNL     1      -0.468  -2.237  -1.127  1.00  0.00    -0.463 OA
BRANCH   5   6
ATOM      6  C   UNL     1      -0.138  -0.974  -0.754  1.00  0.00     0.314 C 
ATOM      7  O   UNL     1       0.255  -0.116  -1.533  1.00  0.00    -0.252 OA
BRANCH   6   8
ATOM      8  C   UNL     1      -0.529  -0.726   0.706  1.00  0.00     0.154 C 
ATOM      9  C   UNL     1      -0.139  -1.877   1.636  1.00  0.00     0.026 C 
BRANCH   8  10
ATOM     10  C   UNL     1      -0.079   0.678   1.177  1.00  0.00     0.195 C 
ATOM     11  C   UNL     1       1.448   0.817   1.183  1.00  0.00     0.076 C 
BRANCH  10  12
ATOM     12  N   UNL     1      -0.810   0.987   2.432  1.00  0.00    -0.330 N 
ATOM     13  C   UNL     1      -0.053   0.906   3.693  1.00  0.00     0.279 C 
ATOM     14  C   UNL     1      -1.565   2.254   2.379  1.00  0.00     0.279 C 
ATOM     15  H   UNL     1      -1.461   0.203   2.466  1.00  0.00     0.348 HD
ATOM     16  C   UNL     1       0.811   2.135   4.042  1.00  0.00     0.163 C 
ATOM     17  C   UNL     1      -0.707   3.506   2.616  1.00  0.00     0.163 C 
ATOM     18  N   UNL     1       0.065   3.405   3.879  1.00  0.00    -0.191 NA
BRANCH  18  19
ATOM     19  S   UNL     1      -0.420   4.253   5.241  1.00  0.00     0.211 S 
ATOM     20  C   UNL     1      -1.778   3.285   5.865  1.00  0.00     0.176 C 
ATOM     21  O   UNL     1       0.648   4.179   6.211  1.00  0.00    -0.212 OA
ATOM     22  O   UNL     1      -0.951   5.530   4.808  1.00  0.00    -0.212 OA
ENDBRANCH  18  19
ENDBRANCH  10  12
ENDBRANCH   8  10
ENDBRANCH   6   8
ENDBRANCH   5   6
ENDBRANCH   4   5
ENDBRANCH   3   4
ENDBRANCH   2   3
ENDBRANCH   1   2
BRANCH   1  23
ATOM     23  C   UNL     1      -3.403  -2.533  -0.520  1.00  0.00     0.188 C 
BRANCH  23  24
ATOM     24  O   UNL     1      -3.226  -3.921  -0.737  1.00  0.00    -0.376 OA
BRANCH  24  25
ATOM     25  C   UNL     1      -3.795  -4.511  -1.894  1.00  0.00     0.202 C 
BRANCH  25  26
ATOM     26  C   UNL     1      -5.251  -4.209  -2.308  1.00  0.00     0.261 C 
BRANCH  26  27
ATOM     27  O   UNL     1      -5.717  -2.854  -2.158  1.00  0.00    -0.460 OA
BRANCH  27  28
ATOM     28  C   UNL     1      -6.556  -2.621  -1.117  1.00  0.00     0.338 C 
ATOM     29  O   UNL     1      -6.963  -3.429  -0.301  1.00  0.00    -0.246 OA
BRANCH  28  30
ATOM     30  C   UNL     1      -6.793  -1.165  -0.986  1.00  0.00     0.060 A 
ATOM     31  C   UNL     1      -6.339  -0.499   0.164  1.00  0.00     0.016 A 
ATOM     32  C   UNL     1      -7.515  -0.470  -1.956  1.00  0.00     0.016 A 
ATOM     33  C   UNL     1      -6.621   0.856   0.356  1.00  0.00     0.010 A 
ATOM     34  C   UNL     1      -7.821   0.881  -1.749  1.00  0.00     0.010 A 
ATOM     35  C   UNL     1      -7.402   1.544  -0.580  1.00  0.00    -0.014 A 
BRANCH  35  36
ATOM     36  C   UNL     1      -7.938   2.892  -0.257  1.00  0.00     0.031 A 
ATOM     37  C   UNL     1      -9.355   3.004   0.237  1.00  0.00     0.074 A 
ATOM     38  C   UNL     1      -7.188   4.001  -0.395  1.00  0.00     0.049 A 
ATOM     39  N   UNL     1     -10.065   4.072   0.498  1.00  0.00    -0.248 NA
ATOM     40  C   UNL     1     -10.068   1.737   0.464  1.00  0.00     0.031 C 
ATOM     41  C   UNL     1      -5.791   4.032  -0.820  1.00  0.00     0.029 A 
ATOM     42  N   UNL     1      -7.514   5.322  -0.206  1.00  0.00    -0.354 N 
ATOM     43  C   UNL     1     -11.310   3.608   0.904  1.00  0.00     0.074 A 
ATOM     44  C   UNL     1     -11.267   2.163   0.830  1.00  0.00     0.031 C 
ATOM     45  C   UNL     1      -5.384   5.313  -0.880  1.00  0.00     0.029 A 
ATOM     46  C   UNL     1      -6.501   6.191  -0.533  1.00  0.00     0.049 A 
ATOM     47  H   UNL     1      -8.390   5.619   0.132  1.00  0.00     0.167 HD
ATOM     48  C   UNL     1     -12.390   4.318   1.309  1.00  0.00     0.037 A 
ATOM     49  C   UNL     1      -6.488   7.539  -0.577  1.00  0.00     0.037 A 
ATOM     50  C   UNL     1     -12.437   5.755   1.379  1.00  0.00     0.049 A 
ATOM     51  C   UNL     1      -7.730   8.309  -0.202  1.00  0.00     0.074 A 
ATOM     52  C   UNL     1     -13.480   6.564   1.795  1.00  0.00     0.029 A 
ATOM     53  N   UNL     1     -11.399   6.599   1.014  1.00  0.00    -0.354 N 
ATOM     54  N   UNL     1      -8.894   7.862   0.204  1.00  0.00    -0.248 NA
ATOM     55  C   UNL     1      -7.654   9.776  -0.293  1.00  0.00     0.031 C 
ATOM     56  C   UNL     1     -13.096   7.897   1.625  1.00  0.00     0.029 A 
ATOM     57  C   UNL     1     -11.788   7.920   1.167  1.00  0.00     0.049 A 
ATOM     58  H   UNL     1     -10.516   6.303   0.694  1.00  0.00     0.167 HD
ATOM     59  C   UNL     1      -9.672   8.988   0.451  1.00  0.00     0.074 A 
ATOM     60  C   UNL     1      -8.846  10.139   0.160  1.00  0.00     0.031 C 
ATOM     61  C   UNL     1     -10.955   9.061   0.885  1.00  0.00     0.037 A 
BRANCH  48  62
ATOM     62  C   UNL     1     -13.626   3.549   1.679  1.00  0.00     0.057 A 
ATOM     63  C   UNL     1     -13.696   2.769   2.840  1.00  0.00     0.134 A 
ATOM     64  C   UNL     1     -14.774   3.620   0.879  1.00  0.00     0.134 A 
ATOM     65  F   UNL     1     -12.628   2.647   3.643  1.00  0.00    -0.206 F 
ATOM     66  C   UNL     1     -14.855   2.069   3.180  1.00  0.00     0.040 A 
ATOM     67  C   UNL     1     -15.948   2.949   1.223  1.00  0.00     0.040 A 
ATOM     68  F   UNL     1     -14.778   4.354  -0.245  1.00  0.00    -0.206 F 
ATOM     69  C   UNL     1     -15.988   2.164   2.374  1.00  0.00     0.006 A 
ENDBRANCH  48  62
BRANCH  49  70
ATOM     70  C   UNL     1      -5.263   8.262  -1.010  1.00  0.00     0.057 A 
ATOM     71  C   UNL     1      -4.539   9.062  -0.118  1.00  0.00     0.134 A 
ATOM     72  C   UNL     1      -4.810   8.203  -2.334  1.00  0.00     0.134 A 
ATOM     73  F   UNL     1      -4.939   9.183   1.156  1.00  0.00    -0.206 F 
ATOM     74  C   UNL     1      -3.423   9.792  -0.530  1.00  0.00     0.040 A 
ATOM     75  C   UNL     1      -3.679   8.905  -2.753  1.00  0.00     0.040 A 
ATOM     76  F   UNL     1      -5.459   7.457  -3.240  1.00  0.00    -0.206 F 
ATOM     77  C   UNL     1      -2.987   9.711  -1.851  1.00  0.00     0.006 A 
ENDBRANCH  49  70
BRANCH  61  78
ATOM     78  C   UNL     1     -11.535  10.428   1.120  1.00  0.00     0.057 A 
ATOM     79  C   UNL     1     -11.847  11.298   0.068  1.00  0.00     0.134 A 
ATOM     80  C   UNL     1     -11.826  10.862   2.421  1.00  0.00     0.134 A 
ATOM     81  F   UNL     1     -11.585  10.951  -1.202  1.00  0.00    -0.206 F 
ATOM     82  C   UNL     1     -12.403  12.558   0.301  1.00  0.00     0.040 A 
ATOM     83  C   UNL     1     -12.411  12.105   2.665  1.00  0.00     0.040 A 
ATOM     84  F   UNL     1     -11.565  10.075   3.476  1.00  0.00    -0.206 F 
ATOM     85  C   UNL     1     -12.694  12.961   1.603  1.00  0.00     0.006 A 
ENDBRANCH  61  78
ENDBRANCH  35  36
ENDBRANCH  28  30
ENDBRANCH  27  28
ENDBRANCH  26  27
ENDBRANCH  25  26
ENDBRANCH  24  25
ENDBRANCH  23  24
ENDBRANCH   1  23
TORSDOF 20
