REMARK SMILES CC(=O)N[C@@H](CSCc1ccnc2ccccc12)C(=O)OCCOCCOCCOC(=O)c1ccc(-c2c3nc(c(-c4c(F)cccc4F)c4ccc([nH]4)c(-c4c(F)cccc4F)c4nc(c(-c5c(F)cccc5F)c5ccc2[nH]5)C=C4)C=C3)cc1
REMARK SMILES IDX 25 1 24 2 23 3 22 4 21 5 19 6 20 7 5 8 4 9 1 10 2 11 3 12
REMARK SMILES IDX 6 14 7 15 8 16 9 17 10 18 18 19 11 20 13 21 17 22 12 23
REMARK SMILES IDX 14 24 16 25 15 26 26 27 27 28 28 29 29 30 30 31 31 32 32 33
REMARK SMILES IDX 33 34 34 35 86 36 35 37 85 38 36 39 37 40 38 41 79 42 39 43
REMARK SMILES IDX 84 44 78 45 80 46 40 47 83 48 77 49 76 50 41 52 67 53 50 54
REMARK SMILES IDX 66 55 51 56 54 57 65 58 81 59 52 60 53 61 64 63 82 64 55 65
REMARK SMILES IDX 42 66 43 67 48 68 44 69 45 70 47 71 49 72 46 73 68 74 69 75
REMARK SMILES IDX 74 76 70 77 71 78 73 79 75 80 72 81 56 82 57 83 62 84 58 85
REMARK SMILES IDX 59 86 61 87 63 88 60 89
REMARK H PARENT 4 13 80 51 54 62
REMARK Flexibility Score: inf
ROOT
ATOM      1  C   UNL     1      -0.906   2.216  -3.525  1.00  0.00     0.188 C 
ENDROOT
BRANCH   1   2
ATOM      2  O   UNL     1      -0.899   2.905  -4.771  1.00  0.00    -0.376 OA
BRANCH   2   3
ATOM      3  C   UNL     1      -0.723   2.178  -5.977  1.00  0.00     0.202 C 
BRANCH   3   4
ATOM      4  C   UNL     1       0.604   1.434  -6.163  1.00  0.00     0.261 C 
BRANCH   4   5
ATOM      5  O   UNL     1       1.031   0.664  -5.023  1.00  0.00    -0.462 OA
BRANCH   5   6
ATOM      6  C   UNL     1       2.199   1.052  -4.444  1.00  0.00     0.329 C 
ATOM      7  O   UNL     1       2.910   1.967  -4.846  1.00  0.00    -0.250 OA
BRANCH   6   8
ATOM      8  C   UNL     1       2.613   0.164  -3.256  1.00  0.00     0.202 C 
BRANCH   8   9
ATOM      9  N   UNL     1       1.561  -0.640  -2.635  1.00  0.00    -0.342 N 
ATOM     10  C   UNL     1       1.907   0.033  -0.283  1.00  0.00     0.114 C 
ATOM     11  C   UNL     1       1.165  -0.735  -1.336  1.00  0.00     0.217 C 
ATOM     12  O   UNL     1       0.186  -1.425  -1.062  1.00  0.00    -0.275 OA
ATOM     13  H   UNL     1       1.054  -1.207  -3.260  1.00  0.00     0.164 HD
ENDBRANCH   8   9
BRANCH   8  14
ATOM     14  C   UNL     1       3.818  -0.681  -3.696  1.00  0.00     0.106 C 
BRANCH  14  15
ATOM     15  S   UNL     1       3.608  -2.046  -4.918  1.00  0.00    -0.154 SA
BRANCH  15  16
ATOM     16  C   UNL     1       2.349  -3.194  -4.253  1.00  0.00     0.105 C 
BRANCH  16  17
ATOM     17  C   UNL     1       2.701  -4.089  -3.083  1.00  0.00    -0.027 A 
ATOM     18  C   UNL     1       3.355  -3.584  -1.956  1.00  0.00     0.025 A 
ATOM     19  C   UNL     1       2.299  -5.459  -3.042  1.00  0.00     0.004 A 
ATOM     20  C   UNL     1       3.708  -4.431  -0.925  1.00  0.00     0.112 A 
ATOM     21  C   UNL     1       2.734  -6.240  -1.939  1.00  0.00     0.070 A 
ATOM     22  C   UNL     1       1.477  -6.095  -4.010  1.00  0.00     0.010 A 
ATOM     23  N   UNL     1       3.441  -5.744  -0.917  1.00  0.00    -0.256 NA
ATOM     24  C   UNL     1       2.410  -7.586  -1.881  1.00  0.00     0.029 A 
ATOM     25  C   UNL     1       1.142  -7.447  -3.913  1.00  0.00     0.001 A 
ATOM     26  C   UNL     1       1.625  -8.199  -2.855  1.00  0.00     0.002 A 
ENDBRANCH  16  17
ENDBRANCH  15  16
ENDBRANCH  14  15
ENDBRANCH   8  14
ENDBRANCH   6   8
ENDBRANCH   5   6
ENDBRANCH   4   5
ENDBRANCH   3   4
ENDBRANCH   2   3
ENDBRANCH   1   2
BRANCH   1  27
ATOM     27  C   UNL     1      -1.397   0.759  -3.433  1.00  0.00     0.188 C 
BRANCH  27  28
ATOM     28  O   UNL     1      -2.167   0.315  -4.531  1.00  0.00    -0.376 OA
BRANCH  28  29
ATOM     29  C   UNL     1      -3.468  -0.146  -4.213  1.00  0.00     0.202 C 
BRANCH  29  30
ATOM     30  C   UNL     1      -4.434   0.991  -3.857  1.00  0.00     0.261 C 
BRANCH  30  31
ATOM     31  O   UNL     1      -3.990   1.841  -2.780  1.00  0.00    -0.460 OA
BRANCH  31  32
ATOM     32  C   UNL     1      -4.030   1.316  -1.539  1.00  0.00     0.338 C 
ATOM     33  O   UNL     1      -4.462   0.209  -1.227  1.00  0.00    -0.246 OA
BRANCH  32  34
ATOM     34  C   UNL     1      -3.290   2.204  -0.616  1.00  0.00     0.060 A 
ATOM     35  C   UNL     1      -2.200   1.683   0.096  1.00  0.00     0.016 A 
ATOM     36  C   UNL     1      -3.682   3.532  -0.425  1.00  0.00     0.016 A 
ATOM     37  C   UNL     1      -1.538   2.471   1.041  1.00  0.00     0.010 A 
ATOM     38  C   UNL     1      -3.029   4.314   0.537  1.00  0.00     0.010 A 
ATOM     39  C   UNL     1      -1.984   3.773   1.308  1.00  0.00    -0.014 A 
BRANCH  39  40
ATOM     40  C   UNL     1      -1.525   4.461   2.546  1.00  0.00     0.031 A 
ATOM     41  C   UNL     1      -2.395   4.370   3.774  1.00  0.00     0.074 A 
ATOM     42  C   UNL     1      -0.351   5.113   2.612  1.00  0.00     0.049 A 
ATOM     43  N   UNL     1      -2.216   4.882   4.965  1.00  0.00    -0.248 NA
ATOM     44  C   UNL     1      -3.639   3.595   3.634  1.00  0.00     0.031 C 
ATOM     45  C   UNL     1       0.606   5.253   1.518  1.00  0.00     0.029 A 
ATOM     46  N   UNL     1       0.233   5.785   3.659  1.00  0.00    -0.354 N 
ATOM     47  C   UNL     1      -3.323   4.496   5.712  1.00  0.00     0.074 A 
ATOM     48  C   UNL     1      -4.184   3.738   4.831  1.00  0.00     0.031 C 
ATOM     49  C   UNL     1       1.657   5.974   1.949  1.00  0.00     0.029 A 
ATOM     50  C   UNL     1       1.437   6.366   3.342  1.00  0.00     0.049 A 
ATOM     51  H   UNL     1      -0.174   5.845   4.554  1.00  0.00     0.167 HD
ATOM     52  C   UNL     1      -3.598   4.737   7.016  1.00  0.00     0.037 A 
ATOM     53  C   UNL     1       2.258   7.135   4.085  1.00  0.00     0.037 A 
ATOM     54  C   UNL     1      -2.749   5.489   7.902  1.00  0.00     0.049 A 
ATOM     55  C   UNL     1       1.904   7.441   5.519  1.00  0.00     0.074 A 
ATOM     56  C   UNL     1      -2.939   5.776   9.242  1.00  0.00     0.029 A 
ATOM     57  N   UNL     1      -1.552   6.082   7.532  1.00  0.00    -0.354 N 
ATOM     58  N   UNL     1       0.868   7.049   6.221  1.00  0.00    -0.248 NA
ATOM     59  C   UNL     1       2.844   8.291   6.267  1.00  0.00     0.031 C 
ATOM     60  C   UNL     1      -1.880   6.583   9.672  1.00  0.00     0.029 A 
ATOM     61  C   UNL     1      -1.001   6.750   8.615  1.00  0.00     0.049 A 
ATOM     62  H   UNL     1      -1.151   6.034   6.634  1.00  0.00     0.167 HD
ATOM     63  C   UNL     1       1.048   7.575   7.496  1.00  0.00     0.074 A 
ATOM     64  C   UNL     1       2.299   8.302   7.475  1.00  0.00     0.031 C 
ATOM     65  C   UNL     1       0.250   7.464   8.588  1.00  0.00     0.037 A 
BRANCH  52  66
ATOM     66  C   UNL     1      -4.892   4.199   7.554  1.00  0.00     0.057 A 
ATOM     67  C   UNL     1      -5.099   2.829   7.759  1.00  0.00     0.134 A 
ATOM     68  C   UNL     1      -5.942   5.067   7.881  1.00  0.00     0.134 A 
ATOM     69  F   UNL     1      -4.141   1.943   7.450  1.00  0.00    -0.206 F 
ATOM     70  C   UNL     1      -6.314   2.339   8.243  1.00  0.00     0.040 A 
ATOM     71  C   UNL     1      -7.150   4.592   8.392  1.00  0.00     0.040 A 
ATOM     72  F   UNL     1      -5.809   6.391   7.712  1.00  0.00    -0.206 F 
ATOM     73  C   UNL     1      -7.342   3.223   8.566  1.00  0.00     0.006 A 
ENDBRANCH  52  66
BRANCH  53  74
ATOM     74  C   UNL     1       3.505   7.686   3.493  1.00  0.00     0.057 A 
ATOM     75  C   UNL     1       4.767   7.255   3.920  1.00  0.00     0.134 A 
ATOM     76  C   UNL     1       3.464   8.689   2.517  1.00  0.00     0.134 A 
ATOM     77  F   UNL     1       4.873   6.318   4.873  1.00  0.00    -0.206 F 
ATOM     78  C   UNL     1       5.942   7.813   3.412  1.00  0.00     0.040 A 
ATOM     79  C   UNL     1       4.631   9.237   1.981  1.00  0.00     0.040 A 
ATOM     80  F   UNL     1       2.287   9.150   2.068  1.00  0.00    -0.206 F 
ATOM     81  C   UNL     1       5.875   8.805   2.436  1.00  0.00     0.006 A 
ENDBRANCH  53  74
BRANCH  65  82
ATOM     82  C   UNL     1       0.728   8.101   9.863  1.00  0.00     0.057 A 
ATOM     83  C   UNL     1       0.773   9.491  10.032  1.00  0.00     0.134 A 
ATOM     84  C   UNL     1       1.130   7.307  10.946  1.00  0.00     0.134 A 
ATOM     85  F   UNL     1       0.411  10.310   9.033  1.00  0.00    -0.206 F 
ATOM     86  C   UNL     1       1.233  10.068  11.218  1.00  0.00     0.040 A 
ATOM     87  C   UNL     1       1.563   7.872  12.147  1.00  0.00     0.040 A 
ATOM     88  F   UNL     1       1.101   5.969  10.859  1.00  0.00    -0.206 F 
ATOM     89  C   UNL     1       1.625   9.257  12.282  1.00  0.00     0.006 A 
ENDBRANCH  65  82
ENDBRANCH  39  40
ENDBRANCH  32  34
ENDBRANCH  31  32
ENDBRANCH  30  31
ENDBRANCH  29  30
ENDBRANCH  28  29
ENDBRANCH  27  28
ENDBRANCH   1  27
TORSDOF 22
