REMARK SMILES Nc1c(C(=O)OCC2c3ccccc3-c3ccccc32)ccc(F)c1C(=O)OCCOCCOCCOC(=O)c1ccc(-c2c3nc(c(-c4c(F)cccc4F)c4ccc([nH]4)c(-c4c(F)cccc4F)c4nc(c(-c5c(F)cccc5F)c5ccc2[nH]5)C=C4)C=C3)cc1
REMARK SMILES IDX 32 1 31 2 30 3 29 4 28 5 26 6 27 7 25 8 2 9 3 10 21 11 23 12
REMARK SMILES IDX 22 13 24 14 1 15 4 18 5 19 6 20 7 21 8 22 9 23 20 24 10 25
REMARK SMILES IDX 14 26 15 27 19 28 11 29 13 30 16 31 18 32 12 33 17 34 33 35
REMARK SMILES IDX 34 36 35 37 36 38 37 39 38 40 39 41 40 42 41 43 93 44 42 45
REMARK SMILES IDX 92 46 43 47 44 48 45 49 86 50 46 51 91 52 85 53 87 54 47 55
REMARK SMILES IDX 90 56 84 57 83 58 48 60 74 61 57 62 73 63 58 64 61 65 72 66
REMARK SMILES IDX 88 67 59 68 60 69 71 71 89 72 62 73 49 74 50 75 55 76 51 77
REMARK SMILES IDX 52 78 54 79 56 80 53 81 75 82 76 83 81 84 77 85 78 86 80 87
REMARK SMILES IDX 82 88 79 89 63 90 64 91 69 92 65 93 66 94 68 95 70 96 67 97
REMARK H PARENT 1 16 1 17 87 59 61 70
REMARK Flexibility Score: inf
ROOT
ATOM      1  C   UNL     1      -1.110   3.527  -1.358  1.00  0.00     0.188 C 
ENDROOT
BRANCH   1   2
ATOM      2  O   UNL     1      -1.065   4.899  -0.977  1.00  0.00    -0.376 OA
BRANCH   2   3
ATOM      3  C   UNL     1       0.059   5.383  -0.243  1.00  0.00     0.202 C 
BRANCH   3   4
ATOM      4  C   UNL     1       0.496   4.622   1.015  1.00  0.00     0.261 C 
BRANCH   4   5
ATOM      5  O   UNL     1       0.816   3.247   0.743  1.00  0.00    -0.460 OA
BRANCH   5   6
ATOM      6  C   UNL     1       0.228   2.322   1.546  1.00  0.00     0.343 C 
ATOM      7  O   UNL     1      -0.412   2.542   2.558  1.00  0.00    -0.246 OA
BRANCH   6   8
ATOM      8  C   UNL     1       0.349   0.987   0.919  1.00  0.00     0.119 A 
ATOM      9  C   UNL     1       1.565   0.494   0.392  1.00  0.00     0.064 A 
ATOM     10  C   UNL     1       1.562  -0.813  -0.152  1.00  0.00     0.084 A 
ATOM     11  C   UNL     1       0.364  -1.549  -0.247  1.00  0.00     0.021 A 
ATOM     12  C   UNL     1      -0.829   0.237   0.815  1.00  0.00     0.139 A 
ATOM     13  C   UNL     1      -0.831  -1.020   0.226  1.00  0.00     0.041 A 
ATOM     14  F   UNL     1      -2.003   0.739   1.223  1.00  0.00    -0.206 F 
BRANCH   9  15
ATOM     15  N   UNL     1       2.734   1.257   0.469  1.00  0.00    -0.397 N 
ATOM     16  H   UNL     1       3.576   0.905   0.099  1.00  0.00     0.156 HD
ATOM     17  H   UNL     1       2.715   2.145   0.892  1.00  0.00     0.156 HD
ENDBRANCH   9  15
BRANCH  10  18
ATOM     18  C   UNL     1       2.783  -1.510  -0.643  1.00  0.00     0.340 C 
ATOM     19  O   UNL     1       2.748  -2.415  -1.464  1.00  0.00    -0.246 OA
BRANCH  18  20
ATOM     20  O   UNL     1       3.871  -1.090   0.052  1.00  0.00    -0.461 OA
BRANCH  20  21
ATOM     21  C   UNL     1       5.021  -1.949   0.000  1.00  0.00     0.246 C 
BRANCH  21  22
ATOM     22  C   UNL     1       5.212  -2.689   1.338  1.00  0.00     0.088 C 
ATOM     23  C   UNL     1       4.002  -3.528   1.738  1.00  0.00    -0.029 A 
ATOM     24  C   UNL     1       6.280  -3.763   1.173  1.00  0.00    -0.029 A 
ATOM     25  C   UNL     1       2.763  -3.096   2.189  1.00  0.00     0.005 A 
ATOM     26  C   UNL     1       4.295  -4.900   1.609  1.00  0.00    -0.014 A 
ATOM     27  C   UNL     1       5.698  -5.046   1.286  1.00  0.00    -0.014 A 
ATOM     28  C   UNL     1       7.632  -3.599   0.914  1.00  0.00     0.005 A 
ATOM     29  C   UNL     1       1.768  -4.049   2.405  1.00  0.00     0.000 A 
ATOM     30  C   UNL     1       3.308  -5.848   1.823  1.00  0.00     0.009 A 
ATOM     31  C   UNL     1       6.474  -6.182   1.131  1.00  0.00     0.009 A 
ATOM     32  C   UNL     1       8.412  -4.746   0.761  1.00  0.00     0.000 A 
ATOM     33  C   UNL     1       2.033  -5.413   2.204  1.00  0.00     0.001 A 
ATOM     34  C   UNL     1       7.838  -6.025   0.865  1.00  0.00     0.001 A 
ENDBRANCH  21  22
ENDBRANCH  20  21
ENDBRANCH  18  20
ENDBRANCH  10  18
ENDBRANCH   6   8
ENDBRANCH   5   6
ENDBRANCH   4   5
ENDBRANCH   3   4
ENDBRANCH   2   3
ENDBRANCH   1   2
BRANCH   1  35
ATOM     35  C   UNL     1       0.096   2.917  -2.105  1.00  0.00     0.188 C 
BRANCH  35  36
ATOM     36  O   UNL     1       1.183   3.801  -2.244  1.00  0.00    -0.376 OA
BRANCH  36  37
ATOM     37  C   UNL     1       1.410   4.405  -3.505  1.00  0.00     0.202 C 
BRANCH  37  38
ATOM     38  C   UNL     1       0.268   4.922  -4.406  1.00  0.00     0.261 C 
BRANCH  38  39
ATOM     39  O   UNL     1      -1.020   4.306  -4.285  1.00  0.00    -0.460 OA
BRANCH  39  40
ATOM     40  C   UNL     1      -1.270   3.231  -5.067  1.00  0.00     0.338 C 
ATOM     41  O   UNL     1      -0.501   2.684  -5.836  1.00  0.00    -0.246 OA
BRANCH  40  42
ATOM     42  C   UNL     1      -2.602   2.703  -4.702  1.00  0.00     0.060 A 
ATOM     43  C   UNL     1      -2.692   1.431  -4.120  1.00  0.00     0.016 A 
ATOM     44  C   UNL     1      -3.754   3.456  -4.939  1.00  0.00     0.016 A 
ATOM     45  C   UNL     1      -3.942   0.899  -3.795  1.00  0.00     0.010 A 
ATOM     46  C   UNL     1      -5.006   2.912  -4.631  1.00  0.00     0.010 A 
ATOM     47  C   UNL     1      -5.109   1.621  -4.083  1.00  0.00    -0.014 A 
BRANCH  47  48
ATOM     48  C   UNL     1      -6.437   0.969  -3.970  1.00  0.00     0.031 A 
ATOM     49  C   UNL     1      -7.063   0.392  -5.210  1.00  0.00     0.074 A 
ATOM     50  C   UNL     1      -7.079   0.883  -2.791  1.00  0.00     0.049 A 
ATOM     51  N   UNL     1      -8.239  -0.158  -5.371  1.00  0.00    -0.248 NA
ATOM     52  C   UNL     1      -6.250   0.446  -6.436  1.00  0.00     0.031 C 
ATOM     53  C   UNL     1      -6.568   1.366  -1.510  1.00  0.00     0.029 A 
ATOM     54  N   UNL     1      -8.316   0.367  -2.489  1.00  0.00    -0.354 N 
ATOM     55  C   UNL     1      -8.309  -0.513  -6.712  1.00  0.00     0.074 A 
ATOM     56  C   UNL     1      -7.070  -0.090  -7.328  1.00  0.00     0.031 C 
ATOM     57  C   UNL     1      -7.494   1.142  -0.560  1.00  0.00     0.029 A 
ATOM     58  C   UNL     1      -8.673   0.530  -1.172  1.00  0.00     0.049 A 
ATOM     59  H   UNL     1      -8.892  -0.076  -3.152  1.00  0.00     0.167 HD
ATOM     60  C   UNL     1      -9.311  -1.142  -7.371  1.00  0.00     0.037 A 
ATOM     61  C   UNL     1      -9.830   0.243  -0.542  1.00  0.00     0.037 A 
ATOM     62  C   UNL     1     -10.547  -1.556  -6.763  1.00  0.00     0.049 A 
ATOM     63  C   UNL     1     -10.962  -0.384  -1.315  1.00  0.00     0.074 A 
ATOM     64  C   UNL     1     -11.620  -2.206  -7.349  1.00  0.00     0.029 A 
ATOM     65  N   UNL     1     -10.879  -1.353  -5.433  1.00  0.00    -0.354 N 
ATOM     66  N   UNL     1     -11.010  -0.736  -2.578  1.00  0.00    -0.248 NA
ATOM     67  C   UNL     1     -12.204  -0.654  -0.574  1.00  0.00     0.031 C 
ATOM     68  C   UNL     1     -12.620  -2.356  -6.383  1.00  0.00     0.029 A 
ATOM     69  C   UNL     1     -12.149  -1.846  -5.184  1.00  0.00     0.049 A 
ATOM     70  H   UNL     1     -10.299  -0.923  -4.765  1.00  0.00     0.167 HD
ATOM     71  C   UNL     1     -12.268  -1.296  -2.771  1.00  0.00     0.074 A 
ATOM     72  C   UNL     1     -12.948  -1.248  -1.495  1.00  0.00     0.031 C 
ATOM     73  C   UNL     1     -12.810  -1.806  -3.905  1.00  0.00     0.037 A 
BRANCH  60  74
ATOM     74  C   UNL     1      -9.117  -1.403  -8.835  1.00  0.00     0.057 A 
ATOM     75  C   UNL     1      -8.226  -2.379  -9.300  1.00  0.00     0.134 A 
ATOM     76  C   UNL     1      -9.859  -0.697  -9.791  1.00  0.00     0.134 A 
ATOM     77  F   UNL     1      -7.475  -3.079  -8.437  1.00  0.00    -0.206 F 
ATOM     78  C   UNL     1      -8.067  -2.631 -10.663  1.00  0.00     0.040 A 
ATOM     79  C   UNL     1      -9.727  -0.957 -11.155  1.00  0.00     0.040 A 
ATOM     80  F   UNL     1     -10.732   0.249  -9.413  1.00  0.00    -0.206 F 
ATOM     81  C   UNL     1      -8.825  -1.924 -11.595  1.00  0.00     0.006 A 
ENDBRANCH  60  74
BRANCH  61  82
ATOM     82  C   UNL     1      -9.998   0.565   0.899  1.00  0.00     0.057 A 
ATOM     83  C   UNL     1     -10.122  -0.445   1.860  1.00  0.00     0.134 A 
ATOM     84  C   UNL     1     -10.086   1.890   1.343  1.00  0.00     0.134 A 
ATOM     85  F   UNL     1     -10.075  -1.735   1.494  1.00  0.00    -0.206 F 
ATOM     86  C   UNL     1     -10.350  -0.151   3.206  1.00  0.00     0.040 A 
ATOM     87  C   UNL     1     -10.286   2.199   2.689  1.00  0.00     0.040 A 
ATOM     88  F   UNL     1      -9.980   2.904   0.471  1.00  0.00    -0.206 F 
ATOM     89  C   UNL     1     -10.428   1.176   3.624  1.00  0.00     0.006 A 
ENDBRANCH  61  82
BRANCH  73  90
ATOM     90  C   UNL     1     -14.188  -2.396  -3.810  1.00  0.00     0.057 A 
ATOM     91  C   UNL     1     -15.328  -1.598  -3.656  1.00  0.00     0.134 A 
ATOM     92  C   UNL     1     -14.378  -3.780  -3.921  1.00  0.00     0.134 A 
ATOM     93  F   UNL     1     -15.215  -0.267  -3.533  1.00  0.00    -0.206 F 
ATOM     94  C   UNL     1     -16.607  -2.157  -3.592  1.00  0.00     0.040 A 
ATOM     95  C   UNL     1     -15.652  -4.347  -3.886  1.00  0.00     0.040 A 
ATOM     96  F   UNL     1     -13.329  -4.601  -4.081  1.00  0.00    -0.206 F 
ATOM     97  C   UNL     1     -16.771  -3.535  -3.716  1.00  0.00     0.006 A 
ENDBRANCH  73  90
ENDBRANCH  47  48
ENDBRANCH  40  42
ENDBRANCH  39  40
ENDBRANCH  38  39
ENDBRANCH  37  38
ENDBRANCH  36  37
ENDBRANCH  35  36
ENDBRANCH   1  35
TORSDOF 22
