REMARK SMILES CN(C(=O)C[C@@H]1SC(=O)N(c2ccccc2)C1=O)c1ccccc1C(=O)OCCOCCOCCOC(=O)c1ccc(-c2c3nc(c(-c4c(F)cccc4F)c4ccc([nH]4)c(-c4c(F)cccc4F)c4nc(c(-c5c(F)cccc5F)c5ccc2[nH]5)C=C4)C=C3)cc1
REMARK SMILES IDX 30 1 29 2 28 3 27 4 25 5 26 6 24 7 19 8 20 9 21 10 23 11
REMARK SMILES IDX 22 12 2 13 1 14 3 15 4 16 5 17 6 18 7 19 17 20 8 21 10 22
REMARK SMILES IDX 18 23 9 24 11 25 12 26 16 27 13 28 15 29 14 30 31 31 32 32
REMARK SMILES IDX 33 33 34 34 35 35 36 36 37 37 38 38 39 39 40 40 92 41 41 42
REMARK SMILES IDX 91 43 42 44 43 45 44 46 85 47 45 48 90 49 84 50 86 51 46 52
REMARK SMILES IDX 89 53 83 54 82 55 47 57 73 58 56 59 72 60 57 61 60 62 71 63
REMARK SMILES IDX 87 64 58 65 59 66 70 68 88 69 61 70 48 71 49 72 54 73 50 74
REMARK SMILES IDX 51 75 53 76 55 77 52 78 74 79 75 80 80 81 76 82 77 83 79 84
REMARK SMILES IDX 81 85 78 86 62 87 63 88 68 89 64 90 65 91 67 92 69 93 66 94
REMARK H PARENT 86 56 60 67
REMARK Flexibility Score: inf
ROOT
ATOM      1  O   UNL     1       5.609  -0.806   0.834  1.00  0.00    -0.376 OA
ENDROOT
BRANCH   1   2
ATOM      2  C   UNL     1       4.535  -1.694   0.515  1.00  0.00     0.202 C 
BRANCH   2   3
ATOM      3  C   UNL     1       3.432  -1.704   1.567  1.00  0.00     0.261 C 
BRANCH   3   4
ATOM      4  O   UNL     1       2.696  -0.466   1.494  1.00  0.00    -0.460 OA
BRANCH   4   5
ATOM      5  C   UNL     1       2.195  -0.032   2.666  1.00  0.00     0.340 C 
ATOM      6  O   UNL     1       2.280  -0.616   3.736  1.00  0.00    -0.246 OA
BRANCH   5   7
ATOM      7  C   UNL     1       1.641   1.337   2.566  1.00  0.00     0.083 A 
ATOM      8  C   UNL     1       0.618   1.816   1.715  1.00  0.00     0.058 A 
ATOM      9  C   UNL     1       0.078   3.077   2.075  1.00  0.00     0.027 A 
ATOM     10  C   UNL     1       0.619   3.899   3.068  1.00  0.00     0.002 A 
ATOM     11  C   UNL     1       2.212   2.194   3.544  1.00  0.00     0.018 A 
ATOM     12  C   UNL     1       1.726   3.476   3.773  1.00  0.00     0.001 A 
BRANCH   8  13
ATOM     13  N   UNL     1       0.050   1.171   0.527  1.00  0.00    -0.315 N 
ATOM     14  C   UNL     1       0.145  -0.270   0.367  1.00  0.00     0.153 C 
BRANCH  13  15
ATOM     15  C   UNL     1      -0.421   1.986  -0.521  1.00  0.00     0.228 C 
ATOM     16  O   UNL     1      -0.246   3.208  -0.551  1.00  0.00    -0.274 OA
BRANCH  15  17
ATOM     17  C   UNL     1      -1.162   1.390  -1.710  1.00  0.00     0.125 C 
BRANCH  17  18
ATOM     18  C   UNL     1      -0.414   1.516  -3.037  1.00  0.00     0.156 C 
ATOM     19  S   UNL     1       0.672   0.104  -3.334  1.00  0.00    -0.050 SA
ATOM     20  C   UNL     1       0.464   2.741  -3.167  1.00  0.00     0.248 C 
ATOM     21  C   UNL     1       2.099   1.111  -3.535  1.00  0.00     0.293 C 
ATOM     22  N   UNL     1       1.810   2.417  -3.224  1.00  0.00    -0.240 N 
ATOM     23  O   UNL     1      -0.027   3.858  -3.315  1.00  0.00    -0.273 OA
ATOM     24  O   UNL     1       3.141   0.595  -3.905  1.00  0.00    -0.261 OA
BRANCH  22  25
ATOM     25  C   UNL     1       2.794   3.443  -3.152  1.00  0.00     0.053 A 
ATOM     26  C   UNL     1       2.640   4.493  -2.227  1.00  0.00     0.027 A 
ATOM     27  C   UNL     1       3.928   3.440  -3.970  1.00  0.00     0.027 A 
ATOM     28  C   UNL     1       3.586   5.515  -2.129  1.00  0.00     0.002 A 
ATOM     29  C   UNL     1       4.840   4.497  -3.914  1.00  0.00     0.002 A 
ATOM     30  C   UNL     1       4.676   5.527  -2.988  1.00  0.00     0.000 A 
ENDBRANCH  22  25
ENDBRANCH  17  18
ENDBRANCH  15  17
ENDBRANCH  13  15
ENDBRANCH   8  13
ENDBRANCH   5   7
ENDBRANCH   4   5
ENDBRANCH   3   4
ENDBRANCH   2   3
ENDBRANCH   1   2
BRANCH   1  31
ATOM     31  C   UNL     1       5.314   0.595   0.847  1.00  0.00     0.188 C 
BRANCH  31  32
ATOM     32  C   UNL     1       4.482   1.140  -0.329  1.00  0.00     0.188 C 
BRANCH  32  33
ATOM     33  O   UNL     1       5.082   1.240  -1.612  1.00  0.00    -0.376 OA
BRANCH  33  34
ATOM     34  C   UNL     1       6.074   0.305  -2.004  1.00  0.00     0.202 C 
BRANCH  34  35
ATOM     35  C   UNL     1       7.414   1.014  -2.201  1.00  0.00     0.261 C 
BRANCH  35  36
ATOM     36  O   UNL     1       7.766   1.798  -1.043  1.00  0.00    -0.460 OA
BRANCH  36  37
ATOM     37  C   UNL     1       7.286   3.060  -1.115  1.00  0.00     0.338 C 
ATOM     38  O   UNL     1       6.724   3.584  -2.058  1.00  0.00    -0.246 OA
BRANCH  37  39
ATOM     39  C   UNL     1       7.564   3.851   0.077  1.00  0.00     0.060 A 
ATOM     40  C   UNL     1       6.492   4.392   0.799  1.00  0.00     0.016 A 
ATOM     41  C   UNL     1       8.870   4.300   0.264  1.00  0.00     0.016 A 
ATOM     42  C   UNL     1       6.728   5.425   1.700  1.00  0.00     0.010 A 
ATOM     43  C   UNL     1       9.102   5.332   1.163  1.00  0.00     0.010 A 
ATOM     44  C   UNL     1       8.032   5.913   1.863  1.00  0.00    -0.014 A 
BRANCH  44  45
ATOM     45  C   UNL     1       8.315   7.039   2.772  1.00  0.00     0.031 A 
ATOM     46  C   UNL     1       8.665   8.385   2.212  1.00  0.00     0.074 A 
ATOM     47  C   UNL     1       8.348   6.791   4.092  1.00  0.00     0.049 A 
ATOM     48  N   UNL     1       9.172   9.424   2.820  1.00  0.00    -0.248 NA
ATOM     49  C   UNL     1       8.424   8.583   0.774  1.00  0.00     0.031 C 
ATOM     50  C   UNL     1       7.996   5.514   4.716  1.00  0.00     0.029 A 
ATOM     51  N   UNL     1       8.729   7.585   5.138  1.00  0.00    -0.354 N 
ATOM     52  C   UNL     1       9.345  10.390   1.836  1.00  0.00     0.074 A 
ATOM     53  C   UNL     1       8.886   9.813   0.590  1.00  0.00     0.031 C 
ATOM     54  C   UNL     1       8.203   5.602   6.038  1.00  0.00     0.029 A 
ATOM     55  C   UNL     1       8.755   6.918   6.337  1.00  0.00     0.049 A 
ATOM     56  H   UNL     1       8.962   8.537   5.041  1.00  0.00     0.167 HD
ATOM     57  C   UNL     1       9.856  11.637   1.973  1.00  0.00     0.037 A 
ATOM     58  C   UNL     1       9.223   7.314   7.533  1.00  0.00     0.037 A 
ATOM     59  C   UNL     1      10.300  12.180   3.233  1.00  0.00     0.049 A 
ATOM     60  C   UNL     1       9.810   8.690   7.648  1.00  0.00     0.074 A 
ATOM     61  C   UNL     1      10.819  13.434   3.503  1.00  0.00     0.029 A 
ATOM     62  N   UNL     1      10.276  11.489   4.438  1.00  0.00    -0.354 N 
ATOM     63  N   UNL     1       9.974   9.600   6.716  1.00  0.00    -0.248 NA
ATOM     64  C   UNL     1      10.274   9.097   8.978  1.00  0.00     0.031 C 
ATOM     65  C   UNL     1      11.144  13.488   4.864  1.00  0.00     0.029 A 
ATOM     66  C   UNL     1      10.779  12.287   5.452  1.00  0.00     0.049 A 
ATOM     67  H   UNL     1       9.949  10.568   4.554  1.00  0.00     0.167 HD
ATOM     68  C   UNL     1      10.522  10.702   7.355  1.00  0.00     0.074 A 
ATOM     69  C   UNL     1      10.655  10.345   8.754  1.00  0.00     0.031 C 
ATOM     70  C   UNL     1      10.880  11.904   6.838  1.00  0.00     0.037 A 
BRANCH  57  71
ATOM     71  C   UNL     1       9.998  12.482   0.739  1.00  0.00     0.057 A 
ATOM     72  C   UNL     1       8.893  13.037   0.082  1.00  0.00     0.134 A 
ATOM     73  C   UNL     1      11.268  12.782   0.225  1.00  0.00     0.134 A 
ATOM     74  F   UNL     1       7.648  12.782   0.512  1.00  0.00    -0.206 F 
ATOM     75  C   UNL     1       9.043  13.847  -1.047  1.00  0.00     0.040 A 
ATOM     76  C   UNL     1      11.432  13.610  -0.888  1.00  0.00     0.040 A 
ATOM     77  F   UNL     1      12.372  12.287   0.805  1.00  0.00    -0.206 F 
ATOM     78  C   UNL     1      10.317  14.142  -1.530  1.00  0.00     0.006 A 
ENDBRANCH  57  71
BRANCH  58  79
ATOM     79  C   UNL     1       9.159   6.399   8.697  1.00  0.00     0.057 A 
ATOM     80  C   UNL     1       8.295   6.657   9.766  1.00  0.00     0.134 A 
ATOM     81  C   UNL     1       9.948   5.244   8.769  1.00  0.00     0.134 A 
ATOM     82  F   UNL     1       7.522   7.754   9.759  1.00  0.00    -0.206 F 
ATOM     83  C   UNL     1       8.233   5.814  10.876  1.00  0.00     0.040 A 
ATOM     84  C   UNL     1       9.876   4.377   9.860  1.00  0.00     0.040 A 
ATOM     85  F   UNL     1      10.786   4.931   7.769  1.00  0.00    -0.206 F 
ATOM     86  C   UNL     1       9.022   4.667  10.922  1.00  0.00     0.006 A 
ENDBRANCH  58  79
BRANCH  70  87
ATOM     87  C   UNL     1      11.375  12.929   7.813  1.00  0.00     0.057 A 
ATOM     88  C   UNL     1      12.629  12.829   8.427  1.00  0.00     0.134 A 
ATOM     89  C   UNL     1      10.574  14.029   8.144  1.00  0.00     0.134 A 
ATOM     90  F   UNL     1      13.435  11.789   8.165  1.00  0.00    -0.206 F 
ATOM     91  C   UNL     1      13.054  13.768   9.367  1.00  0.00     0.040 A 
ATOM     92  C   UNL     1      11.000  14.990   9.060  1.00  0.00     0.040 A 
ATOM     93  F   UNL     1       9.365  14.186   7.584  1.00  0.00    -0.206 F 
ATOM     94  C   UNL     1      12.239  14.855   9.683  1.00  0.00     0.006 A 
ENDBRANCH  70  87
ENDBRANCH  44  45
ENDBRANCH  37  39
ENDBRANCH  36  37
ENDBRANCH  35  36
ENDBRANCH  34  35
ENDBRANCH  33  34
ENDBRANCH  32  33
ENDBRANCH  31  32
ENDBRANCH   1  31
TORSDOF 22
