REMARK SMILES O=C(OCCOCCOCCOC(=O)[C@@H]1O[C@H](OC(=O)c2cccnc2)[C@@H](O)[C@H](O)[C@H]1O)c1ccc(-c2c3nc(c(-c4c(F)cccc4F)c4ccc([nH]4)c(-c4c(F)cccc4F)c4nc(c(-c5c(F)cccc5F)c5ccc2[nH]5)C=C4)C=C3)cc1
REMARK SMILES IDX 8 1 7 2 6 3 5 4 4 5 3 6 2 7 1 8 33 9 34 10 86 11 35 12 85 13
REMARK SMILES IDX 36 14 37 15 38 16 79 17 39 18 84 19 78 20 80 21 40 22 83 23
REMARK SMILES IDX 77 24 76 25 41 27 67 28 50 29 66 30 51 31 54 32 65 33 81 34
REMARK SMILES IDX 52 35 53 36 64 38 82 39 55 40 42 41 43 42 48 43 44 44 45 45
REMARK SMILES IDX 47 46 49 47 46 48 68 49 69 50 74 51 70 52 71 53 73 54 75 55
REMARK SMILES IDX 72 56 56 57 57 58 62 59 58 60 59 61 61 62 63 63 60 64 9 65
REMARK SMILES IDX 10 66 11 67 12 68 13 69 14 70 15 71 16 72 31 73 17 74 29 75
REMARK SMILES IDX 27 76 32 77 18 79 19 80 20 81 21 82 22 83 26 84 23 85 25 86
REMARK SMILES IDX 24 87 30 88 28 90
REMARK H PARENT 80 26 54 37 32 78 30 89 28 91
REMARK Flexibility Score: inf
ROOT
ATOM      1  C   UNL     1       6.044  -0.209   6.398  1.00  0.00     0.188 C 
ENDROOT
BRANCH   1   2
ATOM      2  C   UNL     1       6.800  -0.316   5.071  1.00  0.00     0.188 C 
BRANCH   2   3
ATOM      3  O   UNL     1       6.346  -1.394   4.239  1.00  0.00    -0.376 OA
BRANCH   3   4
ATOM      4  C   UNL     1       7.431  -2.196   3.743  1.00  0.00     0.202 C 
BRANCH   4   5
ATOM      5  C   UNL     1       8.199  -1.590   2.554  1.00  0.00     0.261 C 
BRANCH   5   6
ATOM      6  O   UNL     1       8.160  -0.152   2.526  1.00  0.00    -0.460 OA
BRANCH   6   7
ATOM      7  C   UNL     1       7.259   0.670   1.933  1.00  0.00     0.338 C 
ATOM      8  O   UNL     1       7.428   1.885   2.031  1.00  0.00    -0.246 OA
BRANCH   7   9
ATOM      9  C   UNL     1       6.071   0.198   1.153  1.00  0.00     0.060 A 
ATOM     10  C   UNL     1       5.537  -1.086   1.209  1.00  0.00     0.016 A 
ATOM     11  C   UNL     1       5.419   1.136   0.327  1.00  0.00     0.016 A 
ATOM     12  C   UNL     1       4.488  -1.470   0.388  1.00  0.00     0.010 A 
ATOM     13  C   UNL     1       4.307   0.777  -0.450  1.00  0.00     0.010 A 
ATOM     14  C   UNL     1       3.861  -0.546  -0.446  1.00  0.00    -0.014 A 
BRANCH  14  15
ATOM     15  C   UNL     1       2.805  -1.063  -1.345  1.00  0.00     0.031 A 
ATOM     16  C   UNL     1       3.122  -1.283  -2.782  1.00  0.00     0.074 A 
ATOM     17  C   UNL     1       1.675  -1.571  -0.821  1.00  0.00     0.049 A 
ATOM     18  N   UNL     1       2.378  -1.827  -3.704  1.00  0.00    -0.248 NA
ATOM     19  C   UNL     1       4.466  -0.890  -3.231  1.00  0.00     0.031 C 
ATOM     20  C   UNL     1       1.375  -1.559   0.600  1.00  0.00     0.029 A 
ATOM     21  N   UNL     1       0.611  -2.237  -1.368  1.00  0.00    -0.354 N 
ATOM     22  C   UNL     1       3.173  -1.881  -4.834  1.00  0.00     0.074 A 
ATOM     23  C   UNL     1       4.441  -1.269  -4.499  1.00  0.00     0.031 C 
ATOM     24  C   UNL     1       0.235  -2.220   0.832  1.00  0.00     0.029 A 
ATOM     25  C   UNL     1      -0.346  -2.582  -0.441  1.00  0.00     0.049 A 
ATOM     26  H   UNL     1       0.538  -2.448  -2.327  1.00  0.00     0.167 HD
ATOM     27  C   UNL     1       2.866  -2.418  -6.035  1.00  0.00     0.037 A 
ATOM     28  C   UNL     1      -1.587  -3.072  -0.599  1.00  0.00     0.037 A 
ATOM     29  C   UNL     1       1.583  -2.987  -6.347  1.00  0.00     0.049 A 
ATOM     30  C   UNL     1      -1.993  -3.439  -1.986  1.00  0.00     0.074 A 
ATOM     31  C   UNL     1       1.116  -3.458  -7.559  1.00  0.00     0.029 A 
ATOM     32  N   UNL     1       0.552  -3.154  -5.428  1.00  0.00    -0.354 N 
ATOM     33  N   UNL     1      -1.275  -3.387  -3.082  1.00  0.00    -0.248 NA
ATOM     34  C   UNL     1      -3.356  -3.941  -2.170  1.00  0.00     0.031 C 
ATOM     35  C   UNL     1      -0.210  -3.872  -7.382  1.00  0.00     0.029 A 
ATOM     36  C   UNL     1      -0.556  -3.703  -6.050  1.00  0.00     0.049 A 
ATOM     37  H   UNL     1       0.603  -2.916  -4.473  1.00  0.00     0.167 HD
ATOM     38  C   UNL     1      -2.087  -3.871  -4.088  1.00  0.00     0.074 A 
ATOM     39  C   UNL     1      -3.352  -4.221  -3.466  1.00  0.00     0.031 C 
ATOM     40  C   UNL     1      -1.806  -4.022  -5.404  1.00  0.00     0.037 A 
BRANCH  27  41
ATOM     41  C   UNL     1       3.931  -2.342  -7.082  1.00  0.00     0.057 A 
ATOM     42  C   UNL     1       5.069  -3.159  -7.040  1.00  0.00     0.134 A 
ATOM     43  C   UNL     1       3.850  -1.393  -8.107  1.00  0.00     0.134 A 
ATOM     44  F   UNL     1       5.225  -4.058  -6.056  1.00  0.00    -0.206 F 
ATOM     45  C   UNL     1       6.100  -3.019  -7.971  1.00  0.00     0.040 A 
ATOM     46  C   UNL     1       4.865  -1.258  -9.054  1.00  0.00     0.040 A 
ATOM     47  F   UNL     1       2.796  -0.567  -8.188  1.00  0.00    -0.206 F 
ATOM     48  C   UNL     1       5.997  -2.067  -8.983  1.00  0.00     0.006 A 
ENDBRANCH  27  41
BRANCH  28  49
ATOM     49  C   UNL     1      -2.534  -3.129   0.545  1.00  0.00     0.057 A 
ATOM     50  C   UNL     1      -3.004  -4.335   1.072  1.00  0.00     0.134 A 
ATOM     51  C   UNL     1      -3.017  -1.946   1.127  1.00  0.00     0.134 A 
ATOM     52  F   UNL     1      -2.598  -5.502   0.552  1.00  0.00    -0.206 F 
ATOM     53  C   UNL     1      -3.930  -4.364   2.119  1.00  0.00     0.040 A 
ATOM     54  C   UNL     1      -3.924  -1.959   2.187  1.00  0.00     0.040 A 
ATOM     55  F   UNL     1      -2.608  -0.751   0.674  1.00  0.00    -0.206 F 
ATOM     56  C   UNL     1      -4.391  -3.174   2.681  1.00  0.00     0.006 A 
ENDBRANCH  28  49
BRANCH  40  57
ATOM     57  C   UNL     1      -2.894  -4.626  -6.232  1.00  0.00     0.057 A 
ATOM     58  C   UNL     1      -4.048  -3.908  -6.568  1.00  0.00     0.134 A 
ATOM     59  C   UNL     1      -2.792  -5.950  -6.672  1.00  0.00     0.134 A 
ATOM     60  F   UNL     1      -4.211  -2.645  -6.147  1.00  0.00    -0.206 F 
ATOM     61  C   UNL     1      -5.082  -4.501  -7.290  1.00  0.00     0.040 A 
ATOM     62  C   UNL     1      -3.807  -6.544  -7.419  1.00  0.00     0.040 A 
ATOM     63  F   UNL     1      -1.710  -6.685  -6.376  1.00  0.00    -0.206 F 
ATOM     64  C   UNL     1      -4.960  -5.822  -7.721  1.00  0.00     0.006 A 
ENDBRANCH  40  57
ENDBRANCH  14  15
ENDBRANCH   7   9
ENDBRANCH   6   7
ENDBRANCH   5   6
ENDBRANCH   4   5
ENDBRANCH   3   4
ENDBRANCH   2   3
ENDBRANCH   1   2
BRANCH   1  65
ATOM     65  O   UNL     1       6.212  -1.281   7.322  1.00  0.00    -0.376 OA
BRANCH  65  66
ATOM     66  C   UNL     1       5.785  -2.581   6.922  1.00  0.00     0.202 C 
BRANCH  66  67
ATOM     67  C   UNL     1       4.275  -2.809   6.784  1.00  0.00     0.261 C 
BRANCH  67  68
ATOM     68  O   UNL     1       3.650  -1.852   5.917  1.00  0.00    -0.461 OA
BRANCH  68  69
ATOM     69  C   UNL     1       2.646  -1.110   6.476  1.00  0.00     0.338 C 
ATOM     70  O   UNL     1       2.198  -1.283   7.603  1.00  0.00    -0.249 OA
BRANCH  69  71
ATOM     71  C   UNL     1       2.214   0.013   5.523  1.00  0.00     0.263 C 
ATOM     72  O   UNL     1       1.540   0.988   6.307  1.00  0.00    -0.322 OA
ATOM     73  C   UNL     1       1.343  -0.585   4.420  1.00  0.00     0.186 C 
ATOM     74  C   UNL     1       0.773   1.979   5.641  1.00  0.00     0.343 C 
ATOM     75  C   UNL     1       0.769   0.555   3.568  1.00  0.00     0.181 C 
ATOM     76  C   UNL     1      -0.033   1.513   4.422  1.00  0.00     0.214 C 
BRANCH  73  77
ATOM     77  O   UNL     1       2.098  -1.482   3.602  1.00  0.00    -0.387 OA
ATOM     78  H   UNL     1       2.830  -1.002   3.185  1.00  0.00     0.211 HD
ENDBRANCH  73  77
BRANCH  74  79
ATOM     79  O   UNL     1      -0.128   2.573   6.595  1.00  0.00    -0.429 OA
BRANCH  79  80
ATOM     80  C   UNL     1      -0.950   1.695   7.210  1.00  0.00     0.342 C 
ATOM     81  O   UNL     1      -1.046   0.483   7.006  1.00  0.00    -0.246 OA
BRANCH  80  82
ATOM     82  C   UNL     1      -1.761   2.387   8.200  1.00  0.00     0.078 A 
ATOM     83  C   UNL     1      -2.373   3.610   7.930  1.00  0.00     0.019 A 
ATOM     84  C   UNL     1      -1.977   1.780   9.428  1.00  0.00     0.126 A 
ATOM     85  C   UNL     1      -3.175   4.186   8.909  1.00  0.00     0.021 A 
ATOM     86  N   UNL     1      -2.745   2.327  10.399  1.00  0.00    -0.264 NA
ATOM     87  C   UNL     1      -3.325   3.516  10.115  1.00  0.00     0.111 A 
ENDBRANCH  80  82
ENDBRANCH  79  80
ENDBRANCH  74  79
BRANCH  75  88
ATOM     88  O   UNL     1      -0.138   0.111   2.556  1.00  0.00    -0.387 OA
ATOM     89  H   UNL     1      -0.911  -0.302   2.973  1.00  0.00     0.211 HD
ENDBRANCH  75  88
BRANCH  76  90
ATOM     90  O   UNL     1      -0.447   2.627   3.610  1.00  0.00    -0.384 OA
ATOM     91  H   UNL     1       0.336   3.086   3.266  1.00  0.00     0.211 HD
ENDBRANCH  76  90
ENDBRANCH  69  71
ENDBRANCH  68  69
ENDBRANCH  67  68
ENDBRANCH  66  67
ENDBRANCH  65  66
ENDBRANCH   1  65
TORSDOF 23
