REMARK SMILES COc1ccc([C@@H]2CC(c3ccc(Cl)cc3)=NN2C2=[NH+]C(=O)[C@@H](CC(=O)OCCOCCOCCOC(=O)c3ccc(-c4c5nc(c(-c6c(F)cccc6F)c6ccc([nH]6)c(-c6c(F)cccc6F)c6nc(c(-c7c(F)cccc7F)c7ccc4[nH]7)C=C6)C=C5)cc3)S2)cc1OC
REMARK SMILES IDX 31 1 30 2 29 3 28 4 27 5 25 6 26 7 24 8 23 9 19 10 20 11
REMARK SMILES IDX 93 12 21 13 22 15 18 16 7 17 8 18 9 19 17 20 6 21 3 22 4 23
REMARK SMILES IDX 95 24 5 25 94 26 2 27 1 28 96 29 97 30 10 31 11 32 16 33
REMARK SMILES IDX 12 34 15 35 13 36 14 37 32 38 33 39 34 40 35 41 36 42 37 43
REMARK SMILES IDX 38 44 39 45 40 46 92 47 41 48 91 49 42 50 43 51 44 52 85 53
REMARK SMILES IDX 45 54 90 55 84 56 86 57 46 58 89 59 83 60 82 61 47 63 73 64
REMARK SMILES IDX 56 65 72 66 57 67 60 68 71 69 87 70 58 71 59 72 70 74 88 75
REMARK SMILES IDX 61 76 48 77 49 78 54 79 50 80 51 81 53 82 55 83 52 84 74 85
REMARK SMILES IDX 75 86 80 87 76 88 77 89 79 90 81 91 78 92 62 93 63 94 68 95
REMARK SMILES IDX 64 96 65 97 67 98 69 99 66 100
REMARK H PARENT 20 14 86 62 60 73
REMARK Flexibility Score: inf
ROOT
ATOM      1  C   UNL     1      -0.060   1.120  -9.060  1.00  0.00     0.188 C 
ENDROOT
BRANCH   1   2
ATOM      2  O   UNL     1      -1.471   1.208  -9.226  1.00  0.00    -0.376 OA
BRANCH   2   3
ATOM      3  C   UNL     1      -2.133   2.287  -8.560  1.00  0.00     0.202 C 
BRANCH   3   4
ATOM      4  C   UNL     1      -2.045   2.284  -7.028  1.00  0.00     0.261 C 
BRANCH   4   5
ATOM      5  O   UNL     1      -0.686   2.348  -6.557  1.00  0.00    -0.463 OA
BRANCH   5   6
ATOM      6  C   UNL     1      -0.327   1.450  -5.603  1.00  0.00     0.307 C 
ATOM      7  O   UNL     1      -1.083   0.643  -5.075  1.00  0.00    -0.252 OA
BRANCH   6   8
ATOM      8  C   UNL     1       1.161   1.444  -5.335  1.00  0.00     0.150 C 
BRANCH   8   9
ATOM      9  C   UNL     1       1.903   2.725  -5.679  1.00  0.00     0.184 C 
ATOM     10  C   UNL     1       2.853   4.607  -4.258  1.00  0.00     0.340 C 
ATOM     11  N   UNL     1       3.799   3.780  -4.565  1.00  0.00    -0.202 N 
ATOM     12  S   UNL     1       1.247   4.154  -4.787  1.00  0.00    -0.020 SA
ATOM     13  C   UNL     1       3.350   2.658  -5.219  1.00  0.00     0.322 C 
ATOM     14  H   UNL     1       4.747   3.940  -4.351  1.00  0.00     0.316 HD
ATOM     15  O   UNL     1       4.050   1.671  -5.426  1.00  0.00    -0.246 OA
BRANCH  10  16
ATOM     16  N   UNL     1       2.979   5.787  -3.550  1.00  0.00    -0.120 N 
ATOM     17  C   UNL     1       2.240   5.992  -2.298  1.00  0.00     0.243 C 
ATOM     18  C   UNL     1       3.149   6.895  -1.470  1.00  0.00     0.118 C 
ATOM     19  C   UNL     1       4.201   7.213  -2.487  1.00  0.00     0.096 C 
ATOM     20  N   UNL     1       4.103   6.583  -3.614  1.00  0.00    -0.086 NA
BRANCH  17  21
ATOM     21  C   UNL     1       0.850   6.564  -2.498  1.00  0.00     0.003 A 
ATOM     22  C   UNL     1      -1.783   7.537  -2.749  1.00  0.00     0.160 A 
ATOM     23  C   UNL     1      -0.700   8.263  -3.267  1.00  0.00     0.051 A 
ATOM     24  C   UNL     1      -1.570   6.293  -2.151  1.00  0.00     0.161 A 
ATOM     25  C   UNL     1       0.608   7.781  -3.144  1.00  0.00     0.012 A 
ATOM     26  C   UNL     1      -0.254   5.830  -2.026  1.00  0.00     0.058 A 
BRANCH  22  27
ATOM     27  O   UNL     1      -3.040   8.049  -2.924  1.00  0.00    -0.493 OA
ATOM     28  C   UNL     1      -3.302   9.100  -1.992  1.00  0.00     0.278 C 
ENDBRANCH  22  27
BRANCH  24  29
ATOM     29  O   UNL     1      -2.483   5.403  -1.660  1.00  0.00    -0.493 OA
ATOM     30  C   UNL     1      -3.808   5.847  -1.422  1.00  0.00     0.278 C 
ENDBRANCH  24  29
ENDBRANCH  17  21
BRANCH  19  31
ATOM     31  C   UNL     1       5.272   8.180  -2.189  1.00  0.00     0.000 A 
ATOM     32  C   UNL     1       5.739   9.017  -3.207  1.00  0.00     0.011 A 
ATOM     33  C   UNL     1       5.816   8.263  -0.903  1.00  0.00     0.011 A 
ATOM     34  C   UNL     1       6.737   9.956  -2.931  1.00  0.00     0.021 A 
ATOM     35  C   UNL     1       6.824   9.191  -0.635  1.00  0.00     0.021 A 
ATOM     36  C   UNL     1       7.275  10.038  -1.647  1.00  0.00     0.041 A 
ATOM     37  Cl  UNL     1       8.504  11.191  -1.306  1.00  0.00    -0.084 Cl
ENDBRANCH  19  31
ENDBRANCH  10  16
ENDBRANCH   8   9
ENDBRANCH   6   8
ENDBRANCH   5   6
ENDBRANCH   4   5
ENDBRANCH   3   4
ENDBRANCH   2   3
ENDBRANCH   1   2
BRANCH   1  38
ATOM     38  C   UNL     1       0.759   2.291  -9.608  1.00  0.00     0.188 C 
BRANCH  38  39
ATOM     39  O   UNL     1       0.302   3.584  -9.235  1.00  0.00    -0.376 OA
BRANCH  39  40
ATOM     40  C   UNL     1       1.038   4.687  -9.780  1.00  0.00     0.202 C 
BRANCH  40  41
ATOM     41  C   UNL     1       1.148   4.731 -11.319  1.00  0.00     0.261 C 
BRANCH  41  42
ATOM     42  O   UNL     1       1.886   3.638 -11.908  1.00  0.00    -0.460 OA
BRANCH  42  43
ATOM     43  C   UNL     1       3.139   3.411 -11.436  1.00  0.00     0.338 C 
ATOM     44  O   UNL     1       3.809   4.169 -10.774  1.00  0.00    -0.246 OA
BRANCH  43  45
ATOM     45  C   UNL     1       3.448   1.966 -11.630  1.00  0.00     0.060 A 
ATOM     46  C   UNL     1       4.084   1.285 -10.582  1.00  0.00     0.016 A 
ATOM     47  C   UNL     1       3.053   1.266 -12.774  1.00  0.00     0.016 A 
ATOM     48  C   UNL     1       4.347  -0.085 -10.685  1.00  0.00     0.010 A 
ATOM     49  C   UNL     1       3.331  -0.102 -12.884  1.00  0.00     0.010 A 
ATOM     50  C   UNL     1       4.001  -0.781 -11.851  1.00  0.00    -0.014 A 
BRANCH  50  51
ATOM     51  C   UNL     1       4.488  -2.169 -12.063  1.00  0.00     0.031 A 
ATOM     52  C   UNL     1       5.748  -2.372 -12.860  1.00  0.00     0.074 A 
ATOM     53  C   UNL     1       3.841  -3.236 -11.560  1.00  0.00     0.049 A 
ATOM     54  N   UNL     1       6.336  -3.485 -13.220  1.00  0.00    -0.248 NA
ATOM     55  C   UNL     1       6.437  -1.152 -13.312  1.00  0.00     0.031 C 
ATOM     56  C   UNL     1       2.632  -3.189 -10.741  1.00  0.00     0.029 A 
ATOM     57  N   UNL     1       4.115  -4.578 -11.680  1.00  0.00    -0.354 N 
ATOM     58  C   UNL     1       7.458  -3.101 -13.942  1.00  0.00     0.074 A 
ATOM     59  C   UNL     1       7.456  -1.654 -13.992  1.00  0.00     0.031 C 
ATOM     60  C   UNL     1       2.259  -4.447 -10.445  1.00  0.00     0.029 A 
ATOM     61  C   UNL     1       3.183  -5.388 -11.078  1.00  0.00     0.049 A 
ATOM     62  H   UNL     1       4.906  -4.926 -12.152  1.00  0.00     0.167 HD
ATOM     63  C   UNL     1       8.411  -3.879 -14.507  1.00  0.00     0.037 A 
ATOM     64  C   UNL     1       3.075  -6.733 -11.062  1.00  0.00     0.037 A 
ATOM     65  C   UNL     1       8.424  -5.317 -14.463  1.00  0.00     0.049 A 
ATOM     66  C   UNL     1       4.105  -7.578 -11.768  1.00  0.00     0.074 A 
ATOM     67  C   UNL     1       9.368  -6.185 -14.984  1.00  0.00     0.029 A 
ATOM     68  N   UNL     1       7.443  -6.099 -13.876  1.00  0.00    -0.354 N 
ATOM     69  N   UNL     1       5.181  -7.206 -12.417  1.00  0.00    -0.248 NA
ATOM     70  C   UNL     1       3.901  -9.036 -11.741  1.00  0.00     0.031 C 
ATOM     71  C   UNL     1       8.931  -7.494 -14.758  1.00  0.00     0.029 A 
ATOM     72  C   UNL     1       7.741  -7.440 -14.052  1.00  0.00     0.049 A 
ATOM     73  H   UNL     1       6.651  -5.753 -13.403  1.00  0.00     0.167 HD
ATOM     74  C   UNL     1       5.792  -8.377 -12.852  1.00  0.00     0.074 A 
ATOM     75  C   UNL     1       4.976  -9.475 -12.380  1.00  0.00     0.031 C 
ATOM     76  C   UNL     1       6.927  -8.529 -13.577  1.00  0.00     0.037 A 
BRANCH  63  77
ATOM     77  C   UNL     1       9.515  -3.187 -15.249  1.00  0.00     0.057 A 
ATOM     78  C   UNL     1      10.530  -2.490 -14.583  1.00  0.00     0.134 A 
ATOM     79  C   UNL     1       9.583  -3.256 -16.646  1.00  0.00     0.134 A 
ATOM     80  F   UNL     1      10.513  -2.375 -13.246  1.00  0.00    -0.206 F 
ATOM     81  C   UNL     1      11.567  -1.871 -15.282  1.00  0.00     0.040 A 
ATOM     82  C   UNL     1      10.627  -2.662 -17.354  1.00  0.00     0.040 A 
ATOM     83  F   UNL     1       8.642  -3.911 -17.342  1.00  0.00    -0.206 F 
ATOM     84  C   UNL     1      11.621  -1.963 -16.672  1.00  0.00     0.006 A 
ENDBRANCH  63  77
BRANCH  64  85
ATOM     85  C   UNL     1       1.925  -7.382 -10.380  1.00  0.00     0.057 A 
ATOM     86  C   UNL     1       2.104  -8.158  -9.228  1.00  0.00     0.134 A 
ATOM     87  C   UNL     1       0.627  -7.287 -10.897  1.00  0.00     0.134 A 
ATOM     88  F   UNL     1       3.328  -8.317  -8.705  1.00  0.00    -0.206 F 
ATOM     89  C   UNL     1       1.038  -8.831  -8.627  1.00  0.00     0.040 A 
ATOM     90  C   UNL     1      -0.452  -7.933 -10.291  1.00  0.00     0.040 A 
ATOM     91  F   UNL     1       0.390  -6.567 -12.003  1.00  0.00    -0.206 F 
ATOM     92  C   UNL     1      -0.246  -8.715  -9.156  1.00  0.00     0.006 A 
ENDBRANCH  64  85
BRANCH  76  93
ATOM     93  C   UNL     1       7.373  -9.929 -13.887  1.00  0.00     0.057 A 
ATOM     94  C   UNL     1       6.703 -10.729 -14.821  1.00  0.00     0.134 A 
ATOM     95  C   UNL     1       8.515 -10.467 -13.279  1.00  0.00     0.134 A 
ATOM     96  F   UNL     1       5.596 -10.280 -15.432  1.00  0.00    -0.206 F 
ATOM     97  C   UNL     1       7.141 -12.021 -15.124  1.00  0.00     0.040 A 
ATOM     98  C   UNL     1       8.977 -11.746 -13.593  1.00  0.00     0.040 A 
ATOM     99  F   UNL     1       9.212  -9.751 -12.384  1.00  0.00    -0.206 F 
ATOM    100  C   UNL     1       8.286 -12.530 -14.514  1.00  0.00     0.006 A 
ENDBRANCH  76  93
ENDBRANCH  50  51
ENDBRANCH  43  45
ENDBRANCH  42  43
ENDBRANCH  41  42
ENDBRANCH  40  41
ENDBRANCH  39  40
ENDBRANCH  38  39
ENDBRANCH   1  38
TORSDOF 23
