REMARK SMILES Cc1nn(C(C)C)c(C)c1S(=O)(=O)Nc1cccc(C(=O)OCCOCCOCCOC(=O)c2ccc(-c3c4nc(c(-c5c(F)cccc5F)c5ccc([nH]5)c(-c5c(F)cccc5F)c5nc(c(-c6c(F)cccc6F)c6ccc3[nH]6)C=C5)C=C4)cc2)c1C
REMARK SMILES IDX 26 1 25 2 24 3 23 4 22 5 20 6 21 7 19 8 15 9 16 10 88 11
REMARK SMILES IDX 17 12 89 13 18 14 14 15 11 17 12 18 13 19 10 20 1 21 2 22
REMARK SMILES IDX 3 23 4 24 8 25 9 26 5 27 6 28 7 29 27 30 28 31 29 32 30 33
REMARK SMILES IDX 31 34 32 35 33 36 34 37 35 38 87 39 36 40 86 41 37 42 38 43
REMARK SMILES IDX 39 44 80 45 40 46 85 47 79 48 81 49 41 50 84 51 78 52 77 53
REMARK SMILES IDX 42 55 68 56 51 57 67 58 52 59 55 60 66 61 82 62 53 63 54 64
REMARK SMILES IDX 65 66 83 67 56 68 43 69 44 70 49 71 45 72 46 73 48 74 50 75
REMARK SMILES IDX 47 76 69 77 70 78 75 79 71 80 72 81 74 82 76 83 73 84 57 85
REMARK SMILES IDX 58 86 63 87 59 88 60 89 62 90 64 91 61 92
REMARK H PARENT 14 16 81 54 55 65
REMARK Flexibility Score: inf
ROOT
ATOM      1  C   UNL     1       0.365  -4.253   6.975  1.00  0.00     0.188 C 
ENDROOT
BRANCH   1   2
ATOM      2  O   UNL     1       0.175  -4.441   5.574  1.00  0.00    -0.376 OA
BRANCH   2   3
ATOM      3  C   UNL     1       0.525  -5.571   4.787  1.00  0.00     0.202 C 
BRANCH   3   4
ATOM      4  C   UNL     1       1.298  -5.428   3.246  1.00  0.00     0.261 C 
BRANCH   4   5
ATOM      5  O   UNL     1       1.855  -4.056   2.368  1.00  0.00    -0.460 OA
BRANCH   5   6
ATOM      6  C   UNL     1       1.441  -2.917   1.626  1.00  0.00     0.338 C 
ATOM      7  O   UNL     1       0.402  -2.739   1.000  1.00  0.00    -0.246 OA
BRANCH   6   8
ATOM      8  C   UNL     1       2.298  -1.710   1.390  1.00  0.00     0.065 A 
ATOM      9  C   UNL     1       2.421   0.681   0.709  1.00  0.00     0.053 A 
ATOM     10  C   UNL     1       3.500   0.374  -0.109  1.00  0.00     0.027 A 
ATOM     11  C   UNL     1       1.799  -0.345   1.470  1.00  0.00    -0.012 A 
ATOM     12  C   UNL     1       3.966  -0.944  -0.188  1.00  0.00     0.003 A 
ATOM     13  C   UNL     1       0.581   0.105   2.257  1.00  0.00     0.047 C 
ATOM     14  C   UNL     1       3.377  -1.975   0.551  1.00  0.00     0.016 A 
BRANCH   9  15
ATOM     15  N   UNL     1       1.885   1.999   0.786  1.00  0.00    -0.279 N 
ATOM     16  H   UNL     1       1.691   2.334   1.692  1.00  0.00     0.180 HD
BRANCH  15  17
ATOM     17  S   UNL     1       1.545   3.041  -0.461  1.00  0.00     0.265 S 
ATOM     18  O   UNL     1       2.797   3.438  -1.072  1.00  0.00    -0.201 OA
ATOM     19  O   UNL     1       0.672   4.041   0.126  1.00  0.00    -0.201 OA
BRANCH  17  20
ATOM     20  C   UNL     1       0.618   2.449  -1.790  1.00  0.00     0.131 A 
ATOM     21  C   UNL     1      -0.211   0.012  -1.146  1.00  0.00     0.070 C 
ATOM     22  C   UNL     1      -0.010   1.198  -2.004  1.00  0.00     0.080 A 
ATOM     23  N   UNL     1      -0.536   1.128  -3.232  1.00  0.00    -0.176 NA
ATOM     24  N   UNL     1      -0.341   2.339  -3.768  1.00  0.00    -0.266 N 
ATOM     25  C   UNL     1       0.286   3.207  -2.913  1.00  0.00     0.056 A 
ATOM     26  C   UNL     1       0.504   4.643  -3.227  1.00  0.00     0.068 C 
BRANCH  24  27
ATOM     27  C   UNL     1      -0.799   2.570  -5.136  1.00  0.00     0.101 C 
ATOM     28  C   UNL     1       0.050   1.777  -6.131  1.00  0.00     0.033 C 
ATOM     29  C   UNL     1      -2.285   2.239  -5.288  1.00  0.00     0.033 C 
ENDBRANCH  24  27
ENDBRANCH  17  20
ENDBRANCH  15  17
ENDBRANCH   9  15
ENDBRANCH   6   8
ENDBRANCH   5   6
ENDBRANCH   4   5
ENDBRANCH   3   4
ENDBRANCH   2   3
ENDBRANCH   1   2
BRANCH   1  30
ATOM     30  C   UNL     1       1.766  -4.367   7.570  1.00  0.00     0.188 C 
BRANCH  30  31
ATOM     31  O   UNL     1       2.675  -4.899   6.628  1.00  0.00    -0.376 OA
BRANCH  31  32
ATOM     32  C   UNL     1       3.979  -5.133   7.141  1.00  0.00     0.202 C 
BRANCH  32  33
ATOM     33  C   UNL     1       4.750  -3.862   7.562  1.00  0.00     0.261 C 
BRANCH  33  34
ATOM     34  O   UNL     1       4.699  -2.855   6.526  1.00  0.00    -0.460 OA
BRANCH  34  35
ATOM     35  C   UNL     1       4.039  -1.678   6.782  1.00  0.00     0.338 C 
ATOM     36  O   UNL     1       4.080  -1.063   7.839  1.00  0.00    -0.246 OA
BRANCH  35  37
ATOM     37  C   UNL     1       3.029  -1.426   5.695  1.00  0.00     0.060 A 
ATOM     38  C   UNL     1       1.855  -0.670   5.838  1.00  0.00     0.016 A 
ATOM     39  C   UNL     1       3.012  -2.340   4.703  1.00  0.00     0.016 A 
ATOM     40  C   UNL     1       0.626  -1.009   5.117  1.00  0.00     0.010 A 
ATOM     41  C   UNL     1       1.736  -2.762   4.341  1.00  0.00     0.010 A 
ATOM     42  C   UNL     1       0.476  -2.161   4.334  1.00  0.00    -0.014 A 
BRANCH  42  43
ATOM     43  C   UNL     1      -0.925  -2.851   3.805  1.00  0.00     0.031 A 
ATOM     44  C   UNL     1      -1.447  -3.588   2.440  1.00  0.00     0.074 A 
ATOM     45  C   UNL     1      -1.949  -2.834   4.693  1.00  0.00     0.049 A 
ATOM     46  N   UNL     1      -2.600  -3.308   1.846  1.00  0.00    -0.248 NA
ATOM     47  C   UNL     1      -0.823  -4.683   1.647  1.00  0.00     0.031 C 
ATOM     48  C   UNL     1      -3.255  -3.490   4.599  1.00  0.00     0.029 A 
ATOM     49  N   UNL     1      -2.038  -2.098   5.876  1.00  0.00    -0.354 N 
ATOM     50  C   UNL     1      -2.788  -4.173   0.753  1.00  0.00     0.074 A 
ATOM     51  C   UNL     1      -1.591  -4.890   0.589  1.00  0.00     0.031 C 
ATOM     52  C   UNL     1      -4.096  -2.886   5.451  1.00  0.00     0.029 A 
ATOM     53  C   UNL     1      -3.386  -1.771   6.045  1.00  0.00     0.049 A 
ATOM     54  H   UNL     1      -1.295  -1.857   6.475  1.00  0.00     0.167 HD
ATOM     55  C   UNL     1      -3.943  -4.439   0.086  1.00  0.00     0.037 A 
ATOM     56  C   UNL     1      -3.776  -0.471   6.099  1.00  0.00     0.037 A 
ATOM     57  C   UNL     1      -5.050  -3.919   0.823  1.00  0.00     0.049 A 
ATOM     58  C   UNL     1      -4.790  -0.118   5.038  1.00  0.00     0.074 A 
ATOM     59  C   UNL     1      -5.853  -4.482   1.798  1.00  0.00     0.029 A 
ATOM     60  N   UNL     1      -5.189  -2.553   0.916  1.00  0.00    -0.354 N 
ATOM     61  N   UNL     1      -5.149  -0.910   4.064  1.00  0.00    -0.248 NA
ATOM     62  C   UNL     1      -5.473   1.166   4.977  1.00  0.00     0.031 C 
ATOM     63  C   UNL     1      -6.470  -3.423   2.507  1.00  0.00     0.029 A 
ATOM     64  C   UNL     1      -6.085  -2.235   1.913  1.00  0.00     0.049 A 
ATOM     65  H   UNL     1      -4.717  -1.898   0.353  1.00  0.00     0.167 HD
ATOM     66  C   UNL     1      -6.035  -0.266   3.232  1.00  0.00     0.074 A 
ATOM     67  C   UNL     1      -6.241   1.011   3.885  1.00  0.00     0.031 C 
ATOM     68  C   UNL     1      -6.477  -0.846   2.073  1.00  0.00     0.037 A 
BRANCH  55  69
ATOM     69  C   UNL     1      -3.992  -5.497  -1.009  1.00  0.00     0.057 A 
ATOM     70  C   UNL     1      -4.923  -6.546  -1.001  1.00  0.00     0.134 A 
ATOM     71  C   UNL     1      -3.038  -5.566  -2.050  1.00  0.00     0.134 A 
ATOM     72  F   UNL     1      -5.943  -6.566  -0.134  1.00  0.00    -0.206 F 
ATOM     73  C   UNL     1      -4.824  -7.653  -1.864  1.00  0.00     0.040 A 
ATOM     74  C   UNL     1      -2.897  -6.687  -2.886  1.00  0.00     0.040 A 
ATOM     75  F   UNL     1      -2.162  -4.566  -2.241  1.00  0.00    -0.206 F 
ATOM     76  C   UNL     1      -3.781  -7.751  -2.777  1.00  0.00     0.006 A 
ENDBRANCH  55  69
BRANCH  56  77
ATOM     77  C   UNL     1      -2.761   0.426   6.735  1.00  0.00     0.057 A 
ATOM     78  C   UNL     1      -2.304   0.098   8.032  1.00  0.00     0.134 A 
ATOM     79  C   UNL     1      -1.999   1.359   6.028  1.00  0.00     0.134 A 
ATOM     80  F   UNL     1      -2.971  -0.801   8.775  1.00  0.00    -0.206 F 
ATOM     81  C   UNL     1      -1.098   0.581   8.552  1.00  0.00     0.040 A 
ATOM     82  C   UNL     1      -0.799   1.874   6.552  1.00  0.00     0.040 A 
ATOM     83  F   UNL     1      -2.312   1.682   4.766  1.00  0.00    -0.206 F 
ATOM     84  C   UNL     1      -0.331   1.461   7.801  1.00  0.00     0.006 A 
ENDBRANCH  56  77
BRANCH  68  85
ATOM     85  C   UNL     1      -7.281  -0.246   0.923  1.00  0.00     0.057 A 
ATOM     86  C   UNL     1      -7.503   1.117   0.706  1.00  0.00     0.134 A 
ATOM     87  C   UNL     1      -7.749  -1.081  -0.133  1.00  0.00     0.134 A 
ATOM     88  F   UNL     1      -7.098   2.051   1.570  1.00  0.00    -0.206 F 
ATOM     89  C   UNL     1      -8.121   1.609  -0.455  1.00  0.00     0.040 A 
ATOM     90  C   UNL     1      -8.294  -0.597  -1.325  1.00  0.00     0.040 A 
ATOM     91  F   UNL     1      -7.688  -2.420  -0.073  1.00  0.00    -0.206 F 
ATOM     92  C   UNL     1      -8.488   0.759  -1.489  1.00  0.00     0.006 A 
ENDBRANCH  68  85
ENDBRANCH  42  43
ENDBRANCH  35  37
ENDBRANCH  34  35
ENDBRANCH  33  34
ENDBRANCH  32  33
ENDBRANCH  31  32
ENDBRANCH  30  31
ENDBRANCH   1  30
TORSDOF 21
