REMARK SMILES Cc1ccc2c(C[NH2+][C@H]3CCC[C@@H](C)[C@@H]3C)c(C(=O)OCCOCCOCCOC(=O)c3ccc(-c4c5nc(c(-c6c(F)cccc6F)c6ccc([nH]6)c(-c6c(F)cccc6F)c6nc(c(-c7c(F)cccc7F)c7ccc4[nH]7)C=C6)C=C5)cc3)n(C)c2c1
REMARK SMILES IDX 24 1 23 2 22 3 21 4 20 5 18 6 19 7 17 8 1 9 2 10 3 11 89 12
REMARK SMILES IDX 4 13 88 14 5 15 86 16 6 17 87 18 7 19 8 20 9 23 10 24 15 25
REMARK SMILES IDX 11 26 13 27 16 28 12 29 14 30 25 31 26 32 27 33 28 34 29 35
REMARK SMILES IDX 30 36 31 37 32 38 33 39 85 40 34 41 84 42 35 43 36 44 37 45
REMARK SMILES IDX 78 46 38 47 83 48 77 49 79 50 39 51 82 52 76 53 75 54 40 56
REMARK SMILES IDX 66 57 49 58 65 59 50 60 53 61 64 62 80 63 51 64 52 65 63 67
REMARK SMILES IDX 81 68 54 69 41 70 42 71 47 72 43 73 44 74 46 75 48 76 45 77
REMARK SMILES IDX 67 78 68 79 73 80 69 81 70 82 72 83 74 84 71 85 55 86 56 87
REMARK SMILES IDX 61 88 57 89 58 90 60 91 62 92 59 93
REMARK H PARENT 8 21 8 22 79 55 53 66
REMARK Flexibility Score: inf
ROOT
ATOM      1  C   UNL     1      -0.726   9.967   8.879  1.00  0.00     0.188 C 
ENDROOT
BRANCH   1   2
ATOM      2  O   UNL     1      -0.286  11.083   8.112  1.00  0.00    -0.376 OA
BRANCH   2   3
ATOM      3  C   UNL     1       0.200  10.787   6.803  1.00  0.00     0.202 C 
BRANCH   3   4
ATOM      4  C   UNL     1       1.381   9.813   6.772  1.00  0.00     0.261 C 
BRANCH   4   5
ATOM      5  O   UNL     1       0.901   8.466   6.956  1.00  0.00    -0.459 OA
BRANCH   5   6
ATOM      6  C   UNL     1       1.704   7.484   6.471  1.00  0.00     0.355 C 
ATOM      7  O   UNL     1       2.778   7.679   5.911  1.00  0.00    -0.244 OA
BRANCH   6   8
ATOM      8  C   UNL     1       1.133   6.182   6.719  1.00  0.00     0.137 A 
ATOM      9  C   UNL     1       0.636   1.026   9.693  1.00  0.00     0.044 C 
ATOM     10  C   UNL     1       0.545   2.020   8.570  1.00  0.00    -0.049 A 
ATOM     11  C   UNL     1       0.567   1.643   7.227  1.00  0.00     0.004 A 
ATOM     12  C   UNL     1       0.483   3.375   8.895  1.00  0.00     0.030 A 
ATOM     13  C   UNL     1       0.571   2.603   6.194  1.00  0.00     0.011 A 
ATOM     14  C   UNL     1       0.594   4.319   7.862  1.00  0.00     0.049 A 
ATOM     15  C   UNL     1       0.660   3.970   6.518  1.00  0.00     0.009 A 
ATOM     16  N   UNL     1       0.629   5.695   7.893  1.00  0.00    -0.338 N 
ATOM     17  C   UNL     1       0.734   5.209   5.802  1.00  0.00     0.047 A 
ATOM     18  C   UNL     1       0.237   6.488   9.019  1.00  0.00     0.150 C 
BRANCH  17  19
ATOM     19  C   UNL     1       0.286   5.534   4.419  1.00  0.00     0.300 C 
BRANCH  19  20
ATOM     20  N   UNL     1      -0.867   6.401   4.687  1.00  0.00    -0.340 N 
ATOM     21  H   UNL     1      -0.544   7.168   5.276  1.00  0.00     0.346 HD
ATOM     22  H   UNL     1      -1.562   5.790   5.117  1.00  0.00     0.346 HD
BRANCH  20  23
ATOM     23  C   UNL     1      -1.540   6.984   3.538  1.00  0.00     0.185 C 
ATOM     24  C   UNL     1      -3.020   6.575   3.623  1.00  0.00     0.065 C 
ATOM     25  C   UNL     1      -1.405   8.534   3.589  1.00  0.00     0.047 C 
ATOM     26  C   UNL     1      -3.824   7.192   2.493  1.00  0.00     0.006 C 
ATOM     27  C   UNL     1      -2.282   9.214   2.503  1.00  0.00    -0.006 C 
ATOM     28  C   UNL     1       0.063   8.965   3.443  1.00  0.00     0.014 C 
ATOM     29  C   UNL     1      -3.733   8.710   2.535  1.00  0.00     0.004 C 
ATOM     30  C   UNL     1      -2.296  10.743   2.635  1.00  0.00     0.008 C 
ENDBRANCH  20  23
ENDBRANCH  19  20
ENDBRANCH  17  19
ENDBRANCH   6   8
ENDBRANCH   5   6
ENDBRANCH   4   5
ENDBRANCH   3   4
ENDBRANCH   2   3
ENDBRANCH   1   2
BRANCH   1  31
ATOM     31  C   UNL     1      -1.864   9.135   8.258  1.00  0.00     0.188 C 
BRANCH  31  32
ATOM     32  O   UNL     1      -3.052   9.851   7.936  1.00  0.00    -0.376 OA
BRANCH  32  33
ATOM     33  C   UNL     1      -3.619  10.624   8.995  1.00  0.00     0.202 C 
BRANCH  33  34
ATOM     34  C   UNL     1      -4.027   9.819  10.240  1.00  0.00     0.261 C 
BRANCH  34  35
ATOM     35  O   UNL     1      -2.855   9.412  10.982  1.00  0.00    -0.460 OA
BRANCH  35  36
ATOM     36  C   UNL     1      -2.998   8.302  11.748  1.00  0.00     0.338 C 
ATOM     37  O   UNL     1      -4.053   7.763  12.039  1.00  0.00    -0.246 OA
BRANCH  36  38
ATOM     38  C   UNL     1      -1.660   7.693  12.005  1.00  0.00     0.060 A 
ATOM     39  C   UNL     1      -0.478   8.441  12.095  1.00  0.00     0.016 A 
ATOM     40  C   UNL     1      -1.587   6.297  12.088  1.00  0.00     0.016 A 
ATOM     41  C   UNL     1       0.768   7.793  12.193  1.00  0.00     0.010 A 
ATOM     42  C   UNL     1      -0.346   5.654  12.203  1.00  0.00     0.010 A 
ATOM     43  C   UNL     1       0.851   6.391  12.204  1.00  0.00    -0.014 A 
BRANCH  43  44
ATOM     44  C   UNL     1       2.144   5.696  12.399  1.00  0.00     0.031 A 
ATOM     45  C   UNL     1       2.581   5.705  13.796  1.00  0.00     0.074 A 
ATOM     46  C   UNL     1       3.008   5.093  11.539  1.00  0.00     0.049 A 
ATOM     47  N   UNL     1       3.522   6.475  14.228  1.00  0.00    -0.248 NA
ATOM     48  C   UNL     1       1.927   4.880  14.810  1.00  0.00     0.031 C 
ATOM     49  C   UNL     1       2.946   5.070  10.094  1.00  0.00     0.029 A 
ATOM     50  N   UNL     1       4.136   4.318  11.774  1.00  0.00    -0.354 N 
ATOM     51  C   UNL     1       3.780   6.031  15.501  1.00  0.00     0.074 A 
ATOM     52  C   UNL     1       2.675   5.175  15.877  1.00  0.00     0.031 C 
ATOM     53  C   UNL     1       3.757   4.126   9.575  1.00  0.00     0.029 A 
ATOM     54  C   UNL     1       4.590   3.622  10.650  1.00  0.00     0.049 A 
ATOM     55  H   UNL     1       4.576   4.263  12.653  1.00  0.00     0.167 HD
ATOM     56  C   UNL     1       5.031   6.141  16.008  1.00  0.00     0.037 A 
ATOM     57  C   UNL     1       5.705   2.876  10.444  1.00  0.00     0.037 A 
ATOM     58  C   UNL     1       5.910   6.963  15.216  1.00  0.00     0.049 A 
ATOM     59  C   UNL     1       6.804   3.589  11.125  1.00  0.00     0.074 A 
ATOM     60  C   UNL     1       6.150   8.306  15.022  1.00  0.00     0.029 A 
ATOM     61  N   UNL     1       6.538   6.303  14.198  1.00  0.00    -0.354 N 
ATOM     62  N   UNL     1       7.314   4.709  10.691  1.00  0.00    -0.248 NA
ATOM     63  C   UNL     1       7.266   3.152  12.437  1.00  0.00     0.031 C 
ATOM     64  C   UNL     1       6.928   8.428  13.829  1.00  0.00     0.029 A 
ATOM     65  C   UNL     1       7.140   7.159  13.310  1.00  0.00     0.049 A 
ATOM     66  H   UNL     1       6.556   5.322  14.111  1.00  0.00     0.167 HD
ATOM     67  C   UNL     1       7.779   5.316  11.835  1.00  0.00     0.074 A 
ATOM     68  C   UNL     1       7.923   4.250  12.815  1.00  0.00     0.031 C 
ATOM     69  C   UNL     1       7.583   6.649  12.033  1.00  0.00     0.037 A 
BRANCH  56  70
ATOM     70  C   UNL     1       5.576   5.128  16.957  1.00  0.00     0.057 A 
ATOM     71  C   UNL     1       5.326   3.748  16.815  1.00  0.00     0.134 A 
ATOM     72  C   UNL     1       6.565   5.492  17.875  1.00  0.00     0.134 A 
ATOM     73  F   UNL     1       4.517   3.280  15.851  1.00  0.00    -0.206 F 
ATOM     74  C   UNL     1       5.965   2.790  17.598  1.00  0.00     0.040 A 
ATOM     75  C   UNL     1       7.249   4.536  18.630  1.00  0.00     0.040 A 
ATOM     76  F   UNL     1       6.920   6.776  18.022  1.00  0.00    -0.206 F 
ATOM     77  C   UNL     1       6.941   3.183  18.503  1.00  0.00     0.006 A 
ENDBRANCH  56  70
BRANCH  57  78
ATOM     78  C   UNL     1       5.990   1.848   9.410  1.00  0.00     0.057 A 
ATOM     79  C   UNL     1       4.980   0.985   8.955  1.00  0.00     0.134 A 
ATOM     80  C   UNL     1       7.295   1.517   9.012  1.00  0.00     0.134 A 
ATOM     81  F   UNL     1       3.709   1.163   9.338  1.00  0.00    -0.206 F 
ATOM     82  C   UNL     1       5.246  -0.138   8.161  1.00  0.00     0.040 A 
ATOM     83  C   UNL     1       7.578   0.394   8.223  1.00  0.00     0.040 A 
ATOM     84  F   UNL     1       8.348   2.232   9.433  1.00  0.00    -0.206 F 
ATOM     85  C   UNL     1       6.553  -0.444   7.802  1.00  0.00     0.006 A 
ENDBRANCH  57  78
BRANCH  69  86
ATOM     86  C   UNL     1       7.635   7.539  10.834  1.00  0.00     0.057 A 
ATOM     87  C   UNL     1       8.711   8.426  10.711  1.00  0.00     0.134 A 
ATOM     88  C   UNL     1       6.680   7.551   9.809  1.00  0.00     0.134 A 
ATOM     89  F   UNL     1       9.650   8.486  11.669  1.00  0.00    -0.206 F 
ATOM     90  C   UNL     1       8.848   9.276   9.611  1.00  0.00     0.040 A 
ATOM     91  C   UNL     1       6.819   8.377   8.688  1.00  0.00     0.040 A 
ATOM     92  F   UNL     1       5.584   6.783   9.874  1.00  0.00    -0.206 F 
ATOM     93  C   UNL     1       7.905   9.244   8.587  1.00  0.00     0.006 A 
ENDBRANCH  69  86
ENDBRANCH  43  44
ENDBRANCH  36  38
ENDBRANCH  35  36
ENDBRANCH  34  35
ENDBRANCH  33  34
ENDBRANCH  32  33
ENDBRANCH  31  32
ENDBRANCH   1  31
TORSDOF 20
