REMARK SMILES C[C@@H](C(=O)OCCOCCOCCOC(=O)c1ccc(-c2c3nc(c(-c4c(F)cccc4F)c4ccc([nH]4)c(-c4c(F)cccc4F)c4nc(c(-c5c(F)cccc5F)c5ccc2[nH]5)C=C4)C=C3)cc1)c1ccc(C[C@H]2CCC[C@H]2O)cc1
REMARK SMILES IDX 9 1 8 2 7 3 6 4 5 5 3 6 4 7 2 8 1 9 71 10 72 11 83 12 73 13
REMARK SMILES IDX 82 14 74 15 75 16 76 17 77 18 80 19 78 20 79 21 81 22 10 24
REMARK SMILES IDX 11 25 12 26 13 27 14 28 15 29 16 30 17 31 18 32 70 33 19 34
REMARK SMILES IDX 69 35 20 36 21 37 22 38 63 39 23 40 68 41 62 42 64 43 24 44
REMARK SMILES IDX 67 45 61 46 60 47 25 49 51 50 34 51 50 52 35 53 38 54 49 55
REMARK SMILES IDX 65 56 36 57 37 58 48 60 66 61 39 62 26 63 27 64 32 65 28 66
REMARK SMILES IDX 29 67 31 68 33 69 30 70 52 71 53 72 58 73 54 74 55 75 57 76
REMARK SMILES IDX 59 77 56 78 40 79 41 80 46 81 42 82 43 83 45 84 47 85 44 86
REMARK H PARENT 81 23 64 48 38 59
REMARK Flexibility Score: inf
ROOT
ATOM      1  C   UNL     1       0.466  -2.958  -2.680  1.00  0.00     0.188 C 
ENDROOT
BRANCH   1   2
ATOM      2  O   UNL     1       1.254  -3.378  -3.786  1.00  0.00    -0.376 OA
BRANCH   2   3
ATOM      3  C   UNL     1       2.486  -2.709  -4.041  1.00  0.00     0.202 C 
BRANCH   3   4
ATOM      4  C   UNL     1       2.504  -1.172  -4.113  1.00  0.00     0.261 C 
BRANCH   4   5
ATOM      5  O   UNL     1       2.016  -0.489  -2.937  1.00  0.00    -0.463 OA
BRANCH   5   6
ATOM      6  C   UNL     1       1.055   0.453  -3.144  1.00  0.00     0.313 C 
ATOM      7  O   UNL     1       0.629   0.752  -4.256  1.00  0.00    -0.252 OA
BRANCH   6   8
ATOM      8  C   UNL     1       0.540   1.137  -1.867  1.00  0.00     0.126 C 
ATOM      9  C   UNL     1       1.196   0.805  -0.520  1.00  0.00     0.025 C 
BRANCH   8  10
ATOM     10  C   UNL     1      -0.981   1.054  -1.781  1.00  0.00    -0.034 A 
ATOM     11  C   UNL     1      -1.754   2.184  -2.067  1.00  0.00     0.005 A 
ATOM     12  C   UNL     1      -1.648  -0.134  -1.453  1.00  0.00     0.005 A 
ATOM     13  C   UNL     1      -3.147   2.136  -1.984  1.00  0.00     0.004 A 
ATOM     14  C   UNL     1      -3.040  -0.179  -1.371  1.00  0.00     0.004 A 
ATOM     15  C   UNL     1      -3.802   0.969  -1.582  1.00  0.00    -0.048 A 
BRANCH  15  16
ATOM     16  C   UNL     1      -5.287   0.959  -1.324  1.00  0.00     0.041 C 
BRANCH  16  17
ATOM     17  C   UNL     1      -5.750   1.339   0.094  1.00  0.00     0.022 C 
ATOM     18  C   UNL     1      -5.191   0.483   1.246  1.00  0.00     0.007 C 
ATOM     19  C   UNL     1      -5.549   2.791   0.557  1.00  0.00     0.117 C 
ATOM     20  C   UNL     1      -5.133   1.404   2.468  1.00  0.00     0.003 C 
ATOM     21  C   UNL     1      -5.825   2.699   2.053  1.00  0.00     0.032 C 
BRANCH  19  22
ATOM     22  O   UNL     1      -4.238   3.303   0.384  1.00  0.00    -0.393 OA
ATOM     23  H   UNL     1      -3.608   2.754   0.877  1.00  0.00     0.210 HD
ENDBRANCH  19  22
ENDBRANCH  16  17
ENDBRANCH  15  16
ENDBRANCH   8  10
ENDBRANCH   6   8
ENDBRANCH   5   6
ENDBRANCH   4   5
ENDBRANCH   3   4
ENDBRANCH   2   3
ENDBRANCH   1   2
BRANCH   1  24
ATOM     24  C   UNL     1       1.167  -2.708  -1.334  1.00  0.00     0.188 C 
BRANCH  24  25
ATOM     25  O   UNL     1       2.525  -3.072  -1.312  1.00  0.00    -0.376 OA
BRANCH  25  26
ATOM     26  C   UNL     1       2.916  -4.249  -0.636  1.00  0.00     0.202 C 
BRANCH  26  27
ATOM     27  C   UNL     1       2.103  -5.547  -0.768  1.00  0.00     0.261 C 
BRANCH  27  28
ATOM     28  O   UNL     1       0.671  -5.439  -0.761  1.00  0.00    -0.460 OA
BRANCH  28  29
ATOM     29  C   UNL     1       0.061  -5.211   0.423  1.00  0.00     0.338 C 
ATOM     30  O   UNL     1       0.599  -5.061   1.508  1.00  0.00    -0.246 OA
BRANCH  29  31
ATOM     31  C   UNL     1      -1.374  -4.955   0.148  1.00  0.00     0.060 A 
ATOM     32  C   UNL     1      -1.957  -3.775   0.629  1.00  0.00     0.016 A 
ATOM     33  C   UNL     1      -2.139  -5.862  -0.591  1.00  0.00     0.016 A 
ATOM     34  C   UNL     1      -3.311  -3.515   0.389  1.00  0.00     0.010 A 
ATOM     35  C   UNL     1      -3.497  -5.605  -0.821  1.00  0.00     0.010 A 
ATOM     36  C   UNL     1      -4.095  -4.437  -0.320  1.00  0.00    -0.014 A 
BRANCH  36  37
ATOM     37  C   UNL     1      -5.571  -4.269  -0.375  1.00  0.00     0.031 A 
ATOM     38  C   UNL     1      -6.399  -4.872   0.725  1.00  0.00     0.074 A 
ATOM     39  C   UNL     1      -6.176  -3.596  -1.371  1.00  0.00     0.049 A 
ATOM     40  N   UNL     1      -7.699  -4.889   0.875  1.00  0.00    -0.248 NA
ATOM     41  C   UNL     1      -5.657  -5.557   1.794  1.00  0.00     0.031 C 
ATOM     42  C   UNL     1      -5.498  -2.953  -2.492  1.00  0.00     0.029 A 
ATOM     43  N   UNL     1      -7.509  -3.346  -1.596  1.00  0.00    -0.354 N 
ATOM     44  C   UNL     1      -7.931  -5.593   2.050  1.00  0.00     0.074 A 
ATOM     45  C   UNL     1      -6.640  -6.000   2.562  1.00  0.00     0.031 C 
ATOM     46  C   UNL     1      -6.418  -2.368  -3.281  1.00  0.00     0.029 A 
ATOM     47  C   UNL     1      -7.754  -2.635  -2.747  1.00  0.00     0.049 A 
ATOM     48  H   UNL     1      -8.223  -3.649  -0.989  1.00  0.00     0.167 HD
ATOM     49  C   UNL     1      -9.111  -5.884   2.647  1.00  0.00     0.037 A 
ATOM     50  C   UNL     1      -8.921  -2.264  -3.314  1.00  0.00     0.037 A 
ATOM     51  C   UNL     1     -10.400  -5.514   2.126  1.00  0.00     0.049 A 
ATOM     52  C   UNL     1     -10.226  -2.655  -2.663  1.00  0.00     0.074 A 
ATOM     53  C   UNL     1     -11.651  -5.776   2.658  1.00  0.00     0.029 A 
ATOM     54  N   UNL     1     -10.606  -4.819   0.944  1.00  0.00    -0.354 N 
ATOM     55  N   UNL     1     -10.434  -3.300  -1.540  1.00  0.00    -0.248 NA
ATOM     56  C   UNL     1     -11.461  -2.277  -3.369  1.00  0.00     0.031 C 
ATOM     57  C   UNL     1     -12.615  -5.288   1.770  1.00  0.00     0.029 A 
ATOM     58  C   UNL     1     -11.965  -4.665   0.718  1.00  0.00     0.049 A 
ATOM     59  H   UNL     1      -9.893  -4.485   0.353  1.00  0.00     0.167 HD
ATOM     60  C   UNL     1     -11.815  -3.386  -1.397  1.00  0.00     0.074 A 
ATOM     61  C   UNL     1     -12.397  -2.708  -2.535  1.00  0.00     0.031 C 
ATOM     62  C   UNL     1     -12.537  -3.979  -0.414  1.00  0.00     0.037 A 
BRANCH  49  63
ATOM     63  C   UNL     1      -9.055  -6.685   3.915  1.00  0.00     0.057 A 
ATOM     64  C   UNL     1      -8.568  -6.144   5.112  1.00  0.00     0.134 A 
ATOM     65  C   UNL     1      -9.503  -8.011   3.940  1.00  0.00     0.134 A 
ATOM     66  F   UNL     1      -8.106  -4.885   5.151  1.00  0.00    -0.206 F 
ATOM     67  C   UNL     1      -8.502  -6.903   6.281  1.00  0.00     0.040 A 
ATOM     68  C   UNL     1      -9.470  -8.771   5.109  1.00  0.00     0.040 A 
ATOM     69  F   UNL     1      -9.984  -8.589   2.828  1.00  0.00    -0.206 F 
ATOM     70  C   UNL     1      -8.960  -8.220   6.283  1.00  0.00     0.006 A 
ENDBRANCH  49  63
BRANCH  50  71
ATOM     71  C   UNL     1      -8.928  -1.500  -4.591  1.00  0.00     0.057 A 
ATOM     72  C   UNL     1      -9.412  -0.187  -4.650  1.00  0.00     0.134 A 
ATOM     73  C   UNL     1      -8.497  -2.078  -5.791  1.00  0.00     0.134 A 
ATOM     74  F   UNL     1      -9.869   0.414  -3.541  1.00  0.00    -0.206 F 
ATOM     75  C   UNL     1      -9.489   0.514  -5.855  1.00  0.00     0.040 A 
ATOM     76  C   UNL     1      -8.537  -1.378  -6.998  1.00  0.00     0.040 A 
ATOM     77  F   UNL     1      -8.029  -3.335  -5.808  1.00  0.00    -0.206 F 
ATOM     78  C   UNL     1      -9.044  -0.081  -7.034  1.00  0.00     0.006 A 
ENDBRANCH  50  71
BRANCH  62  79
ATOM     79  C   UNL     1     -14.036  -3.892  -0.495  1.00  0.00     0.057 A 
ATOM     80  C   UNL     1     -14.774  -4.601  -1.452  1.00  0.00     0.134 A 
ATOM     81  C   UNL     1     -14.756  -3.127   0.433  1.00  0.00     0.134 A 
ATOM     82  F   UNL     1     -14.150  -5.347  -2.377  1.00  0.00    -0.206 F 
ATOM     83  C   UNL     1     -16.169  -4.534  -1.497  1.00  0.00     0.040 A 
ATOM     84  C   UNL     1     -16.151  -3.075   0.417  1.00  0.00     0.040 A 
ATOM     85  F   UNL     1     -14.115  -2.431   1.385  1.00  0.00    -0.206 F 
ATOM     86  C   UNL     1     -16.861  -3.776  -0.555  1.00  0.00     0.006 A 
ENDBRANCH  62  79
ENDBRANCH  36  37
ENDBRANCH  29  31
ENDBRANCH  28  29
ENDBRANCH  27  28
ENDBRANCH  26  27
ENDBRANCH  25  26
ENDBRANCH  24  25
ENDBRANCH   1  24
TORSDOF 21
