REMARK SMILES O=C(CNC(=O)N1CC(OCCOCCOCCOC(=O)c2ccc(-c3c4nc(c(-c5c(F)cccc5F)c5ccc([nH]5)c(-c5c(F)cccc5F)c5nc(c(-c6c(F)cccc6F)c6ccc3[nH]6)C=C5)C=C4)cc2)=Nc2ccccc21)N[C@H](C(=O)[O-])c1ccccc1
REMARK SMILES IDX 14 1 13 2 12 3 11 4 10 5 9 6 7 7 8 8 82 9 77 10 81 11 76 12
REMARK SMILES IDX 78 13 80 14 79 15 5 16 4 17 6 19 3 20 2 21 1 22 83 23 84 25
REMARK SMILES IDX 88 26 89 27 93 28 90 29 92 30 91 31 85 32 86 33 87 34 15 35
REMARK SMILES IDX 16 36 17 37 18 38 19 39 20 40 21 41 22 42 23 43 75 44 24 45
REMARK SMILES IDX 74 46 25 47 26 48 27 49 68 50 28 51 73 52 67 53 69 54 29 55
REMARK SMILES IDX 72 56 66 57 65 58 30 60 56 61 39 62 55 63 40 64 43 65 54 66
REMARK SMILES IDX 70 67 41 68 42 69 53 71 71 72 44 73 31 74 32 75 37 76 33 77
REMARK SMILES IDX 34 78 36 79 38 80 35 81 57 82 58 83 63 84 59 85 60 86 62 87
REMARK SMILES IDX 64 88 61 89 45 90 46 91 51 92 47 93 48 94 50 95 52 96 49 97
REMARK H PARENT 4 18 83 24 69 59 43 70
REMARK Flexibility Score: inf
ROOT
ATOM      1  C   UNL     1       3.307  -4.845   1.552  1.00  0.00     0.188 C 
ENDROOT
BRANCH   1   2
ATOM      2  O   UNL     1       3.113  -5.921   0.643  1.00  0.00    -0.376 OA
BRANCH   2   3
ATOM      3  C   UNL     1       1.952  -6.731   0.786  1.00  0.00     0.201 C 
BRANCH   3   4
ATOM      4  C   UNL     1       1.928  -7.668   2.002  1.00  0.00     0.259 C 
BRANCH   4   5
ATOM      5  O   UNL     1       1.425  -7.021   3.197  1.00  0.00    -0.477 OA
BRANCH   5   6
ATOM      6  C   UNL     1       2.318  -6.582   4.117  1.00  0.00     0.209 C 
ATOM      7  N   UNL     1       2.621  -4.640   5.625  1.00  0.00    -0.283 N 
ATOM      8  C   UNL     1       1.713  -5.724   5.201  1.00  0.00     0.224 C 
ATOM      9  C   UNL     1       4.007  -5.027   5.666  1.00  0.00     0.072 A 
ATOM     10  C   UNL     1       4.426  -6.149   4.897  1.00  0.00     0.091 A 
ATOM     11  C   UNL     1       4.963  -4.398   6.467  1.00  0.00     0.029 A 
ATOM     12  N   UNL     1       3.575  -6.854   4.033  1.00  0.00    -0.214 NA
ATOM     13  C   UNL     1       5.770  -6.535   4.862  1.00  0.00     0.030 A 
ATOM     14  C   UNL     1       6.308  -4.802   6.429  1.00  0.00     0.002 A 
ATOM     15  C   UNL     1       6.715  -5.855   5.615  1.00  0.00     0.002 A 
BRANCH   7  16
ATOM     16  C   UNL     1       1.991  -3.554   6.193  1.00  0.00     0.322 C 
ATOM     17  N   UNL     1       2.457  -2.285   6.118  1.00  0.00    -0.329 N 
ATOM     18  H   UNL     1       1.891  -1.637   6.598  1.00  0.00     0.165 HD
ATOM     19  O   UNL     1       0.871  -3.671   6.705  1.00  0.00    -0.248 OA
BRANCH  17  20
ATOM     20  C   UNL     1       3.612  -1.675   5.482  1.00  0.00     0.218 C 
BRANCH  20  21
ATOM     21  C   UNL     1       3.479  -0.280   4.803  1.00  0.00     0.240 C 
ATOM     22  O   UNL     1       4.441   0.487   4.776  1.00  0.00    -0.273 OA
ATOM     23  N   UNL     1       2.312  -0.036   4.120  1.00  0.00    -0.342 N 
ATOM     24  H   UNL     1       1.584  -0.689   4.230  1.00  0.00     0.164 HD
BRANCH  23  25
ATOM     25  C   UNL     1       2.051   1.124   3.233  1.00  0.00     0.158 C 
BRANCH  25  26
ATOM     26  C   UNL     1       2.128   2.530   3.829  1.00  0.00    -0.020 A 
ATOM     27  C   UNL     1       2.330   2.786   5.187  1.00  0.00     0.006 A 
ATOM     28  C   UNL     1       2.014   3.641   2.960  1.00  0.00     0.006 A 
ATOM     29  C   UNL     1       2.507   4.096   5.643  1.00  0.00     0.000 A 
ATOM     30  C   UNL     1       2.201   4.945   3.412  1.00  0.00     0.000 A 
ATOM     31  C   UNL     1       2.463   5.170   4.756  1.00  0.00     0.000 A 
ENDBRANCH  25  26
BRANCH  25  32
ATOM     32  C   UNL     1       2.849   1.122   1.893  1.00  0.00     0.068 C 
ATOM     33  O   UNL     1       4.042   1.218   1.712  1.00  0.00    -0.548 OA
ATOM     34  O   UNL     1       2.022   1.106   0.809  1.00  0.00    -0.548 OA
ENDBRANCH  25  32
ENDBRANCH  23  25
ENDBRANCH  20  21
ENDBRANCH  17  20
ENDBRANCH   7  16
ENDBRANCH   5   6
ENDBRANCH   4   5
ENDBRANCH   3   4
ENDBRANCH   2   3
ENDBRANCH   1   2
BRANCH   1  35
ATOM     35  C   UNL     1       2.075  -4.032   1.981  1.00  0.00     0.188 C 
BRANCH  35  36
ATOM     36  O   UNL     1       1.469  -3.133   1.053  1.00  0.00    -0.376 OA
BRANCH  36  37
ATOM     37  C   UNL     1       1.891  -3.160  -0.302  1.00  0.00     0.202 C 
BRANCH  37  38
ATOM     38  C   UNL     1       2.890  -2.054  -0.699  1.00  0.00     0.261 C 
BRANCH  38  39
ATOM     39  O   UNL     1       4.221  -2.099  -0.133  1.00  0.00    -0.460 OA
BRANCH  39  40
ATOM     40  C   UNL     1       4.289  -1.690   1.151  1.00  0.00     0.338 C 
ATOM     41  O   UNL     1       3.326  -1.461   1.873  1.00  0.00    -0.246 OA
BRANCH  40  42
ATOM     42  C   UNL     1       5.635  -1.665   1.742  1.00  0.00     0.060 A 
ATOM     43  C   UNL     1       5.759  -2.378   2.931  1.00  0.00     0.016 A 
ATOM     44  C   UNL     1       6.627  -0.759   1.370  1.00  0.00     0.016 A 
ATOM     45  C   UNL     1       6.780  -2.083   3.820  1.00  0.00     0.010 A 
ATOM     46  C   UNL     1       7.730  -0.552   2.222  1.00  0.00     0.010 A 
ATOM     47  C   UNL     1       7.802  -1.195   3.471  1.00  0.00    -0.014 A 
BRANCH  47  48
ATOM     48  C   UNL     1       8.929  -1.004   4.426  1.00  0.00     0.031 A 
ATOM     49  C   UNL     1       9.215   0.332   5.051  1.00  0.00     0.074 A 
ATOM     50  C   UNL     1       9.654  -2.077   4.808  1.00  0.00     0.049 A 
ATOM     51  N   UNL     1      10.256   0.699   5.758  1.00  0.00    -0.248 NA
ATOM     52  C   UNL     1       8.206   1.386   4.873  1.00  0.00     0.031 C 
ATOM     53  C   UNL     1       9.416  -3.453   4.369  1.00  0.00     0.029 A 
ATOM     54  N   UNL     1      10.714  -2.191   5.674  1.00  0.00    -0.354 N 
ATOM     55  C   UNL     1      10.065   2.044   6.049  1.00  0.00     0.074 A 
ATOM     56  C   UNL     1       8.786   2.417   5.478  1.00  0.00     0.031 C 
ATOM     57  C   UNL     1      10.252  -4.276   5.015  1.00  0.00     0.029 A 
ATOM     58  C   UNL     1      11.173  -3.479   5.813  1.00  0.00     0.049 A 
ATOM     59  H   UNL     1      11.108  -1.423   6.149  1.00  0.00     0.167 HD
ATOM     60  C   UNL     1      10.899   2.886   6.708  1.00  0.00     0.037 A 
ATOM     61  C   UNL     1      12.251  -3.968   6.453  1.00  0.00     0.037 A 
ATOM     62  C   UNL     1      12.153   2.489   7.303  1.00  0.00     0.049 A 
ATOM     63  C   UNL     1      13.197  -3.006   7.110  1.00  0.00     0.074 A 
ATOM     64  C   UNL     1      13.098   3.277   7.939  1.00  0.00     0.029 A 
ATOM     65  N   UNL     1      12.627   1.186   7.351  1.00  0.00    -0.354 N 
ATOM     66  N   UNL     1      13.083  -1.710   7.257  1.00  0.00    -0.248 NA
ATOM     67  C   UNL     1      14.445  -3.568   7.642  1.00  0.00     0.031 C 
ATOM     68  C   UNL     1      14.161   2.457   8.335  1.00  0.00     0.029 A 
ATOM     69  C   UNL     1      13.857   1.150   7.990  1.00  0.00     0.049 A 
ATOM     70  H   UNL     1      12.158   0.401   6.986  1.00  0.00     0.167 HD
ATOM     71  C   UNL     1      14.247  -1.297   7.888  1.00  0.00     0.074 A 
ATOM     72  C   UNL     1      15.038  -2.486   8.130  1.00  0.00     0.031 C 
ATOM     73  C   UNL     1      14.633  -0.042   8.221  1.00  0.00     0.037 A 
BRANCH  60  74
ATOM     74  C   UNL     1      10.532   4.341   6.744  1.00  0.00     0.057 A 
ATOM     75  C   UNL     1       9.527   4.848   7.575  1.00  0.00     0.134 A 
ATOM     76  C   UNL     1      11.237   5.260   5.952  1.00  0.00     0.134 A 
ATOM     77  F   UNL     1       8.811   4.025   8.356  1.00  0.00    -0.206 F 
ATOM     78  C   UNL     1       9.221   6.212   7.601  1.00  0.00     0.040 A 
ATOM     79  C   UNL     1      10.957   6.627   5.986  1.00  0.00     0.040 A 
ATOM     80  F   UNL     1      12.223   4.844   5.142  1.00  0.00    -0.206 F 
ATOM     81  C   UNL     1       9.941   7.106   6.809  1.00  0.00     0.006 A 
ENDBRANCH  60  74
BRANCH  61  82
ATOM     82  C   UNL     1      12.538  -5.426   6.425  1.00  0.00     0.057 A 
ATOM     83  C   UNL     1      12.502  -6.191   7.596  1.00  0.00     0.134 A 
ATOM     84  C   UNL     1      12.845  -6.092   5.231  1.00  0.00     0.134 A 
ATOM     85  F   UNL     1      12.242  -5.609   8.775  1.00  0.00    -0.206 F 
ATOM     86  C   UNL     1      12.760  -7.564   7.579  1.00  0.00     0.040 A 
ATOM     87  C   UNL     1      13.070  -7.468   5.194  1.00  0.00     0.040 A 
ATOM     88  F   UNL     1      12.900  -5.417   4.073  1.00  0.00    -0.206 F 
ATOM     89  C   UNL     1      13.033  -8.207   6.373  1.00  0.00     0.006 A 
ENDBRANCH  61  82
BRANCH  73  90
ATOM     90  C   UNL     1      15.963   0.102   8.897  1.00  0.00     0.057 A 
ATOM     91  C   UNL     1      17.165  -0.027   8.190  1.00  0.00     0.134 A 
ATOM     92  C   UNL     1      16.042   0.397  10.264  1.00  0.00     0.134 A 
ATOM     93  F   UNL     1      17.156  -0.329   6.883  1.00  0.00    -0.206 F 
ATOM     94  C   UNL     1      18.401   0.117   8.823  1.00  0.00     0.040 A 
ATOM     95  C   UNL     1      17.271   0.566  10.902  1.00  0.00     0.040 A 
ATOM     96  F   UNL     1      14.927   0.535  10.996  1.00  0.00    -0.206 F 
ATOM     97  C   UNL     1      18.456   0.421  10.182  1.00  0.00     0.006 A 
ENDBRANCH  73  90
ENDBRANCH  47  48
ENDBRANCH  40  42
ENDBRANCH  39  40
ENDBRANCH  38  39
ENDBRANCH  37  38
ENDBRANCH  36  37
ENDBRANCH  35  36
ENDBRANCH   1  35
TORSDOF 22
