REMARK SMILES O=C(OCCOCCOCCOC(=O)[C@@]1(c2ccccc2)CCCC[NH2+]1)c1ccc(-c2c3nc(c(-c4c(F)cccc4F)c4ccc([nH]4)c(-c4c(F)cccc4F)c4nc(c(-c5c(F)cccc5F)c5ccc2[nH]5)C=C4)C=C3)cc1
REMARK SMILES IDX 7 1 6 2 5 3 4 4 3 5 2 6 1 7 27 8 28 9 80 10 29 11 79 12
REMARK SMILES IDX 30 13 31 14 32 15 73 16 33 17 78 18 72 19 74 20 34 21 77 22
REMARK SMILES IDX 71 23 70 24 35 26 61 27 44 28 60 29 45 30 48 31 59 32 75 33
REMARK SMILES IDX 46 34 47 35 58 37 76 38 49 39 36 40 37 41 42 42 38 43 39 44
REMARK SMILES IDX 41 45 43 46 40 47 62 48 63 49 68 50 64 51 65 52 67 53 69 54
REMARK SMILES IDX 66 55 50 56 51 57 56 58 52 59 53 60 55 61 57 62 54 63 8 64
REMARK SMILES IDX 9 65 10 66 11 67 12 68 13 69 14 70 15 71 22 72 26 73 23 74
REMARK SMILES IDX 25 75 24 78 16 79 17 80 21 81 18 82 20 83 19 84
REMARK H PARENT 74 25 48 36 26 76 26 77
REMARK Flexibility Score: inf
ROOT
ATOM      1  C   UNL     1      -1.275   6.677   2.691  1.00  0.00     0.188 C 
ENDROOT
BRANCH   1   2
ATOM      2  O   UNL     1      -1.006   5.866   3.839  1.00  0.00    -0.376 OA
BRANCH   2   3
ATOM      3  C   UNL     1      -1.876   6.060   4.944  1.00  0.00     0.202 C 
BRANCH   3   4
ATOM      4  C   UNL     1      -1.863   7.438   5.616  1.00  0.00     0.261 C 
BRANCH   4   5
ATOM      5  O   UNL     1      -1.060   8.452   4.992  1.00  0.00    -0.460 OA
BRANCH   5   6
ATOM      6  C   UNL     1       0.267   8.701   4.981  1.00  0.00     0.338 C 
ATOM      7  O   UNL     1       0.645   9.727   4.413  1.00  0.00    -0.246 OA
BRANCH   6   8
ATOM      8  C   UNL     1       1.322   7.811   5.560  1.00  0.00     0.060 A 
ATOM      9  C   UNL     1       1.098   6.710   6.383  1.00  0.00     0.016 A 
ATOM     10  C   UNL     1       2.666   8.140   5.259  1.00  0.00     0.016 A 
ATOM     11  C   UNL     1       2.167   5.951   6.869  1.00  0.00     0.010 A 
ATOM     12  C   UNL     1       3.746   7.399   5.762  1.00  0.00     0.010 A 
ATOM     13  C   UNL     1       3.497   6.296   6.576  1.00  0.00    -0.014 A 
BRANCH  13  14
ATOM     14  C   UNL     1       4.557   5.611   7.350  1.00  0.00     0.031 A 
ATOM     15  C   UNL     1       4.722   6.054   8.769  1.00  0.00     0.074 A 
ATOM     16  C   UNL     1       5.229   4.546   6.873  1.00  0.00     0.049 A 
ATOM     17  N   UNL     1       5.404   5.508   9.737  1.00  0.00    -0.248 NA
ATOM     18  C   UNL     1       4.016   7.293   9.143  1.00  0.00     0.031 C 
ATOM     19  C   UNL     1       5.182   4.068   5.499  1.00  0.00     0.029 A 
ATOM     20  N   UNL     1       6.019   3.622   7.512  1.00  0.00    -0.354 N 
ATOM     21  C   UNL     1       5.237   6.353  10.823  1.00  0.00     0.074 A 
ATOM     22  C   UNL     1       4.357   7.423  10.413  1.00  0.00     0.031 C 
ATOM     23  C   UNL     1       5.757   2.857   5.429  1.00  0.00     0.029 A 
ATOM     24  C   UNL     1       6.327   2.527   6.730  1.00  0.00     0.049 A 
ATOM     25  H   UNL     1       6.335   3.729   8.438  1.00  0.00     0.167 HD
ATOM     26  C   UNL     1       5.817   6.269  12.039  1.00  0.00     0.037 A 
ATOM     27  C   UNL     1       7.003   1.400   7.037  1.00  0.00     0.037 A 
ATOM     28  C   UNL     1       6.752   5.239  12.395  1.00  0.00     0.049 A 
ATOM     29  C   UNL     1       7.621   1.316   8.409  1.00  0.00     0.074 A 
ATOM     30  C   UNL     1       7.479   5.096  13.560  1.00  0.00     0.029 A 
ATOM     31  N   UNL     1       7.105   4.183  11.564  1.00  0.00    -0.354 N 
ATOM     32  N   UNL     1       7.492   2.138   9.425  1.00  0.00    -0.248 NA
ATOM     33  C   UNL     1       8.534   0.192   8.659  1.00  0.00     0.031 C 
ATOM     34  C   UNL     1       8.310   3.980  13.415  1.00  0.00     0.029 A 
ATOM     35  C   UNL     1       8.051   3.390  12.186  1.00  0.00     0.049 A 
ATOM     36  H   UNL     1       6.736   4.023  10.665  1.00  0.00     0.167 HD
ATOM     37  C   UNL     1       8.332   1.655  10.418  1.00  0.00     0.074 A 
ATOM     38  C   UNL     1       8.919   0.432   9.905  1.00  0.00     0.031 C 
ATOM     39  C   UNL     1       8.620   2.186  11.632  1.00  0.00     0.037 A 
BRANCH  26  40
ATOM     40  C   UNL     1       5.543   7.396  12.986  1.00  0.00     0.057 A 
ATOM     41  C   UNL     1       4.296   7.574  13.597  1.00  0.00     0.134 A 
ATOM     42  C   UNL     1       6.525   8.367  13.220  1.00  0.00     0.134 A 
ATOM     43  F   UNL     1       3.298   6.706  13.373  1.00  0.00    -0.206 F 
ATOM     44  C   UNL     1       4.026   8.694  14.387  1.00  0.00     0.040 A 
ATOM     45  C   UNL     1       6.276   9.476  14.028  1.00  0.00     0.040 A 
ATOM     46  F   UNL     1       7.733   8.267  12.645  1.00  0.00    -0.206 F 
ATOM     47  C   UNL     1       5.020   9.646  14.607  1.00  0.00     0.006 A 
ENDBRANCH  26  40
BRANCH  27  48
ATOM     48  C   UNL     1       7.198   0.310   6.035  1.00  0.00     0.057 A 
ATOM     49  C   UNL     1       6.735  -0.994   6.263  1.00  0.00     0.134 A 
ATOM     50  C   UNL     1       7.879   0.533   4.830  1.00  0.00     0.134 A 
ATOM     51  F   UNL     1       6.109  -1.299   7.410  1.00  0.00    -0.206 F 
ATOM     52  C   UNL     1       6.940  -2.024   5.338  1.00  0.00     0.040 A 
ATOM     53  C   UNL     1       8.054  -0.475   3.879  1.00  0.00     0.040 A 
ATOM     54  F   UNL     1       8.379   1.745   4.549  1.00  0.00    -0.206 F 
ATOM     55  C   UNL     1       7.590  -1.762   4.135  1.00  0.00     0.006 A 
ENDBRANCH  27  48
BRANCH  39  56
ATOM     56  C   UNL     1       9.609   1.443  12.479  1.00  0.00     0.057 A 
ATOM     57  C   UNL     1      10.977   1.434  12.180  1.00  0.00     0.134 A 
ATOM     58  C   UNL     1       9.189   0.772  13.634  1.00  0.00     0.134 A 
ATOM     59  F   UNL     1      11.440   2.052  11.083  1.00  0.00    -0.206 F 
ATOM     60  C   UNL     1      11.892   0.761  12.991  1.00  0.00     0.040 A 
ATOM     61  C   UNL     1      10.098   0.121  14.466  1.00  0.00     0.040 A 
ATOM     62  F   UNL     1       7.893   0.757  13.979  1.00  0.00    -0.206 F 
ATOM     63  C   UNL     1      11.453   0.108  14.141  1.00  0.00     0.006 A 
ENDBRANCH  39  56
ENDBRANCH  13  14
ENDBRANCH   6   8
ENDBRANCH   5   6
ENDBRANCH   4   5
ENDBRANCH   3   4
ENDBRANCH   2   3
ENDBRANCH   1   2
BRANCH   1  64
ATOM     64  C   UNL     1      -0.951   5.932   1.389  1.00  0.00     0.188 C 
BRANCH  64  65
ATOM     65  O   UNL     1      -1.897   4.951   0.954  1.00  0.00    -0.376 OA
BRANCH  65  66
ATOM     66  C   UNL     1      -2.339   4.003   1.918  1.00  0.00     0.202 C 
BRANCH  66  67
ATOM     67  C   UNL     1      -1.340   2.928   2.362  1.00  0.00     0.261 C 
BRANCH  67  68
ATOM     68  O   UNL     1       0.023   3.356   2.303  1.00  0.00    -0.458 OA
BRANCH  68  69
ATOM     69  C   UNL     1       0.852   2.703   1.445  1.00  0.00     0.373 C 
ATOM     70  O   UNL     1       0.495   1.751   0.746  1.00  0.00    -0.244 OA
BRANCH  69  71
ATOM     71  C   UNL     1       2.353   3.177   1.578  1.00  0.00     0.219 C 
ATOM     72  C   UNL     1       2.590   4.560   2.202  1.00  0.00     0.087 C 
ATOM     73  N   UNL     1       3.053   2.207   2.474  1.00  0.00    -0.328 N 
ATOM     74  C   UNL     1       2.126   4.705   3.631  1.00  0.00     0.013 C 
ATOM     75  C   UNL     1       2.405   2.114   3.785  1.00  0.00     0.261 C 
ATOM     76  H   UNL     1       4.018   2.513   2.602  1.00  0.00     0.347 HD
ATOM     77  H   UNL     1       3.017   1.286   2.035  1.00  0.00     0.347 HD
ATOM     78  C   UNL     1       2.084   3.439   4.478  1.00  0.00     0.062 C 
BRANCH  71  79
ATOM     79  C   UNL     1       3.037   3.274   0.190  1.00  0.00     0.024 A 
ATOM     80  C   UNL     1       4.442   3.308   0.087  1.00  0.00     0.011 A 
ATOM     81  C   UNL     1       2.292   3.522  -0.979  1.00  0.00     0.011 A 
ATOM     82  C   UNL     1       5.072   3.596  -1.126  1.00  0.00     0.001 A 
ATOM     83  C   UNL     1       2.923   3.785  -2.197  1.00  0.00     0.001 A 
ATOM     84  C   UNL     1       4.311   3.833  -2.268  1.00  0.00     0.000 A 
ENDBRANCH  71  79
ENDBRANCH  69  71
ENDBRANCH  68  69
ENDBRANCH  67  68
ENDBRANCH  66  67
ENDBRANCH  65  66
ENDBRANCH  64  65
ENDBRANCH   1  64
TORSDOF 18
