REMARK SMILES COc1c(C(=O)OCCOCCOCCOC(=O)c2ccc(-c3c4nc(c(-c5c(F)cccc5F)c5ccc([nH]5)c(-c5c(F)cccc5F)c5nc(c(-c6c(F)cccc6F)c6ccc3[nH]6)C=C5)C=C4)cc2)cccc1-c1cc(C)ccc1C
REMARK SMILES IDX 12 1 11 2 10 3 9 4 8 5 7 6 5 7 6 8 4 9 3 10 76 11 73 12
REMARK SMILES IDX 75 13 74 14 2 15 1 16 77 17 78 18 83 19 79 20 82 21 84 22
REMARK SMILES IDX 80 23 81 24 13 25 14 26 15 27 16 28 17 29 18 30 19 31 20 32
REMARK SMILES IDX 72 33 21 34 71 35 22 36 23 37 24 38 65 39 25 40 70 41 64 42
REMARK SMILES IDX 66 43 26 44 69 45 63 46 62 47 27 49 53 50 36 51 52 52 37 53
REMARK SMILES IDX 40 54 51 55 67 56 38 57 39 58 50 60 68 61 41 62 28 63 29 64
REMARK SMILES IDX 34 65 30 66 31 67 33 68 35 69 32 70 54 71 55 72 60 73 56 74
REMARK SMILES IDX 57 75 59 76 61 77 58 78 42 79 43 80 48 81 44 82 45 83 47 84
REMARK SMILES IDX 49 85 46 86
REMARK H PARENT 66 48 40 59
REMARK Flexibility Score: inf
ROOT
ATOM      1  C   UNL     1      -2.006   0.700   3.261  1.00  0.00     0.188 C 
ENDROOT
BRANCH   1   2
ATOM      2  C   UNL     1      -2.815   1.996   3.483  1.00  0.00     0.188 C 
BRANCH   2   3
ATOM      3  O   UNL     1      -4.104   2.123   2.892  1.00  0.00    -0.376 OA
BRANCH   3   4
ATOM      4  C   UNL     1      -4.258   1.858   1.499  1.00  0.00     0.202 C 
BRANCH   4   5
ATOM      5  C   UNL     1      -3.320   2.553   0.504  1.00  0.00     0.261 C 
BRANCH   5   6
ATOM      6  O   UNL     1      -1.931   2.293   0.765  1.00  0.00    -0.460 OA
BRANCH   6   7
ATOM      7  C   UNL     1      -1.130   3.383   0.850  1.00  0.00     0.342 C 
ATOM      8  O   UNL     1      -1.450   4.544   0.642  1.00  0.00    -0.246 OA
BRANCH   7   9
ATOM      9  C   UNL     1       0.149   3.022   1.498  1.00  0.00     0.102 A 
ATOM     10  C   UNL     1       0.997   2.011   1.018  1.00  0.00     0.141 A 
ATOM     11  C   UNL     1       2.252   1.794   1.639  1.00  0.00     0.025 A 
ATOM     12  C   UNL     1       0.482   3.742   2.655  1.00  0.00     0.019 A 
ATOM     13  C   UNL     1       2.538   2.511   2.822  1.00  0.00     0.012 A 
ATOM     14  C   UNL     1       1.659   3.462   3.337  1.00  0.00     0.002 A 
BRANCH  10  15
ATOM     15  O   UNL     1       0.607   1.342  -0.117  1.00  0.00    -0.495 OA
ATOM     16  C   UNL     1       0.465  -0.065   0.090  1.00  0.00     0.278 C 
ENDBRANCH  10  15
BRANCH  11  17
ATOM     17  C   UNL     1       3.313   0.927   1.071  1.00  0.00    -0.011 A 
ATOM     18  C   UNL     1       3.876  -0.094   1.869  1.00  0.00     0.012 A 
ATOM     19  C   UNL     1       3.832   1.113  -0.232  1.00  0.00    -0.043 A 
ATOM     20  C   UNL     1       4.900  -0.928   1.396  1.00  0.00    -0.050 A 
ATOM     21  C   UNL     1       4.820   0.238  -0.718  1.00  0.00     0.004 A 
ATOM     22  C   UNL     1       3.357   2.199  -1.163  1.00  0.00     0.045 C 
ATOM     23  C   UNL     1       5.516  -1.956   2.299  1.00  0.00     0.044 C 
ATOM     24  C   UNL     1       5.353  -0.765   0.088  1.00  0.00     0.004 A 
ENDBRANCH  11  17
ENDBRANCH   7   9
ENDBRANCH   6   7
ENDBRANCH   5   6
ENDBRANCH   4   5
ENDBRANCH   3   4
ENDBRANCH   2   3
ENDBRANCH   1   2
BRANCH   1  25
ATOM     25  O   UNL     1      -2.630  -0.232   2.410  1.00  0.00    -0.376 OA
BRANCH  25  26
ATOM     26  C   UNL     1      -3.344  -1.321   2.965  1.00  0.00     0.202 C 
BRANCH  26  27
ATOM     27  C   UNL     1      -4.128  -1.259   4.293  1.00  0.00     0.261 C 
BRANCH  27  28
ATOM     28  O   UNL     1      -3.779  -0.242   5.238  1.00  0.00    -0.460 OA
BRANCH  28  29
ATOM     29  C   UNL     1      -2.856  -0.565   6.165  1.00  0.00     0.338 C 
ATOM     30  O   UNL     1      -2.244  -1.623   6.264  1.00  0.00    -0.246 OA
BRANCH  29  31
ATOM     31  C   UNL     1      -2.547   0.635   6.965  1.00  0.00     0.060 A 
ATOM     32  C   UNL     1      -1.242   1.142   6.932  1.00  0.00     0.016 A 
ATOM     33  C   UNL     1      -3.519   1.232   7.774  1.00  0.00     0.016 A 
ATOM     34  C   UNL     1      -0.890   2.212   7.752  1.00  0.00     0.010 A 
ATOM     35  C   UNL     1      -3.159   2.298   8.608  1.00  0.00     0.010 A 
ATOM     36  C   UNL     1      -1.832   2.761   8.633  1.00  0.00    -0.014 A 
BRANCH  36  37
ATOM     37  C   UNL     1      -1.362   3.664   9.714  1.00  0.00     0.031 A 
ATOM     38  C   UNL     1      -1.082   3.073  11.070  1.00  0.00     0.074 A 
ATOM     39  C   UNL     1      -1.123   4.967   9.486  1.00  0.00     0.049 A 
ATOM     40  N   UNL     1      -0.612   3.647  12.149  1.00  0.00    -0.248 NA
ATOM     41  C   UNL     1      -1.367   1.638  11.229  1.00  0.00     0.031 C 
ATOM     42  C   UNL     1      -1.326   5.657   8.215  1.00  0.00     0.029 A 
ATOM     43  N   UNL     1      -0.648   5.942  10.328  1.00  0.00    -0.354 N 
ATOM     44  C   UNL     1      -0.544   2.646  13.110  1.00  0.00     0.074 A 
ATOM     45  C   UNL     1      -1.056   1.438  12.501  1.00  0.00     0.031 C 
ATOM     46  C   UNL     1      -0.978   6.948   8.360  1.00  0.00     0.029 A 
ATOM     47  C   UNL     1      -0.544   7.178   9.738  1.00  0.00     0.049 A 
ATOM     48  H   UNL     1      -0.406   5.772  11.267  1.00  0.00     0.167 HD
ATOM     49  C   UNL     1      -0.085   2.719  14.381  1.00  0.00     0.037 A 
ATOM     50  C   UNL     1      -0.149   8.357  10.255  1.00  0.00     0.037 A 
ATOM     51  C   UNL     1       0.420   3.919  14.994  1.00  0.00     0.049 A 
ATOM     52  C   UNL     1       0.309   8.425  11.689  1.00  0.00     0.074 A 
ATOM     53  C   UNL     1       0.916   4.092  16.275  1.00  0.00     0.029 A 
ATOM     54  N   UNL     1       0.485   5.156  14.370  1.00  0.00    -0.354 N 
ATOM     55  N   UNL     1       0.405   7.465  12.577  1.00  0.00    -0.248 NA
ATOM     56  C   UNL     1       0.728   9.744  12.188  1.00  0.00     0.031 C 
ATOM     57  C   UNL     1       1.240   5.443  16.440  1.00  0.00     0.029 A 
ATOM     58  C   UNL     1       0.997   6.100  15.245  1.00  0.00     0.049 A 
ATOM     59  H   UNL     1       0.207   5.336  13.443  1.00  0.00     0.167 HD
ATOM     60  C   UNL     1       0.930   8.053  13.722  1.00  0.00     0.074 A 
ATOM     61  C   UNL     1       1.141   9.452  13.413  1.00  0.00     0.031 C 
ATOM     62  C   UNL     1       1.216   7.486  14.920  1.00  0.00     0.037 A 
BRANCH  49  63
ATOM     63  C   UNL     1      -0.130   1.463  15.201  1.00  0.00     0.057 A 
ATOM     64  C   UNL     1       0.732   0.386  14.954  1.00  0.00     0.134 A 
ATOM     65  C   UNL     1      -1.036   1.335  16.261  1.00  0.00     0.134 A 
ATOM     66  F   UNL     1       1.611   0.437  13.941  1.00  0.00    -0.206 F 
ATOM     67  C   UNL     1       0.678  -0.782  15.716  1.00  0.00     0.040 A 
ATOM     68  C   UNL     1      -1.081   0.183  17.047  1.00  0.00     0.040 A 
ATOM     69  F   UNL     1      -1.888   2.330  16.552  1.00  0.00    -0.206 F 
ATOM     70  C   UNL     1      -0.227  -0.882  16.771  1.00  0.00     0.006 A 
ENDBRANCH  49  63
BRANCH  50  71
ATOM     71  C   UNL     1      -0.154   9.581   9.412  1.00  0.00     0.057 A 
ATOM     72  C   UNL     1       1.039  10.203   9.026  1.00  0.00     0.134 A 
ATOM     73  C   UNL     1      -1.353  10.179   9.008  1.00  0.00     0.134 A 
ATOM     74  F   UNL     1       2.220   9.693   9.405  1.00  0.00    -0.206 F 
ATOM     75  C   UNL     1       1.041  11.388   8.288  1.00  0.00     0.040 A 
ATOM     76  C   UNL     1      -1.366  11.349   8.246  1.00  0.00     0.040 A 
ATOM     77  F   UNL     1      -2.530   9.633   9.346  1.00  0.00    -0.206 F 
ATOM     78  C   UNL     1      -0.166  11.961   7.892  1.00  0.00     0.006 A 
ENDBRANCH  50  71
BRANCH  62  79
ATOM     79  C   UNL     1       1.842   8.364  15.967  1.00  0.00     0.057 A 
ATOM     80  C   UNL     1       1.126   9.377  16.618  1.00  0.00     0.134 A 
ATOM     81  C   UNL     1       3.180   8.178  16.341  1.00  0.00     0.134 A 
ATOM     82  F   UNL     1      -0.156   9.615  16.301  1.00  0.00    -0.206 F 
ATOM     83  C   UNL     1       1.727  10.193  17.579  1.00  0.00     0.040 A 
ATOM     84  C   UNL     1       3.783   8.968  17.321  1.00  0.00     0.040 A 
ATOM     85  F   UNL     1       3.921   7.218  15.767  1.00  0.00    -0.206 F 
ATOM     86  C   UNL     1       3.058   9.986  17.935  1.00  0.00     0.006 A 
ENDBRANCH  62  79
ENDBRANCH  36  37
ENDBRANCH  29  31
ENDBRANCH  28  29
ENDBRANCH  27  28
ENDBRANCH  26  27
ENDBRANCH  25  26
ENDBRANCH   1  25
TORSDOF 19
