REMARK SMILES O=C(/C=C/c1cc(F)cc(C[N@@H+]2CCC[C@H]2CO)c1)OCCOCCOCCOC(=O)c1ccc(-c2c3nc(c(-c4c(F)cccc4F)c4ccc([nH]4)c(-c4c(F)cccc4F)c4nc(c(-c5c(F)cccc5F)c5ccc2[nH]5)C=C4)C=C3)cc1
REMARK SMILES IDX 23 1 22 2 21 3 20 4 2 5 1 6 3 7 4 8 5 9 6 10 19 11 7 12
REMARK SMILES IDX 10 13 8 14 9 15 11 16 12 17 13 18 16 19 14 21 15 22 17 23
REMARK SMILES IDX 18 24 24 26 25 27 26 28 27 29 28 30 29 31 30 32 31 33 32 34
REMARK SMILES IDX 33 35 85 36 34 37 84 38 35 39 36 40 37 41 78 42 38 43 83 44
REMARK SMILES IDX 77 45 79 46 39 47 82 48 76 49 75 50 40 52 66 53 49 54 65 55
REMARK SMILES IDX 50 56 53 57 64 58 80 59 51 60 52 61 63 63 81 64 54 65 41 66
REMARK SMILES IDX 42 67 47 68 43 69 44 70 46 71 48 72 45 73 67 74 68 75 73 76
REMARK SMILES IDX 69 77 70 78 72 79 74 80 71 81 55 82 56 83 61 84 57 85 58 86
REMARK SMILES IDX 60 87 62 88 59 89
REMARK H PARENT 12 20 18 25 79 51 53 62
REMARK Flexibility Score: inf
ROOT
ATOM      1  O   UNL     1       4.256  -0.534   1.887  1.00  0.00    -0.376 OA
ENDROOT
BRANCH   1   2
ATOM      2  C   UNL     1       5.021   0.138   0.915  1.00  0.00     0.202 C 
BRANCH   2   3
ATOM      3  C   UNL     1       4.471   1.508   0.538  1.00  0.00     0.261 C 
BRANCH   3   4
ATOM      4  O   UNL     1       3.246   1.628  -0.232  1.00  0.00    -0.460 OA
BRANCH   4   5
ATOM      5  C   UNL     1       2.736   1.000  -1.304  1.00  0.00     0.330 C 
ATOM      6  O   UNL     1       1.681   1.380  -1.804  1.00  0.00    -0.247 OA
BRANCH   5   7
ATOM      7  C   UNL     1       3.332  -0.236  -1.817  1.00  0.00     0.094 C 
ATOM      8  C   UNL     1       4.614  -0.365  -2.173  1.00  0.00     0.016 C 
BRANCH   8   9
ATOM      9  C   UNL     1       5.134  -1.592  -2.781  1.00  0.00    -0.022 A 
ATOM     10  C   UNL     1       4.977  -1.744  -4.155  1.00  0.00     0.047 A 
ATOM     11  C   UNL     1       5.878  -2.544  -2.048  1.00  0.00     0.018 A 
ATOM     12  C   UNL     1       5.640  -2.773  -4.792  1.00  0.00     0.124 A 
ATOM     13  C   UNL     1       6.554  -3.609  -2.688  1.00  0.00     0.010 A 
ATOM     14  F   UNL     1       5.560  -2.882  -6.125  1.00  0.00    -0.207 F 
ATOM     15  C   UNL     1       6.451  -3.656  -4.084  1.00  0.00     0.048 A 
BRANCH  13  16
ATOM     16  C   UNL     1       7.545  -4.458  -1.892  1.00  0.00     0.299 C 
BRANCH  16  17
ATOM     17  N   UNL     1       7.719  -5.896  -2.108  1.00  0.00    -0.327 N 
ATOM     18  C   UNL     1       7.974  -6.405  -3.443  1.00  0.00     0.263 C 
ATOM     19  C   UNL     1       6.786  -6.815  -1.450  1.00  0.00     0.210 C 
ATOM     20  H   UNL     1       8.610  -5.903  -1.612  1.00  0.00     0.348 HD
ATOM     21  C   UNL     1       6.646  -7.004  -3.876  1.00  0.00     0.068 C 
ATOM     22  C   UNL     1       5.991  -7.466  -2.585  1.00  0.00     0.073 C 
BRANCH  19  23
ATOM     23  C   UNL     1       7.539  -7.881  -0.601  1.00  0.00     0.220 C 
BRANCH  23  24
ATOM     24  O   UNL     1       8.480  -8.672  -1.327  1.00  0.00    -0.390 OA
ATOM     25  H   UNL     1       8.014  -9.186  -2.006  1.00  0.00     0.210 HD
ENDBRANCH  23  24
ENDBRANCH  19  23
ENDBRANCH  16  17
ENDBRANCH  13  16
ENDBRANCH   8   9
ENDBRANCH   5   7
ENDBRANCH   4   5
ENDBRANCH   3   4
ENDBRANCH   2   3
ENDBRANCH   1   2
BRANCH   1  26
ATOM     26  C   UNL     1       2.991  -1.042   1.525  1.00  0.00     0.188 C 
BRANCH  26  27
ATOM     27  C   UNL     1       2.133  -1.311   2.772  1.00  0.00     0.188 C 
BRANCH  27  28
ATOM     28  O   UNL     1       2.687  -1.070   4.061  1.00  0.00    -0.376 OA
BRANCH  28  29
ATOM     29  C   UNL     1       3.972  -1.590   4.388  1.00  0.00     0.202 C 
BRANCH  29  30
ATOM     30  C   UNL     1       4.180  -3.104   4.318  1.00  0.00     0.261 C 
BRANCH  30  31
ATOM     31  O   UNL     1       3.925  -3.696   3.031  1.00  0.00    -0.460 OA
BRANCH  31  32
ATOM     32  C   UNL     1       2.851  -4.524   3.002  1.00  0.00     0.338 C 
ATOM     33  O   UNL     1       2.054  -4.744   3.894  1.00  0.00    -0.246 OA
BRANCH  32  34
ATOM     34  C   UNL     1       2.706  -5.134   1.672  1.00  0.00     0.060 A 
ATOM     35  C   UNL     1       1.550  -4.868   0.927  1.00  0.00     0.016 A 
ATOM     36  C   UNL     1       3.607  -6.119   1.266  1.00  0.00     0.016 A 
ATOM     37  C   UNL     1       1.270  -5.619  -0.216  1.00  0.00     0.010 A 
ATOM     38  C   UNL     1       3.313  -6.881   0.134  1.00  0.00     0.010 A 
ATOM     39  C   UNL     1       2.131  -6.656  -0.594  1.00  0.00    -0.014 A 
BRANCH  39  40
ATOM     40  C   UNL     1       1.744  -7.626  -1.646  1.00  0.00     0.031 A 
ATOM     41  C   UNL     1       1.199  -8.964  -1.233  1.00  0.00     0.074 A 
ATOM     42  C   UNL     1       1.929  -7.348  -2.947  1.00  0.00     0.049 A 
ATOM     43  N   UNL     1       0.972 -10.028  -1.959  1.00  0.00    -0.248 NA
ATOM     44  C   UNL     1       0.876  -9.125   0.194  1.00  0.00     0.031 C 
ATOM     45  C   UNL     1       2.409  -6.075  -3.480  1.00  0.00     0.029 A 
ATOM     46  N   UNL     1       1.766  -8.142  -4.054  1.00  0.00    -0.354 N 
ATOM     47  C   UNL     1       0.502 -10.991  -1.077  1.00  0.00     0.074 A 
ATOM     48  C   UNL     1       0.488 -10.391   0.240  1.00  0.00     0.031 C 
ATOM     49  C   UNL     1       2.529  -6.183  -4.814  1.00  0.00     0.029 A 
ATOM     50  C   UNL     1       2.171  -7.543  -5.220  1.00  0.00     0.049 A 
ATOM     51  H   UNL     1       1.395  -9.053  -4.016  1.00  0.00     0.167 HD
ATOM     52  C   UNL     1       0.119 -12.262  -1.341  1.00  0.00     0.037 A 
ATOM     53  C   UNL     1       2.277  -8.044  -6.466  1.00  0.00     0.037 A 
ATOM     54  C   UNL     1       0.116 -12.853  -2.651  1.00  0.00     0.049 A 
ATOM     55  C   UNL     1       1.914  -9.480  -6.730  1.00  0.00     0.074 A 
ATOM     56  C   UNL     1      -0.300 -14.119  -3.024  1.00  0.00     0.029 A 
ATOM     57  N   UNL     1       0.557 -12.219  -3.802  1.00  0.00    -0.354 N 
ATOM     58  N   UNL     1       1.470 -10.385  -5.892  1.00  0.00    -0.248 NA
ATOM     59  C   UNL     1       2.081  -9.970  -8.107  1.00  0.00     0.031 C 
ATOM     60  C   UNL     1      -0.066 -14.268  -4.394  1.00  0.00     0.029 A 
ATOM     61  C   UNL     1       0.456 -13.080  -4.881  1.00  0.00     0.049 A 
ATOM     62  H   UNL     1       0.891 -11.294  -3.846  1.00  0.00     0.167 HD
ATOM     63  C   UNL     1       1.291 -11.544  -6.639  1.00  0.00     0.074 A 
ATOM     64  C   UNL     1       1.673 -11.228  -8.000  1.00  0.00     0.031 C 
ATOM     65  C   UNL     1       0.847 -12.757  -6.230  1.00  0.00     0.037 A 
BRANCH  52  66
ATOM     66  C   UNL     1      -0.301 -13.112  -0.180  1.00  0.00     0.057 A 
ATOM     67  C   UNL     1       0.529 -14.142   0.280  1.00  0.00     0.134 A 
ATOM     68  C   UNL     1      -1.532 -12.934   0.463  1.00  0.00     0.134 A 
ATOM     69  F   UNL     1       1.720 -14.365  -0.296  1.00  0.00    -0.206 F 
ATOM     70  C   UNL     1       0.148 -14.968   1.338  1.00  0.00     0.040 A 
ATOM     71  C   UNL     1      -1.915 -13.739   1.536  1.00  0.00     0.040 A 
ATOM     72  F   UNL     1      -2.364 -11.955   0.077  1.00  0.00    -0.206 F 
ATOM     73  C   UNL     1      -1.076 -14.764   1.973  1.00  0.00     0.006 A 
ENDBRANCH  52  66
BRANCH  53  74
ATOM     74  C   UNL     1       2.773  -7.169  -7.555  1.00  0.00     0.057 A 
ATOM     75  C   UNL     1       4.119  -6.789  -7.628  1.00  0.00     0.134 A 
ATOM     76  C   UNL     1       1.899  -6.653  -8.516  1.00  0.00     0.134 A 
ATOM     77  F   UNL     1       5.003  -7.255  -6.733  1.00  0.00    -0.206 F 
ATOM     78  C   UNL     1       4.574  -5.903  -8.604  1.00  0.00     0.040 A 
ATOM     79  C   UNL     1       2.344  -5.780  -9.510  1.00  0.00     0.040 A 
ATOM     80  F   UNL     1       0.604  -6.999  -8.506  1.00  0.00    -0.206 F 
ATOM     81  C   UNL     1       3.684  -5.395  -9.549  1.00  0.00     0.006 A 
ENDBRANCH  53  74
BRANCH  65  82
ATOM     82  C   UNL     1       0.738 -13.848  -7.254  1.00  0.00     0.057 A 
ATOM     83  C   UNL     1      -0.514 -14.270  -7.718  1.00  0.00     0.134 A 
ATOM     84  C   UNL     1       1.865 -14.552  -7.694  1.00  0.00     0.134 A 
ATOM     85  F   UNL     1      -1.633 -13.643  -7.323  1.00  0.00    -0.206 F 
ATOM     86  C   UNL     1      -0.644 -15.369  -8.568  1.00  0.00     0.040 A 
ATOM     87  C   UNL     1       1.749 -15.642  -8.558  1.00  0.00     0.040 A 
ATOM     88  F   UNL     1       3.092 -14.191  -7.290  1.00  0.00    -0.206 F 
ATOM     89  C   UNL     1       0.491 -16.060  -8.988  1.00  0.00     0.006 A 
ENDBRANCH  65  82
ENDBRANCH  39  40
ENDBRANCH  32  34
ENDBRANCH  31  32
ENDBRANCH  30  31
ENDBRANCH  29  30
ENDBRANCH  28  29
ENDBRANCH  27  28
ENDBRANCH  26  27
ENDBRANCH   1  26
TORSDOF 22
