REMARK SMILES O=C(Cc1ccccc1C(=O)OCCOCCOCCOC(=O)c1ccc(-c2c3nc(c(-c4c(F)cccc4F)c4ccc([nH]4)c(-c4c(F)cccc4F)c4nc(c(-c5c(F)cccc5F)c5ccc2[nH]5)C=C4)C=C3)cc1)Nc1cccc(OC[C@@H]2CCCO2)c1
REMARK SMILES IDX 14 1 13 2 12 3 10 4 11 5 9 6 4 7 5 8 6 9 8 10 7 11 3 12 2 13
REMARK SMILES IDX 1 14 78 15 79 17 80 18 91 19 81 20 83 21 82 22 84 23 85 24
REMARK SMILES IDX 86 25 87 26 90 27 88 28 89 29 15 30 16 31 17 32 18 33 19 34
REMARK SMILES IDX 20 35 21 36 22 37 23 38 24 39 25 40 77 41 26 42 76 43 27 44
REMARK SMILES IDX 28 45 29 46 70 47 30 48 75 49 69 50 71 51 31 52 74 53 68 54
REMARK SMILES IDX 67 55 32 57 58 58 41 59 57 60 42 61 45 62 56 63 72 64 43 65
REMARK SMILES IDX 44 66 55 68 73 69 46 70 33 71 34 72 39 73 35 74 36 75 38 76
REMARK SMILES IDX 40 77 37 78 59 79 60 80 65 81 61 82 62 83 64 84 66 85 63 86
REMARK SMILES IDX 47 87 48 88 53 89 49 90 50 91 52 92 54 93 51 94
REMARK H PARENT 78 16 71 56 45 67
REMARK Flexibility Score: inf
ROOT
ATOM      1  C   UNL     1      -0.652   2.465  -0.865  1.00  0.00     0.202 C 
ENDROOT
BRANCH   1   2
ATOM      2  C   UNL     1       0.017   1.970  -2.141  1.00  0.00     0.261 C 
BRANCH   2   3
ATOM      3  O   UNL     1       1.346   1.507  -1.847  1.00  0.00    -0.460 OA
BRANCH   3   4
ATOM      4  C   UNL     1       2.216   1.616  -2.873  1.00  0.00     0.338 C 
ATOM      5  O   UNL     1       1.947   1.911  -4.025  1.00  0.00    -0.246 OA
BRANCH   4   6
ATOM      6  C   UNL     1       3.605   1.550  -2.357  1.00  0.00     0.063 A 
ATOM      7  C   UNL     1       4.154   0.474  -1.625  1.00  0.00    -0.024 A 
ATOM      8  C   UNL     1       5.529   0.521  -1.320  1.00  0.00     0.005 A 
ATOM      9  C   UNL     1       6.323   1.604  -1.708  1.00  0.00     0.000 A 
ATOM     10  C   UNL     1       4.410   2.643  -2.726  1.00  0.00     0.016 A 
ATOM     11  C   UNL     1       5.762   2.670  -2.402  1.00  0.00     0.001 A 
BRANCH   7  12
ATOM     12  C   UNL     1       3.394  -0.792  -1.300  1.00  0.00     0.136 C 
BRANCH  12  13
ATOM     13  C   UNL     1       2.912  -1.074   0.117  1.00  0.00     0.228 C 
ATOM     14  O   UNL     1       2.070  -1.966   0.254  1.00  0.00    -0.274 OA
ATOM     15  N   UNL     1       3.508  -0.400   1.169  1.00  0.00    -0.326 N 
ATOM     16  H   UNL     1       4.316   0.125   0.965  1.00  0.00     0.169 HD
BRANCH  15  17
ATOM     17  C   UNL     1       3.057  -0.399   2.519  1.00  0.00     0.044 A 
ATOM     18  C   UNL     1       3.836   0.239   3.489  1.00  0.00     0.026 A 
ATOM     19  C   UNL     1       1.810  -0.909   2.901  1.00  0.00     0.072 A 
ATOM     20  C   UNL     1       3.370   0.359   4.805  1.00  0.00     0.006 A 
ATOM     21  C   UNL     1       1.315  -0.748   4.194  1.00  0.00     0.121 A 
ATOM     22  C   UNL     1       2.107  -0.121   5.152  1.00  0.00     0.046 A 
BRANCH  21  23
ATOM     23  O   UNL     1       0.029  -1.029   4.564  1.00  0.00    -0.491 OA
BRANCH  23  24
ATOM     24  C   UNL     1      -0.600  -2.170   3.972  1.00  0.00     0.261 C 
BRANCH  24  25
ATOM     25  C   UNL     1      -1.660  -1.869   2.890  1.00  0.00     0.156 C 
ATOM     26  C   UNL     1      -1.271  -2.224   1.454  1.00  0.00     0.038 C 
ATOM     27  O   UNL     1      -2.126  -0.508   2.885  1.00  0.00    -0.375 OA
ATOM     28  C   UNL     1      -1.416  -0.927   0.696  1.00  0.00     0.031 C 
ATOM     29  C   UNL     1      -2.427  -0.172   1.525  1.00  0.00     0.161 C 
ENDBRANCH  24  25
ENDBRANCH  23  24
ENDBRANCH  21  23
ENDBRANCH  15  17
ENDBRANCH  12  13
ENDBRANCH   7  12
ENDBRANCH   4   6
ENDBRANCH   3   4
ENDBRANCH   2   3
ENDBRANCH   1   2
BRANCH   1  30
ATOM     30  O   UNL     1      -0.178   3.715  -0.370  1.00  0.00    -0.376 OA
BRANCH  30  31
ATOM     31  C   UNL     1       1.179   3.812   0.049  1.00  0.00     0.188 C 
BRANCH  31  32
ATOM     32  C   UNL     1       1.792   2.684   0.893  1.00  0.00     0.188 C 
BRANCH  32  33
ATOM     33  O   UNL     1       0.931   1.863   1.657  1.00  0.00    -0.376 OA
BRANCH  33  34
ATOM     34  C   UNL     1       0.027   2.475   2.568  1.00  0.00     0.202 C 
BRANCH  34  35
ATOM     35  C   UNL     1       0.663   3.040   3.830  1.00  0.00     0.261 C 
BRANCH  35  36
ATOM     36  O   UNL     1       1.353   4.254   3.521  1.00  0.00    -0.460 OA
BRANCH  36  37
ATOM     37  C   UNL     1       2.680   4.260   3.767  1.00  0.00     0.338 C 
ATOM     38  O   UNL     1       3.376   3.416   4.295  1.00  0.00    -0.246 OA
BRANCH  37  39
ATOM     39  C   UNL     1       3.223   5.451   3.114  1.00  0.00     0.060 A 
ATOM     40  C   UNL     1       4.298   5.296   2.229  1.00  0.00     0.016 A 
ATOM     41  C   UNL     1       2.673   6.701   3.396  1.00  0.00     0.016 A 
ATOM     42  C   UNL     1       4.859   6.420   1.642  1.00  0.00     0.010 A 
ATOM     43  C   UNL     1       3.242   7.824   2.820  1.00  0.00     0.010 A 
ATOM     44  C   UNL     1       4.354   7.683   1.973  1.00  0.00    -0.014 A 
BRANCH  44  45
ATOM     45  C   UNL     1       5.083   8.899   1.590  1.00  0.00     0.031 A 
ATOM     46  C   UNL     1       6.018   9.494   2.596  1.00  0.00     0.074 A 
ATOM     47  C   UNL     1       4.829   9.478   0.408  1.00  0.00     0.049 A 
ATOM     48  N   UNL     1       6.632  10.644   2.576  1.00  0.00    -0.248 NA
ATOM     49  C   UNL     1       6.278   8.688   3.803  1.00  0.00     0.031 C 
ATOM     50  C   UNL     1       3.937   8.941  -0.620  1.00  0.00     0.029 A 
ATOM     51  N   UNL     1       5.269  10.665  -0.107  1.00  0.00    -0.354 N 
ATOM     52  C   UNL     1       7.337  10.709   3.771  1.00  0.00     0.074 A 
ATOM     53  C   UNL     1       7.061   9.494   4.502  1.00  0.00     0.031 C 
ATOM     54  C   UNL     1       3.870   9.818  -1.636  1.00  0.00     0.029 A 
ATOM     55  C   UNL     1       4.685  10.984  -1.306  1.00  0.00     0.049 A 
ATOM     56  H   UNL     1       5.938  11.233   0.339  1.00  0.00     0.167 HD
ATOM     57  C   UNL     1       8.139  11.705   4.210  1.00  0.00     0.037 A 
ATOM     58  C   UNL     1       4.780  12.115  -2.027  1.00  0.00     0.037 A 
ATOM     59  C   UNL     1       8.372  12.911   3.464  1.00  0.00     0.049 A 
ATOM     60  C   UNL     1       5.652  13.222  -1.503  1.00  0.00     0.074 A 
ATOM     61  C   UNL     1       9.166  13.994   3.791  1.00  0.00     0.029 A 
ATOM     62  N   UNL     1       7.794  13.190   2.232  1.00  0.00    -0.354 N 
ATOM     63  N   UNL     1       6.338  13.273  -0.385  1.00  0.00    -0.248 NA
ATOM     64  C   UNL     1       5.767  14.424  -2.337  1.00  0.00     0.031 C 
ATOM     65  C   UNL     1       9.041  14.943   2.769  1.00  0.00     0.029 A 
ATOM     66  C   UNL     1       8.203  14.433   1.788  1.00  0.00     0.049 A 
ATOM     67  H   UNL     1       7.182  12.590   1.747  1.00  0.00     0.167 HD
ATOM     68  C   UNL     1       6.986  14.500  -0.389  1.00  0.00     0.074 A 
ATOM     69  C   UNL     1       6.617  15.156  -1.629  1.00  0.00     0.031 C 
ATOM     70  C   UNL     1       7.812  15.040   0.540  1.00  0.00     0.037 A 
BRANCH  57  71
ATOM     71  C   UNL     1       8.777  11.531   5.556  1.00  0.00     0.057 A 
ATOM     72  C   UNL     1       9.799  10.597   5.775  1.00  0.00     0.134 A 
ATOM     73  C   UNL     1       8.357  12.295   6.652  1.00  0.00     0.134 A 
ATOM     74  F   UNL     1      10.231   9.815   4.773  1.00  0.00    -0.206 F 
ATOM     75  C   UNL     1      10.363  10.412   7.039  1.00  0.00     0.040 A 
ATOM     76  C   UNL     1       8.930  12.136   7.916  1.00  0.00     0.040 A 
ATOM     77  F   UNL     1       7.379  13.202   6.515  1.00  0.00    -0.206 F 
ATOM     78  C   UNL     1       9.931  11.187   8.113  1.00  0.00     0.006 A 
ENDBRANCH  57  71
BRANCH  58  79
ATOM     79  C   UNL     1       4.037  12.243  -3.304  1.00  0.00     0.057 A 
ATOM     80  C   UNL     1       4.705  12.222  -4.532  1.00  0.00     0.134 A 
ATOM     81  C   UNL     1       2.641  12.360  -3.331  1.00  0.00     0.134 A 
ATOM     82  F   UNL     1       6.043  12.124  -4.570  1.00  0.00    -0.206 F 
ATOM     83  C   UNL     1       4.017  12.323  -5.742  1.00  0.00     0.040 A 
ATOM     84  C   UNL     1       1.937  12.440  -4.534  1.00  0.00     0.040 A 
ATOM     85  F   UNL     1       1.940  12.377  -2.188  1.00  0.00    -0.206 F 
ATOM     86  C   UNL     1       2.627  12.426  -5.745  1.00  0.00     0.006 A 
ENDBRANCH  58  79
BRANCH  70  87
ATOM     87  C   UNL     1       8.393  16.384   0.224  1.00  0.00     0.057 A 
ATOM     88  C   UNL     1       7.631  17.555   0.313  1.00  0.00     0.134 A 
ATOM     89  C   UNL     1       9.742  16.507  -0.130  1.00  0.00     0.134 A 
ATOM     90  F   UNL     1       6.330  17.497   0.636  1.00  0.00    -0.206 F 
ATOM     91  C   UNL     1       8.189  18.804   0.041  1.00  0.00     0.040 A 
ATOM     92  C   UNL     1      10.316  17.752  -0.381  1.00  0.00     0.040 A 
ATOM     93  F   UNL     1      10.523  15.420  -0.222  1.00  0.00    -0.206 F 
ATOM     94  C   UNL     1       9.537  18.904  -0.301  1.00  0.00     0.006 A 
ENDBRANCH  70  87
ENDBRANCH  44  45
ENDBRANCH  37  39
ENDBRANCH  36  37
ENDBRANCH  35  36
ENDBRANCH  34  35
ENDBRANCH  33  34
ENDBRANCH  32  33
ENDBRANCH  31  32
ENDBRANCH  30  31
ENDBRANCH   1  30
TORSDOF 23
