REMARK SMILES CC1(C)[C@@H](C(=O)OCCOCCOCCOC(=O)c2ccc(-c3c4nc(c(-c5c(F)cccc5F)c5ccc([nH]5)c(-c5c(F)cccc5F)c5nc(c(-c6c(F)cccc6F)c6ccc3[nH]6)C=C5)C=C4)cc2)CC[C@@]1(C)C(N)=O
REMARK SMILES IDX 12 1 11 2 10 3 9 4 8 5 7 6 5 7 6 8 4 9 1 10 2 11 3 12 75 13
REMARK SMILES IDX 73 14 74 15 76 16 77 17 78 18 79 19 13 22 14 23 15 24 16 25
REMARK SMILES IDX 17 26 18 27 19 28 20 29 72 30 21 31 71 32 22 33 23 34 24 35
REMARK SMILES IDX 65 36 25 37 70 38 64 39 66 40 26 41 69 42 63 43 62 44 27 46
REMARK SMILES IDX 53 47 36 48 52 49 37 50 40 51 51 52 67 53 38 54 39 55 50 57
REMARK SMILES IDX 68 58 41 59 28 60 29 61 34 62 30 63 31 64 33 65 35 66 32 67
REMARK SMILES IDX 54 68 55 69 60 70 56 71 57 72 59 73 61 74 58 75 42 76 43 77
REMARK SMILES IDX 48 78 44 79 45 80 47 81 49 82 46 83
REMARK H PARENT 78 20 78 21 66 45 40 56
REMARK Flexibility Score: inf
ROOT
ATOM      1  C   UNL     1      -0.077  -3.487   0.402  1.00  0.00     0.188 C 
ENDROOT
BRANCH   1   2
ATOM      2  C   UNL     1      -0.579  -2.583   1.547  1.00  0.00     0.188 C 
BRANCH   2   3
ATOM      3  O   UNL     1      -1.754  -3.055   2.182  1.00  0.00    -0.376 OA
BRANCH   3   4
ATOM      4  C   UNL     1      -2.958  -2.392   1.821  1.00  0.00     0.202 C 
BRANCH   4   5
ATOM      5  C   UNL     1      -3.400  -2.490   0.351  1.00  0.00     0.261 C 
BRANCH   5   6
ATOM      6  O   UNL     1      -2.397  -2.165  -0.631  1.00  0.00    -0.463 OA
BRANCH   6   7
ATOM      7  C   UNL     1      -2.072  -0.858  -0.785  1.00  0.00     0.309 C 
ATOM      8  O   UNL     1      -2.617   0.044  -0.168  1.00  0.00    -0.252 OA
BRANCH   7   9
ATOM      9  C   UNL     1      -0.987  -0.684  -1.853  1.00  0.00     0.106 C 
ATOM     10  C   UNL     1       0.737   0.330  -0.180  1.00  0.00     0.013 C 
ATOM     11  C   UNL     1       0.167   0.341  -1.608  1.00  0.00    -0.008 C 
ATOM     12  C   UNL     1       1.372  -0.089  -2.507  1.00  0.00     0.013 C 
ATOM     13  C   UNL     1      -0.447   1.731  -2.058  1.00  0.00     0.052 C 
ATOM     14  C   UNL     1      -1.646  -0.171  -3.125  1.00  0.00     0.017 C 
ATOM     15  C   UNL     1      -1.650   1.349  -2.974  1.00  0.00     0.018 C 
ATOM     16  C   UNL     1       0.526   2.601  -2.888  1.00  0.00     0.022 C 
BRANCH  13  17
ATOM     17  C   UNL     1      -0.837   2.651  -0.864  1.00  0.00     0.223 C 
ATOM     18  N   UNL     1      -2.050   2.507  -0.283  1.00  0.00    -0.369 N 
ATOM     19  O   UNL     1      -0.062   3.475  -0.377  1.00  0.00    -0.275 OA
ATOM     20  H   UNL     1      -2.696   1.858  -0.645  1.00  0.00     0.159 HD
ATOM     21  H   UNL     1      -2.288   3.051   0.503  1.00  0.00     0.159 HD
ENDBRANCH  13  17
ENDBRANCH   7   9
ENDBRANCH   6   7
ENDBRANCH   5   6
ENDBRANCH   4   5
ENDBRANCH   3   4
ENDBRANCH   2   3
ENDBRANCH   1   2
BRANCH   1  22
ATOM     22  O   UNL     1      -0.688  -4.741   0.154  1.00  0.00    -0.376 OA
BRANCH  22  23
ATOM     23  C   UNL     1      -1.024  -5.563   1.260  1.00  0.00     0.202 C 
BRANCH  23  24
ATOM     24  C   UNL     1       0.029  -5.876   2.342  1.00  0.00     0.261 C 
BRANCH  24  25
ATOM     25  O   UNL     1       0.924  -4.809   2.709  1.00  0.00    -0.460 OA
BRANCH  25  26
ATOM     26  C   UNL     1       2.177  -4.880   2.197  1.00  0.00     0.338 C 
ATOM     27  O   UNL     1       2.635  -5.767   1.488  1.00  0.00    -0.246 OA
BRANCH  26  28
ATOM     28  C   UNL     1       2.900  -3.611   2.447  1.00  0.00     0.060 A 
ATOM     29  C   UNL     1       3.329  -2.849   1.348  1.00  0.00     0.016 A 
ATOM     30  C   UNL     1       3.208  -3.199   3.743  1.00  0.00     0.016 A 
ATOM     31  C   UNL     1       4.077  -1.686   1.537  1.00  0.00     0.010 A 
ATOM     32  C   UNL     1       3.991  -2.052   3.932  1.00  0.00     0.010 A 
ATOM     33  C   UNL     1       4.455  -1.307   2.830  1.00  0.00    -0.014 A 
BRANCH  33  34
ATOM     34  C   UNL     1       5.494  -0.262   3.018  1.00  0.00     0.031 A 
ATOM     35  C   UNL     1       6.918  -0.697   3.234  1.00  0.00     0.074 A 
ATOM     36  C   UNL     1       5.193   1.048   2.994  1.00  0.00     0.049 A 
ATOM     37  N   UNL     1       7.980   0.022   3.495  1.00  0.00    -0.248 NA
ATOM     38  C   UNL     1       7.175  -2.143   3.147  1.00  0.00     0.031 C 
ATOM     39  C   UNL     1       3.869   1.609   2.744  1.00  0.00     0.029 A 
ATOM     40  N   UNL     1       5.994   2.145   3.203  1.00  0.00    -0.354 N 
ATOM     41  C   UNL     1       9.027  -0.883   3.621  1.00  0.00     0.074 A 
ATOM     42  C   UNL     1       8.467  -2.204   3.432  1.00  0.00     0.031 C 
ATOM     43  C   UNL     1       3.940   2.949   2.841  1.00  0.00     0.029 A 
ATOM     44  C   UNL     1       5.307   3.335   3.194  1.00  0.00     0.049 A 
ATOM     45  H   UNL     1       6.966   2.085   3.344  1.00  0.00     0.167 HD
ATOM     46  C   UNL     1      10.335  -0.638   3.870  1.00  0.00     0.037 A 
ATOM     47  C   UNL     1       5.726   4.585   3.471  1.00  0.00     0.037 A 
ATOM     48  C   UNL     1      10.893   0.675   4.064  1.00  0.00     0.049 A 
ATOM     49  C   UNL     1       7.172   4.830   3.822  1.00  0.00     0.074 A 
ATOM     50  C   UNL     1      12.212   1.026   4.290  1.00  0.00     0.029 A 
ATOM     51  N   UNL     1      10.159   1.852   4.075  1.00  0.00    -0.354 N 
ATOM     52  N   UNL     1       8.162   3.974   3.907  1.00  0.00    -0.248 NA
ATOM     53  C   UNL     1       7.560   6.219   4.112  1.00  0.00     0.031 C 
ATOM     54  C   UNL     1      12.268   2.406   4.505  1.00  0.00     0.029 A 
ATOM     55  C   UNL     1      10.993   2.926   4.342  1.00  0.00     0.049 A 
ATOM     56  H   UNL     1       9.190   1.915   3.916  1.00  0.00     0.167 HD
ATOM     57  C   UNL     1       9.290   4.721   4.227  1.00  0.00     0.074 A 
ATOM     58  C   UNL     1       8.865   6.103   4.313  1.00  0.00     0.031 C 
ATOM     59  C   UNL     1      10.565   4.301   4.426  1.00  0.00     0.037 A 
BRANCH  46  60
ATOM     60  C   UNL     1      11.246  -1.827   3.995  1.00  0.00     0.057 A 
ATOM     61  C   UNL     1      11.579  -2.633   2.898  1.00  0.00     0.134 A 
ATOM     62  C   UNL     1      11.806  -2.162   5.235  1.00  0.00     0.134 A 
ATOM     63  F   UNL     1      11.068  -2.377   1.685  1.00  0.00    -0.206 F 
ATOM     64  C   UNL     1      12.407  -3.749   3.037  1.00  0.00     0.040 A 
ATOM     65  C   UNL     1      12.660  -3.256   5.380  1.00  0.00     0.040 A 
ATOM     66  F   UNL     1      11.534  -1.430   6.326  1.00  0.00    -0.206 F 
ATOM     67  C   UNL     1      12.955  -4.059   4.281  1.00  0.00     0.006 A 
ENDBRANCH  46  60
BRANCH  47  68
ATOM     68  C   UNL     1       4.754   5.709   3.454  1.00  0.00     0.057 A 
ATOM     69  C   UNL     1       4.816   6.711   2.479  1.00  0.00     0.134 A 
ATOM     70  C   UNL     1       3.748   5.813   4.422  1.00  0.00     0.134 A 
ATOM     71  F   UNL     1       5.777   6.685   1.544  1.00  0.00    -0.206 F 
ATOM     72  C   UNL     1       3.919   7.781   2.473  1.00  0.00     0.040 A 
ATOM     73  C   UNL     1       2.828   6.863   4.412  1.00  0.00     0.040 A 
ATOM     74  F   UNL     1       3.639   4.890   5.388  1.00  0.00    -0.206 F 
ATOM     75  C   UNL     1       2.916   7.854   3.437  1.00  0.00     0.006 A 
ENDBRANCH  47  68
BRANCH  59  76
ATOM     76  C   UNL     1      11.607   5.345   4.718  1.00  0.00     0.057 A 
ATOM     77  C   UNL     1      11.649   6.039   5.934  1.00  0.00     0.134 A 
ATOM     78  C   UNL     1      12.615   5.624   3.784  1.00  0.00     0.134 A 
ATOM     79  F   UNL     1      10.711   5.829   6.870  1.00  0.00    -0.206 F 
ATOM     80  C   UNL     1      12.638   6.989   6.200  1.00  0.00     0.040 A 
ATOM     81  C   UNL     1      13.626   6.549   4.051  1.00  0.00     0.040 A 
ATOM     82  F   UNL     1      12.645   4.989   2.603  1.00  0.00    -0.206 F 
ATOM     83  C   UNL     1      13.635   7.240   5.260  1.00  0.00     0.006 A 
ENDBRANCH  59  76
ENDBRANCH  33  34
ENDBRANCH  26  28
ENDBRANCH  25  26
ENDBRANCH  24  25
ENDBRANCH  23  24
ENDBRANCH  22  23
ENDBRANCH   1  22
TORSDOF 18
