REMARK SMILES O=C(OCCOCCOCCOC(=O)c1ccc(-c2c3nc(c(-c4c(F)cccc4F)c4ccc([nH]4)c(-c4c(F)cccc4F)c4nc(c(-c5c(F)cccc5F)c5ccc2[nH]5)C=C4)C=C3)cc1)C1=Cc2cc(S(F)(F)(F)(F)F)ccc2O[C@@H]1C(F)(F)F
REMARK SMILES IDX 8 1 7 2 6 3 5 4 4 5 3 6 2 7 1 8 69 9 70 10 84 11 71 12 83 13
REMARK SMILES IDX 72 14 82 15 73 16 81 17 80 18 85 19 86 20 87 21 88 22 74 23
REMARK SMILES IDX 75 24 76 25 77 26 78 27 79 28 9 29 10 30 11 31 12 32 13 33
REMARK SMILES IDX 14 34 15 35 16 36 68 37 17 38 67 39 18 40 19 41 20 42 61 43
REMARK SMILES IDX 21 44 66 45 60 46 62 47 22 48 65 49 59 50 58 51 23 53 49 54
REMARK SMILES IDX 32 55 48 56 33 57 36 58 47 59 63 60 34 61 35 62 46 64 64 65
REMARK SMILES IDX 37 66 24 67 25 68 30 69 26 70 27 71 29 72 31 73 28 74 50 75
REMARK SMILES IDX 51 76 56 77 52 78 53 79 55 80 57 81 54 82 38 83 39 84 44 85
REMARK SMILES IDX 40 86 41 87 43 88 45 89 42 90
REMARK H PARENT 62 52 36 63
REMARK Flexibility Score: inf
ROOT
ATOM      1  C   UNL     1       2.547   1.812  -1.564  1.00  0.00     0.188 C 
ENDROOT
BRANCH   1   2
ATOM      2  C   UNL     1       3.054   1.396  -0.192  1.00  0.00     0.188 C 
BRANCH   2   3
ATOM      3  O   UNL     1       4.474   1.396  -0.192  1.00  0.00    -0.376 OA
BRANCH   3   4
ATOM      4  C   UNL     1       4.947   0.481  -1.169  1.00  0.00     0.202 C 
BRANCH   4   5
ATOM      5  C   UNL     1       4.441  -0.915  -0.844  1.00  0.00     0.261 C 
BRANCH   5   6
ATOM      6  O   UNL     1       3.021  -0.915  -0.844  1.00  0.00    -0.460 OA
BRANCH   6   7
ATOM      7  C   UNL     1       2.311  -0.074   0.053  1.00  0.00     0.338 C 
ATOM      8  O   UNL     1       1.040  -0.074   0.053  1.00  0.00    -0.246 OA
BRANCH   7   9
ATOM      9  C   UNL     1       3.071   0.825   1.014  1.00  0.00     0.087 C 
ATOM     10  C   UNL     1       4.431   0.825   1.014  1.00  0.00     0.027 C 
ATOM     11  C   UNL     1       2.311   1.725   1.975  1.00  0.00     0.316 C 
ATOM     12  C   UNL     1       5.191  -0.074   0.053  1.00  0.00     0.019 A 
ATOM     13  O   UNL     1       3.753   0.498  -1.750  1.00  0.00    -0.475 OA
ATOM     14  C   UNL     1       6.179  -0.856   0.630  1.00  0.00     0.036 A 
ATOM     15  C   UNL     1       4.875  -0.200  -1.230  1.00  0.00     0.128 A 
ATOM     16  C   UNL     1       6.982  -1.548  -0.307  1.00  0.00     0.107 A 
ATOM     17  C   UNL     1       5.623  -1.000  -2.060  1.00  0.00     0.048 A 
ATOM     18  C   UNL     1       6.652  -1.756  -1.568  1.00  0.00     0.028 A 
BRANCH  11  19
ATOM     19  C   UNL     1       2.678   3.176   1.709  1.00  0.00     0.430 C 
ATOM     20  F   UNL     1       2.357   3.492   0.457  1.00  0.00    -0.167 F 
ATOM     21  F   UNL     1       2.013   3.963   2.549  1.00  0.00    -0.167 F 
ATOM     22  F   UNL     1       3.986   3.342   1.886  1.00  0.00    -0.167 F 
ENDBRANCH  11  19
BRANCH  16  23
ATOM     23  S   UNL     1       8.575  -2.193   0.263  1.00  0.00     0.310 S 
ATOM     24  F   UNL     1       8.102  -2.154   1.776  1.00  0.00    -0.094 F 
ATOM     25  F   UNL     1       9.089  -0.716   0.458  1.00  0.00    -0.094 F 
ATOM     26  F   UNL     1       9.932  -2.761   0.766  1.00  0.00    -0.094 F 
ATOM     27  F   UNL     1       7.994  -3.660   0.195  1.00  0.00    -0.094 F 
ATOM     28  F   UNL     1       7.155  -1.628  -0.141  1.00  0.00    -0.094 F 
ENDBRANCH  16  23
ENDBRANCH   7   9
ENDBRANCH   6   7
ENDBRANCH   5   6
ENDBRANCH   4   5
ENDBRANCH   3   4
ENDBRANCH   2   3
ENDBRANCH   1   2
BRANCH   1  29
ATOM     29  O   UNL     1       3.021   0.897  -2.541  1.00  0.00    -0.376 OA
BRANCH  29  30
ATOM     30  C   UNL     1       4.441   0.897  -2.541  1.00  0.00     0.202 C 
BRANCH  30  31
ATOM     31  C   UNL     1       4.947   2.292  -2.866  1.00  0.00     0.261 C 
BRANCH  31  32
ATOM     32  O   UNL     1       4.474   3.208  -1.889  1.00  0.00    -0.460 OA
BRANCH  32  33
ATOM     33  C   UNL     1       3.078   3.385  -1.700  1.00  0.00     0.338 C 
ATOM     34  O   UNL     1       2.252   2.725  -2.405  1.00  0.00    -0.246 OA
BRANCH  33  35
ATOM     35  C   UNL     1       2.571   4.364  -0.653  1.00  0.00     0.060 A 
ATOM     36  C   UNL     1       1.428   4.024   0.050  1.00  0.00     0.016 A 
ATOM     37  C   UNL     1       3.111   5.573  -0.548  1.00  0.00     0.016 A 
ATOM     38  C   UNL     1       0.757   5.130   0.623  1.00  0.00     0.010 A 
ATOM     39  C   UNL     1       2.465   6.570   0.143  1.00  0.00     0.010 A 
ATOM     40  C   UNL     1       1.300   6.319   0.813  1.00  0.00    -0.014 A 
BRANCH  40  41
ATOM     41  C   UNL     1       0.663   7.354   1.726  1.00  0.00     0.031 A 
ATOM     42  C   UNL     1       0.261   8.603   1.250  1.00  0.00     0.074 A 
ATOM     43  C   UNL     1       0.396   6.889   3.003  1.00  0.00     0.049 A 
ATOM     44  N   UNL     1      -0.454   9.527   1.893  1.00  0.00    -0.248 NA
ATOM     45  C   UNL     1       0.573   9.112  -0.094  1.00  0.00     0.031 C 
ATOM     46  C   UNL     1       0.790   5.627   3.488  1.00  0.00     0.029 A 
ATOM     47  N   UNL     1      -0.280   7.537   4.013  1.00  0.00    -0.354 N 
ATOM     48  C   UNL     1      -0.657  10.584   1.104  1.00  0.00     0.074 A 
ATOM     49  C   UNL     1       0.006  10.335  -0.183  1.00  0.00     0.031 C 
ATOM     50  C   UNL     1       0.369   5.520   4.776  1.00  0.00     0.029 A 
ATOM     51  C   UNL     1      -0.296   6.713   5.117  1.00  0.00     0.049 A 
ATOM     52  H   UNL     1      -0.682   8.434   3.957  1.00  0.00     0.167 HD
ATOM     53  C   UNL     1      -1.370  11.745   1.407  1.00  0.00     0.037 A 
ATOM     54  C   UNL     1      -0.853   6.970   6.360  1.00  0.00     0.037 A 
ATOM     55  C   UNL     1      -1.964  11.984   2.636  1.00  0.00     0.049 A 
ATOM     56  C   UNL     1      -1.517   8.156   6.682  1.00  0.00     0.074 A 
ATOM     57  C   UNL     1      -2.694  13.145   2.955  1.00  0.00     0.029 A 
ATOM     58  N   UNL     1      -1.960  11.170   3.747  1.00  0.00    -0.354 N 
ATOM     59  N   UNL     1      -1.754   9.196   5.880  1.00  0.00    -0.248 NA
ATOM     60  C   UNL     1      -2.082   8.452   8.005  1.00  0.00     0.031 C 
ATOM     61  C   UNL     1      -3.115  13.038   4.243  1.00  0.00     0.029 A 
ATOM     62  C   UNL     1      -2.655  11.808   4.750  1.00  0.00     0.049 A 
ATOM     63  H   UNL     1      -1.533  10.285   3.813  1.00  0.00     0.167 HD
ATOM     64  C   UNL     1      -2.433  10.138   6.538  1.00  0.00     0.074 A 
ATOM     65  C   UNL     1      -2.648   9.676   7.916  1.00  0.00     0.031 C 
ATOM     66  C   UNL     1      -2.885  11.362   6.043  1.00  0.00     0.037 A 
BRANCH  53  67
ATOM     67  C   UNL     1      -1.503  12.807   0.328  1.00  0.00     0.057 A 
ATOM     68  C   UNL     1      -2.184  12.438  -0.821  1.00  0.00     0.134 A 
ATOM     69  C   UNL     1      -1.046  14.043   0.489  1.00  0.00     0.134 A 
ATOM     70  F   UNL     1      -2.872  11.304  -0.922  1.00  0.00    -0.206 F 
ATOM     71  C   UNL     1      -2.080  13.375  -1.876  1.00  0.00     0.040 A 
ATOM     72  C   UNL     1      -1.100  14.950  -0.542  1.00  0.00     0.040 A 
ATOM     73  F   UNL     1      -0.531  14.408   1.661  1.00  0.00    -0.206 F 
ATOM     74  C   UNL     1      -1.705  14.632  -1.726  1.00  0.00     0.006 A 
ENDBRANCH  53  67
BRANCH  54  75
ATOM     75  C   UNL     1      -0.735   5.900   7.434  1.00  0.00     0.057 A 
ATOM     76  C   UNL     1      -1.853   5.370   8.056  1.00  0.00     0.134 A 
ATOM     77  C   UNL     1       0.491   5.538   7.794  1.00  0.00     0.134 A 
ATOM     78  F   UNL     1      -3.084   5.503   7.571  1.00  0.00    -0.206 F 
ATOM     79  C   UNL     1      -1.566   4.675   9.255  1.00  0.00     0.040 A 
ATOM     80  C   UNL     1       0.690   4.745   8.898  1.00  0.00     0.040 A 
ATOM     81  F   UNL     1       1.536   5.948   7.081  1.00  0.00    -0.206 F 
ATOM     82  C   UNL     1      -0.369   4.234   9.597  1.00  0.00     0.006 A 
ENDBRANCH  54  75
BRANCH  66  83
ATOM     83  C   UNL     1      -3.679  12.260   6.977  1.00  0.00     0.057 A 
ATOM     84  C   UNL     1      -3.094  12.571   8.193  1.00  0.00     0.134 A 
ATOM     85  C   UNL     1      -4.924  12.629   6.697  1.00  0.00     0.134 A 
ATOM     86  F   UNL     1      -1.789  12.451   8.422  1.00  0.00    -0.206 F 
ATOM     87  C   UNL     1      -4.010  13.029   9.170  1.00  0.00     0.040 A 
ATOM     88  C   UNL     1      -5.720  13.195   7.663  1.00  0.00     0.040 A 
ATOM     89  F   UNL     1      -5.404  12.448   5.470  1.00  0.00    -0.206 F 
ATOM     90  C   UNL     1      -5.224  13.476   8.906  1.00  0.00     0.006 A 
ENDBRANCH  66  83
ENDBRANCH  40  41
ENDBRANCH  33  35
ENDBRANCH  32  33
ENDBRANCH  31  32
ENDBRANCH  30  31
ENDBRANCH  29  30
ENDBRANCH   1  29
TORSDOF 19
