REMARK SMILES CC(C)CCOCC[N@@H+]1[C@@H](C(=O)OCCOCCOCCOC(=O)c2ccc(-c3c4nc(c(-c5c(F)cccc5F)c5ccc([nH]5)c(-c5c(F)cccc5F)c5nc(c(-c6c(F)cccc6F)c6ccc3[nH]6)C=C5)C=C4)cc2)CC[C@H]2CCCC[C@H]21
REMARK SMILES IDX 15 1 14 2 13 3 11 4 12 5 10 6 9 7 86 8 79 10 81 11 85 12
REMARK SMILES IDX 80 13 82 14 84 15 83 16 8 17 7 18 6 19 5 20 4 21 2 22 1 23
REMARK SMILES IDX 3 24 16 25 17 26 18 27 19 28 20 29 21 30 22 31 23 32 24 33
REMARK SMILES IDX 25 34 26 35 78 36 27 37 77 38 28 39 29 40 30 41 71 42 31 43
REMARK SMILES IDX 76 44 70 45 72 46 32 47 75 48 69 49 68 50 33 52 59 53 42 54
REMARK SMILES IDX 58 55 43 56 46 57 57 58 73 59 44 60 45 61 56 63 74 64 47 65
REMARK SMILES IDX 34 66 35 67 40 68 36 69 37 70 39 71 41 72 38 73 60 74 61 75
REMARK SMILES IDX 66 76 62 77 63 78 65 79 67 80 64 81 48 82 49 83 54 84 50 85
REMARK SMILES IDX 51 86 53 87 55 88 52 89
REMARK H PARENT 9 9 72 51 46 62
REMARK Flexibility Score: inf
ROOT
ATOM      1  C   UNL     1      -4.494   3.285   0.956  1.00  0.00     0.202 C 
ENDROOT
BRANCH   1   2
ATOM      2  C   UNL     1      -3.156   3.057   0.248  1.00  0.00     0.261 C 
BRANCH   2   3
ATOM      3  O   UNL     1      -2.238   2.101   0.841  1.00  0.00    -0.459 OA
BRANCH   3   4
ATOM      4  C   UNL     1      -1.073   2.615   1.321  1.00  0.00     0.364 C 
ATOM      5  O   UNL     1      -0.878   3.825   1.446  1.00  0.00    -0.245 OA
BRANCH   4   6
ATOM      6  C   UNL     1       0.019   1.585   1.744  1.00  0.00     0.295 C 
ATOM      7  N   UNL     1       1.006   1.173   0.662  1.00  0.00    -0.319 N 
ATOM      8  C   UNL     1       2.207   0.578   1.368  1.00  0.00     0.187 C 
ATOM      9  H   UNL     1       0.609   0.485   0.023  1.00  0.00     0.349 HD
ATOM     10  C   UNL     1      -0.468   0.344   2.502  1.00  0.00     0.078 C 
ATOM     11  C   UNL     1       1.864  -0.637   2.287  1.00  0.00     0.048 C 
ATOM     12  C   UNL     1       3.410   0.139   0.498  1.00  0.00     0.065 C 
ATOM     13  C   UNL     1       0.692  -0.341   3.220  1.00  0.00     0.016 C 
ATOM     14  C   UNL     1       1.620  -1.956   1.541  1.00  0.00     0.010 C 
ATOM     15  C   UNL     1       3.188  -1.129  -0.312  1.00  0.00     0.006 C 
ATOM     16  C   UNL     1       2.704  -2.304   0.527  1.00  0.00     0.001 C 
BRANCH   7  17
ATOM     17  C   UNL     1       1.374   2.364  -0.156  1.00  0.00     0.291 C 
BRANCH  17  18
ATOM     18  C   UNL     1       0.834   2.447  -1.611  1.00  0.00     0.221 C 
BRANCH  18  19
ATOM     19  O   UNL     1      -0.556   2.620  -1.827  1.00  0.00    -0.376 OA
BRANCH  19  20
ATOM     20  C   UNL     1      -1.411   1.508  -2.062  1.00  0.00     0.160 C 
BRANCH  20  21
ATOM     21  C   UNL     1      -1.060   0.431  -3.090  1.00  0.00     0.031 C 
BRANCH  21  22
ATOM     22  C   UNL     1      -0.057  -0.633  -2.628  1.00  0.00    -0.015 C 
ATOM     23  C   UNL     1      -0.399  -1.241  -1.276  1.00  0.00     0.007 C 
ATOM     24  C   UNL     1       0.076  -1.771  -3.639  1.00  0.00     0.007 C 
ENDBRANCH  21  22
ENDBRANCH  20  21
ENDBRANCH  19  20
ENDBRANCH  18  19
ENDBRANCH  17  18
ENDBRANCH   7  17
ENDBRANCH   4   6
ENDBRANCH   3   4
ENDBRANCH   2   3
ENDBRANCH   1   2
BRANCH   1  25
ATOM     25  O   UNL     1      -4.470   3.916   2.225  1.00  0.00    -0.376 OA
BRANCH  25  26
ATOM     26  C   UNL     1      -3.787   3.279   3.296  1.00  0.00     0.188 C 
BRANCH  26  27
ATOM     27  C   UNL     1      -3.731   1.746   3.331  1.00  0.00     0.188 C 
BRANCH  27  28
ATOM     28  O   UNL     1      -4.802   1.098   2.672  1.00  0.00    -0.376 OA
BRANCH  28  29
ATOM     29  C   UNL     1      -5.619   0.264   3.471  1.00  0.00     0.202 C 
BRANCH  29  30
ATOM     30  C   UNL     1      -6.530   1.064   4.406  1.00  0.00     0.261 C 
BRANCH  30  31
ATOM     31  O   UNL     1      -5.829   1.893   5.352  1.00  0.00    -0.460 OA
BRANCH  31  32
ATOM     32  C   UNL     1      -5.038   1.264   6.251  1.00  0.00     0.338 C 
ATOM     33  O   UNL     1      -4.942   0.061   6.425  1.00  0.00    -0.246 OA
BRANCH  32  34
ATOM     34  C   UNL     1      -4.109   2.267   6.826  1.00  0.00     0.060 A 
ATOM     35  C   UNL     1      -2.745   1.947   6.903  1.00  0.00     0.016 A 
ATOM     36  C   UNL     1      -4.564   3.515   7.258  1.00  0.00     0.016 A 
ATOM     37  C   UNL     1      -1.846   2.848   7.476  1.00  0.00     0.010 A 
ATOM     38  C   UNL     1      -3.667   4.411   7.847  1.00  0.00     0.010 A 
ATOM     39  C   UNL     1      -2.316   4.056   8.008  1.00  0.00    -0.014 A 
BRANCH  39  40
ATOM     40  C   UNL     1      -1.477   4.779   8.995  1.00  0.00     0.031 A 
ATOM     41  C   UNL     1      -1.674   4.437  10.449  1.00  0.00     0.074 A 
ATOM     42  C   UNL     1      -0.554   5.686   8.637  1.00  0.00     0.049 A 
ATOM     43  N   UNL     1      -1.074   4.913  11.509  1.00  0.00    -0.248 NA
ATOM     44  C   UNL     1      -2.697   3.419  10.742  1.00  0.00     0.031 C 
ATOM     45  C   UNL     1      -0.249   6.096   7.269  1.00  0.00     0.029 A 
ATOM     46  N   UNL     1       0.294   6.436   9.414  1.00  0.00    -0.354 N 
ATOM     47  C   UNL     1      -1.652   4.259  12.590  1.00  0.00     0.074 A 
ATOM     48  C   UNL     1      -2.672   3.381  12.064  1.00  0.00     0.031 C 
ATOM     49  C   UNL     1       0.711   7.038   7.304  1.00  0.00     0.029 A 
ATOM     50  C   UNL     1       1.074   7.307   8.696  1.00  0.00     0.049 A 
ATOM     51  H   UNL     1       0.339   6.355  10.395  1.00  0.00     0.167 HD
ATOM     52  C   UNL     1      -1.357   4.368  13.906  1.00  0.00     0.037 A 
ATOM     53  C   UNL     1       1.968   8.224   9.119  1.00  0.00     0.037 A 
ATOM     54  C   UNL     1      -0.349   5.243  14.438  1.00  0.00     0.049 A 
ATOM     55  C   UNL     1       2.257   8.360  10.592  1.00  0.00     0.074 A 
ATOM     56  C   UNL     1       0.045   5.407  15.753  1.00  0.00     0.029 A 
ATOM     57  N   UNL     1       0.415   6.115  13.677  1.00  0.00    -0.354 N 
ATOM     58  N   UNL     1       1.743   7.702  11.604  1.00  0.00    -0.248 NA
ATOM     59  C   UNL     1       3.264   9.360  10.981  1.00  0.00     0.031 C 
ATOM     60  C   UNL     1       1.015   6.415  15.794  1.00  0.00     0.029 A 
ATOM     61  C   UNL     1       1.263   6.838  14.498  1.00  0.00     0.049 A 
ATOM     62  H   UNL     1       0.362   6.206  12.698  1.00  0.00     0.167 HD
ATOM     63  C   UNL     1       2.381   8.185  12.741  1.00  0.00     0.074 A 
ATOM     64  C   UNL     1       3.328   9.185  12.294  1.00  0.00     0.031 C 
ATOM     65  C   UNL     1       2.204   7.828  14.038  1.00  0.00     0.037 A 
BRANCH  52  66
ATOM     66  C   UNL     1      -2.173   3.539  14.854  1.00  0.00     0.057 A 
ATOM     67  C   UNL     1      -2.049   2.144  14.919  1.00  0.00     0.134 A 
ATOM     68  C   UNL     1      -3.116   4.144  15.693  1.00  0.00     0.134 A 
ATOM     69  F   UNL     1      -1.180   1.501  14.123  1.00  0.00    -0.206 F 
ATOM     70  C   UNL     1      -2.860   1.378  15.757  1.00  0.00     0.040 A 
ATOM     71  C   UNL     1      -3.913   3.391  16.557  1.00  0.00     0.040 A 
ATOM     72  F   UNL     1      -3.287   5.474  15.679  1.00  0.00    -0.206 F 
ATOM     73  C   UNL     1      -3.793   2.003  16.583  1.00  0.00     0.006 A 
ENDBRANCH  52  66
BRANCH  53  74
ATOM     74  C   UNL     1       2.659   9.090   8.131  1.00  0.00     0.057 A 
ATOM     75  C   UNL     1       4.020   8.932   7.848  1.00  0.00     0.134 A 
ATOM     76  C   UNL     1       1.972  10.105   7.453  1.00  0.00     0.134 A 
ATOM     77  F   UNL     1       4.737   7.996   8.486  1.00  0.00    -0.206 F 
ATOM     78  C   UNL     1       4.677   9.758   6.933  1.00  0.00     0.040 A 
ATOM     79  C   UNL     1       2.611  10.923   6.520  1.00  0.00     0.040 A 
ATOM     80  F   UNL     1       0.667  10.311   7.685  1.00  0.00    -0.206 F 
ATOM     81  C   UNL     1       3.969  10.752   6.261  1.00  0.00     0.006 A 
ENDBRANCH  53  74
BRANCH  65  82
ATOM     82  C   UNL     1       3.077   8.491  15.066  1.00  0.00     0.057 A 
ATOM     83  C   UNL     1       2.906   9.831  15.434  1.00  0.00     0.134 A 
ATOM     84  C   UNL     1       4.074   7.762  15.727  1.00  0.00     0.134 A 
ATOM     85  F   UNL     1       1.974  10.588  14.835  1.00  0.00    -0.206 F 
ATOM     86  C   UNL     1       3.712  10.429  16.405  1.00  0.00     0.040 A 
ATOM     87  C   UNL     1       4.868   8.341  16.718  1.00  0.00     0.040 A 
ATOM     88  F   UNL     1       4.283   6.470  15.431  1.00  0.00    -0.206 F 
ATOM     89  C   UNL     1       4.693   9.681  17.054  1.00  0.00     0.006 A 
ENDBRANCH  65  82
ENDBRANCH  39  40
ENDBRANCH  32  34
ENDBRANCH  31  32
ENDBRANCH  30  31
ENDBRANCH  29  30
ENDBRANCH  28  29
ENDBRANCH  27  28
ENDBRANCH  26  27
ENDBRANCH  25  26
ENDBRANCH   1  25
TORSDOF 23
