REMARK SMILES CCC(C)(C)[C@@H]([NH3+])C(C)(C)C(=O)OCCOCCOCCOC(=O)c1ccc(-c2c3nc(c(-c4c(F)cccc4F)c4ccc([nH]4)c(-c4c(F)cccc4F)c4nc(c(-c5c(F)cccc5F)c5ccc2[nH]5)C=C4)C=C3)cc1
REMARK SMILES IDX 17 1 16 2 15 3 14 4 13 5 11 6 12 7 8 8 9 9 10 10 6 11 3 12
REMARK SMILES IDX 4 13 5 14 2 15 1 16 7 17 18 21 19 22 20 23 21 24 22 25 23 26
REMARK SMILES IDX 24 27 25 28 26 29 78 30 27 31 77 32 28 33 29 34 30 35 71 36
REMARK SMILES IDX 31 37 76 38 70 39 72 40 32 41 75 42 69 43 68 44 33 46 59 47
REMARK SMILES IDX 42 48 58 49 43 50 46 51 57 52 73 53 44 54 45 55 56 57 74 58
REMARK SMILES IDX 47 59 34 60 35 61 40 62 36 63 37 64 39 65 41 66 38 67 60 68
REMARK SMILES IDX 61 69 66 70 62 71 63 72 65 73 67 74 64 75 48 76 49 77 54 78
REMARK SMILES IDX 50 79 51 80 53 81 55 82 52 83
REMARK H PARENT 7 18 7 19 7 20 72 45 46 56
REMARK Flexibility Score: inf
ROOT
ATOM      1  C   UNL     1       3.200  -0.149  -2.699  1.00  0.00     0.188 C 
ENDROOT
BRANCH   1   2
ATOM      2  O   UNL     1       2.951   1.204  -3.037  1.00  0.00    -0.376 OA
BRANCH   2   3
ATOM      3  C   UNL     1       2.071   1.930  -2.201  1.00  0.00     0.202 C 
BRANCH   3   4
ATOM      4  C   UNL     1       2.532   2.353  -0.780  1.00  0.00     0.261 C 
BRANCH   4   5
ATOM      5  O   UNL     1       3.112   1.402   0.144  1.00  0.00    -0.463 OA
BRANCH   5   6
ATOM      6  C   UNL     1       2.353   0.303   0.370  1.00  0.00     0.317 C 
ATOM      7  O   UNL     1       1.367   0.104  -0.307  1.00  0.00    -0.251 OA
BRANCH   6   8
ATOM      8  C   UNL     1       2.784  -0.580   1.550  1.00  0.00     0.114 C 
ATOM      9  C   UNL     1       2.354   0.159   2.827  1.00  0.00     0.030 C 
ATOM     10  C   UNL     1       4.339  -0.689   1.681  1.00  0.00     0.030 C 
BRANCH   8  11
ATOM     11  C   UNL     1       2.150  -2.049   1.423  1.00  0.00     0.203 C 
BRANCH  11  12
ATOM     12  C   UNL     1       0.550  -2.349   1.475  1.00  0.00     0.017 C 
ATOM     13  C   UNL     1      -0.024  -1.998   2.862  1.00  0.00     0.017 C 
ATOM     14  C   UNL     1       0.341  -3.896   1.336  1.00  0.00     0.017 C 
BRANCH  12  15
ATOM     15  C   UNL     1      -0.362  -1.753   0.351  1.00  0.00     0.009 C 
ATOM     16  C   UNL     1      -1.007  -0.384   0.607  1.00  0.00     0.005 C 
ENDBRANCH  12  15
ENDBRANCH  11  12
BRANCH  11  17
ATOM     17  N   UNL     1       2.803  -2.756   0.285  1.00  0.00    -0.354 N 
ATOM     18  H   UNL     1       2.528  -2.314  -0.592  1.00  0.00     0.344 HD
ATOM     19  H   UNL     1       2.512  -3.733   0.280  1.00  0.00     0.344 HD
ATOM     20  H   UNL     1       3.816  -2.703   0.389  1.00  0.00     0.344 HD
ENDBRANCH  11  17
ENDBRANCH   8  11
ENDBRANCH   6   8
ENDBRANCH   5   6
ENDBRANCH   4   5
ENDBRANCH   3   4
ENDBRANCH   2   3
ENDBRANCH   1   2
BRANCH   1  21
ATOM     21  C   UNL     1       4.507  -0.319  -1.918  1.00  0.00     0.188 C 
BRANCH  21  22
ATOM     22  O   UNL     1       5.527   0.666  -2.000  1.00  0.00    -0.376 OA
BRANCH  22  23
ATOM     23  C   UNL     1       5.751   1.284  -3.255  1.00  0.00     0.202 C 
BRANCH  23  24
ATOM     24  C   UNL     1       6.099   0.395  -4.463  1.00  0.00     0.261 C 
BRANCH  24  25
ATOM     25  O   UNL     1       5.369  -0.844  -4.585  1.00  0.00    -0.460 OA
BRANCH  25  26
ATOM     26  C   UNL     1       6.025  -1.968  -4.207  1.00  0.00     0.338 C 
ATOM     27  O   UNL     1       7.194  -2.051  -3.847  1.00  0.00    -0.246 OA
BRANCH  26  28
ATOM     28  C   UNL     1       5.085  -3.112  -4.100  1.00  0.00     0.060 A 
ATOM     29  C   UNL     1       4.903  -3.721  -2.846  1.00  0.00     0.016 A 
ATOM     30  C   UNL     1       4.455  -3.646  -5.224  1.00  0.00     0.016 A 
ATOM     31  C   UNL     1       4.108  -4.860  -2.710  1.00  0.00     0.010 A 
ATOM     32  C   UNL     1       3.692  -4.818  -5.094  1.00  0.00     0.010 A 
ATOM     33  C   UNL     1       3.539  -5.448  -3.843  1.00  0.00    -0.014 A 
BRANCH  33  34
ATOM     34  C   UNL     1       2.994  -6.830  -3.756  1.00  0.00     0.031 A 
ATOM     35  C   UNL     1       3.885  -7.971  -4.172  1.00  0.00     0.074 A 
ATOM     36  C   UNL     1       1.760  -7.088  -3.289  1.00  0.00     0.049 A 
ATOM     37  N   UNL     1       3.608  -9.244  -4.300  1.00  0.00    -0.248 NA
ATOM     38  C   UNL     1       5.280  -7.625  -4.485  1.00  0.00     0.031 C 
ATOM     39  C   UNL     1       0.823  -6.097  -2.767  1.00  0.00     0.029 A 
ATOM     40  N   UNL     1       1.079  -8.280  -3.196  1.00  0.00    -0.354 N 
ATOM     41  C   UNL     1       4.786  -9.845  -4.727  1.00  0.00     0.074 A 
ATOM     42  C   UNL     1       5.774  -8.796  -4.854  1.00  0.00     0.031 C 
ATOM     43  C   UNL     1      -0.324  -6.718  -2.433  1.00  0.00     0.029 A 
ATOM     44  C   UNL     1      -0.216  -8.140  -2.759  1.00  0.00     0.049 A 
ATOM     45  H   UNL     1       1.481  -9.149  -3.421  1.00  0.00     0.167 HD
ATOM     46  C   UNL     1       5.026 -11.152  -4.991  1.00  0.00     0.037 A 
ATOM     47  C   UNL     1      -1.210  -9.049  -2.672  1.00  0.00     0.037 A 
ATOM     48  C   UNL     1       4.045 -12.198  -4.868  1.00  0.00     0.049 A 
ATOM     49  C   UNL     1      -0.952 -10.480  -3.078  1.00  0.00     0.074 A 
ATOM     50  C   UNL     1       4.194 -13.552  -5.117  1.00  0.00     0.029 A 
ATOM     51  N   UNL     1       2.732 -12.007  -4.468  1.00  0.00    -0.354 N 
ATOM     52  N   UNL     1       0.159 -11.040  -3.492  1.00  0.00    -0.248 NA
ATOM     53  C   UNL     1      -2.094 -11.406  -3.009  1.00  0.00     0.031 C 
ATOM     54  C   UNL     1       2.956 -14.171  -4.923  1.00  0.00     0.029 A 
ATOM     55  C   UNL     1       2.052 -13.214  -4.490  1.00  0.00     0.049 A 
ATOM     56  H   UNL     1       2.341 -11.142  -4.207  1.00  0.00     0.167 HD
ATOM     57  C   UNL     1      -0.141 -12.384  -3.696  1.00  0.00     0.074 A 
ATOM     58  C   UNL     1      -1.535 -12.558  -3.350  1.00  0.00     0.031 C 
ATOM     59  C   UNL     1       0.667 -13.384  -4.129  1.00  0.00     0.037 A 
BRANCH  46  60
ATOM     60  C   UNL     1       6.396 -11.515  -5.485  1.00  0.00     0.057 A 
ATOM     61  C   UNL     1       7.522 -11.479  -4.654  1.00  0.00     0.134 A 
ATOM     62  C   UNL     1       6.584 -11.932  -6.810  1.00  0.00     0.134 A 
ATOM     63  F   UNL     1       7.414 -11.074  -3.379  1.00  0.00    -0.206 F 
ATOM     64  C   UNL     1       8.791 -11.817  -5.128  1.00  0.00     0.040 A 
ATOM     65  C   UNL     1       7.842 -12.302  -7.287  1.00  0.00     0.040 A 
ATOM     66  F   UNL     1       5.547 -11.995  -7.659  1.00  0.00    -0.206 F 
ATOM     67  C   UNL     1       8.951 -12.238  -6.447  1.00  0.00     0.006 A 
ENDBRANCH  46  60
BRANCH  47  68
ATOM     68  C   UNL     1      -2.565  -8.639  -2.218  1.00  0.00     0.057 A 
ATOM     69  C   UNL     1      -3.109  -9.122  -1.021  1.00  0.00     0.134 A 
ATOM     70  C   UNL     1      -3.372  -7.800  -2.996  1.00  0.00     0.134 A 
ATOM     71  F   UNL     1      -2.400  -9.956  -0.246  1.00  0.00    -0.206 F 
ATOM     72  C   UNL     1      -4.410  -8.805  -0.626  1.00  0.00     0.040 A 
ATOM     73  C   UNL     1      -4.664  -7.449  -2.599  1.00  0.00     0.040 A 
ATOM     74  F   UNL     1      -2.917  -7.309  -4.159  1.00  0.00    -0.206 F 
ATOM     75  C   UNL     1      -5.190  -7.961  -1.415  1.00  0.00     0.006 A 
ENDBRANCH  47  68
BRANCH  59  76
ATOM     76  C   UNL     1       0.088 -14.769  -4.203  1.00  0.00     0.057 A 
ATOM     77  C   UNL     1      -0.860 -15.132  -5.168  1.00  0.00     0.134 A 
ATOM     78  C   UNL     1       0.525 -15.770  -3.323  1.00  0.00     0.134 A 
ATOM     79  F   UNL     1      -1.330 -14.223  -6.035  1.00  0.00    -0.206 F 
ATOM     80  C   UNL     1      -1.371 -16.430  -5.239  1.00  0.00     0.040 A 
ATOM     81  C   UNL     1       0.045 -17.078  -3.404  1.00  0.00     0.040 A 
ATOM     82  F   UNL     1       1.440 -15.497  -2.381  1.00  0.00    -0.206 F 
ATOM     83  C   UNL     1      -0.912 -17.410  -4.360  1.00  0.00     0.006 A 
ENDBRANCH  59  76
ENDBRANCH  33  34
ENDBRANCH  26  28
ENDBRANCH  25  26
ENDBRANCH  24  25
ENDBRANCH  23  24
ENDBRANCH  22  23
ENDBRANCH  21  22
ENDBRANCH   1  21
TORSDOF 21
