REMARK SMILES CSCC[C@H](C(=O)OCCOCCOCCOC(=O)c1ccc(-c2c3nc(c(-c4c(F)cccc4F)c4ccc([nH]4)c(-c4c(F)cccc4F)c4nc(c(-c5c(F)cccc5F)c5ccc2[nH]5)C=C4)C=C3)cc1)N1C(=O)/C(=C/c2cn(C)c3ccccc23)SC1=S
REMARK SMILES IDX 12 1 11 2 10 3 9 4 8 5 6 6 7 7 5 8 4 9 3 10 2 11 1 12 74 13
REMARK SMILES IDX 75 14 90 15 76 16 77 17 89 18 91 19 78 20 79 21 80 22 88 23
REMARK SMILES IDX 81 24 83 25 87 26 82 27 84 28 86 29 85 30 13 31 14 32 15 33
REMARK SMILES IDX 16 34 17 35 18 36 19 37 20 38 21 39 73 40 22 41 72 42 23 43
REMARK SMILES IDX 24 44 25 45 66 46 26 47 71 48 65 49 67 50 27 51 70 52 64 53
REMARK SMILES IDX 63 54 28 56 54 57 37 58 53 59 38 60 41 61 52 62 68 63 39 64
REMARK SMILES IDX 40 65 51 67 69 68 42 69 29 70 30 71 35 72 31 73 32 74 34 75
REMARK SMILES IDX 36 76 33 77 55 78 56 79 61 80 57 81 58 82 60 83 62 84 59 85
REMARK SMILES IDX 43 86 44 87 49 88 45 89 46 90 48 91 50 92 47 93
REMARK H PARENT 67 55 41 66
REMARK Flexibility Score: inf
ROOT
ATOM      1  C   UNL     1      -1.848  -3.673  -0.752  1.00  0.00     0.188 C 
ENDROOT
BRANCH   1   2
ATOM      2  O   UNL     1      -1.629  -5.015  -0.329  1.00  0.00    -0.376 OA
BRANCH   2   3
ATOM      3  C   UNL     1      -0.369  -5.397   0.209  1.00  0.00     0.202 C 
BRANCH   3   4
ATOM      4  C   UNL     1       0.853  -5.300  -0.701  1.00  0.00     0.261 C 
BRANCH   4   5
ATOM      5  O   UNL     1       1.143  -3.963  -1.141  1.00  0.00    -0.462 OA
BRANCH   5   6
ATOM      6  C   UNL     1       0.913  -3.656  -2.461  1.00  0.00     0.329 C 
ATOM      7  O   UNL     1       0.233  -4.339  -3.210  1.00  0.00    -0.250 OA
BRANCH   6   8
ATOM      8  C   UNL     1       1.535  -2.246  -2.767  1.00  0.00     0.202 C 
BRANCH   8   9
ATOM      9  C   UNL     1       3.018  -2.289  -2.189  1.00  0.00     0.048 C 
BRANCH   9  10
ATOM     10  C   UNL     1       3.301  -1.227  -1.105  1.00  0.00     0.072 C 
BRANCH  10  11
ATOM     11  S   UNL     1       3.767  -1.938   0.510  1.00  0.00    -0.165 SA
ATOM     12  C   UNL     1       2.182  -1.759   1.370  1.00  0.00     0.085 C 
ENDBRANCH  10  11
ENDBRANCH   9  10
ENDBRANCH   8   9
BRANCH   8  13
ATOM     13  N   UNL     1       1.381  -1.630  -4.416  1.00  0.00    -0.278 N 
ATOM     14  C   UNL     1       1.649  -2.763  -5.039  1.00  0.00     0.266 C 
ATOM     15  C   UNL     1       1.538   0.203  -5.216  1.00  0.00     0.149 C 
ATOM     16  O   UNL     1       2.146  -3.840  -4.936  1.00  0.00    -0.268 OA
ATOM     17  C   UNL     1       0.858  -1.977  -5.840  1.00  0.00     0.081 C 
ATOM     18  S   UNL     1       1.293   0.327  -6.685  1.00  0.00    -0.054 SA
ATOM     19  S   UNL     1       2.030   2.047  -4.726  1.00  0.00    -0.052 S 
ATOM     20  C   UNL     1       0.227  -2.976  -6.646  1.00  0.00     0.031 C 
BRANCH  20  21
ATOM     21  C   UNL     1      -0.044  -2.425  -7.900  1.00  0.00     0.001 A 
ATOM     22  C   UNL     1      -1.212  -1.721  -8.227  1.00  0.00     0.094 A 
ATOM     23  C   UNL     1       0.867  -1.409  -7.544  1.00  0.00     0.007 A 
ATOM     24  N   UNL     1      -1.524  -0.726  -7.277  1.00  0.00    -0.350 N 
ATOM     25  C   UNL     1      -0.521  -0.744  -6.302  1.00  0.00     0.048 A 
ATOM     26  C   UNL     1       2.619  -1.373  -6.567  1.00  0.00     0.011 A 
ATOM     27  C   UNL     1      -2.275   0.470  -7.622  1.00  0.00     0.149 C 
ATOM     28  C   UNL     1      -0.151  -0.237  -4.460  1.00  0.00     0.027 A 
ATOM     29  C   UNL     1       3.029  -0.743  -4.748  1.00  0.00     0.001 A 
ATOM     30  C   UNL     1       1.587  -0.112  -3.516  1.00  0.00     0.002 A 
ENDBRANCH  20  21
ENDBRANCH   8  13
ENDBRANCH   6   8
ENDBRANCH   5   6
ENDBRANCH   4   5
ENDBRANCH   3   4
ENDBRANCH   2   3
ENDBRANCH   1   2
BRANCH   1  31
ATOM     31  C   UNL     1      -1.357  -2.518   0.135  1.00  0.00     0.188 C 
BRANCH  31  32
ATOM     32  O   UNL     1      -0.955  -2.929   1.425  1.00  0.00    -0.376 OA
BRANCH  32  33
ATOM     33  C   UNL     1      -1.754  -2.586   2.543  1.00  0.00     0.202 C 
BRANCH  33  34
ATOM     34  C   UNL     1      -3.233  -2.996   2.561  1.00  0.00     0.261 C 
BRANCH  34  35
ATOM     35  O   UNL     1      -3.990  -2.670   1.390  1.00  0.00    -0.460 OA
BRANCH  35  36
ATOM     36  C   UNL     1      -4.258  -1.365   1.161  1.00  0.00     0.338 C 
ATOM     37  O   UNL     1      -3.929  -0.410   1.837  1.00  0.00    -0.246 OA
BRANCH  36  38
ATOM     38  C   UNL     1      -4.824  -1.295  -0.204  1.00  0.00     0.060 A 
ATOM     39  C   UNL     1      -4.218  -0.454  -1.147  1.00  0.00     0.016 A 
ATOM     40  C   UNL     1      -5.901  -2.110  -0.564  1.00  0.00     0.016 A 
ATOM     41  C   UNL     1      -4.701  -0.416  -2.455  1.00  0.00     0.010 A 
ATOM     42  C   UNL     1      -6.396  -2.056  -1.865  1.00  0.00     0.010 A 
ATOM     43  C   UNL     1      -5.815  -1.190  -2.807  1.00  0.00    -0.014 A 
BRANCH  43  44
ATOM     44  C   UNL     1      -6.535  -0.922  -4.071  1.00  0.00     0.031 A 
ATOM     45  C   UNL     1      -7.684   0.046  -4.022  1.00  0.00     0.074 A 
ATOM     46  C   UNL     1      -6.199  -1.526  -5.223  1.00  0.00     0.049 A 
ATOM     47  N   UNL     1      -8.542   0.369  -4.953  1.00  0.00    -0.248 NA
ATOM     48  C   UNL     1      -7.890   0.743  -2.740  1.00  0.00     0.031 C 
ATOM     49  C   UNL     1      -5.079  -2.445  -5.409  1.00  0.00     0.029 A 
ATOM     50  N   UNL     1      -6.795  -1.463  -6.458  1.00  0.00    -0.354 N 
ATOM     51  C   UNL     1      -9.390   1.301  -4.369  1.00  0.00     0.074 A 
ATOM     52  C   UNL     1      -8.962   1.474  -2.999  1.00  0.00     0.031 C 
ATOM     53  C   UNL     1      -5.082  -2.881  -6.682  1.00  0.00     0.029 A 
ATOM     54  C   UNL     1      -6.226  -2.300  -7.385  1.00  0.00     0.049 A 
ATOM     55  H   UNL     1      -7.558  -0.874  -6.659  1.00  0.00     0.167 HD
ATOM     56  C   UNL     1     -10.431   1.960  -4.926  1.00  0.00     0.037 A 
ATOM     57  C   UNL     1      -6.613  -2.585  -8.643  1.00  0.00     0.037 A 
ATOM     58  C   UNL     1     -10.870   1.773  -6.281  1.00  0.00     0.049 A 
ATOM     59  C   UNL     1      -7.839  -1.917  -9.212  1.00  0.00     0.074 A 
ATOM     60  C   UNL     1     -11.918   2.388  -6.941  1.00  0.00     0.029 A 
ATOM     61  N   UNL     1     -10.287   0.893  -7.179  1.00  0.00    -0.354 N 
ATOM     62  N   UNL     1      -8.629  -1.026  -8.661  1.00  0.00    -0.248 NA
ATOM     63  C   UNL     1      -8.228  -2.297 -10.579  1.00  0.00     0.031 C 
ATOM     64  C   UNL     1     -11.993   1.850  -8.230  1.00  0.00     0.029 A 
ATOM     65  C   UNL     1     -10.964   0.935  -8.385  1.00  0.00     0.049 A 
ATOM     66  H   UNL     1      -9.508   0.323  -6.987  1.00  0.00     0.167 HD
ATOM     67  C   UNL     1      -9.586  -0.717  -9.621  1.00  0.00     0.074 A 
ATOM     68  C   UNL     1      -9.274  -1.510 -10.792  1.00  0.00     0.031 C 
ATOM     69  C   UNL     1     -10.626   0.149  -9.544  1.00  0.00     0.037 A 
BRANCH  56  70
ATOM     70  C   UNL     1     -11.176   2.922  -4.051  1.00  0.00     0.057 A 
ATOM     71  C   UNL     1     -10.621   4.149  -3.666  1.00  0.00     0.134 A 
ATOM     72  C   UNL     1     -12.462   2.617  -3.588  1.00  0.00     0.134 A 
ATOM     73  F   UNL     1      -9.382   4.487  -4.056  1.00  0.00    -0.206 F 
ATOM     74  C   UNL     1     -11.311   5.031  -2.834  1.00  0.00     0.040 A 
ATOM     75  C   UNL     1     -13.171   3.502  -2.776  1.00  0.00     0.040 A 
ATOM     76  F   UNL     1     -13.047   1.456  -3.916  1.00  0.00    -0.206 F 
ATOM     77  C   UNL     1     -12.593   4.711  -2.391  1.00  0.00     0.006 A 
ENDBRANCH  56  70
BRANCH  57  78
ATOM     78  C   UNL     1      -5.850  -3.566  -9.456  1.00  0.00     0.057 A 
ATOM     79  C   UNL     1      -5.099  -3.157 -10.563  1.00  0.00     0.134 A 
ATOM     80  C   UNL     1      -5.886  -4.936  -9.169  1.00  0.00     0.134 A 
ATOM     81  F   UNL     1      -5.046  -1.860 -10.900  1.00  0.00    -0.206 F 
ATOM     82  C   UNL     1      -4.426  -4.077 -11.369  1.00  0.00     0.040 A 
ATOM     83  C   UNL     1      -5.199  -5.864  -9.952  1.00  0.00     0.040 A 
ATOM     84  F   UNL     1      -6.594  -5.391  -8.124  1.00  0.00    -0.206 F 
ATOM     85  C   UNL     1      -4.472  -5.436 -11.061  1.00  0.00     0.006 A 
ENDBRANCH  57  78
BRANCH  69  86
ATOM     86  C   UNL     1     -11.474   0.326 -10.770  1.00  0.00     0.057 A 
ATOM     87  C   UNL     1     -12.390  -0.648 -11.185  1.00  0.00     0.134 A 
ATOM     88  C   UNL     1     -11.413   1.515 -11.509  1.00  0.00     0.134 A 
ATOM     89  F   UNL     1     -12.490  -1.812 -10.526  1.00  0.00    -0.206 F 
ATOM     90  C   UNL     1     -13.203  -0.453 -12.303  1.00  0.00     0.040 A 
ATOM     91  C   UNL     1     -12.238   1.732 -12.612  1.00  0.00     0.040 A 
ATOM     92  F   UNL     1     -10.564   2.492 -11.157  1.00  0.00    -0.206 F 
ATOM     93  C   UNL     1     -13.134   0.744 -13.015  1.00  0.00     0.006 A 
ENDBRANCH  69  86
ENDBRANCH  43  44
ENDBRANCH  36  38
ENDBRANCH  35  36
ENDBRANCH  34  35
ENDBRANCH  33  34
ENDBRANCH  32  33
ENDBRANCH  31  32
ENDBRANCH   1  31
TORSDOF 22
