REMARK SMILES CCc1cccc(C)c1Nc1ccccc1CC(=O)OCCOCCOCCOC(=O)c1ccc(-c2c3nc(c(-c4c(F)cccc4F)c4ccc([nH]4)c(-c4c(F)cccc4F)c4nc(c(-c5c(F)cccc5F)c5ccc2[nH]5)C=C4)C=C3)cc1
REMARK SMILES IDX 24 1 23 2 22 3 21 4 20 5 18 6 19 7 17 8 16 9 11 10 12 11
REMARK SMILES IDX 13 12 15 13 14 14 10 15 9 17 3 18 4 19 5 20 7 21 6 22 8 23
REMARK SMILES IDX 2 24 1 25 25 26 26 27 27 28 28 29 29 30 30 31 31 32 32 33
REMARK SMILES IDX 33 34 85 35 34 36 84 37 35 38 36 39 37 40 78 41 38 42 83 43
REMARK SMILES IDX 77 44 79 45 39 46 82 47 76 48 75 49 40 51 66 52 49 53 65 54
REMARK SMILES IDX 50 55 53 56 64 57 80 58 51 59 52 60 63 62 81 63 54 64 41 65
REMARK SMILES IDX 42 66 47 67 43 68 44 69 46 70 48 71 45 72 67 73 68 74 73 75
REMARK SMILES IDX 69 76 70 77 72 78 74 79 71 80 55 81 56 82 61 83 57 84 58 85
REMARK SMILES IDX 60 86 62 87 59 88
REMARK H PARENT 10 16 79 50 53 61
REMARK Flexibility Score: inf
ROOT
ATOM      1  C   UNL     1       2.445   5.765  -1.716  1.00  0.00     0.188 C 
ENDROOT
BRANCH   1   2
ATOM      2  O   UNL     1       1.588   6.597  -2.504  1.00  0.00    -0.376 OA
BRANCH   2   3
ATOM      3  C   UNL     1       0.282   6.740  -1.849  1.00  0.00     0.202 C 
BRANCH   3   4
ATOM      4  C   UNL     1       0.306   7.137  -0.299  1.00  0.00     0.261 C 
BRANCH   4   5
ATOM      5  O   UNL     1       0.311   6.117   1.163  1.00  0.00    -0.463 OA
BRANCH   5   6
ATOM      6  C   UNL     1      -0.442   5.581   2.411  1.00  0.00     0.310 C 
ATOM      7  O   UNL     1      -1.552   5.838   2.904  1.00  0.00    -0.252 OA
BRANCH   6   8
ATOM      8  C   UNL     1       0.137   4.454   3.109  1.00  0.00     0.160 C 
BRANCH   8   9
ATOM      9  C   UNL     1       1.468   4.206   2.534  1.00  0.00    -0.013 A 
ATOM     10  C   UNL     1       1.675   2.952   1.790  1.00  0.00     0.042 A 
ATOM     11  C   UNL     1       2.701   2.321   2.770  1.00  0.00     0.026 A 
ATOM     12  C   UNL     1       3.573   3.033   3.686  1.00  0.00     0.002 A 
ATOM     13  C   UNL     1       2.388   4.988   3.337  1.00  0.00     0.006 A 
ATOM     14  C   UNL     1       3.489   4.397   3.869  1.00  0.00     0.000 A 
BRANCH  10  15
ATOM     15  N   UNL     1       1.477   2.534  -0.208  1.00  0.00    -0.355 N 
ATOM     16  H   UNL     1       1.662   1.571  -0.126  1.00  0.00     0.167 HD
BRANCH  15  17
ATOM     17  C   UNL     1       1.239   2.520  -1.962  1.00  0.00     0.045 A 
ATOM     18  C   UNL     1       0.918   1.108  -2.409  1.00  0.00    -0.024 A 
ATOM     19  C   UNL     1       0.411   0.845  -3.754  1.00  0.00     0.006 A 
ATOM     20  C   UNL     1       0.245   1.743  -4.761  1.00  0.00     0.001 A 
ATOM     21  C   UNL     1       1.171   3.500  -3.223  1.00  0.00    -0.027 A 
ATOM     22  C   UNL     1       0.605   3.017  -4.491  1.00  0.00     0.005 A 
ATOM     23  C   UNL     1       2.029   4.653  -4.127  1.00  0.00     0.046 C 
BRANCH  18  24
ATOM     24  C   UNL     1       1.361  -0.312  -1.956  1.00  0.00     0.034 C 
ATOM     25  C   UNL     1       1.363  -1.125  -0.689  1.00  0.00     0.009 C 
ENDBRANCH  18  24
ENDBRANCH  15  17
ENDBRANCH  10  15
ENDBRANCH   8   9
ENDBRANCH   6   8
ENDBRANCH   5   6
ENDBRANCH   4   5
ENDBRANCH   3   4
ENDBRANCH   2   3
ENDBRANCH   1   2
BRANCH   1  26
ATOM     26  C   UNL     1       3.548   4.655  -2.058  1.00  0.00     0.188 C 
BRANCH  26  27
ATOM     27  O   UNL     1       4.889   4.757  -1.636  1.00  0.00    -0.376 OA
BRANCH  27  28
ATOM     28  C   UNL     1       5.614   3.621  -2.200  1.00  0.00     0.202 C 
BRANCH  28  29
ATOM     29  C   UNL     1       5.162   2.158  -1.809  1.00  0.00     0.261 C 
BRANCH  29  30
ATOM     30  O   UNL     1       5.176   1.896  -0.378  1.00  0.00    -0.460 OA
BRANCH  30  31
ATOM     31  C   UNL     1       4.283   0.969   0.114  1.00  0.00     0.338 C 
ATOM     32  O   UNL     1       4.456  -0.234   0.087  1.00  0.00    -0.246 OA
BRANCH  31  33
ATOM     33  C   UNL     1       3.059   1.645   0.625  1.00  0.00     0.060 A 
ATOM     34  C   UNL     1       1.402   0.960   1.136  1.00  0.00     0.016 A 
ATOM     35  C   UNL     1       3.196   3.422   0.396  1.00  0.00     0.016 A 
ATOM     36  C   UNL     1      -0.114   2.034   0.991  1.00  0.00     0.010 A 
ATOM     37  C   UNL     1       1.683   4.438   0.287  1.00  0.00     0.010 A 
ATOM     38  C   UNL     1      -0.038   3.793   0.476  1.00  0.00    -0.014 A 
BRANCH  38  39
ATOM     39  C   UNL     1      -1.452   4.859   0.161  1.00  0.00     0.031 A 
ATOM     40  C   UNL     1      -1.965   6.551   0.779  1.00  0.00     0.074 A 
ATOM     41  C   UNL     1      -2.176   4.448  -0.915  1.00  0.00     0.049 A 
ATOM     42  N   UNL     1      -3.161   7.100   0.770  1.00  0.00    -0.248 NA
ATOM     43  C   UNL     1      -1.121   7.756   1.697  1.00  0.00     0.031 C 
ATOM     44  C   UNL     1      -2.884   5.366  -1.807  1.00  0.00     0.029 A 
ATOM     45  N   UNL     1      -2.339   3.200  -1.546  1.00  0.00    -0.354 N 
ATOM     46  C   UNL     1      -2.994   8.455   1.241  1.00  0.00     0.074 A 
ATOM     47  C   UNL     1      -2.036   8.517   2.248  1.00  0.00     0.031 C 
ATOM     48  C   UNL     1      -3.453   4.686  -2.814  1.00  0.00     0.029 A 
ATOM     49  C   UNL     1      -3.461   3.300  -2.419  1.00  0.00     0.049 A 
ATOM     50  H   UNL     1      -1.778   2.403  -1.409  1.00  0.00     0.167 HD
ATOM     51  C   UNL     1      -3.289   9.536   0.457  1.00  0.00     0.037 A 
ATOM     52  C   UNL     1      -4.643   2.634  -2.188  1.00  0.00     0.037 A 
ATOM     53  C   UNL     1      -4.222   9.068  -0.527  1.00  0.00     0.049 A 
ATOM     54  C   UNL     1      -5.795   3.536  -1.758  1.00  0.00     0.074 A 
ATOM     55  C   UNL     1      -4.233   8.877  -1.886  1.00  0.00     0.029 A 
ATOM     56  N   UNL     1      -5.252   8.310  -0.012  1.00  0.00    -0.354 N 
ATOM     57  N   UNL     1      -5.726   4.839  -1.669  1.00  0.00    -0.248 NA
ATOM     58  C   UNL     1      -7.105   3.037  -1.345  1.00  0.00     0.031 C 
ATOM     59  C   UNL     1      -5.242   7.887  -2.147  1.00  0.00     0.029 A 
ATOM     60  C   UNL     1      -5.851   7.522  -0.952  1.00  0.00     0.049 A 
ATOM     61  H   UNL     1      -5.527   8.336   0.933  1.00  0.00     0.167 HD
ATOM     62  C   UNL     1      -6.812   5.313  -0.986  1.00  0.00     0.074 A 
ATOM     63  C   UNL     1      -7.690   4.165  -0.910  1.00  0.00     0.031 C 
ATOM     64  C   UNL     1      -6.851   6.573  -0.453  1.00  0.00     0.037 A 
BRANCH  51  65
ATOM     65  C   UNL     1      -2.667  10.952   0.527  1.00  0.00     0.057 A 
ATOM     66  C   UNL     1      -3.274  11.971  -0.228  1.00  0.00     0.134 A 
ATOM     67  C   UNL     1      -1.493  11.400   1.205  1.00  0.00     0.134 A 
ATOM     68  F   UNL     1      -4.364  11.721  -0.964  1.00  0.00    -0.206 F 
ATOM     69  C   UNL     1      -2.797  13.295  -0.285  1.00  0.00     0.040 A 
ATOM     70  C   UNL     1      -1.036  12.736   1.196  1.00  0.00     0.040 A 
ATOM     71  F   UNL     1      -0.666  10.582   1.870  1.00  0.00    -0.206 F 
ATOM     72  C   UNL     1      -1.688  13.693   0.444  1.00  0.00     0.006 A 
ENDBRANCH  51  65
BRANCH  52  73
ATOM     73  C   UNL     1      -4.415   1.248  -1.696  1.00  0.00     0.057 A 
ATOM     74  C   UNL     1      -3.727   0.400  -2.580  1.00  0.00     0.134 A 
ATOM     75  C   UNL     1      -4.230   1.062  -0.325  1.00  0.00     0.134 A 
ATOM     76  F   UNL     1      -3.957   0.460  -3.901  1.00  0.00    -0.206 F 
ATOM     77  C   UNL     1      -2.644  -0.348  -2.137  1.00  0.00     0.040 A 
ATOM     78  C   UNL     1      -3.169   0.290   0.133  1.00  0.00     0.040 A 
ATOM     79  F   UNL     1      -4.935   1.768   0.568  1.00  0.00    -0.206 F 
ATOM     80  C   UNL     1      -2.329  -0.339  -0.783  1.00  0.00     0.006 A 
ENDBRANCH  52  73
BRANCH  64  81
ATOM     81  C   UNL     1      -7.809   7.001   0.674  1.00  0.00     0.057 A 
ATOM     82  C   UNL     1      -8.501   6.111   1.510  1.00  0.00     0.134 A 
ATOM     83  C   UNL     1      -7.972   8.364   1.045  1.00  0.00     0.134 A 
ATOM     84  F   UNL     1      -8.296   4.789   1.473  1.00  0.00    -0.206 F 
ATOM     85  C   UNL     1      -9.410   6.536   2.490  1.00  0.00     0.040 A 
ATOM     86  C   UNL     1      -8.769   8.791   2.111  1.00  0.00     0.040 A 
ATOM     87  F   UNL     1      -7.346   9.365   0.412  1.00  0.00    -0.206 F 
ATOM     88  C   UNL     1      -9.546   7.880   2.798  1.00  0.00     0.006 A 
ENDBRANCH  64  81
ENDBRANCH  38  39
ENDBRANCH  31  33
ENDBRANCH  30  31
ENDBRANCH  29  30
ENDBRANCH  28  29
ENDBRANCH  27  28
ENDBRANCH  26  27
ENDBRANCH   1  26
TORSDOF 21
