REMARK SMILES Cc1c(-c2nn(-c3ccccc3)cc2/C=N/O)nnn1-c1ccc(C(=O)OCCOCCOCCOC(=O)c2ccc(-c3c4nc(c(-c5c(F)cccc5F)c5ccc([nH]5)c(-c5c(F)cccc5F)c5nc(c(-c6c(F)cccc6F)c6ccc3[nH]6)C=C5)C=C4)cc2)cc1
REMARK SMILES IDX 31 1 30 2 29 3 28 4 27 5 25 6 26 7 24 8 21 9 22 10 94 11
REMARK SMILES IDX 23 12 93 13 20 14 1 15 2 16 3 17 18 18 19 19 4 20 5 21 14 22
REMARK SMILES IDX 6 23 13 24 15 25 16 26 17 27 7 29 8 30 12 31 9 32 11 33
REMARK SMILES IDX 10 34 32 35 33 36 34 37 35 38 36 39 37 40 38 41 39 42 40 43
REMARK SMILES IDX 92 44 41 45 91 46 42 47 43 48 44 49 85 50 45 51 90 52 84 53
REMARK SMILES IDX 86 54 46 55 89 56 83 57 82 58 47 60 73 61 56 62 72 63 57 64
REMARK SMILES IDX 60 65 71 66 87 67 58 68 59 69 70 71 88 72 61 73 48 74 49 75
REMARK SMILES IDX 54 76 50 77 51 78 53 79 55 80 52 81 74 82 75 83 80 84 76 85
REMARK SMILES IDX 77 86 79 87 81 88 78 89 62 90 63 91 68 92 64 93 65 94 67 95
REMARK SMILES IDX 69 96 66 97
REMARK H PARENT 17 28 86 59 60 70
REMARK Flexibility Score: inf
ROOT
ATOM      1  C   UNL     1       1.411   8.007  -2.036  1.00  0.00     0.188 C 
ENDROOT
BRANCH   1   2
ATOM      2  O   UNL     1       2.074   9.080  -1.396  1.00  0.00    -0.376 OA
BRANCH   2   3
ATOM      3  C   UNL     1       1.988   9.130   0.022  1.00  0.00     0.202 C 
BRANCH   3   4
ATOM      4  C   UNL     1       2.446   7.920   0.866  1.00  0.00     0.261 C 
BRANCH   4   5
ATOM      5  O   UNL     1       2.204   6.615   0.318  1.00  0.00    -0.460 OA
BRANCH   5   6
ATOM      6  C   UNL     1       1.015   6.040   0.589  1.00  0.00     0.338 C 
ATOM      7  O   UNL     1       0.103   6.530   1.245  1.00  0.00    -0.246 OA
BRANCH   6   8
ATOM      8  C   UNL     1       0.893   4.774  -0.172  1.00  0.00     0.060 A 
ATOM      9  C   UNL     1       0.520   2.355  -1.531  1.00  0.00     0.067 A 
ATOM     10  C   UNL     1      -0.464   3.349  -1.595  1.00  0.00     0.029 A 
ATOM     11  C   UNL     1       1.731   2.611  -0.868  1.00  0.00     0.029 A 
ATOM     12  C   UNL     1      -0.291   4.540  -0.884  1.00  0.00     0.018 A 
ATOM     13  C   UNL     1       1.925   3.829  -0.204  1.00  0.00     0.018 A 
BRANCH   9  14
ATOM     14  N   UNL     1       0.238   1.077  -2.079  1.00  0.00    -0.217 N 
ATOM     15  C   UNL     1       1.178  -0.428  -0.247  1.00  0.00     0.069 C 
ATOM     16  C   UNL     1       0.551  -0.170  -1.563  1.00  0.00     0.071 A 
ATOM     17  C   UNL     1       0.011  -1.044  -2.487  1.00  0.00     0.137 A 
ATOM     18  N   UNL     1      -0.640  -0.356  -3.465  1.00  0.00    -0.128 NA
ATOM     19  N   UNL     1      -0.547   0.938  -3.177  1.00  0.00    -0.061 NA
BRANCH  17  20
ATOM     20  C   UNL     1      -0.001  -2.503  -2.424  1.00  0.00     0.124 A 
ATOM     21  N   UNL     1      -0.795  -3.168  -1.575  1.00  0.00    -0.165 NA
ATOM     22  C   UNL     1       0.870  -3.362  -3.134  1.00  0.00     0.044 A 
ATOM     23  N   UNL     1      -0.366  -4.448  -1.639  1.00  0.00    -0.240 N 
ATOM     24  C   UNL     1       0.631  -4.603  -2.576  1.00  0.00     0.125 A 
BRANCH  22  25
ATOM     25  C   UNL     1       1.828  -3.106  -4.178  1.00  0.00     0.166 C 
ATOM     26  N   UNL     1       2.063  -1.896  -4.562  1.00  0.00    -0.097 NA
BRANCH  26  27
ATOM     27  O   UNL     1       3.002  -1.915  -5.600  1.00  0.00    -0.411 OA
ATOM     28  H   UNL     1       3.283  -1.112  -5.993  1.00  0.00     0.330 HD
ENDBRANCH  26  27
ENDBRANCH  22  25
BRANCH  23  29
ATOM     29  C   UNL     1      -0.895  -5.441  -0.779  1.00  0.00     0.065 A 
ATOM     30  C   UNL     1      -2.212  -5.321  -0.315  1.00  0.00     0.028 A 
ATOM     31  C   UNL     1      -0.107  -6.529  -0.379  1.00  0.00     0.028 A 
ATOM     32  C   UNL     1      -2.746  -6.306   0.519  1.00  0.00     0.002 A 
ATOM     33  C   UNL     1      -0.635  -7.483   0.493  1.00  0.00     0.002 A 
ATOM     34  C   UNL     1      -1.956  -7.379   0.930  1.00  0.00     0.000 A 
ENDBRANCH  23  29
ENDBRANCH  17  20
ENDBRANCH   9  14
ENDBRANCH   6   8
ENDBRANCH   5   6
ENDBRANCH   4   5
ENDBRANCH   3   4
ENDBRANCH   2   3
ENDBRANCH   1   2
BRANCH   1  35
ATOM     35  C   UNL     1       2.366   6.961  -2.650  1.00  0.00     0.188 C 
BRANCH  35  36
ATOM     36  O   UNL     1       3.752   6.934  -2.322  1.00  0.00    -0.376 OA
BRANCH  36  37
ATOM     37  C   UNL     1       4.520   8.129  -2.237  1.00  0.00     0.202 C 
BRANCH  37  38
ATOM     38  C   UNL     1       4.599   9.087  -3.424  1.00  0.00     0.261 C 
BRANCH  38  39
ATOM     39  O   UNL     1       3.336   9.463  -3.953  1.00  0.00    -0.460 OA
BRANCH  39  40
ATOM     40  C   UNL     1       2.980   8.783  -5.057  1.00  0.00     0.338 C 
ATOM     41  O   UNL     1       3.575   7.839  -5.568  1.00  0.00    -0.246 OA
BRANCH  40  42
ATOM     42  C   UNL     1       1.775   9.378  -5.645  1.00  0.00     0.060 A 
ATOM     43  C   UNL     1       1.244   8.720  -6.755  1.00  0.00     0.016 A 
ATOM     44  C   UNL     1       1.364  10.671  -5.285  1.00  0.00     0.016 A 
ATOM     45  C   UNL     1       0.496   9.449  -7.649  1.00  0.00     0.010 A 
ATOM     46  C   UNL     1       0.615  11.403  -6.183  1.00  0.00     0.010 A 
ATOM     47  C   UNL     1       0.289  10.811  -7.401  1.00  0.00    -0.014 A 
BRANCH  47  48
ATOM     48  C   UNL     1      -0.151  11.603  -8.529  1.00  0.00     0.031 A 
ATOM     49  C   UNL     1      -1.562  11.450  -8.921  1.00  0.00     0.074 A 
ATOM     50  C   UNL     1       0.691  12.399  -9.212  1.00  0.00     0.049 A 
ATOM     51  N   UNL     1      -2.029  10.909  -9.997  1.00  0.00    -0.248 NA
ATOM     52  C   UNL     1      -2.577  11.891  -7.960  1.00  0.00     0.031 C 
ATOM     53  C   UNL     1       2.026  12.863  -8.823  1.00  0.00     0.029 A 
ATOM     54  N   UNL     1       0.473  13.022 -10.402  1.00  0.00    -0.354 N 
ATOM     55  C   UNL     1      -3.404  11.084  -9.933  1.00  0.00     0.074 A 
ATOM     56  C   UNL     1      -3.698  11.591  -8.615  1.00  0.00     0.031 C 
ATOM     57  C   UNL     1       2.412  13.847  -9.666  1.00  0.00     0.029 A 
ATOM     58  C   UNL     1       1.418  13.979 -10.720  1.00  0.00     0.049 A 
ATOM     59  H   UNL     1      -0.291  12.810 -10.985  1.00  0.00     0.167 HD
ATOM     60  C   UNL     1      -4.191  10.981 -11.036  1.00  0.00     0.037 A 
ATOM     61  C   UNL     1       1.350  14.860 -11.744  1.00  0.00     0.037 A 
ATOM     62  C   UNL     1      -3.543  10.283 -12.111  1.00  0.00     0.049 A 
ATOM     63  C   UNL     1       0.397  14.327 -12.748  1.00  0.00     0.074 A 
ATOM     64  C   UNL     1      -3.038   9.008 -12.282  1.00  0.00     0.029 A 
ATOM     65  N   UNL     1      -3.053  11.019 -13.160  1.00  0.00    -0.354 N 
ATOM     66  N   UNL     1       0.632  13.297 -13.512  1.00  0.00    -0.248 NA
ATOM     67  C   UNL     1      -1.001  14.718 -12.649  1.00  0.00     0.031 C 
ATOM     68  C   UNL     1      -1.923   9.157 -13.157  1.00  0.00     0.029 A 
ATOM     69  C   UNL     1      -1.817  10.513 -13.468  1.00  0.00     0.049 A 
ATOM     70  H   UNL     1      -3.505  11.771 -13.608  1.00  0.00     0.167 HD
ATOM     71  C   UNL     1      -0.597  12.671 -13.655  1.00  0.00     0.074 A 
ATOM     72  C   UNL     1      -1.578  13.653 -13.211  1.00  0.00     0.031 C 
ATOM     73  C   UNL     1      -0.685  11.323 -13.857  1.00  0.00     0.037 A 
BRANCH  60  74
ATOM     74  C   UNL     1      -5.439  11.790 -11.231  1.00  0.00     0.057 A 
ATOM     75  C   UNL     1      -6.361  11.428 -12.226  1.00  0.00     0.134 A 
ATOM     76  C   UNL     1      -5.634  13.062 -10.654  1.00  0.00     0.134 A 
ATOM     77  F   UNL     1      -6.250  10.259 -12.873  1.00  0.00    -0.206 F 
ATOM     78  C   UNL     1      -7.385  12.287 -12.640  1.00  0.00     0.040 A 
ATOM     79  C   UNL     1      -6.684  13.904 -11.022  1.00  0.00     0.040 A 
ATOM     80  F   UNL     1      -4.763  13.586  -9.781  1.00  0.00    -0.206 F 
ATOM     81  C   UNL     1      -7.550  13.528 -12.036  1.00  0.00     0.006 A 
ENDBRANCH  60  74
BRANCH  61  82
ATOM     82  C   UNL     1       1.866  16.242 -11.783  1.00  0.00     0.057 A 
ATOM     83  C   UNL     1       2.052  16.919 -12.994  1.00  0.00     0.134 A 
ATOM     84  C   UNL     1       1.953  17.023 -10.616  1.00  0.00     0.134 A 
ATOM     85  F   UNL     1       1.940  16.270 -14.162  1.00  0.00    -0.206 F 
ATOM     86  C   UNL     1       2.299  18.297 -13.044  1.00  0.00     0.040 A 
ATOM     87  C   UNL     1       2.211  18.396 -10.650  1.00  0.00     0.040 A 
ATOM     88  F   UNL     1       1.706  16.497  -9.408  1.00  0.00    -0.206 F 
ATOM     89  C   UNL     1       2.373  19.040 -11.869  1.00  0.00     0.006 A 
ENDBRANCH  61  82
BRANCH  73  90
ATOM     90  C   UNL     1       0.578  10.597 -14.220  1.00  0.00     0.057 A 
ATOM     91  C   UNL     1       1.672  10.469 -13.352  1.00  0.00     0.134 A 
ATOM     92  C   UNL     1       0.638   9.892 -15.427  1.00  0.00     0.134 A 
ATOM     93  F   UNL     1       1.655  11.025 -12.133  1.00  0.00    -0.206 F 
ATOM     94  C   UNL     1       2.798   9.715 -13.694  1.00  0.00     0.040 A 
ATOM     95  C   UNL     1       1.744   9.110 -15.768  1.00  0.00     0.040 A 
ATOM     96  F   UNL     1      -0.400   9.918 -16.279  1.00  0.00    -0.206 F 
ATOM     97  C   UNL     1       2.835   9.029 -14.905  1.00  0.00     0.006 A 
ENDBRANCH  73  90
ENDBRANCH  47  48
ENDBRANCH  40  42
ENDBRANCH  39  40
ENDBRANCH  38  39
ENDBRANCH  37  38
ENDBRANCH  36  37
ENDBRANCH  35  36
ENDBRANCH   1  35
TORSDOF 22
