REMARK SMILES Cc1ccccc1-n1c(S[C@@H](C)C(=O)OCCOCCOCCOC(=O)c2ccc(-c3c4nc(c(-c5c(F)cccc5F)c5ccc([nH]5)c(-c5c(F)cccc5F)c5nc(c(-c6c(F)cccc6F)c6ccc3[nH]6)C=C5)C=C4)cc2)nc2sc3c(c2c1=O)C[C@@H](C(C)C)OC3
REMARK SMILES IDX 19 1 18 2 17 3 16 4 15 5 13 6 14 7 11 8 12 9 10 10 9 11 8 12
REMARK SMILES IDX 87 13 81 14 86 15 88 16 82 17 85 18 83 19 84 20 89 21 95 22
REMARK SMILES IDX 90 23 94 24 7 25 1 26 2 27 3 28 4 29 6 30 5 31 91 32 92 33
REMARK SMILES IDX 93 34 20 35 21 36 22 37 23 38 24 39 25 40 26 41 27 42 28 43
REMARK SMILES IDX 80 44 29 45 79 46 30 47 31 48 32 49 73 50 33 51 78 52 72 53
REMARK SMILES IDX 74 54 34 55 77 56 71 57 70 58 35 60 61 61 44 62 60 63 45 64
REMARK SMILES IDX 48 65 59 66 75 67 46 68 47 69 58 71 76 72 49 73 36 74 37 75
REMARK SMILES IDX 42 76 38 77 39 78 41 79 43 80 40 81 62 82 63 83 68 84 64 85
REMARK SMILES IDX 65 86 67 87 69 88 66 89 50 90 51 91 56 92 52 93 53 94 55 95
REMARK SMILES IDX 57 96 54 97
REMARK H PARENT 74 59 48 70
REMARK Flexibility Score: inf
ROOT
ATOM      1  C   UNL     1      -3.786   1.837  -4.900  1.00  0.00     0.188 C 
ENDROOT
BRANCH   1   2
ATOM      2  O   UNL     1      -4.773   1.683  -3.895  1.00  0.00    -0.376 OA
BRANCH   2   3
ATOM      3  C   UNL     1      -4.358   1.580  -2.542  1.00  0.00     0.202 C 
BRANCH   3   4
ATOM      4  C   UNL     1      -3.505   0.371  -2.152  1.00  0.00     0.261 C 
BRANCH   4   5
ATOM      5  O   UNL     1      -2.112   0.648  -2.404  1.00  0.00    -0.462 OA
BRANCH   5   6
ATOM      6  C   UNL     1      -1.107  -0.393  -2.743  1.00  0.00     0.319 C 
ATOM      7  O   UNL     1      -1.806  -1.247  -3.367  1.00  0.00    -0.251 OA
BRANCH   6   8
ATOM      8  C   UNL     1       0.996  -0.276  -2.172  1.00  0.00     0.161 C 
ATOM      9  C   UNL     1       2.081  -1.319  -1.487  1.00  0.00     0.032 C 
BRANCH   8  10
ATOM     10  S   UNL     1       2.334   1.579  -1.975  1.00  0.00    -0.072 SA
BRANCH  10  11
ATOM     11  C   UNL     1       2.162   3.079  -0.851  1.00  0.00     0.177 A 
ATOM     12  N   UNL     1       1.578   3.018   0.401  1.00  0.00    -0.255 N 
ATOM     13  C   UNL     1       1.680   3.935   1.423  1.00  0.00     0.267 A 
ATOM     14  N   UNL     1       2.736   4.228  -1.199  1.00  0.00    -0.212 NA
ATOM     15  C   UNL     1       1.988   5.203   0.951  1.00  0.00     0.081 A 
ATOM     16  O   UNL     1       1.519   3.714   2.622  1.00  0.00    -0.268 OA
ATOM     17  C   UNL     1       2.598   5.280  -0.277  1.00  0.00     0.132 A 
ATOM     18  C   UNL     1       1.741   6.373   1.674  1.00  0.00    -0.014 A 
ATOM     19  S   UNL     1       3.289   6.875  -0.319  1.00  0.00    -0.117 S 
ATOM     20  C   UNL     1       2.609   7.322   1.221  1.00  0.00     0.037 A 
ATOM     21  C   UNL     1       0.936   6.549   2.927  1.00  0.00     0.070 C 
ATOM     22  C   UNL     1       2.979   8.505   2.063  1.00  0.00     0.207 C 
ATOM     23  C   UNL     1       1.729   7.392   3.924  1.00  0.00     0.125 C 
ATOM     24  O   UNL     1       2.131   8.614   3.248  1.00  0.00    -0.372 OA
BRANCH  12  25
ATOM     25  C   UNL     1       0.857   2.006   0.881  1.00  0.00     0.054 A 
ATOM     26  C   UNL     1       3.033   0.689   1.317  1.00  0.00     0.046 C 
ATOM     27  C   UNL     1       1.561   0.928   1.321  1.00  0.00    -0.027 A 
ATOM     28  C   UNL     1       0.698  -0.021   1.656  1.00  0.00     0.005 A 
ATOM     29  C   UNL     1      -0.665   0.237   1.878  1.00  0.00     0.000 A 
ATOM     30  C   UNL     1      -0.502   2.353   1.166  1.00  0.00     0.027 A 
ATOM     31  C   UNL     1      -1.275   1.456   1.795  1.00  0.00     0.002 A 
ENDBRANCH  12  25
BRANCH  23  32
ATOM     32  C   UNL     1       2.898   6.660   4.645  1.00  0.00     0.012 C 
ATOM     33  C   UNL     1       3.535   7.590   5.682  1.00  0.00     0.010 C 
ATOM     34  C   UNL     1       2.491   5.366   5.370  1.00  0.00     0.010 C 
ENDBRANCH  23  32
ENDBRANCH  10  11
ENDBRANCH   8  10
ENDBRANCH   6   8
ENDBRANCH   5   6
ENDBRANCH   4   5
ENDBRANCH   3   4
ENDBRANCH   2   3
ENDBRANCH   1   2
BRANCH   1  35
ATOM     35  C   UNL     1      -2.597   2.755  -4.642  1.00  0.00     0.188 C 
BRANCH  35  36
ATOM     36  O   UNL     1      -2.812   4.092  -4.214  1.00  0.00    -0.376 OA
BRANCH  36  37
ATOM     37  C   UNL     1      -1.580   4.749  -3.811  1.00  0.00     0.202 C 
BRANCH  37  38
ATOM     38  C   UNL     1      -0.297   4.379  -4.606  1.00  0.00     0.261 C 
BRANCH  38  39
ATOM     39  O   UNL     1       0.243   3.163  -4.017  1.00  0.00    -0.460 OA
BRANCH  39  40
ATOM     40  C   UNL     1       0.333   2.010  -4.728  1.00  0.00     0.338 C 
ATOM     41  O   UNL     1       0.362   1.880  -5.935  1.00  0.00    -0.246 OA
BRANCH  40  42
ATOM     42  C   UNL     1       0.170   0.890  -3.741  1.00  0.00     0.060 A 
ATOM     43  C   UNL     1       0.324  -0.863  -4.165  1.00  0.00     0.016 A 
ATOM     44  C   UNL     1      -0.233   1.304  -2.017  1.00  0.00     0.016 A 
ATOM     45  C   UNL     1       0.084  -2.155  -2.884  1.00  0.00     0.010 A 
ATOM     46  C   UNL     1      -0.565  -0.073  -0.831  1.00  0.00     0.010 A 
ATOM     47  C   UNL     1      -0.439  -1.817  -1.187  1.00  0.00    -0.014 A 
BRANCH  47  48
ATOM     48  C   UNL     1      -0.726  -3.089   0.008  1.00  0.00     0.031 A 
ATOM     49  C   UNL     1      -0.107  -2.912   1.527  1.00  0.00     0.074 A 
ATOM     50  C   UNL     1      -1.794  -3.959   0.381  1.00  0.00     0.049 A 
ATOM     51  N   UNL     1      -0.938  -2.592   2.472  1.00  0.00    -0.248 NA
ATOM     52  C   UNL     1       1.225  -3.000   2.174  1.00  0.00     0.031 C 
ATOM     53  C   UNL     1      -1.483  -5.173   1.204  1.00  0.00     0.029 A 
ATOM     54  N   UNL     1      -3.228  -3.913   0.590  1.00  0.00    -0.354 N 
ATOM     55  C   UNL     1      -0.380  -2.055   3.615  1.00  0.00     0.074 A 
ATOM     56  C   UNL     1       1.014  -2.459   3.425  1.00  0.00     0.031 C 
ATOM     57  C   UNL     1      -2.515  -5.538   1.994  1.00  0.00     0.029 A 
ATOM     58  C   UNL     1      -3.664  -4.652   1.790  1.00  0.00     0.049 A 
ATOM     59  H   UNL     1      -3.848  -3.436  -0.008  1.00  0.00     0.167 HD
ATOM     60  C   UNL     1      -1.165  -1.176   4.393  1.00  0.00     0.037 A 
ATOM     61  C   UNL     1      -4.672  -4.517   2.761  1.00  0.00     0.037 A 
ATOM     62  C   UNL     1      -2.549  -0.976   3.826  1.00  0.00     0.049 A 
ATOM     63  C   UNL     1      -5.728  -3.415   2.704  1.00  0.00     0.074 A 
ATOM     64  C   UNL     1      -3.148  -1.825   2.939  1.00  0.00     0.029 A 
ATOM     65  N   UNL     1      -3.560   0.016   3.872  1.00  0.00    -0.354 N 
ATOM     66  N   UNL     1      -5.700  -2.356   3.468  1.00  0.00    -0.248 NA
ATOM     67  C   UNL     1      -6.973  -3.448   1.936  1.00  0.00     0.031 C 
ATOM     68  C   UNL     1      -3.730  -1.055   1.945  1.00  0.00     0.029 A 
ATOM     69  C   UNL     1      -4.441  -0.220   2.773  1.00  0.00     0.049 A 
ATOM     70  H   UNL     1      -3.640   0.736   4.539  1.00  0.00     0.167 HD
ATOM     71  C   UNL     1      -6.464  -1.390   2.849  1.00  0.00     0.074 A 
ATOM     72  C   UNL     1      -7.451  -2.206   2.166  1.00  0.00     0.031 C 
ATOM     73  C   UNL     1      -5.911  -0.138   2.591  1.00  0.00     0.037 A 
BRANCH  60  74
ATOM     74  C   UNL     1      -0.733  -0.316   5.537  1.00  0.00     0.057 A 
ATOM     75  C   UNL     1      -1.534  -0.314   6.693  1.00  0.00     0.134 A 
ATOM     76  C   UNL     1       0.285   0.647   5.497  1.00  0.00     0.134 A 
ATOM     77  F   UNL     1      -2.552  -1.178   6.812  1.00  0.00    -0.206 F 
ATOM     78  C   UNL     1      -1.342   0.586   7.747  1.00  0.00     0.040 A 
ATOM     79  C   UNL     1       0.485   1.563   6.548  1.00  0.00     0.040 A 
ATOM     80  F   UNL     1       1.094   0.757   4.437  1.00  0.00    -0.206 F 
ATOM     81  C   UNL     1      -0.330   1.533   7.677  1.00  0.00     0.006 A 
ENDBRANCH  60  74
BRANCH  61  82
ATOM     82  C   UNL     1      -4.541  -5.024   4.235  1.00  0.00     0.057 A 
ATOM     83  C   UNL     1      -4.839  -6.327   4.639  1.00  0.00     0.134 A 
ATOM     84  C   UNL     1      -4.281  -4.143   5.325  1.00  0.00     0.134 A 
ATOM     85  F   UNL     1      -5.145  -7.260   3.729  1.00  0.00    -0.206 F 
ATOM     86  C   UNL     1      -4.874  -6.712   6.006  1.00  0.00     0.040 A 
ATOM     87  C   UNL     1      -4.332  -4.502   6.679  1.00  0.00     0.040 A 
ATOM     88  F   UNL     1      -3.989  -2.857   5.150  1.00  0.00    -0.206 F 
ATOM     89  C   UNL     1      -4.629  -5.799   7.031  1.00  0.00     0.006 A 
ENDBRANCH  61  82
BRANCH  73  90
ATOM     90  C   UNL     1      -6.414   0.883   1.567  1.00  0.00     0.057 A 
ATOM     91  C   UNL     1      -7.518   0.749   0.707  1.00  0.00     0.134 A 
ATOM     92  C   UNL     1      -5.654   2.056   1.343  1.00  0.00     0.134 A 
ATOM     93  F   UNL     1      -8.339  -0.300   0.745  1.00  0.00    -0.206 F 
ATOM     94  C   UNL     1      -7.835   1.684  -0.291  1.00  0.00     0.040 A 
ATOM     95  C   UNL     1      -5.952   2.992   0.341  1.00  0.00     0.040 A 
ATOM     96  F   UNL     1      -4.567   2.331   2.082  1.00  0.00    -0.206 F 
ATOM     97  C   UNL     1      -7.054   2.811  -0.480  1.00  0.00     0.006 A 
ENDBRANCH  73  90
ENDBRANCH  47  48
ENDBRANCH  40  42
ENDBRANCH  39  40
ENDBRANCH  38  39
ENDBRANCH  37  38
ENDBRANCH  36  37
ENDBRANCH  35  36
ENDBRANCH   1  35
TORSDOF 21
