REMARK SMILES CCOc1ccc(C(=O)N2CCC(C(=O)OCCOCCOCCOC(=O)c3ccc(-c4c5nc(c(-c6c(F)cccc6F)c6ccc([nH]6)c(-c6c(F)cccc6F)c6nc(c(-c7c(F)cccc7F)c7ccc4[nH]7)C=C6)C=C5)cc3)(c3ccccc3)CC2)cc1OC
REMARK SMILES IDX 20 1 19 2 18 3 17 4 16 5 14 6 15 7 13 8 8 9 9 10 10 11 11 12
REMARK SMILES IDX 89 13 12 14 88 15 7 16 4 17 5 18 91 19 6 20 90 21 3 22 2 23
REMARK SMILES IDX 1 24 92 25 93 26 82 27 83 28 87 29 84 30 86 31 85 32 21 33
REMARK SMILES IDX 22 34 23 35 24 36 25 37 26 38 27 39 28 40 29 41 81 42 30 43
REMARK SMILES IDX 80 44 31 45 32 46 33 47 74 48 34 49 79 50 73 51 75 52 35 53
REMARK SMILES IDX 78 54 72 55 71 56 36 58 62 59 45 60 61 61 46 62 49 63 60 64
REMARK SMILES IDX 76 65 47 66 48 67 59 69 77 70 50 71 37 72 38 73 43 74 39 75
REMARK SMILES IDX 40 76 42 77 44 78 41 79 63 80 64 81 69 82 65 83 66 84 68 85
REMARK SMILES IDX 70 86 67 87 51 88 52 89 57 90 53 91 54 92 56 93 58 94 55 95
REMARK H PARENT 75 57 49 68
REMARK Flexibility Score: inf
ROOT
ATOM      1  C   UNL     1      13.484   0.060   1.194  1.00  0.00     0.188 C 
ENDROOT
BRANCH   1   2
ATOM      2  O   UNL     1      14.226   0.104   2.413  1.00  0.00    -0.376 OA
BRANCH   2   3
ATOM      3  C   UNL     1      14.138  -0.996   3.309  1.00  0.00     0.202 C 
BRANCH   3   4
ATOM      4  C   UNL     1      12.811  -1.124   4.054  1.00  0.00     0.261 C 
BRANCH   4   5
ATOM      5  O   UNL     1      11.681  -1.161   3.164  1.00  0.00    -0.463 OA
BRANCH   5   6
ATOM      6  C   UNL     1      10.620  -0.392   3.511  1.00  0.00     0.316 C 
ATOM      7  O   UNL     1      10.581   0.276   4.542  1.00  0.00    -0.251 OA
BRANCH   6   8
ATOM      8  C   UNL     1       9.434  -0.446   2.497  1.00  0.00     0.096 C 
ATOM      9  C   UNL     1       6.335  -3.227   1.090  1.00  0.00     0.253 C 
ATOM     10  O   UNL     1       6.674  -4.283   0.556  1.00  0.00    -0.269 OA
ATOM     11  N   UNL     1       7.279  -2.313   1.588  1.00  0.00    -0.339 N 
ATOM     12  C   UNL     1       8.393  -2.032   0.699  1.00  0.00     0.121 C 
ATOM     13  C   UNL     1       7.046  -1.436   2.735  1.00  0.00     0.121 C 
ATOM     14  C   UNL     1       9.650  -1.490   1.370  1.00  0.00     0.045 C 
ATOM     15  C   UNL     1       8.311  -0.978   3.425  1.00  0.00     0.045 C 
BRANCH   9  16
ATOM     16  C   UNL     1       4.888  -2.853   1.048  1.00  0.00     0.043 A 
ATOM     17  C   UNL     1       2.191  -2.103   0.749  1.00  0.00     0.161 A 
ATOM     18  C   UNL     1       2.571  -3.452   0.657  1.00  0.00     0.051 A 
ATOM     19  C   UNL     1       3.151  -1.128   1.006  1.00  0.00     0.161 A 
ATOM     20  C   UNL     1       3.913  -3.828   0.819  1.00  0.00     0.018 A 
ATOM     21  C   UNL     1       4.488  -1.516   1.065  1.00  0.00     0.064 A 
BRANCH  17  22
ATOM     22  O   UNL     1       0.874  -1.772   0.608  1.00  0.00    -0.490 OA
BRANCH  22  23
ATOM     23  C   UNL     1       0.425  -1.873  -0.750  1.00  0.00     0.226 C 
ATOM     24  C   UNL     1      -0.186  -0.542  -1.155  1.00  0.00     0.049 C 
ENDBRANCH  22  23
ENDBRANCH  17  22
BRANCH  19  25
ATOM     25  O   UNL     1       3.014   0.218   1.175  1.00  0.00    -0.493 OA
ATOM     26  C   UNL     1       1.739   0.760   1.470  1.00  0.00     0.278 C 
ENDBRANCH  19  25
ENDBRANCH   9  16
BRANCH   8  27
ATOM     27  C   UNL     1       9.187   0.963   1.875  1.00  0.00    -0.031 A 
ATOM     28  C   UNL     1      10.089   2.027   2.082  1.00  0.00     0.005 A 
ATOM     29  C   UNL     1       8.102   1.241   1.022  1.00  0.00     0.005 A 
ATOM     30  C   UNL     1       9.909   3.283   1.489  1.00  0.00     0.000 A 
ATOM     31  C   UNL     1       7.929   2.493   0.412  1.00  0.00     0.000 A 
ATOM     32  C   UNL     1       8.835   3.516   0.645  1.00  0.00     0.000 A 
ENDBRANCH   8  27
ENDBRANCH   6   8
ENDBRANCH   5   6
ENDBRANCH   4   5
ENDBRANCH   3   4
ENDBRANCH   2   3
ENDBRANCH   1   2
BRANCH   1  33
ATOM     33  C   UNL     1      13.123  -1.298   0.576  1.00  0.00     0.188 C 
BRANCH  33  34
ATOM     34  O   UNL     1      14.192  -2.228   0.662  1.00  0.00    -0.376 OA
BRANCH  34  35
ATOM     35  C   UNL     1      14.507  -2.885  -0.554  1.00  0.00     0.202 C 
BRANCH  35  36
ATOM     36  C   UNL     1      15.524  -2.054  -1.335  1.00  0.00     0.261 C 
BRANCH  36  37
ATOM     37  O   UNL     1      15.064  -0.734  -1.684  1.00  0.00    -0.460 OA
BRANCH  37  38
ATOM     38  C   UNL     1      14.047  -0.660  -2.578  1.00  0.00     0.338 C 
ATOM     39  O   UNL     1      13.494  -1.580  -3.134  1.00  0.00    -0.246 OA
BRANCH  38  40
ATOM     40  C   UNL     1      13.594   0.751  -2.632  1.00  0.00     0.060 A 
ATOM     41  C   UNL     1      12.235   1.037  -2.453  1.00  0.00     0.016 A 
ATOM     42  C   UNL     1      14.507   1.782  -2.862  1.00  0.00     0.016 A 
ATOM     43  C   UNL     1      11.784   2.360  -2.519  1.00  0.00     0.010 A 
ATOM     44  C   UNL     1      14.052   3.101  -2.947  1.00  0.00     0.010 A 
ATOM     45  C   UNL     1      12.687   3.397  -2.796  1.00  0.00    -0.014 A 
BRANCH  45  46
ATOM     46  C   UNL     1      12.208   4.780  -3.045  1.00  0.00     0.031 A 
ATOM     47  C   UNL     1      12.007   5.242  -4.460  1.00  0.00     0.074 A 
ATOM     48  C   UNL     1      11.987   5.633  -2.029  1.00  0.00     0.049 A 
ATOM     49  N   UNL     1      11.703   6.432  -4.910  1.00  0.00    -0.248 NA
ATOM     50  C   UNL     1      12.183   4.225  -5.509  1.00  0.00     0.031 C 
ATOM     51  C   UNL     1      12.132   5.311  -0.613  1.00  0.00     0.029 A 
ATOM     52  N   UNL     1      11.607   6.954  -2.038  1.00  0.00    -0.354 N 
ATOM     53  C   UNL     1      11.667   6.315  -6.293  1.00  0.00     0.074 A 
ATOM     54  C   UNL     1      11.991   4.939  -6.609  1.00  0.00     0.031 C 
ATOM     55  C   UNL     1      11.843   6.404   0.114  1.00  0.00     0.029 A 
ATOM     56  C   UNL     1      11.537   7.515  -0.786  1.00  0.00     0.049 A 
ATOM     57  H   UNL     1      11.405   7.451  -2.863  1.00  0.00     0.167 HD
ATOM     58  C   UNL     1      11.395   7.267  -7.217  1.00  0.00     0.037 A 
ATOM     59  C   UNL     1      11.284   8.784  -0.410  1.00  0.00     0.037 A 
ATOM     60  C   UNL     1      11.084   8.638  -6.910  1.00  0.00     0.049 A 
ATOM     61  C   UNL     1      11.042   9.838  -1.460  1.00  0.00     0.074 A 
ATOM     62  C   UNL     1      10.784   9.670  -7.783  1.00  0.00     0.029 A 
ATOM     63  N   UNL     1      11.043   9.172  -5.631  1.00  0.00    -0.354 N 
ATOM     64  N   UNL     1      10.994   9.713  -2.764  1.00  0.00    -0.248 NA
ATOM     65  C   UNL     1      10.836  11.215  -0.984  1.00  0.00     0.031 C 
ATOM     66  C   UNL     1      10.608  10.839  -7.035  1.00  0.00     0.029 A 
ATOM     67  C   UNL     1      10.750  10.525  -5.694  1.00  0.00     0.049 A 
ATOM     68  H   UNL     1      11.199   8.665  -4.802  1.00  0.00     0.167 HD
ATOM     69  C   UNL     1      10.745  10.987  -3.261  1.00  0.00     0.074 A 
ATOM     70  C   UNL     1      10.624  11.867  -2.118  1.00  0.00     0.031 C 
ATOM     71  C   UNL     1      10.636  11.393  -4.550  1.00  0.00     0.037 A 
BRANCH  58  72
ATOM     72  C   UNL     1      11.458   6.861  -8.659  1.00  0.00     0.057 A 
ATOM     73  C   UNL     1      10.472   6.058  -9.245  1.00  0.00     0.134 A 
ATOM     74  C   UNL     1      12.505   7.303  -9.477  1.00  0.00     0.134 A 
ATOM     75  F   UNL     1       9.451   5.590  -8.511  1.00  0.00    -0.206 F 
ATOM     76  C   UNL     1      10.535   5.692 -10.591  1.00  0.00     0.040 A 
ATOM     77  C   UNL     1      12.567   6.964 -10.829  1.00  0.00     0.040 A 
ATOM     78  F   UNL     1      13.480   8.077  -8.978  1.00  0.00    -0.206 F 
ATOM     79  C   UNL     1      11.582   6.152 -11.388  1.00  0.00     0.006 A 
ENDBRANCH  58  72
BRANCH  59  80
ATOM     80  C   UNL     1      11.279   9.152   1.030  1.00  0.00     0.057 A 
ATOM     81  C   UNL     1      10.097   9.541   1.672  1.00  0.00     0.134 A 
ATOM     82  C   UNL     1      12.456   9.160   1.787  1.00  0.00     0.134 A 
ATOM     83  F   UNL     1       8.942   9.583   0.991  1.00  0.00    -0.206 F 
ATOM     84  C   UNL     1      10.088   9.940   3.010  1.00  0.00     0.040 A 
ATOM     85  C   UNL     1      12.458   9.530   3.133  1.00  0.00     0.040 A 
ATOM     86  F   UNL     1      13.623   8.803   1.230  1.00  0.00    -0.206 F 
ATOM     87  C   UNL     1      11.272   9.929   3.746  1.00  0.00     0.006 A 
ENDBRANCH  59  80
BRANCH  71  88
ATOM     88  C   UNL     1      10.358  12.848  -4.794  1.00  0.00     0.057 A 
ATOM     89  C   UNL     1      11.341  13.828  -4.600  1.00  0.00     0.134 A 
ATOM     90  C   UNL     1       9.109  13.271  -5.266  1.00  0.00     0.134 A 
ATOM     91  F   UNL     1      12.554  13.492  -4.138  1.00  0.00    -0.206 F 
ATOM     92  C   UNL     1      11.084  15.178  -4.848  1.00  0.00     0.040 A 
ATOM     93  C   UNL     1       8.848  14.614  -5.541  1.00  0.00     0.040 A 
ATOM     94  F   UNL     1       8.126  12.383  -5.481  1.00  0.00    -0.206 F 
ATOM     95  C   UNL     1       9.836  15.573  -5.327  1.00  0.00     0.006 A 
ENDBRANCH  71  88
ENDBRANCH  45  46
ENDBRANCH  38  40
ENDBRANCH  37  38
ENDBRANCH  36  37
ENDBRANCH  35  36
ENDBRANCH  34  35
ENDBRANCH  33  34
ENDBRANCH   1  33
TORSDOF 22
