REMARK SMILES Nc1c(CC(=O)OCCOCCOCCOC(=O)c2ccc(-c3c4nc(c(-c5c(F)cccc5F)c5ccc([nH]5)c(-c5c(F)cccc5F)c5nc(c(-c6c(F)cccc6F)c6ccc3[nH]6)C=C5)C=C4)cc2)cccc1C(=O)c1ccc(Br)cc1
REMARK SMILES IDX 11 1 10 2 9 3 8 4 7 5 5 6 6 7 4 8 3 9 2 10 76 11 73 12 75 13
REMARK SMILES IDX 74 14 1 15 77 18 78 19 79 20 80 21 85 22 81 23 84 24 82 25
REMARK SMILES IDX 83 26 12 27 13 28 14 29 15 30 16 31 17 32 18 33 19 34 20 35
REMARK SMILES IDX 72 36 21 37 71 38 22 39 23 40 24 41 65 42 25 43 70 44 64 45
REMARK SMILES IDX 66 46 26 47 69 48 63 49 62 50 27 52 53 53 36 54 52 55 37 56
REMARK SMILES IDX 40 57 51 58 67 59 38 60 39 61 50 63 68 64 41 65 28 66 29 67
REMARK SMILES IDX 34 68 30 69 31 70 33 71 35 72 32 73 54 74 55 75 60 76 56 77
REMARK SMILES IDX 57 78 59 79 61 80 58 81 42 82 43 83 48 84 44 85 45 86 47 87
REMARK SMILES IDX 49 88 46 89
REMARK H PARENT 1 16 1 17 66 51 40 62
REMARK Flexibility Score: inf
ROOT
ATOM      1  C   UNL     1      -1.315  -4.229   1.805  1.00  0.00     0.188 C 
ENDROOT
BRANCH   1   2
ATOM      2  O   UNL     1      -0.712  -5.064   2.795  1.00  0.00    -0.376 OA
BRANCH   2   3
ATOM      3  C   UNL     1       0.163  -4.479   3.751  1.00  0.00     0.202 C 
BRANCH   3   4
ATOM      4  C   UNL     1       1.468  -3.898   3.195  1.00  0.00     0.261 C 
BRANCH   4   5
ATOM      5  O   UNL     1       1.262  -3.013   2.074  1.00  0.00    -0.463 OA
BRANCH   5   6
ATOM      6  C   UNL     1       2.010  -3.233   0.968  1.00  0.00     0.310 C 
ATOM      7  O   UNL     1       2.951  -4.023   0.927  1.00  0.00    -0.252 OA
BRANCH   6   8
ATOM      8  C   UNL     1       1.513  -2.551  -0.292  1.00  0.00     0.160 C 
BRANCH   8   9
ATOM      9  C   UNL     1       0.781  -1.219  -0.234  1.00  0.00    -0.013 A 
ATOM     10  C   UNL     1       1.396  -0.023   0.191  1.00  0.00     0.047 A 
ATOM     11  C   UNL     1       0.664   1.194   0.074  1.00  0.00     0.046 A 
ATOM     12  C   UNL     1      -0.538  -1.171  -0.734  1.00  0.00     0.006 A 
ATOM     13  C   UNL     1      -0.678   1.191  -0.336  1.00  0.00     0.014 A 
ATOM     14  C   UNL     1      -1.280   0.009  -0.740  1.00  0.00     0.001 A 
BRANCH  10  15
ATOM     15  N   UNL     1       2.685  -0.074   0.706  1.00  0.00    -0.398 N 
ATOM     16  H   UNL     1       3.156  -0.937   0.770  1.00  0.00     0.156 HD
ATOM     17  H   UNL     1       3.128   0.752   1.007  1.00  0.00     0.156 HD
ENDBRANCH  10  15
BRANCH  11  18
ATOM     18  C   UNL     1       1.252   2.553   0.285  1.00  0.00     0.195 C 
ATOM     19  O   UNL     1       0.565   3.478   0.708  1.00  0.00    -0.289 OA
BRANCH  18  20
ATOM     20  C   UNL     1       2.674   2.815  -0.033  1.00  0.00     0.023 A 
ATOM     21  C   UNL     1       3.446   3.483   0.922  1.00  0.00     0.013 A 
ATOM     22  C   UNL     1       3.263   2.311  -1.199  1.00  0.00     0.013 A 
ATOM     23  C   UNL     1       4.829   3.559   0.758  1.00  0.00     0.016 A 
ATOM     24  C   UNL     1       4.646   2.389  -1.360  1.00  0.00     0.016 A 
ATOM     25  C   UNL     1       5.424   2.991  -0.370  1.00  0.00     0.018 A 
ATOM     26  Br  UNL     1       7.306   3.001  -0.539  1.00  0.00    -0.051 Br
ENDBRANCH  18  20
ENDBRANCH  11  18
ENDBRANCH   8   9
ENDBRANCH   6   8
ENDBRANCH   5   6
ENDBRANCH   4   5
ENDBRANCH   3   4
ENDBRANCH   2   3
ENDBRANCH   1   2
BRANCH   1  27
ATOM     27  C   UNL     1      -1.571  -2.744   2.117  1.00  0.00     0.188 C 
BRANCH  27  28
ATOM     28  O   UNL     1      -1.868  -2.556   3.487  1.00  0.00    -0.376 OA
BRANCH  28  29
ATOM     29  C   UNL     1      -2.983  -1.741   3.768  1.00  0.00     0.202 C 
BRANCH  29  30
ATOM     30  C   UNL     1      -4.305  -2.499   3.621  1.00  0.00     0.261 C 
BRANCH  30  31
ATOM     31  O   UNL     1      -4.441  -3.302   2.432  1.00  0.00    -0.460 OA
BRANCH  31  32
ATOM     32  C   UNL     1      -4.730  -2.668   1.278  1.00  0.00     0.338 C 
ATOM     33  O   UNL     1      -4.838  -1.460   1.103  1.00  0.00    -0.246 OA
BRANCH  32  34
ATOM     34  C   UNL     1      -4.739  -3.670   0.194  1.00  0.00     0.060 A 
ATOM     35  C   UNL     1      -3.818  -3.567  -0.858  1.00  0.00     0.016 A 
ATOM     36  C   UNL     1      -5.674  -4.704   0.208  1.00  0.00     0.016 A 
ATOM     37  C   UNL     1      -3.836  -4.490  -1.909  1.00  0.00     0.010 A 
ATOM     38  C   UNL     1      -5.708  -5.611  -0.852  1.00  0.00     0.010 A 
ATOM     39  C   UNL     1      -4.806  -5.499  -1.927  1.00  0.00    -0.014 A 
BRANCH  39  40
ATOM     40  C   UNL     1      -5.029  -6.346  -3.124  1.00  0.00     0.031 A 
ATOM     41  C   UNL     1      -6.199  -6.023  -4.009  1.00  0.00     0.074 A 
ATOM     42  C   UNL     1      -4.263  -7.420  -3.384  1.00  0.00     0.049 A 
ATOM     43  N   UNL     1      -6.766  -6.745  -4.939  1.00  0.00    -0.248 NA
ATOM     44  C   UNL     1      -6.821  -4.705  -3.801  1.00  0.00     0.031 C 
ATOM     45  C   UNL     1      -3.057  -7.801  -2.653  1.00  0.00     0.029 A 
ATOM     46  N   UNL     1      -4.418  -8.413  -4.322  1.00  0.00    -0.354 N 
ATOM     47  C   UNL     1      -7.833  -5.985  -5.403  1.00  0.00     0.074 A 
ATOM     48  C   UNL     1      -7.840  -4.753  -4.646  1.00  0.00     0.031 C 
ATOM     49  C   UNL     1      -2.600  -8.966  -3.146  1.00  0.00     0.029 A 
ATOM     50  C   UNL     1      -3.515  -9.440  -4.183  1.00  0.00     0.049 A 
ATOM     51  H   UNL     1      -5.107  -8.391  -5.024  1.00  0.00     0.167 HD
ATOM     52  C   UNL     1      -8.730  -6.295  -6.368  1.00  0.00     0.037 A 
ATOM     53  C   UNL     1      -3.470 -10.646  -4.784  1.00  0.00     0.037 A 
ATOM     54  C   UNL     1      -8.714  -7.525  -7.114  1.00  0.00     0.049 A 
ATOM     55  C   UNL     1      -4.537 -11.015  -5.785  1.00  0.00     0.074 A 
ATOM     56  C   UNL     1      -9.578  -7.939  -8.112  1.00  0.00     0.029 A 
ATOM     57  N   UNL     1      -7.787  -8.541  -6.937  1.00  0.00    -0.354 N 
ATOM     58  N   UNL     1      -5.556 -10.306  -6.209  1.00  0.00    -0.248 NA
ATOM     59  C   UNL     1      -4.455 -12.356  -6.385  1.00  0.00     0.031 C 
ATOM     60  C   UNL     1      -9.206  -9.229  -8.502  1.00  0.00     0.029 A 
ATOM     61  C   UNL     1      -8.070  -9.590  -7.794  1.00  0.00     0.049 A 
ATOM     62  H   UNL     1      -7.040  -8.519  -6.297  1.00  0.00     0.167 HD
ATOM     63  C   UNL     1      -6.204 -11.093  -7.154  1.00  0.00     0.074 A 
ATOM     64  C   UNL     1      -5.470 -12.337  -7.238  1.00  0.00     0.031 C 
ATOM     65  C   UNL     1      -7.305 -10.807  -7.892  1.00  0.00     0.037 A 
BRANCH  52  66
ATOM     66  C   UNL     1      -9.826  -5.307  -6.641  1.00  0.00     0.057 A 
ATOM     67  C   UNL     1      -9.580  -4.074  -7.258  1.00  0.00     0.134 A 
ATOM     68  C   UNL     1     -11.153  -5.608  -6.306  1.00  0.00     0.134 A 
ATOM     69  F   UNL     1      -8.330  -3.717  -7.590  1.00  0.00    -0.206 F 
ATOM     70  C   UNL     1     -10.610  -3.165  -7.508  1.00  0.00     0.040 A 
ATOM     71  C   UNL     1     -12.195  -4.721  -6.579  1.00  0.00     0.040 A 
ATOM     72  F   UNL     1     -11.460  -6.773  -5.717  1.00  0.00    -0.206 F 
ATOM     73  C   UNL     1     -11.923  -3.491  -7.176  1.00  0.00     0.006 A 
ENDBRANCH  52  66
BRANCH  53  74
ATOM     74  C   UNL     1      -2.399 -11.617  -4.436  1.00  0.00     0.057 A 
ATOM     75  C   UNL     1      -1.424 -11.983  -5.372  1.00  0.00     0.134 A 
ATOM     76  C   UNL     1      -2.340 -12.226  -3.176  1.00  0.00     0.134 A 
ATOM     77  F   UNL     1      -1.442 -11.457  -6.605  1.00  0.00    -0.206 F 
ATOM     78  C   UNL     1      -0.442 -12.931  -5.075  1.00  0.00     0.040 A 
ATOM     79  C   UNL     1      -1.346 -13.152  -2.855  1.00  0.00     0.040 A 
ATOM     80  F   UNL     1      -3.245 -11.923  -2.234  1.00  0.00    -0.206 F 
ATOM     81  C   UNL     1      -0.398 -13.514  -3.810  1.00  0.00     0.006 A 
ENDBRANCH  53  74
BRANCH  65  82
ATOM     82  C   UNL     1      -7.745 -11.809  -8.919  1.00  0.00     0.057 A 
ATOM     83  C   UNL     1      -8.386 -13.004  -8.571  1.00  0.00     0.134 A 
ATOM     84  C   UNL     1      -7.610 -11.520 -10.284  1.00  0.00     0.134 A 
ATOM     85  F   UNL     1      -8.537 -13.345  -7.283  1.00  0.00    -0.206 F 
ATOM     86  C   UNL     1      -8.873 -13.878  -9.546  1.00  0.00     0.040 A 
ATOM     87  C   UNL     1      -8.116 -12.372 -11.266  1.00  0.00     0.040 A 
ATOM     88  F   UNL     1      -7.015 -10.386 -10.684  1.00  0.00    -0.206 F 
ATOM     89  C   UNL     1      -8.749 -13.556 -10.897  1.00  0.00     0.006 A 
ENDBRANCH  65  82
ENDBRANCH  39  40
ENDBRANCH  32  34
ENDBRANCH  31  32
ENDBRANCH  30  31
ENDBRANCH  29  30
ENDBRANCH  28  29
ENDBRANCH  27  28
ENDBRANCH   1  27
TORSDOF 21
