REMARK SMILES Cc1c(CC(=O)OCCOCCOCCOC(=O)c2ccc(-c3c4nc(c(-c5c(F)cccc5F)c5ccc([nH]5)c(-c5c(F)cccc5F)c5nc(c(-c6c(F)cccc6F)c6ccc3[nH]6)C=C5)C=C4)cc2)cccc1-c1ccn(C(F)F)c(=O)c1
REMARK SMILES IDX 11 1 10 2 9 3 8 4 7 5 5 6 6 7 4 8 3 9 1 10 2 11 76 12 73 13
REMARK SMILES IDX 75 14 74 15 77 16 78 17 86 18 79 19 84 20 80 21 85 22 81 23
REMARK SMILES IDX 82 24 83 25 12 26 13 27 14 28 15 29 16 30 17 31 18 32 19 33
REMARK SMILES IDX 20 34 72 35 21 36 71 37 22 38 23 39 24 40 65 41 25 42 70 43
REMARK SMILES IDX 64 44 66 45 26 46 69 47 63 48 62 49 27 51 53 52 36 53 52 54
REMARK SMILES IDX 37 55 40 56 51 57 67 58 38 59 39 60 50 62 68 63 41 64 28 65
REMARK SMILES IDX 29 66 34 67 30 68 31 69 33 70 35 71 32 72 54 73 55 74 60 75
REMARK SMILES IDX 56 76 57 77 59 78 61 79 58 80 42 81 43 82 48 83 44 84 45 85
REMARK SMILES IDX 47 86 49 87 46 88
REMARK H PARENT 66 50 40 61
REMARK Flexibility Score: inf
ROOT
ATOM      1  C   UNL     1      -2.014  -3.839   4.361  1.00  0.00     0.188 C 
ENDROOT
BRANCH   1   2
ATOM      2  O   UNL     1      -0.772  -3.145   4.633  1.00  0.00    -0.376 OA
BRANCH   2   3
ATOM      3  C   UNL     1      -0.582  -1.722   4.593  1.00  0.00     0.202 C 
BRANCH   3   4
ATOM      4  C   UNL     1       0.503  -0.903   3.573  1.00  0.00     0.261 C 
BRANCH   4   5
ATOM      5  O   UNL     1       0.535  -0.779   1.890  1.00  0.00    -0.463 OA
BRANCH   5   6
ATOM      6  C   UNL     1       1.086  -1.419   0.738  1.00  0.00     0.310 C 
ATOM      7  O   UNL     1       1.911  -2.333   0.652  1.00  0.00    -0.252 OA
BRANCH   6   8
ATOM      8  C   UNL     1       0.622  -1.065  -0.628  1.00  0.00     0.158 C 
BRANCH   8   9
ATOM      9  C   UNL     1       0.101   0.298  -0.752  1.00  0.00    -0.033 A 
ATOM     10  C   UNL     1       2.429   1.245  -0.281  1.00  0.00     0.045 C 
ATOM     11  C   UNL     1       0.931   1.401  -0.501  1.00  0.00    -0.039 A 
ATOM     12  C   UNL     1       0.321   2.657  -0.543  1.00  0.00    -0.015 A 
ATOM     13  C   UNL     1      -1.248   0.424  -1.093  1.00  0.00     0.004 A 
ATOM     14  C   UNL     1      -1.049   2.785  -0.835  1.00  0.00     0.009 A 
ATOM     15  C   UNL     1      -1.828   1.671  -1.126  1.00  0.00     0.001 A 
BRANCH  12  16
ATOM     16  C   UNL     1       1.135   3.845  -0.298  1.00  0.00    -0.011 A 
ATOM     17  C   UNL     1       2.036   4.360  -1.303  1.00  0.00     0.027 A 
ATOM     18  C   UNL     1       1.163   4.324   0.956  1.00  0.00     0.080 A 
ATOM     19  C   UNL     1       2.932   5.293  -0.975  1.00  0.00     0.095 A 
ATOM     20  C   UNL     1       2.123   5.396   1.318  1.00  0.00     0.255 A 
ATOM     21  N   UNL     1       2.984   5.802   0.309  1.00  0.00    -0.258 N 
ATOM     22  O   UNL     1       2.111   5.823   2.468  1.00  0.00    -0.269 OA
BRANCH  21  23
ATOM     23  C   UNL     1       3.947   6.812   0.647  1.00  0.00     0.451 C 
ATOM     24  F   UNL     1       3.332   7.964   1.003  1.00  0.00    -0.185 F 
ATOM     25  F   UNL     1       4.732   6.414   1.678  1.00  0.00    -0.185 F 
ENDBRANCH  21  23
ENDBRANCH  12  16
ENDBRANCH   8   9
ENDBRANCH   6   8
ENDBRANCH   5   6
ENDBRANCH   4   5
ENDBRANCH   3   4
ENDBRANCH   2   3
ENDBRANCH   1   2
BRANCH   1  26
ATOM     26  C   UNL     1      -3.412  -3.222   4.513  1.00  0.00     0.188 C 
BRANCH  26  27
ATOM     27  O   UNL     1      -3.484  -1.965   3.863  1.00  0.00    -0.376 OA
BRANCH  27  28
ATOM     28  C   UNL     1      -4.777  -1.376   3.803  1.00  0.00     0.202 C 
BRANCH  28  29
ATOM     29  C   UNL     1      -5.629  -1.879   2.615  1.00  0.00     0.261 C 
BRANCH  29  30
ATOM     30  O   UNL     1      -4.890  -1.796   1.371  1.00  0.00    -0.460 OA
BRANCH  30  31
ATOM     31  C   UNL     1      -4.558  -2.971   0.744  1.00  0.00     0.338 C 
ATOM     32  O   UNL     1      -5.335  -3.890   0.521  1.00  0.00    -0.246 OA
BRANCH  31  33
ATOM     33  C   UNL     1      -3.066  -3.072   0.594  1.00  0.00     0.060 A 
ATOM     34  C   UNL     1      -2.324  -4.219   0.270  1.00  0.00     0.016 A 
ATOM     35  C   UNL     1      -2.361  -2.076   1.171  1.00  0.00     0.016 A 
ATOM     36  C   UNL     1      -0.943  -4.404   0.717  1.00  0.00     0.010 A 
ATOM     37  C   UNL     1      -1.179  -2.451   1.802  1.00  0.00     0.010 A 
ATOM     38  C   UNL     1      -0.316  -3.549   1.631  1.00  0.00    -0.014 A 
BRANCH  38  39
ATOM     39  C   UNL     1       1.012  -3.878   2.557  1.00  0.00     0.031 A 
ATOM     40  C   UNL     1       2.513  -3.136   2.870  1.00  0.00     0.074 A 
ATOM     41  C   UNL     1       0.908  -5.062   3.211  1.00  0.00     0.049 A 
ATOM     42  N   UNL     1       3.566  -3.785   3.347  1.00  0.00    -0.248 NA
ATOM     43  C   UNL     1       3.017  -1.732   2.619  1.00  0.00     0.031 C 
ATOM     44  C   UNL     1       1.761  -5.611   4.259  1.00  0.00     0.029 A 
ATOM     45  N   UNL     1       0.054  -6.128   2.893  1.00  0.00    -0.354 N 
ATOM     46  C   UNL     1       4.608  -2.882   3.576  1.00  0.00     0.074 A 
ATOM     47  C   UNL     1       4.311  -1.718   2.862  1.00  0.00     0.031 C 
ATOM     48  C   UNL     1       1.660  -6.948   4.230  1.00  0.00     0.029 A 
ATOM     49  C   UNL     1       0.802  -7.297   3.115  1.00  0.00     0.049 A 
ATOM     50  H   UNL     1      -0.878  -6.070   2.580  1.00  0.00     0.167 HD
ATOM     51  C   UNL     1       5.649  -3.064   4.428  1.00  0.00     0.037 A 
ATOM     52  C   UNL     1       1.094  -8.123   2.072  1.00  0.00     0.037 A 
ATOM     53  C   UNL     1       5.864  -4.473   4.612  1.00  0.00     0.049 A 
ATOM     54  C   UNL     1       2.583  -8.261   1.817  1.00  0.00     0.074 A 
ATOM     55  C   UNL     1       5.531  -5.402   5.571  1.00  0.00     0.029 A 
ATOM     56  N   UNL     1       6.213  -5.181   3.477  1.00  0.00    -0.354 N 
ATOM     57  N   UNL     1       3.519  -7.763   2.580  1.00  0.00    -0.248 NA
ATOM     58  C   UNL     1       3.131  -8.900   0.619  1.00  0.00     0.031 C 
ATOM     59  C   UNL     1       5.484  -6.674   4.914  1.00  0.00     0.029 A 
ATOM     60  C   UNL     1       5.856  -6.507   3.589  1.00  0.00     0.049 A 
ATOM     61  H   UNL     1       6.658  -4.790   2.691  1.00  0.00     0.167 HD
ATOM     62  C   UNL     1       4.724  -7.882   1.944  1.00  0.00     0.074 A 
ATOM     63  C   UNL     1       4.439  -8.627   0.733  1.00  0.00     0.031 C 
ATOM     64  C   UNL     1       5.882  -7.321   2.388  1.00  0.00     0.037 A 
BRANCH  51  65
ATOM     65  C   UNL     1       6.448  -1.915   5.051  1.00  0.00     0.057 A 
ATOM     66  C   UNL     1       7.624  -2.172   5.773  1.00  0.00     0.134 A 
ATOM     67  C   UNL     1       6.056  -0.547   5.083  1.00  0.00     0.134 A 
ATOM     68  F   UNL     1       8.096  -3.420   5.898  1.00  0.00    -0.206 F 
ATOM     69  C   UNL     1       8.356  -1.162   6.431  1.00  0.00     0.040 A 
ATOM     70  C   UNL     1       6.818   0.478   5.665  1.00  0.00     0.040 A 
ATOM     71  F   UNL     1       4.873  -0.120   4.620  1.00  0.00    -0.206 F 
ATOM     72  C   UNL     1       7.970   0.170   6.359  1.00  0.00     0.006 A 
ENDBRANCH  51  65
BRANCH  52  73
ATOM     73  C   UNL     1      -0.009  -8.215   1.065  1.00  0.00     0.057 A 
ATOM     74  C   UNL     1      -1.303  -8.551   1.522  1.00  0.00     0.134 A 
ATOM     75  C   UNL     1       0.074  -7.725  -0.242  1.00  0.00     0.134 A 
ATOM     76  F   UNL     1      -1.478  -9.023   2.768  1.00  0.00    -0.206 F 
ATOM     77  C   UNL     1      -2.455  -8.313   0.767  1.00  0.00     0.040 A 
ATOM     78  C   UNL     1      -1.075  -7.511  -1.024  1.00  0.00     0.040 A 
ATOM     79  F   UNL     1       1.242  -7.311  -0.751  1.00  0.00    -0.206 F 
ATOM     80  C   UNL     1      -2.343  -7.777  -0.509  1.00  0.00     0.006 A 
ENDBRANCH  52  73
BRANCH  64  81
ATOM     81  C   UNL     1       7.158  -7.524   1.641  1.00  0.00     0.057 A 
ATOM     82  C   UNL     1       7.687  -8.811   1.492  1.00  0.00     0.134 A 
ATOM     83  C   UNL     1       7.942  -6.459   1.173  1.00  0.00     0.134 A 
ATOM     84  F   UNL     1       6.996  -9.884   1.906  1.00  0.00    -0.206 F 
ATOM     85  C   UNL     1       8.944  -9.028   0.925  1.00  0.00     0.040 A 
ATOM     86  C   UNL     1       9.215  -6.659   0.636  1.00  0.00     0.040 A 
ATOM     87  F   UNL     1       7.498  -5.193   1.228  1.00  0.00    -0.206 F 
ATOM     88  C   UNL     1       9.721  -7.949   0.515  1.00  0.00     0.006 A 
ENDBRANCH  64  81
ENDBRANCH  38  39
ENDBRANCH  31  33
ENDBRANCH  30  31
ENDBRANCH  29  30
ENDBRANCH  28  29
ENDBRANCH  27  28
ENDBRANCH  26  27
ENDBRANCH   1  26
TORSDOF 20
