REMARK SMILES C[C@@H](C(=O)OCCOCCOCCOC(=O)c1ccc(-c2c3nc(c(-c4c(F)cccc4F)c4ccc([nH]4)c(-c4c(F)cccc4F)c4nc(c(-c5c(F)cccc5F)c5ccc2[nH]5)C=C4)C=C3)cc1)c1ccc(-c2ccn(C(F)F)c(=O)c2)cc1
REMARK SMILES IDX 9 1 8 2 7 3 6 4 5 5 3 6 4 7 2 8 1 9 71 10 72 11 86 12 73 13
REMARK SMILES IDX 85 14 74 15 75 16 76 17 84 18 77 19 82 20 78 21 83 22 79 23
REMARK SMILES IDX 80 24 81 25 10 26 11 27 12 28 13 29 14 30 15 31 16 32 17 33
REMARK SMILES IDX 18 34 70 35 19 36 69 37 20 38 21 39 22 40 63 41 23 42 68 43
REMARK SMILES IDX 62 44 64 45 24 46 67 47 61 48 60 49 25 51 51 52 34 53 50 54
REMARK SMILES IDX 35 55 38 56 49 57 65 58 36 59 37 60 48 62 66 63 39 64 26 65
REMARK SMILES IDX 27 66 32 67 28 68 29 69 31 70 33 71 30 72 52 73 53 74 58 75
REMARK SMILES IDX 54 76 55 77 57 78 59 79 56 80 40 81 41 82 46 83 42 84 43 85
REMARK SMILES IDX 45 86 47 87 44 88
REMARK H PARENT 64 50 38 61
REMARK Flexibility Score: inf
ROOT
ATOM      1  C   UNL     1       0.454  -3.734  -0.178  1.00  0.00     0.188 C 
ENDROOT
BRANCH   1   2
ATOM      2  O   UNL     1       1.192  -4.804  -0.748  1.00  0.00    -0.376 OA
BRANCH   2   3
ATOM      3  C   UNL     1       2.413  -4.513  -1.418  1.00  0.00     0.202 C 
BRANCH   3   4
ATOM      4  C   UNL     1       2.478  -3.360  -2.437  1.00  0.00     0.261 C 
BRANCH   4   5
ATOM      5  O   UNL     1       1.979  -2.093  -1.960  1.00  0.00    -0.463 OA
BRANCH   5   6
ATOM      6  C   UNL     1       1.107  -1.433  -2.770  1.00  0.00     0.313 C 
ATOM      7  O   UNL     1       0.764  -1.845  -3.874  1.00  0.00    -0.252 OA
BRANCH   6   8
ATOM      8  C   UNL     1       0.533  -0.139  -2.164  1.00  0.00     0.126 C 
ATOM      9  C   UNL     1       1.333   0.468  -0.999  1.00  0.00     0.025 C 
BRANCH   8  10
ATOM     10  C   UNL     1      -0.975  -0.175  -1.866  1.00  0.00    -0.034 A 
ATOM     11  C   UNL     1      -1.626   0.999  -1.442  1.00  0.00     0.005 A 
ATOM     12  C   UNL     1      -1.768  -1.318  -2.048  1.00  0.00     0.005 A 
ATOM     13  C   UNL     1      -3.009   1.028  -1.212  1.00  0.00     0.009 A 
ATOM     14  C   UNL     1      -3.149  -1.295  -1.808  1.00  0.00     0.009 A 
ATOM     15  C   UNL     1      -3.782  -0.119  -1.404  1.00  0.00    -0.018 A 
BRANCH  15  16
ATOM     16  C   UNL     1      -5.246  -0.080  -1.245  1.00  0.00    -0.011 A 
ATOM     17  C   UNL     1      -5.920  -0.341   0.009  1.00  0.00     0.027 A 
ATOM     18  C   UNL     1      -5.984   0.186  -2.336  1.00  0.00     0.080 A 
ATOM     19  C   UNL     1      -7.255  -0.334   0.082  1.00  0.00     0.095 A 
ATOM     20  C   UNL     1      -7.474   0.207  -2.271  1.00  0.00     0.255 A 
ATOM     21  N   UNL     1      -8.027  -0.049  -1.026  1.00  0.00    -0.258 N 
ATOM     22  O   UNL     1      -8.097   0.444  -3.301  1.00  0.00    -0.269 OA
BRANCH  21  23
ATOM     23  C   UNL     1      -9.462  -0.033  -0.912  1.00  0.00     0.451 C 
ATOM     24  F   UNL     1      -9.969   1.158  -1.317  1.00  0.00    -0.185 F 
ATOM     25  F   UNL     1     -10.015  -0.993  -1.678  1.00  0.00    -0.185 F 
ENDBRANCH  21  23
ENDBRANCH  15  16
ENDBRANCH   8  10
ENDBRANCH   6   8
ENDBRANCH   5   6
ENDBRANCH   4   5
ENDBRANCH   3   4
ENDBRANCH   2   3
ENDBRANCH   1   2
BRANCH   1  26
ATOM     26  C   UNL     1       1.171  -2.709   0.715  1.00  0.00     0.188 C 
BRANCH  26  27
ATOM     27  O   UNL     1       2.546  -2.913   0.909  1.00  0.00    -0.376 OA
BRANCH  27  28
ATOM     28  C   UNL     1       3.004  -3.688   2.000  1.00  0.00     0.202 C 
BRANCH  28  29
ATOM     29  C   UNL     1       2.136  -4.632   2.860  1.00  0.00     0.261 C 
BRANCH  29  30
ATOM     30  O   UNL     1       0.715  -4.612   2.695  1.00  0.00    -0.460 OA
BRANCH  30  31
ATOM     31  C   UNL     1       0.016  -3.800   3.520  1.00  0.00     0.338 C 
ATOM     32  O   UNL     1       0.466  -3.044   4.371  1.00  0.00    -0.246 OA
BRANCH  31  33
ATOM     33  C   UNL     1      -1.398  -3.816   3.094  1.00  0.00     0.060 A 
ATOM     34  C   UNL     1      -1.957  -2.651   2.555  1.00  0.00     0.016 A 
ATOM     35  C   UNL     1      -2.174  -4.967   3.235  1.00  0.00     0.016 A 
ATOM     36  C   UNL     1      -3.300  -2.631   2.175  1.00  0.00     0.010 A 
ATOM     37  C   UNL     1      -3.528  -4.935   2.877  1.00  0.00     0.010 A 
ATOM     38  C   UNL     1      -4.109  -3.759   2.368  1.00  0.00    -0.014 A 
BRANCH  38  39
ATOM     39  C   UNL     1      -5.590  -3.654   2.240  1.00  0.00     0.031 A 
ATOM     40  C   UNL     1      -6.384  -3.377   3.488  1.00  0.00     0.074 A 
ATOM     41  C   UNL     1      -6.215  -3.786   1.054  1.00  0.00     0.049 A 
ATOM     42  N   UNL     1      -7.678  -3.269   3.643  1.00  0.00    -0.248 NA
ATOM     43  C   UNL     1      -5.612  -3.191   4.728  1.00  0.00     0.031 C 
ATOM     44  C   UNL     1      -5.537  -3.983  -0.223  1.00  0.00     0.029 A 
ATOM     45  N   UNL     1      -7.551  -3.757   0.721  1.00  0.00    -0.354 N 
ATOM     46  C   UNL     1      -7.876  -3.052   5.003  1.00  0.00     0.074 A 
ATOM     47  C   UNL     1      -6.571  -3.027   5.625  1.00  0.00     0.031 C 
ATOM     48  C   UNL     1      -6.455  -4.034  -1.203  1.00  0.00     0.029 A 
ATOM     49  C   UNL     1      -7.797  -3.944  -0.626  1.00  0.00     0.049 A 
ATOM     50  H   UNL     1      -8.267  -3.616   1.382  1.00  0.00     0.167 HD
ATOM     51  C   UNL     1      -9.043  -2.902   5.672  1.00  0.00     0.037 A 
ATOM     52  C   UNL     1      -8.966  -4.050  -1.304  1.00  0.00     0.037 A 
ATOM     53  C   UNL     1     -10.336  -2.931   5.041  1.00  0.00     0.049 A 
ATOM     54  C   UNL     1     -10.252  -3.902  -0.515  1.00  0.00     0.074 A 
ATOM     55  C   UNL     1     -11.581  -2.778   5.623  1.00  0.00     0.029 A 
ATOM     56  N   UNL     1     -10.547  -3.141   3.686  1.00  0.00    -0.354 N 
ATOM     57  N   UNL     1     -10.417  -3.598   0.755  1.00  0.00    -0.248 NA
ATOM     58  C   UNL     1     -11.513  -4.104  -1.241  1.00  0.00     0.031 C 
ATOM     59  C   UNL     1     -12.548  -2.949   4.628  1.00  0.00     0.029 A 
ATOM     60  C   UNL     1     -11.905  -3.144   3.415  1.00  0.00     0.049 A 
ATOM     61  H   UNL     1      -9.837  -3.269   3.016  1.00  0.00     0.167 HD
ATOM     62  C   UNL     1     -11.793  -3.548   0.964  1.00  0.00     0.074 A 
ATOM     63  C   UNL     1     -12.414  -3.795  -0.319  1.00  0.00     0.031 C 
ATOM     64  C   UNL     1     -12.489  -3.340   2.112  1.00  0.00     0.037 A 
BRANCH  51  65
ATOM     65  C   UNL     1      -8.977  -2.752   7.166  1.00  0.00     0.057 A 
ATOM     66  C   UNL     1      -8.486  -1.594   7.782  1.00  0.00     0.134 A 
ATOM     67  C   UNL     1      -9.437  -3.780   8.001  1.00  0.00     0.134 A 
ATOM     68  F   UNL     1      -8.014  -0.579   7.042  1.00  0.00    -0.206 F 
ATOM     69  C   UNL     1      -8.432  -1.473   9.172  1.00  0.00     0.040 A 
ATOM     70  C   UNL     1      -9.416  -3.659   9.392  1.00  0.00     0.040 A 
ATOM     71  F   UNL     1      -9.923  -4.916   7.479  1.00  0.00    -0.206 F 
ATOM     72  C   UNL     1      -8.905  -2.505   9.981  1.00  0.00     0.006 A 
ENDBRANCH  51  65
BRANCH  52  73
ATOM     73  C   UNL     1      -8.977  -4.308  -2.788  1.00  0.00     0.057 A 
ATOM     74  C   UNL     1      -9.643  -3.481  -3.708  1.00  0.00     0.134 A 
ATOM     75  C   UNL     1      -8.312  -5.412  -3.344  1.00  0.00     0.134 A 
ATOM     76  F   UNL     1     -10.426  -2.480  -3.295  1.00  0.00    -0.206 F 
ATOM     77  C   UNL     1      -9.598  -3.693  -5.090  1.00  0.00     0.040 A 
ATOM     78  C   UNL     1      -8.236  -5.626  -4.726  1.00  0.00     0.040 A 
ATOM     79  F   UNL     1      -7.701  -6.306  -2.551  1.00  0.00    -0.206 F 
ATOM     80  C   UNL     1      -8.872  -4.758  -5.606  1.00  0.00     0.006 A 
ENDBRANCH  52  73
BRANCH  64  81
ATOM     81  C   UNL     1     -13.992  -3.308   2.019  1.00  0.00     0.057 A 
ATOM     82  C   UNL     1     -14.746  -4.459   1.753  1.00  0.00     0.134 A 
ATOM     83  C   UNL     1     -14.697  -2.119   2.256  1.00  0.00     0.134 A 
ATOM     84  F   UNL     1     -14.136  -5.631   1.518  1.00  0.00    -0.206 F 
ATOM     85  C   UNL     1     -16.140  -4.422   1.691  1.00  0.00     0.040 A 
ATOM     86  C   UNL     1     -16.092  -2.077   2.231  1.00  0.00     0.040 A 
ATOM     87  F   UNL     1     -14.041  -0.984   2.539  1.00  0.00    -0.206 F 
ATOM     88  C   UNL     1     -16.818  -3.230   1.938  1.00  0.00     0.006 A 
ENDBRANCH  64  81
ENDBRANCH  38  39
ENDBRANCH  31  33
ENDBRANCH  30  31
ENDBRANCH  29  30
ENDBRANCH  28  29
ENDBRANCH  27  28
ENDBRANCH  26  27
ENDBRANCH   1  26
TORSDOF 20
