REMARK SMILES Cc1ccc(S(=O)(=O)N2CCN(C(=O)[C@H]3CCCC[C@H]3C(=O)OCCOCCOCCOC(=O)c3ccc(-c4c5nc(c(-c6c(F)cccc6F)c6ccc([nH]6)c(-c6c(F)cccc6F)c6nc(c(-c7c(F)cccc7F)c7ccc4[nH]7)C=C6)C=C5)cc3)CC2)cc1C
REMARK SMILES IDX 27 1 26 2 25 3 24 4 23 5 21 6 22 7 20 8 15 9 16 10 17 11
REMARK SMILES IDX 19 12 18 13 13 14 9 15 10 16 90 17 11 18 89 19 12 20 14 21
REMARK SMILES IDX 6 22 7 23 8 24 5 25 1 26 2 27 3 28 92 29 4 30 91 31 93 32
REMARK SMILES IDX 28 33 29 34 30 35 31 36 32 37 33 38 34 39 35 40 36 41 88 42
REMARK SMILES IDX 37 43 87 44 38 45 39 46 40 47 81 48 41 49 86 50 80 51 82 52
REMARK SMILES IDX 42 53 85 54 79 55 78 56 43 58 69 59 52 60 68 61 53 62 56 63
REMARK SMILES IDX 67 64 83 65 54 66 55 67 66 69 84 70 57 71 44 72 45 73 50 74
REMARK SMILES IDX 46 75 47 76 49 77 51 78 48 79 70 80 71 81 76 82 72 83 73 84
REMARK SMILES IDX 75 85 77 86 74 87 58 88 59 89 64 90 60 91 61 92 63 93 65 94
REMARK SMILES IDX 62 95
REMARK H PARENT 82 57 56 68
REMARK Flexibility Score: inf
ROOT
ATOM      1  C   UNL     1      -1.722   5.110   1.401  1.00  0.00     0.188 C 
ENDROOT
BRANCH   1   2
ATOM      2  O   UNL     1      -1.046   6.199   1.981  1.00  0.00    -0.376 OA
BRANCH   2   3
ATOM      3  C   UNL     1      -1.783   7.400   2.172  1.00  0.00     0.202 C 
BRANCH   3   4
ATOM      4  C   UNL     1      -2.803   7.867   1.122  1.00  0.00     0.261 C 
BRANCH   4   5
ATOM      5  O   UNL     1      -3.880   6.937   0.847  1.00  0.00    -0.463 OA
BRANCH   5   6
ATOM      6  C   UNL     1      -4.060   6.639  -0.462  1.00  0.00     0.309 C 
ATOM      7  O   UNL     1      -3.297   7.025  -1.348  1.00  0.00    -0.252 OA
BRANCH   6   8
ATOM      8  C   UNL     1      -5.226   5.709  -0.808  1.00  0.00     0.111 C 
ATOM      9  C   UNL     1      -6.179   5.129   0.275  1.00  0.00     0.093 C 
ATOM     10  C   UNL     1      -7.268   4.272  -0.413  1.00  0.00     0.014 C 
ATOM     11  C   UNL     1      -8.032   5.032  -1.486  1.00  0.00     0.001 C 
ATOM     12  C   UNL     1      -5.985   6.397  -1.963  1.00  0.00     0.016 C 
ATOM     13  C   UNL     1      -7.088   5.538  -2.557  1.00  0.00     0.001 C 
BRANCH   9  14
ATOM     14  C   UNL     1      -6.774   6.187   1.204  1.00  0.00     0.226 C 
ATOM     15  N   UNL     1      -9.414   5.410   4.347  1.00  0.00    -0.194 NA
ATOM     16  C   UNL     1      -9.086   6.758   3.833  1.00  0.00     0.124 C 
ATOM     17  C   UNL     1      -9.022   4.280   3.467  1.00  0.00     0.124 C 
ATOM     18  C   UNL     1      -7.619   6.822   3.413  1.00  0.00     0.136 C 
ATOM     19  C   UNL     1      -7.587   4.426   2.892  1.00  0.00     0.136 C 
ATOM     20  N   UNL     1      -7.311   5.790   2.419  1.00  0.00    -0.340 N 
ATOM     21  O   UNL     1      -6.761   7.375   0.873  1.00  0.00    -0.275 OA
BRANCH  15  22
ATOM     22  S   UNL     1      -9.914   5.195   5.939  1.00  0.00     0.243 S 
ATOM     23  O   UNL     1     -10.476   3.859   6.062  1.00  0.00    -0.207 OA
ATOM     24  O   UNL     1     -10.667   6.364   6.316  1.00  0.00    -0.207 OA
BRANCH  22  25
ATOM     25  C   UNL     1      -8.425   5.200   6.915  1.00  0.00     0.082 A 
ATOM     26  C   UNL     1      -4.742   5.293   9.159  1.00  0.00     0.044 C 
ATOM     27  C   UNL     1      -6.053   5.266   8.424  1.00  0.00    -0.048 A 
ATOM     28  C   UNL     1      -6.107   4.601   7.193  1.00  0.00     0.005 A 
ATOM     29  C   UNL     1      -7.235   5.827   8.948  1.00  0.00    -0.047 A 
ATOM     30  C   UNL     1      -7.290   4.542   6.464  1.00  0.00     0.022 A 
ATOM     31  C   UNL     1      -8.408   5.827   8.164  1.00  0.00     0.025 A 
ATOM     32  C   UNL     1      -7.324   6.364  10.352  1.00  0.00     0.044 C 
ENDBRANCH  22  25
ENDBRANCH  15  22
ENDBRANCH   9  14
ENDBRANCH   6   8
ENDBRANCH   5   6
ENDBRANCH   4   5
ENDBRANCH   3   4
ENDBRANCH   2   3
ENDBRANCH   1   2
BRANCH   1  33
ATOM     33  C   UNL     1      -2.924   4.517   2.134  1.00  0.00     0.188 C 
BRANCH  33  34
ATOM     34  O   UNL     1      -3.653   5.212   3.116  1.00  0.00    -0.376 OA
BRANCH  34  35
ATOM     35  C   UNL     1      -3.245   5.258   4.476  1.00  0.00     0.202 C 
BRANCH  35  36
ATOM     36  C   UNL     1      -2.411   4.188   5.217  1.00  0.00     0.261 C 
BRANCH  36  37
ATOM     37  O   UNL     1      -1.887   3.087   4.478  1.00  0.00    -0.460 OA
BRANCH  37  38
ATOM     38  C   UNL     1      -2.741   2.056   4.246  1.00  0.00     0.338 C 
ATOM     39  O   UNL     1      -3.884   1.946   4.650  1.00  0.00    -0.246 OA
BRANCH  38  40
ATOM     40  C   UNL     1      -2.135   1.247   3.155  1.00  0.00     0.060 A 
ATOM     41  C   UNL     1      -2.876   1.062   1.976  1.00  0.00     0.016 A 
ATOM     42  C   UNL     1      -0.806   0.822   3.221  1.00  0.00     0.016 A 
ATOM     43  C   UNL     1      -2.287   0.467   0.858  1.00  0.00     0.010 A 
ATOM     44  C   UNL     1      -0.229   0.195   2.113  1.00  0.00     0.010 A 
ATOM     45  C   UNL     1      -0.966   0.008   0.928  1.00  0.00    -0.014 A 
BRANCH  45  46
ATOM     46  C   UNL     1      -0.383  -0.798  -0.171  1.00  0.00     0.031 A 
ATOM     47  C   UNL     1      -0.385  -2.293  -0.038  1.00  0.00     0.074 A 
ATOM     48  C   UNL     1       0.181  -0.224  -1.248  1.00  0.00     0.049 A 
ATOM     49  N   UNL     1       0.190  -3.197  -0.788  1.00  0.00    -0.248 NA
ATOM     50  C   UNL     1      -1.133  -2.837   1.105  1.00  0.00     0.031 C 
ATOM     51  C   UNL     1       0.219   1.209  -1.523  1.00  0.00     0.029 A 
ATOM     52  N   UNL     1       0.864  -0.790  -2.299  1.00  0.00    -0.354 N 
ATOM     53  C   UNL     1      -0.110  -4.418  -0.198  1.00  0.00     0.074 A 
ATOM     54  C   UNL     1      -0.900  -4.135   0.982  1.00  0.00     0.031 C 
ATOM     55  C   UNL     1       0.924   1.416  -2.649  1.00  0.00     0.029 A 
ATOM     56  C   UNL     1       1.424   0.134  -3.148  1.00  0.00     0.049 A 
ATOM     57  H   UNL     1       0.944  -1.762  -2.430  1.00  0.00     0.167 HD
ATOM     58  C   UNL     1       0.244  -5.661  -0.599  1.00  0.00     0.037 A 
ATOM     59  C   UNL     1       2.279  -0.031  -4.177  1.00  0.00     0.037 A 
ATOM     60  C   UNL     1       1.042  -5.941  -1.764  1.00  0.00     0.049 A 
ATOM     61  C   UNL     1       2.737  -1.415  -4.559  1.00  0.00     0.074 A 
ATOM     62  C   UNL     1       1.416  -7.171  -2.276  1.00  0.00     0.029 A 
ATOM     63  N   UNL     1       1.611  -4.977  -2.584  1.00  0.00    -0.354 N 
ATOM     64  N   UNL     1       2.417  -2.569  -4.024  1.00  0.00    -0.248 NA
ATOM     65  C   UNL     1       3.680  -1.520  -5.683  1.00  0.00     0.031 C 
ATOM     66  C   UNL     1       2.268  -6.951  -3.364  1.00  0.00     0.029 A 
ATOM     67  C   UNL     1       2.374  -5.584  -3.568  1.00  0.00     0.049 A 
ATOM     68  H   UNL     1       1.490  -4.006  -2.481  1.00  0.00     0.167 HD
ATOM     69  C   UNL     1       3.108  -3.534  -4.749  1.00  0.00     0.074 A 
ATOM     70  C   UNL     1       3.850  -2.832  -5.776  1.00  0.00     0.031 C 
ATOM     71  C   UNL     1       3.125  -4.879  -4.578  1.00  0.00     0.037 A 
BRANCH  58  72
ATOM     72  C   UNL     1      -0.188  -6.808   0.268  1.00  0.00     0.057 A 
ATOM     73  C   UNL     1      -1.529  -7.195   0.382  1.00  0.00     0.134 A 
ATOM     74  C   UNL     1       0.758  -7.533   1.004  1.00  0.00     0.134 A 
ATOM     75  F   UNL     1      -2.488  -6.532  -0.283  1.00  0.00    -0.206 F 
ATOM     76  C   UNL     1      -1.919  -8.237   1.225  1.00  0.00     0.040 A 
ATOM     77  C   UNL     1       0.385  -8.597   1.826  1.00  0.00     0.040 A 
ATOM     78  F   UNL     1       2.061  -7.218   0.939  1.00  0.00    -0.206 F 
ATOM     79  C   UNL     1      -0.959  -8.944   1.947  1.00  0.00     0.006 A 
ENDBRANCH  58  72
BRANCH  59  80
ATOM     80  C   UNL     1       2.803   1.163  -4.890  1.00  0.00     0.057 A 
ATOM     81  C   UNL     1       2.428   1.451  -6.206  1.00  0.00     0.134 A 
ATOM     82  C   UNL     1       3.688   2.050  -4.263  1.00  0.00     0.134 A 
ATOM     83  F   UNL     1       1.608   0.623  -6.870  1.00  0.00    -0.206 F 
ATOM     84  C   UNL     1       2.912   2.577  -6.874  1.00  0.00     0.040 A 
ATOM     85  C   UNL     1       4.160   3.193  -4.909  1.00  0.00     0.040 A 
ATOM     86  F   UNL     1       4.092   1.825  -3.004  1.00  0.00    -0.206 F 
ATOM     87  C   UNL     1       3.774   3.457  -6.221  1.00  0.00     0.006 A 
ENDBRANCH  59  80
BRANCH  71  88
ATOM     88  C   UNL     1       3.968  -5.692  -5.521  1.00  0.00     0.057 A 
ATOM     89  C   UNL     1       5.367  -5.689  -5.450  1.00  0.00     0.134 A 
ATOM     90  C   UNL     1       3.373  -6.537  -6.468  1.00  0.00     0.134 A 
ATOM     91  F   UNL     1       6.001  -4.896  -4.574  1.00  0.00    -0.206 F 
ATOM     92  C   UNL     1       6.144  -6.483  -6.297  1.00  0.00     0.040 A 
ATOM     93  C   UNL     1       4.138  -7.356  -7.301  1.00  0.00     0.040 A 
ATOM     94  F   UNL     1       2.038  -6.598  -6.584  1.00  0.00    -0.206 F 
ATOM     95  C   UNL     1       5.528  -7.327  -7.219  1.00  0.00     0.006 A 
ENDBRANCH  71  88
ENDBRANCH  45  46
ENDBRANCH  38  40
ENDBRANCH  37  38
ENDBRANCH  36  37
ENDBRANCH  35  36
ENDBRANCH  34  35
ENDBRANCH  33  34
ENDBRANCH   1  33
TORSDOF 20
