REMARK SMILES CCOc1cnc(C(=O)c2[nH]c3cc(Cl)ccc3c2CC(=O)OCCOCCOCCOC(=O)c2ccc(-c3c4nc(c(-c5c(F)cccc5F)c5ccc([nH]5)c(-c5c(F)cccc5F)c5nc(c(-c6c(F)cccc6F)c6ccc3[nH]6)C=C5)C=C4)cc2)cc1CC
REMARK SMILES IDX 26 1 25 2 24 3 23 4 21 5 22 6 20 7 19 8 10 9 11 10 12 11
REMARK SMILES IDX 18 13 13 14 17 15 14 16 16 17 15 18 8 19 9 20 7 21 4 22 5 23
REMARK SMILES IDX 90 24 6 25 89 26 3 27 2 28 1 29 91 30 92 31 27 32 28 33
REMARK SMILES IDX 29 34 30 35 31 36 32 37 33 38 34 39 35 40 36 41 88 42 37 43
REMARK SMILES IDX 87 44 38 45 39 46 40 47 81 48 41 49 86 50 80 51 82 52 42 53
REMARK SMILES IDX 85 54 79 55 78 56 43 58 69 59 52 60 68 61 53 62 56 63 67 64
REMARK SMILES IDX 83 65 54 66 55 67 66 69 84 70 57 71 44 72 45 73 50 74 46 75
REMARK SMILES IDX 47 76 49 77 51 78 48 79 70 80 71 81 76 82 72 83 73 84 75 85
REMARK SMILES IDX 77 86 74 87 58 88 59 89 64 90 60 91 61 92 63 93 65 94 62 95
REMARK H PARENT 11 12 82 57 56 68
REMARK Flexibility Score: inf
ROOT
ATOM      1  O   UNL     1       9.607  -6.549   1.159  1.00  0.00    -0.376 OA
ENDROOT
BRANCH   1   2
ATOM      2  C   UNL     1      10.839  -5.920   1.482  1.00  0.00     0.202 C 
BRANCH   2   3
ATOM      3  C   UNL     1      11.349  -4.904   0.460  1.00  0.00     0.261 C 
BRANCH   3   4
ATOM      4  O   UNL     1      10.553  -3.695   0.415  1.00  0.00    -0.463 OA
BRANCH   4   5
ATOM      5  C   UNL     1      10.209  -3.262  -0.825  1.00  0.00     0.310 C 
ATOM      6  O   UNL     1      10.555  -3.833  -1.859  1.00  0.00    -0.252 OA
BRANCH   5   7
ATOM      7  C   UNL     1       9.416  -1.973  -0.899  1.00  0.00     0.161 C 
BRANCH   7   8
ATOM      8  C   UNL     1       8.873  -1.313   0.348  1.00  0.00     0.000 A 
ATOM      9  C   UNL     1       7.577  -1.412   0.870  1.00  0.00     0.093 A 
ATOM     10  N   UNL     1       7.550  -0.663   2.025  1.00  0.00    -0.351 N 
ATOM     11  C   UNL     1       8.619   0.193   2.052  1.00  0.00     0.048 A 
ATOM     12  H   UNL     1       6.864  -0.733   2.727  1.00  0.00     0.167 HD
ATOM     13  C   UNL     1       9.491  -0.217   1.045  1.00  0.00     0.004 A 
ATOM     14  C   UNL     1       8.857   1.300   2.874  1.00  0.00     0.047 A 
ATOM     15  C   UNL     1      10.677   0.521   0.852  1.00  0.00     0.012 A 
ATOM     16  C   UNL     1      10.010   2.043   2.620  1.00  0.00     0.043 A 
ATOM     17  C   UNL     1      10.912   1.663   1.630  1.00  0.00     0.021 A 
ATOM     18  Cl  UNL     1      10.299   3.477   3.529  1.00  0.00    -0.084 Cl
BRANCH   9  19
ATOM     19  C   UNL     1       6.444  -2.161   0.357  1.00  0.00     0.227 C 
ATOM     20  O   UNL     1       6.592  -3.104  -0.419  1.00  0.00    -0.285 OA
BRANCH  19  21
ATOM     21  C   UNL     1       5.049  -1.768   0.751  1.00  0.00     0.113 A 
ATOM     22  C   UNL     1       2.377  -1.276   1.094  1.00  0.00     0.140 A 
ATOM     23  C   UNL     1       2.922  -2.539   1.214  1.00  0.00     0.158 A 
ATOM     24  C   UNL     1       3.243  -0.191   0.969  1.00  0.00    -0.002 A 
ATOM     25  N   UNL     1       4.236  -2.800   1.061  1.00  0.00    -0.249 NA
ATOM     26  C   UNL     1       4.606  -0.449   0.738  1.00  0.00     0.040 A 
BRANCH  22  27
ATOM     27  O   UNL     1       1.022  -1.109   1.112  1.00  0.00    -0.492 OA
BRANCH  27  28
ATOM     28  C   UNL     1       0.471  -1.320  -0.205  1.00  0.00     0.226 C 
ATOM     29  C   UNL     1       0.127   0.007  -0.860  1.00  0.00     0.049 C 
ENDBRANCH  27  28
ENDBRANCH  22  27
BRANCH  24  30
ATOM     30  C   UNL     1       2.753   1.222   1.151  1.00  0.00     0.036 C 
ATOM     31  C   UNL     1       3.159   1.750   2.520  1.00  0.00     0.009 C 
ENDBRANCH  24  30
ENDBRANCH  19  21
ENDBRANCH   9  19
ENDBRANCH   7   8
ENDBRANCH   5   7
ENDBRANCH   4   5
ENDBRANCH   3   4
ENDBRANCH   2   3
ENDBRANCH   1   2
BRANCH   1  32
ATOM     32  C   UNL     1       8.443  -5.734   1.098  1.00  0.00     0.188 C 
BRANCH  32  33
ATOM     33  C   UNL     1       8.238  -4.663   2.187  1.00  0.00     0.188 C 
BRANCH  33  34
ATOM     34  O   UNL     1       8.736  -4.913   3.496  1.00  0.00    -0.376 OA
BRANCH  34  35
ATOM     35  C   UNL     1       8.372  -6.147   4.104  1.00  0.00     0.202 C 
BRANCH  35  36
ATOM     36  C   UNL     1       6.875  -6.286   4.356  1.00  0.00     0.261 C 
BRANCH  36  37
ATOM     37  O   UNL     1       6.186  -6.540   3.119  1.00  0.00    -0.460 OA
BRANCH  37  38
ATOM     38  C   UNL     1       4.906  -6.109   3.099  1.00  0.00     0.338 C 
ATOM     39  O   UNL     1       4.288  -5.604   4.021  1.00  0.00    -0.246 OA
BRANCH  38  40
ATOM     40  C   UNL     1       4.297  -6.327   1.774  1.00  0.00     0.060 A 
ATOM     41  C   UNL     1       4.752  -5.616   0.670  1.00  0.00     0.016 A 
ATOM     42  C   UNL     1       3.107  -7.045   1.691  1.00  0.00     0.016 A 
ATOM     43  C   UNL     1       3.933  -5.471  -0.453  1.00  0.00     0.010 A 
ATOM     44  C   UNL     1       2.340  -6.985   0.523  1.00  0.00     0.010 A 
ATOM     45  C   UNL     1       2.699  -6.128  -0.533  1.00  0.00    -0.014 A 
BRANCH  45  46
ATOM     46  C   UNL     1       1.743  -5.852  -1.647  1.00  0.00     0.031 A 
ATOM     47  C   UNL     1       0.339  -5.370  -1.347  1.00  0.00     0.074 A 
ATOM     48  C   UNL     1       2.117  -5.996  -2.934  1.00  0.00     0.049 A 
ATOM     49  N   UNL     1      -0.684  -5.227  -2.155  1.00  0.00    -0.248 NA
ATOM     50  C   UNL     1       0.049  -4.981   0.043  1.00  0.00     0.031 C 
ATOM     51  C   UNL     1       3.460  -6.351  -3.396  1.00  0.00     0.029 A 
ATOM     52  N   UNL     1       1.390  -5.875  -4.095  1.00  0.00    -0.354 N 
ATOM     53  C   UNL     1      -1.733  -4.758  -1.371  1.00  0.00     0.074 A 
ATOM     54  C   UNL     1      -1.232  -4.646  -0.020  1.00  0.00     0.031 C 
ATOM     55  C   UNL     1       3.463  -6.413  -4.734  1.00  0.00     0.029 A 
ATOM     56  C   UNL     1       2.104  -6.212  -5.220  1.00  0.00     0.049 A 
ATOM     57  H   UNL     1       0.452  -5.577  -4.118  1.00  0.00     0.167 HD
ATOM     58  C   UNL     1      -3.002  -4.455  -1.737  1.00  0.00     0.037 A 
ATOM     59  C   UNL     1       1.704  -6.416  -6.490  1.00  0.00     0.037 A 
ATOM     60  C   UNL     1      -3.520  -4.610  -3.070  1.00  0.00     0.049 A 
ATOM     61  C   UNL     1       0.252  -6.266  -6.837  1.00  0.00     0.074 A 
ATOM     62  C   UNL     1      -4.807  -4.383  -3.529  1.00  0.00     0.029 A 
ATOM     63  N   UNL     1      -2.781  -5.055  -4.155  1.00  0.00    -0.354 N 
ATOM     64  N   UNL     1      -0.741  -5.868  -6.080  1.00  0.00    -0.248 NA
ATOM     65  C   UNL     1      -0.140  -6.624  -8.207  1.00  0.00     0.031 C 
ATOM     66  C   UNL     1      -4.860  -4.751  -4.879  1.00  0.00     0.029 A 
ATOM     67  C   UNL     1      -3.594  -5.152  -5.273  1.00  0.00     0.049 A 
ATOM     68  H   UNL     1      -1.821  -5.270  -4.134  1.00  0.00     0.167 HD
ATOM     69  C   UNL     1      -1.872  -5.912  -6.885  1.00  0.00     0.074 A 
ATOM     70  C   UNL     1      -1.439  -6.362  -8.191  1.00  0.00     0.031 C 
ATOM     71  C   UNL     1      -3.154  -5.606  -6.567  1.00  0.00     0.037 A 
BRANCH  58  72
ATOM     72  C   UNL     1      -3.938  -3.990  -0.660  1.00  0.00     0.057 A 
ATOM     73  C   UNL     1      -3.877  -2.695  -0.130  1.00  0.00     0.134 A 
ATOM     74  C   UNL     1      -4.927  -4.847  -0.161  1.00  0.00     0.134 A 
ATOM     75  F   UNL     1      -2.948  -1.827  -0.559  1.00  0.00    -0.206 F 
ATOM     76  C   UNL     1      -4.754  -2.276   0.874  1.00  0.00     0.040 A 
ATOM     77  C   UNL     1      -5.822  -4.434   0.827  1.00  0.00     0.040 A 
ATOM     78  F   UNL     1      -5.042  -6.098  -0.630  1.00  0.00    -0.206 F 
ATOM     79  C   UNL     1      -5.732  -3.146   1.352  1.00  0.00     0.006 A 
ENDBRANCH  58  72
BRANCH  59  80
ATOM     80  C   UNL     1       2.689  -6.875  -7.504  1.00  0.00     0.057 A 
ATOM     81  C   UNL     1       3.064  -6.060  -8.576  1.00  0.00     0.134 A 
ATOM     82  C   UNL     1       3.288  -8.139  -7.414  1.00  0.00     0.134 A 
ATOM     83  F   UNL     1       2.503  -4.852  -8.735  1.00  0.00    -0.206 F 
ATOM     84  C   UNL     1       4.002  -6.482  -9.520  1.00  0.00     0.040 A 
ATOM     85  C   UNL     1       4.249  -8.562  -8.332  1.00  0.00     0.040 A 
ATOM     86  F   UNL     1       2.965  -8.973  -6.414  1.00  0.00    -0.206 F 
ATOM     87  C   UNL     1       4.606  -7.732  -9.392  1.00  0.00     0.006 A 
ENDBRANCH  59  80
BRANCH  71  88
ATOM     88  C   UNL     1      -4.175  -5.721  -7.659  1.00  0.00     0.057 A 
ATOM     89  C   UNL     1      -4.622  -6.963  -8.125  1.00  0.00     0.134 A 
ATOM     90  C   UNL     1      -4.734  -4.573  -8.234  1.00  0.00     0.134 A 
ATOM     91  F   UNL     1      -4.114  -8.100  -7.625  1.00  0.00    -0.206 F 
ATOM     92  C   UNL     1      -5.575  -7.060  -9.140  1.00  0.00     0.040 A 
ATOM     93  C   UNL     1      -5.706  -4.657  -9.232  1.00  0.00     0.040 A 
ATOM     94  F   UNL     1      -4.354  -3.353  -7.827  1.00  0.00    -0.206 F 
ATOM     95  C   UNL     1      -6.124  -5.904  -9.692  1.00  0.00     0.006 A 
ENDBRANCH  71  88
ENDBRANCH  45  46
ENDBRANCH  38  40
ENDBRANCH  37  38
ENDBRANCH  36  37
ENDBRANCH  35  36
ENDBRANCH  34  35
ENDBRANCH  33  34
ENDBRANCH  32  33
ENDBRANCH   1  32
TORSDOF 23
