REMARK SMILES C/C(=N\NC(N)=S)c1nnn(-c2ccc(C(=O)OCCOCCOCCOC(=O)c3ccc(-c4c5nc(c(-c6c(F)cccc6F)c6ccc([nH]6)c(-c6c(F)cccc6F)c6nc(c(-c7c(F)cccc7F)c7ccc4[nH]7)C=C6)C=C5)cc3)cc2)c1C
REMARK SMILES IDX 21 1 20 2 19 3 18 4 16 5 17 6 15 7 12 8 13 9 85 10 14 11
REMARK SMILES IDX 84 12 11 13 8 14 9 15 86 16 10 17 87 18 2 19 1 20 3 21 4 22
REMARK SMILES IDX 5 24 7 25 6 26 22 29 23 30 24 31 25 32 26 33 27 34 28 35
REMARK SMILES IDX 29 36 30 37 31 38 83 39 32 40 82 41 33 42 34 43 35 44 76 45
REMARK SMILES IDX 36 46 81 47 75 48 77 49 37 50 80 51 74 52 73 53 38 55 64 56
REMARK SMILES IDX 47 57 63 58 48 59 51 60 62 61 78 62 49 63 50 64 61 66 79 67
REMARK SMILES IDX 52 68 39 69 40 70 45 71 41 72 42 73 44 74 46 75 43 76 65 77
REMARK SMILES IDX 66 78 71 79 67 80 68 81 70 82 72 83 69 84 53 85 54 86 59 87
REMARK SMILES IDX 55 88 56 89 58 90 60 91 57 92
REMARK H PARENT 4 23 6 27 6 28 77 54 51 65
REMARK Flexibility Score: inf
ROOT
ATOM      1  O   UNL     1       8.767  -5.889  -7.352  1.00  0.00    -0.376 OA
ENDROOT
BRANCH   1   2
ATOM      2  C   UNL     1       9.752  -5.065  -6.750  1.00  0.00     0.202 C 
BRANCH   2   3
ATOM      3  C   UNL     1       9.515  -3.993  -5.668  1.00  0.00     0.261 C 
BRANCH   3   4
ATOM      4  O   UNL     1       8.277  -4.026  -4.964  1.00  0.00    -0.460 OA
BRANCH   4   5
ATOM      5  C   UNL     1       7.375  -3.079  -5.310  1.00  0.00     0.338 C 
ATOM      6  O   UNL     1       7.515  -2.201  -6.148  1.00  0.00    -0.246 OA
BRANCH   5   7
ATOM      7  C   UNL     1       6.091  -3.353  -4.631  1.00  0.00     0.060 A 
ATOM      8  C   UNL     1       3.656  -3.597  -3.347  1.00  0.00     0.067 A 
ATOM      9  C   UNL     1       3.665  -3.305  -4.714  1.00  0.00     0.029 A 
ATOM     10  C   UNL     1       4.835  -3.915  -2.660  1.00  0.00     0.029 A 
ATOM     11  C   UNL     1       4.898  -3.156  -5.348  1.00  0.00     0.018 A 
ATOM     12  C   UNL     1       6.059  -3.799  -3.307  1.00  0.00     0.018 A 
BRANCH   8  13
ATOM     13  N   UNL     1       2.515  -3.267  -2.592  1.00  0.00    -0.217 N 
ATOM     14  C   UNL     1       1.134  -2.214  -1.284  1.00  0.00     0.132 A 
ATOM     15  N   UNL     1       0.423  -3.084  -2.071  1.00  0.00    -0.128 NA
ATOM     16  C   UNL     1       2.467  -2.271  -1.632  1.00  0.00     0.071 A 
ATOM     17  N   UNL     1       1.266  -3.651  -2.929  1.00  0.00    -0.061 NA
ATOM     18  C   UNL     1       3.612  -1.402  -1.264  1.00  0.00     0.069 C 
BRANCH  14  19
ATOM     19  C   UNL     1       0.509  -1.254  -0.395  1.00  0.00     0.087 C 
ATOM     20  C   UNL     1       0.358   0.150  -0.923  1.00  0.00     0.071 C 
ATOM     21  N   UNL     1       0.144  -1.716   0.764  1.00  0.00    -0.176 NA
BRANCH  21  22
ATOM     22  N   UNL     1      -0.472  -0.914   1.680  1.00  0.00    -0.254 N 
ATOM     23  H   UNL     1      -1.419  -1.108   1.863  1.00  0.00     0.193 HD
BRANCH  22  24
ATOM     24  C   UNL     1       0.083   0.139   2.381  1.00  0.00     0.184 C 
ATOM     25  S   UNL     1       1.588   0.832   2.233  1.00  0.00    -0.040 S 
BRANCH  24  26
ATOM     26  N   UNL     1      -0.778   0.649   3.313  1.00  0.00    -0.375 N 
ATOM     27  H   UNL     1      -1.675   0.257   3.421  1.00  0.00     0.159 HD
ATOM     28  H   UNL     1      -0.502   1.408   3.876  1.00  0.00     0.159 HD
ENDBRANCH  24  26
ENDBRANCH  22  24
ENDBRANCH  21  22
ENDBRANCH  14  19
ENDBRANCH   8  13
ENDBRANCH   5   7
ENDBRANCH   4   5
ENDBRANCH   3   4
ENDBRANCH   2   3
ENDBRANCH   1   2
BRANCH   1  29
ATOM     29  C   UNL     1       7.410  -5.796  -6.993  1.00  0.00     0.188 C 
BRANCH  29  30
ATOM     30  C   UNL     1       6.953  -6.526  -5.714  1.00  0.00     0.188 C 
BRANCH  30  31
ATOM     31  O   UNL     1       7.863  -6.855  -4.683  1.00  0.00    -0.376 OA
BRANCH  31  32
ATOM     32  C   UNL     1       8.969  -7.720  -4.874  1.00  0.00     0.202 C 
BRANCH  32  33
ATOM     33  C   UNL     1       9.026  -8.854  -5.893  1.00  0.00     0.261 C 
BRANCH  33  34
ATOM     34  O   UNL     1       8.220  -8.704  -7.040  1.00  0.00    -0.460 OA
BRANCH  34  35
ATOM     35  C   UNL     1       7.035  -9.338  -6.934  1.00  0.00     0.338 C 
ATOM     36  O   UNL     1       6.506  -9.763  -5.920  1.00  0.00    -0.246 OA
BRANCH  35  37
ATOM     37  C   UNL     1       6.507  -9.568  -8.274  1.00  0.00     0.060 A 
ATOM     38  C   UNL     1       5.175  -9.973  -8.356  1.00  0.00     0.016 A 
ATOM     39  C   UNL     1       7.415  -9.729  -9.330  1.00  0.00     0.016 A 
ATOM     40  C   UNL     1       4.809 -10.756  -9.423  1.00  0.00     0.010 A 
ATOM     41  C   UNL     1       7.055 -10.532 -10.380  1.00  0.00     0.010 A 
ATOM     42  C   UNL     1       5.786 -11.103 -10.363  1.00  0.00    -0.014 A 
BRANCH  42  43
ATOM     43  C   UNL     1       5.405 -12.020 -11.412  1.00  0.00     0.031 A 
ATOM     44  C   UNL     1       4.555 -11.374 -12.431  1.00  0.00     0.074 A 
ATOM     45  C   UNL     1       5.869 -13.281 -11.471  1.00  0.00     0.049 A 
ATOM     46  N   UNL     1       3.314 -11.614 -12.682  1.00  0.00    -0.248 NA
ATOM     47  C   UNL     1       5.096 -10.191 -13.121  1.00  0.00     0.031 C 
ATOM     48  C   UNL     1       6.927 -13.892 -10.662  1.00  0.00     0.029 A 
ATOM     49  N   UNL     1       5.556 -14.265 -12.355  1.00  0.00    -0.354 N 
ATOM     50  C   UNL     1       2.983 -10.763 -13.729  1.00  0.00     0.074 A 
ATOM     51  C   UNL     1       4.029  -9.779 -13.805  1.00  0.00     0.031 C 
ATOM     52  C   UNL     1       7.323 -15.045 -11.250  1.00  0.00     0.029 A 
ATOM     53  C   UNL     1       6.472 -15.307 -12.399  1.00  0.00     0.049 A 
ATOM     54  H   UNL     1       4.748 -14.240 -12.916  1.00  0.00     0.167 HD
ATOM     55  C   UNL     1       2.042 -11.129 -14.638  1.00  0.00     0.037 A 
ATOM     56  C   UNL     1       6.559 -16.253 -13.370  1.00  0.00     0.037 A 
ATOM     57  C   UNL     1       1.178 -12.154 -14.103  1.00  0.00     0.049 A 
ATOM     58  C   UNL     1       5.278 -16.244 -14.123  1.00  0.00     0.074 A 
ATOM     59  C   UNL     1       0.369 -12.254 -12.987  1.00  0.00     0.029 A 
ATOM     60  N   UNL     1       1.360 -13.440 -14.550  1.00  0.00    -0.354 N 
ATOM     61  N   UNL     1       4.146 -16.675 -13.645  1.00  0.00    -0.248 NA
ATOM     62  C   UNL     1       5.169 -15.331 -15.254  1.00  0.00     0.031 C 
ATOM     63  C   UNL     1       0.500 -13.605 -12.552  1.00  0.00     0.029 A 
ATOM     64  C   UNL     1       1.325 -14.269 -13.460  1.00  0.00     0.049 A 
ATOM     65  H   UNL     1       1.491 -13.716 -15.485  1.00  0.00     0.167 HD
ATOM     66  C   UNL     1       3.205 -15.759 -14.094  1.00  0.00     0.074 A 
ATOM     67  C   UNL     1       3.876 -15.011 -15.154  1.00  0.00     0.031 C 
ATOM     68  C   UNL     1       2.080 -15.495 -13.367  1.00  0.00     0.037 A 
BRANCH  55  69
ATOM     69  C   UNL     1       2.196 -10.887 -16.121  1.00  0.00     0.057 A 
ATOM     70  C   UNL     1       1.139 -11.249 -16.973  1.00  0.00     0.134 A 
ATOM     71  C   UNL     1       3.420 -10.618 -16.772  1.00  0.00     0.134 A 
ATOM     72  F   UNL     1      -0.075 -11.538 -16.478  1.00  0.00    -0.206 F 
ATOM     73  C   UNL     1       1.312 -11.427 -18.350  1.00  0.00     0.040 A 
ATOM     74  C   UNL     1       3.589 -10.739 -18.152  1.00  0.00     0.040 A 
ATOM     75  F   UNL     1       4.547 -10.323 -16.116  1.00  0.00    -0.206 F 
ATOM     76  C   UNL     1       2.544 -11.183 -18.942  1.00  0.00     0.006 A 
ENDBRANCH  55  69
BRANCH  56  77
ATOM     77  C   UNL     1       7.760 -16.947 -13.894  1.00  0.00     0.057 A 
ATOM     78  C   UNL     1       7.636 -18.080 -14.714  1.00  0.00     0.134 A 
ATOM     79  C   UNL     1       9.038 -16.364 -13.842  1.00  0.00     0.134 A 
ATOM     80  F   UNL     1       6.450 -18.687 -14.863  1.00  0.00    -0.206 F 
ATOM     81  C   UNL     1       8.710 -18.582 -15.462  1.00  0.00     0.040 A 
ATOM     82  C   UNL     1      10.121 -16.862 -14.575  1.00  0.00     0.040 A 
ATOM     83  F   UNL     1       9.261 -15.237 -13.152  1.00  0.00    -0.206 F 
ATOM     84  C   UNL     1       9.955 -17.965 -15.403  1.00  0.00     0.006 A 
ENDBRANCH  56  77
BRANCH  68  85
ATOM     85  C   UNL     1       1.730 -16.426 -12.240  1.00  0.00     0.057 A 
ATOM     86  C   UNL     1       2.542 -16.664 -11.121  1.00  0.00     0.134 A 
ATOM     87  C   UNL     1       0.454 -17.002 -12.231  1.00  0.00     0.134 A 
ATOM     88  F   UNL     1       3.737 -16.073 -10.988  1.00  0.00    -0.206 F 
ATOM     89  C   UNL     1       2.119 -17.482 -10.068  1.00  0.00     0.040 A 
ATOM     90  C   UNL     1       0.006 -17.788 -11.168  1.00  0.00     0.040 A 
ATOM     91  F   UNL     1      -0.399 -16.774 -13.243  1.00  0.00    -0.206 F 
ATOM     92  C   UNL     1       0.845 -18.041 -10.087  1.00  0.00     0.006 A 
ENDBRANCH  68  85
ENDBRANCH  42  43
ENDBRANCH  35  37
ENDBRANCH  34  35
ENDBRANCH  33  34
ENDBRANCH  32  33
ENDBRANCH  31  32
ENDBRANCH  30  31
ENDBRANCH  29  30
ENDBRANCH   1  29
TORSDOF 22
