REMARK SMILES CC(=O)c1cc(C(=O)N(CC(=O)OCCOCCOCCOC(=O)c2ccc(-c3c4nc(c(-c5c(F)cccc5F)c5ccc([nH]5)c(-c5c(F)cccc5F)c5nc(c(-c6c(F)cccc6F)c6ccc3[nH]6)C=C5)C=C4)cc2)C(C)(C)C)n(C)c1
REMARK SMILES IDX 17 1 16 2 15 3 14 4 13 5 11 6 12 7 10 8 9 9 7 10 8 11 6 12
REMARK SMILES IDX 4 13 5 14 85 15 83 16 84 17 2 18 1 19 3 20 79 21 80 22 81 23
REMARK SMILES IDX 82 24 18 25 19 26 20 27 21 28 22 29 23 30 24 31 25 32 26 33
REMARK SMILES IDX 78 34 27 35 77 36 28 37 29 38 30 39 71 40 31 41 76 42 70 43
REMARK SMILES IDX 72 44 32 45 75 46 69 47 68 48 33 50 59 51 42 52 58 53 43 54
REMARK SMILES IDX 46 55 57 56 73 57 44 58 45 59 56 61 74 62 47 63 34 64 35 65
REMARK SMILES IDX 40 66 36 67 37 68 39 69 41 70 38 71 60 72 61 73 66 74 62 75
REMARK SMILES IDX 63 76 65 77 67 78 64 79 48 80 49 81 54 82 50 83 51 84 53 85
REMARK SMILES IDX 55 86 52 87
REMARK H PARENT 72 49 46 60
REMARK Flexibility Score: inf
ROOT
ATOM      1  C   UNL     1       1.209   4.279   9.494  1.00  0.00     0.188 C 
ENDROOT
BRANCH   1   2
ATOM      2  O   UNL     1      -0.082   3.676   9.536  1.00  0.00    -0.376 OA
BRANCH   2   3
ATOM      3  C   UNL     1      -0.216   2.318   9.150  1.00  0.00     0.202 C 
BRANCH   3   4
ATOM      4  C   UNL     1      -0.466   2.102   7.652  1.00  0.00     0.261 C 
BRANCH   4   5
ATOM      5  O   UNL     1       0.536   2.653   6.764  1.00  0.00    -0.462 OA
BRANCH   5   6
ATOM      6  C   UNL     1       0.278   3.918   6.348  1.00  0.00     0.325 C 
ATOM      7  O   UNL     1      -0.647   4.608   6.771  1.00  0.00    -0.250 OA
BRANCH   6   8
ATOM      8  C   UNL     1       1.014   4.340   5.075  1.00  0.00     0.243 C 
BRANCH   8   9
ATOM      9  N   UNL     1       2.362   4.082   4.527  1.00  0.00    -0.321 N 
BRANCH   9  10
ATOM     10  C   UNL     1       2.564   3.348   3.346  1.00  0.00     0.271 C 
ATOM     11  O   UNL     1       3.682   2.889   3.101  1.00  0.00    -0.267 OA
BRANCH  10  12
ATOM     12  C   UNL     1       1.489   3.084   2.386  1.00  0.00     0.107 A 
ATOM     13  C   UNL     1       0.396   1.944   0.713  1.00  0.00     0.036 A 
ATOM     14  C   UNL     1       1.547   1.986   1.530  1.00  0.00     0.045 A 
ATOM     15  C   UNL     1      -0.348   3.047   1.071  1.00  0.00     0.097 A 
ATOM     16  N   UNL     1       0.360   3.787   1.991  1.00  0.00    -0.346 N 
ATOM     17  C   UNL     1      -0.081   5.119   2.359  1.00  0.00     0.150 C 
BRANCH  13  18
ATOM     18  C   UNL     1       0.039   0.968  -0.310  1.00  0.00     0.161 C 
ATOM     19  C   UNL     1       0.925  -0.245  -0.451  1.00  0.00     0.093 C 
ATOM     20  O   UNL     1      -0.955   1.110  -1.020  1.00  0.00    -0.294 OA
ENDBRANCH  13  18
ENDBRANCH  10  12
ENDBRANCH   9  10
BRANCH   9  21
ATOM     21  C   UNL     1       3.584   4.649   5.204  1.00  0.00     0.036 C 
ATOM     22  C   UNL     1       4.370   3.547   5.945  1.00  0.00     0.034 C 
ATOM     23  C   UNL     1       4.554   5.353   4.209  1.00  0.00     0.034 C 
ATOM     24  C   UNL     1       3.214   5.758   6.196  1.00  0.00     0.034 C 
ENDBRANCH   9  21
ENDBRANCH   8   9
ENDBRANCH   6   8
ENDBRANCH   5   6
ENDBRANCH   4   5
ENDBRANCH   3   4
ENDBRANCH   2   3
ENDBRANCH   1   2
BRANCH   1  25
ATOM     25  C   UNL     1       2.424   3.436   9.105  1.00  0.00     0.188 C 
BRANCH  25  26
ATOM     26  O   UNL     1       2.704   2.462  10.108  1.00  0.00    -0.376 OA
BRANCH  26  27
ATOM     27  C   UNL     1       4.101   2.293  10.324  1.00  0.00     0.202 C 
BRANCH  27  28
ATOM     28  C   UNL     1       4.561   3.180  11.485  1.00  0.00     0.261 C 
BRANCH  28  29
ATOM     29  O   UNL     1       4.142   4.559  11.377  1.00  0.00    -0.460 OA
BRANCH  29  30
ATOM     30  C   UNL     1       4.921   5.357  10.623  1.00  0.00     0.338 C 
ATOM     31  O   UNL     1       5.902   5.022   9.971  1.00  0.00    -0.246 OA
BRANCH  30  32
ATOM     32  C   UNL     1       4.347   6.715  10.569  1.00  0.00     0.060 A 
ATOM     33  C   UNL     1       3.703   7.108   9.398  1.00  0.00     0.016 A 
ATOM     34  C   UNL     1       4.556   7.643  11.584  1.00  0.00     0.016 A 
ATOM     35  C   UNL     1       3.340   8.437   9.182  1.00  0.00     0.010 A 
ATOM     36  C   UNL     1       4.152   8.973  11.391  1.00  0.00     0.010 A 
ATOM     37  C   UNL     1       3.579   9.394  10.172  1.00  0.00    -0.014 A 
BRANCH  37  38
ATOM     38  C   UNL     1       3.346  10.843   9.904  1.00  0.00     0.031 A 
ATOM     39  C   UNL     1       4.519  11.789   9.917  1.00  0.00     0.074 A 
ATOM     40  C   UNL     1       2.120  11.326   9.624  1.00  0.00     0.049 A 
ATOM     41  N   UNL     1       4.535  13.097   9.958  1.00  0.00    -0.248 NA
ATOM     42  C   UNL     1       5.854  11.172   9.884  1.00  0.00     0.031 C 
ATOM     43  C   UNL     1       0.904  10.528   9.471  1.00  0.00     0.029 A 
ATOM     44  N   UNL     1       1.695  12.619   9.426  1.00  0.00    -0.354 N 
ATOM     45  C   UNL     1       5.876  13.456  10.024  1.00  0.00     0.074 A 
ATOM     46  C   UNL     1       6.644  12.230  10.004  1.00  0.00     0.031 C 
ATOM     47  C   UNL     1      -0.126  11.345   9.198  1.00  0.00     0.029 A 
ATOM     48  C   UNL     1       0.337  12.729   9.242  1.00  0.00     0.049 A 
ATOM     49  H   UNL     1       2.305  13.392   9.416  1.00  0.00     0.167 HD
ATOM     50  C   UNL     1       6.416  14.696  10.104  1.00  0.00     0.037 A 
ATOM     51  C   UNL     1      -0.454  13.818   9.176  1.00  0.00     0.037 A 
ATOM     52  C   UNL     1       5.652  15.916  10.070  1.00  0.00     0.049 A 
ATOM     53  C   UNL     1       0.155  15.185   9.332  1.00  0.00     0.074 A 
ATOM     54  C   UNL     1       6.103  17.222  10.156  1.00  0.00     0.029 A 
ATOM     55  N   UNL     1       4.275  15.977   9.919  1.00  0.00    -0.354 N 
ATOM     56  N   UNL     1       1.414  15.517   9.489  1.00  0.00    -0.248 NA
ATOM     57  C   UNL     1      -0.770  16.329   9.330  1.00  0.00     0.031 C 
ATOM     58  C   UNL     1       4.995  18.073  10.089  1.00  0.00     0.029 A 
ATOM     59  C   UNL     1       3.859  17.298   9.920  1.00  0.00     0.049 A 
ATOM     60  H   UNL     1       3.682  15.198   9.825  1.00  0.00     0.167 HD
ATOM     61  C   UNL     1       1.434  16.902   9.588  1.00  0.00     0.074 A 
ATOM     62  C   UNL     1       0.064  17.352   9.458  1.00  0.00     0.031 C 
ATOM     63  C   UNL     1       2.492  17.728   9.775  1.00  0.00     0.037 A 
BRANCH  50  64
ATOM     64  C   UNL     1       7.902  14.793  10.289  1.00  0.00     0.057 A 
ATOM     65  C   UNL     1       8.806  14.529   9.253  1.00  0.00     0.134 A 
ATOM     66  C   UNL     1       8.433  15.179  11.528  1.00  0.00     0.134 A 
ATOM     67  F   UNL     1       8.363  14.139   8.049  1.00  0.00    -0.206 F 
ATOM     68  C   UNL     1      10.185  14.622   9.449  1.00  0.00     0.040 A 
ATOM     69  C   UNL     1       9.809  15.299  11.728  1.00  0.00     0.040 A 
ATOM     70  F   UNL     1       7.623  15.451  12.562  1.00  0.00    -0.206 F 
ATOM     71  C   UNL     1      10.690  15.014  10.688  1.00  0.00     0.006 A 
ENDBRANCH  50  64
BRANCH  51  72
ATOM     72  C   UNL     1      -1.923  13.662   9.016  1.00  0.00     0.057 A 
ATOM     73  C   UNL     1      -2.573  14.067   7.844  1.00  0.00     0.134 A 
ATOM     74  C   UNL     1      -2.715  13.117  10.035  1.00  0.00     0.134 A 
ATOM     75  F   UNL     1      -1.875  14.625   6.844  1.00  0.00    -0.206 F 
ATOM     76  C   UNL     1      -3.955  13.941   7.693  1.00  0.00     0.040 A 
ATOM     77  C   UNL     1      -4.094  12.960   9.887  1.00  0.00     0.040 A 
ATOM     78  F   UNL     1      -2.155  12.716  11.185  1.00  0.00    -0.206 F 
ATOM     79  C   UNL     1      -4.718  13.378   8.714  1.00  0.00     0.006 A 
ENDBRANCH  51  72
BRANCH  63  80
ATOM     80  C   UNL     1       2.216  19.202   9.810  1.00  0.00     0.057 A 
ATOM     81  C   UNL     1       1.631  19.817  10.924  1.00  0.00     0.134 A 
ATOM     82  C   UNL     1       2.582  20.020   8.734  1.00  0.00     0.134 A 
ATOM     83  F   UNL     1       1.247  19.085  11.980  1.00  0.00    -0.206 F 
ATOM     84  C   UNL     1       1.405  21.194  10.959  1.00  0.00     0.040 A 
ATOM     85  C   UNL     1       2.381  21.400   8.766  1.00  0.00     0.040 A 
ATOM     86  F   UNL     1       3.154  19.492   7.641  1.00  0.00    -0.206 F 
ATOM     87  C   UNL     1       1.786  21.990   9.880  1.00  0.00     0.006 A 
ENDBRANCH  63  80
ENDBRANCH  37  38
ENDBRANCH  30  32
ENDBRANCH  29  30
ENDBRANCH  28  29
ENDBRANCH  27  28
ENDBRANCH  26  27
ENDBRANCH  25  26
ENDBRANCH   1  25
TORSDOF 22
