REMARK SMILES CC[C@](C)(NC(=O)c1nc2nccc(C)n2n1)C(=O)OCCOCCOCCOC(=O)c1ccc(-c2c3nc(c(-c4c(F)cccc4F)c4ccc([nH]4)c(-c4c(F)cccc4F)c4nc(c(-c5c(F)cccc5F)c5ccc2[nH]5)C=C4)C=C3)cc1
REMARK SMILES IDX 24 1 23 2 22 3 21 4 20 5 18 6 19 7 3 8 4 9 2 10 1 11 5 12
REMARK SMILES IDX 6 13 7 15 8 16 9 17 17 18 10 19 16 20 11 21 14 22 12 23
REMARK SMILES IDX 13 24 15 25 25 26 26 27 27 28 28 29 29 30 30 31 31 32 32 33
REMARK SMILES IDX 33 34 85 35 34 36 84 37 35 38 36 39 37 40 78 41 38 42 83 43
REMARK SMILES IDX 77 44 79 45 39 46 82 47 76 48 75 49 40 51 66 52 49 53 65 54
REMARK SMILES IDX 50 55 53 56 64 57 80 58 51 59 52 60 63 62 81 63 54 64 41 65
REMARK SMILES IDX 42 66 47 67 43 68 44 69 46 70 48 71 45 72 67 73 68 74 73 75
REMARK SMILES IDX 69 76 70 77 72 78 74 79 71 80 55 81 56 82 61 83 57 84 58 85
REMARK SMILES IDX 60 86 62 87 59 88
REMARK H PARENT 5 14 79 50 53 61
REMARK Flexibility Score: inf
ROOT
ATOM      1  C   UNL     1       3.085   2.861   1.234  1.00  0.00     0.188 C 
ENDROOT
BRANCH   1   2
ATOM      2  O   UNL     1       4.456   2.569   1.444  1.00  0.00    -0.376 OA
BRANCH   2   3
ATOM      3  C   UNL     1       5.138   1.766   0.476  1.00  0.00     0.202 C 
BRANCH   3   4
ATOM      4  C   UNL     1       4.528   1.197  -0.835  1.00  0.00     0.261 C 
BRANCH   4   5
ATOM      5  O   UNL     1       3.427   1.926  -1.375  1.00  0.00    -0.462 OA
BRANCH   5   6
ATOM      6  C   UNL     1       2.210   1.351  -1.240  1.00  0.00     0.331 C 
ATOM      7  O   UNL     1       2.054   0.155  -1.007  1.00  0.00    -0.249 OA
BRANCH   6   8
ATOM      8  C   UNL     1       1.027   2.372  -1.363  1.00  0.00     0.135 C 
ATOM      9  C   UNL     1       0.079   2.010  -0.159  1.00  0.00     0.047 C 
BRANCH   8  10
ATOM     10  C   UNL     1       0.263   2.145  -2.692  1.00  0.00     0.037 C 
ATOM     11  C   UNL     1       0.203   0.708  -3.192  1.00  0.00     0.007 C 
ENDBRANCH   8  10
BRANCH   8  12
ATOM     12  N   UNL     1       1.281   3.860  -1.248  1.00  0.00    -0.334 N 
ATOM     13  C   UNL     1       2.072   4.751  -1.971  1.00  0.00     0.291 C 
ATOM     14  H   UNL     1       0.786   4.286  -0.511  1.00  0.00     0.165 HD
ATOM     15  O   UNL     1       1.485   5.712  -2.477  1.00  0.00    -0.266 OA
BRANCH  13  16
ATOM     16  C   UNL     1       3.555   4.716  -1.877  1.00  0.00     0.241 A 
ATOM     17  N   UNL     1       4.221   5.363  -0.859  1.00  0.00    -0.184 NA
ATOM     18  N   UNL     1       4.391   4.181  -2.788  1.00  0.00    -0.139 NA
ATOM     19  C   UNL     1       5.470   5.005  -0.978  1.00  0.00     0.253 A 
ATOM     20  N   UNL     1       5.608   4.316  -2.180  1.00  0.00    -0.201 N 
ATOM     21  N   UNL     1       6.509   5.181  -0.107  1.00  0.00    -0.220 NA
ATOM     22  C   UNL     1       6.862   3.830  -2.573  1.00  0.00     0.045 A 
ATOM     23  C   UNL     1       7.640   4.660  -0.457  1.00  0.00     0.117 A 
ATOM     24  C   UNL     1       7.912   3.965  -1.741  1.00  0.00     0.044 A 
ATOM     25  C   UNL     1       6.968   3.194  -3.916  1.00  0.00     0.067 C 
ENDBRANCH  13  16
ENDBRANCH   8  12
ENDBRANCH   6   8
ENDBRANCH   5   6
ENDBRANCH   4   5
ENDBRANCH   3   4
ENDBRANCH   2   3
ENDBRANCH   1   2
BRANCH   1  26
ATOM     26  C   UNL     1       2.572   4.091   1.974  1.00  0.00     0.188 C 
BRANCH  26  27
ATOM     27  O   UNL     1       2.750   5.240   1.160  1.00  0.00    -0.376 OA
BRANCH  27  28
ATOM     28  C   UNL     1       3.139   6.503   1.692  1.00  0.00     0.202 C 
BRANCH  28  29
ATOM     29  C   UNL     1       4.524   6.582   2.362  1.00  0.00     0.261 C 
BRANCH  29  30
ATOM     30  O   UNL     1       4.647   5.678   3.446  1.00  0.00    -0.460 OA
BRANCH  30  31
ATOM     31  C   UNL     1       3.682   5.842   4.347  1.00  0.00     0.338 C 
ATOM     32  O   UNL     1       2.956   6.837   4.526  1.00  0.00    -0.246 OA
BRANCH  31  33
ATOM     33  C   UNL     1       3.510   4.588   5.059  1.00  0.00     0.060 A 
ATOM     34  C   UNL     1       2.223   4.395   5.569  1.00  0.00     0.016 A 
ATOM     35  C   UNL     1       4.679   4.128   5.657  1.00  0.00     0.016 A 
ATOM     36  C   UNL     1       2.148   4.208   6.911  1.00  0.00     0.010 A 
ATOM     37  C   UNL     1       4.612   4.011   7.005  1.00  0.00     0.010 A 
ATOM     38  C   UNL     1       3.362   4.188   7.600  1.00  0.00    -0.014 A 
BRANCH  38  39
ATOM     39  C   UNL     1       3.298   4.389   9.012  1.00  0.00     0.031 A 
ATOM     40  C   UNL     1       3.103   3.118   9.705  1.00  0.00     0.074 A 
ATOM     41  C   UNL     1       3.458   5.609   9.543  1.00  0.00     0.049 A 
ATOM     42  N   UNL     1       1.990   2.635  10.142  1.00  0.00    -0.248 NA
ATOM     43  C   UNL     1       4.204   2.147   9.614  1.00  0.00     0.031 C 
ATOM     44  C   UNL     1       3.932   6.842   8.910  1.00  0.00     0.029 A 
ATOM     45  N   UNL     1       3.308   5.957  10.841  1.00  0.00    -0.354 N 
ATOM     46  C   UNL     1       2.332   1.375  10.610  1.00  0.00     0.074 A 
ATOM     47  C   UNL     1       3.568   1.032   9.969  1.00  0.00     0.031 C 
ATOM     48  C   UNL     1       4.246   7.735   9.878  1.00  0.00     0.029 A 
ATOM     49  C   UNL     1       3.879   7.175  11.168  1.00  0.00     0.049 A 
ATOM     50  H   UNL     1       2.836   5.393  11.495  1.00  0.00     0.167 HD
ATOM     51  C   UNL     1       1.786   0.906  11.761  1.00  0.00     0.037 A 
ATOM     52  C   UNL     1       4.118   7.573  12.440  1.00  0.00     0.037 A 
ATOM     53  C   UNL     1       0.582   1.641  12.090  1.00  0.00     0.049 A 
ATOM     54  C   UNL     1       3.284   6.715  13.335  1.00  0.00     0.074 A 
ATOM     55  C   UNL     1      -0.623   1.868  11.453  1.00  0.00     0.029 A 
ATOM     56  N   UNL     1       0.677   2.603  13.069  1.00  0.00    -0.354 N 
ATOM     57  N   UNL     1       1.981   6.778  13.392  1.00  0.00    -0.248 NA
ATOM     58  C   UNL     1       3.857   5.459  13.805  1.00  0.00     0.031 C 
ATOM     59  C   UNL     1      -0.991   3.203  11.798  1.00  0.00     0.029 A 
ATOM     60  C   UNL     1      -0.016   3.712  12.657  1.00  0.00     0.049 A 
ATOM     61  H   UNL     1       1.160   2.511  13.922  1.00  0.00     0.167 HD
ATOM     62  C   UNL     1       1.556   5.458  13.507  1.00  0.00     0.074 A 
ATOM     63  C   UNL     1       2.756   4.702  13.848  1.00  0.00     0.031 C 
ATOM     64  C   UNL     1       0.339   5.066  13.023  1.00  0.00     0.037 A 
BRANCH  51  65
ATOM     65  C   UNL     1       2.582   0.139  12.796  1.00  0.00     0.057 A 
ATOM     66  C   UNL     1       3.992   0.069  12.882  1.00  0.00     0.134 A 
ATOM     67  C   UNL     1       1.904  -0.306  13.942  1.00  0.00     0.134 A 
ATOM     68  F   UNL     1       4.818   0.442  11.900  1.00  0.00    -0.206 F 
ATOM     69  C   UNL     1       4.667  -0.319  14.039  1.00  0.00     0.040 A 
ATOM     70  C   UNL     1       2.571  -0.656  15.120  1.00  0.00     0.040 A 
ATOM     71  F   UNL     1       0.563  -0.328  13.982  1.00  0.00    -0.206 F 
ATOM     72  C   UNL     1       3.958  -0.641  15.179  1.00  0.00     0.006 A 
ENDBRANCH  51  65
BRANCH  52  73
ATOM     73  C   UNL     1       5.248   8.387  12.931  1.00  0.00     0.057 A 
ATOM     74  C   UNL     1       6.496   8.400  12.281  1.00  0.00     0.134 A 
ATOM     75  C   UNL     1       5.206   8.985  14.196  1.00  0.00     0.134 A 
ATOM     76  F   UNL     1       6.675   7.782  11.105  1.00  0.00    -0.206 F 
ATOM     77  C   UNL     1       7.635   8.970  12.856  1.00  0.00     0.040 A 
ATOM     78  C   UNL     1       6.342   9.550  14.789  1.00  0.00     0.040 A 
ATOM     79  F   UNL     1       4.071   8.982  14.911  1.00  0.00    -0.206 F 
ATOM     80  C   UNL     1       7.563   9.538  14.121  1.00  0.00     0.006 A 
ENDBRANCH  52  73
BRANCH  64  81
ATOM     81  C   UNL     1      -0.615   6.153  12.610  1.00  0.00     0.057 A 
ATOM     82  C   UNL     1      -1.861   6.241  13.236  1.00  0.00     0.134 A 
ATOM     83  C   UNL     1      -0.381   7.027  11.536  1.00  0.00     0.134 A 
ATOM     84  F   UNL     1      -2.179   5.396  14.229  1.00  0.00    -0.206 F 
ATOM     85  C   UNL     1      -2.825   7.167  12.830  1.00  0.00     0.040 A 
ATOM     86  C   UNL     1      -1.322   7.981  11.142  1.00  0.00     0.040 A 
ATOM     87  F   UNL     1       0.743   6.942  10.812  1.00  0.00    -0.206 F 
ATOM     88  C   UNL     1      -2.552   8.051  11.789  1.00  0.00     0.006 A 
ENDBRANCH  64  81
ENDBRANCH  38  39
ENDBRANCH  31  33
ENDBRANCH  30  31
ENDBRANCH  29  30
ENDBRANCH  28  29
ENDBRANCH  27  28
ENDBRANCH  26  27
ENDBRANCH   1  26
TORSDOF 20
