REMARK SMILES O=C(CCCN1C(=O)C(=O)/C(=C(/[O-])c2ccc(Cl)cc2)[C@@H]1c1ccccc1[N+](=O)[O-])OCCOCCOCCOC(=O)c1ccc(-c2c3nc(c(-c4c(F)cccc4F)c4ccc([nH]4)c(-c4c(F)cccc4F)c4nc(c(-c5c(F)cccc5F)c5ccc2[nH]5)C=C4)C=C3)cc1
REMARK SMILES IDX 34 1 33 2 32 3 31 4 2 5 1 6 3 7 4 8 5 9 6 10 7 11 21 12 8 13
REMARK SMILES IDX 9 14 11 15 10 16 12 17 13 18 22 19 23 20 27 21 24 22 26 23
REMARK SMILES IDX 25 24 28 25 29 26 30 27 14 28 15 29 20 30 16 31 19 32 17 33
REMARK SMILES IDX 18 34 35 35 36 36 37 37 38 38 39 39 40 40 41 41 42 42 43 43
REMARK SMILES IDX 44 44 96 45 45 46 95 47 46 48 47 49 48 50 89 51 49 52 94 53
REMARK SMILES IDX 88 54 90 55 50 56 93 57 87 58 86 59 51 61 77 62 60 63 76 64
REMARK SMILES IDX 61 65 64 66 75 67 91 68 62 69 63 70 74 72 92 73 65 74 52 75
REMARK SMILES IDX 53 76 58 77 54 78 55 79 57 80 59 81 56 82 78 83 79 84 84 85
REMARK SMILES IDX 80 86 81 87 83 88 85 89 82 90 66 91 67 92 72 93 68 94 69 95
REMARK SMILES IDX 71 96 73 97 70 98
REMARK H PARENT 90 60 64 71
REMARK Flexibility Score: inf
ROOT
ATOM      1  O   UNL     1       3.621  -0.925   2.061  1.00  0.00    -0.376 OA
ENDROOT
BRANCH   1   2
ATOM      2  C   UNL     1       4.110   0.348   2.497  1.00  0.00     0.202 C 
BRANCH   2   3
ATOM      3  C   UNL     1       3.381   1.596   1.944  1.00  0.00     0.261 C 
BRANCH   3   4
ATOM      4  O   UNL     1       2.372   1.212   0.998  1.00  0.00    -0.463 OA
BRANCH   4   5
ATOM      5  C   UNL     1       2.167   1.589  -0.269  1.00  0.00     0.305 C 
ATOM      6  O   UNL     1       1.119   1.233  -0.812  1.00  0.00    -0.252 OA
BRANCH   5   7
ATOM      7  C   UNL     1       3.064   2.572  -0.980  1.00  0.00     0.124 C 
BRANCH   7   8
ATOM      8  C   UNL     1       4.551   2.416  -1.337  1.00  0.00     0.033 C 
BRANCH   8   9
ATOM      9  C   UNL     1       5.503   1.439  -0.653  1.00  0.00     0.121 C 
BRANCH   9  10
ATOM     10  N   UNL     1       5.920   0.233  -1.363  1.00  0.00    -0.324 N 
ATOM     11  C   UNL     1       7.166   0.202  -1.977  1.00  0.00     0.295 C 
ATOM     12  C   UNL     1       5.463  -1.118  -1.000  1.00  0.00     0.157 C 
ATOM     13  O   UNL     1       7.936   1.132  -2.149  1.00  0.00    -0.265 OA
ATOM     14  C   UNL     1       7.532  -1.254  -2.223  1.00  0.00     0.248 C 
ATOM     15  C   UNL     1       6.574  -2.064  -1.439  1.00  0.00     0.025 C 
ATOM     16  O   UNL     1       8.514  -1.624  -2.839  1.00  0.00    -0.283 OA
ATOM     17  C   UNL     1       6.880  -3.306  -1.012  1.00  0.00    -0.092 C 
ATOM     18  O   UNL     1       6.113  -3.920  -0.050  1.00  0.00    -0.872 OA
BRANCH  12  19
ATOM     19  C   UNL     1       4.027  -1.429  -1.417  1.00  0.00     0.057 A 
ATOM     20  C   UNL     1       3.278  -2.230  -0.552  1.00  0.00     0.013 A 
ATOM     21  C   UNL     1       3.301  -0.925  -2.505  1.00  0.00     0.275 A 
ATOM     22  C   UNL     1       1.892  -2.389  -0.653  1.00  0.00     0.001 A 
ATOM     23  C   UNL     1       1.900  -1.084  -2.631  1.00  0.00     0.086 A 
ATOM     24  C   UNL     1       1.189  -1.787  -1.673  1.00  0.00     0.007 A 
BRANCH  21  25
ATOM     25  N   UNL     1       3.961  -0.242  -3.595  1.00  0.00     0.063 N 
ATOM     26  O   UNL     1       3.463   0.824  -3.981  1.00  0.00    -0.258 OA
ATOM     27  O   UNL     1       4.951  -0.797  -4.083  1.00  0.00    -0.258 OA
ENDBRANCH  21  25
ENDBRANCH  12  19
BRANCH  17  28
ATOM     28  C   UNL     1       8.011  -4.141  -1.471  1.00  0.00    -0.033 A 
ATOM     29  C   UNL     1       9.318  -3.975  -0.990  1.00  0.00     0.009 A 
ATOM     30  C   UNL     1       7.755  -5.162  -2.399  1.00  0.00     0.009 A 
ATOM     31  C   UNL     1      10.360  -4.774  -1.481  1.00  0.00     0.021 A 
ATOM     32  C   UNL     1       8.793  -5.965  -2.881  1.00  0.00     0.021 A 
ATOM     33  C   UNL     1      10.094  -5.756  -2.434  1.00  0.00     0.041 A 
ATOM     34  Cl  UNL     1      11.378  -6.711  -3.068  1.00  0.00    -0.084 Cl
ENDBRANCH  17  28
ENDBRANCH   9  10
ENDBRANCH   8   9
ENDBRANCH   7   8
ENDBRANCH   5   7
ENDBRANCH   4   5
ENDBRANCH   3   4
ENDBRANCH   2   3
ENDBRANCH   1   2
BRANCH   1  35
ATOM     35  C   UNL     1       2.356  -1.286   2.622  1.00  0.00     0.188 C 
BRANCH  35  36
ATOM     36  C   UNL     1       2.186  -2.810   2.828  1.00  0.00     0.188 C 
BRANCH  36  37
ATOM     37  O   UNL     1       3.281  -3.485   3.441  1.00  0.00    -0.376 OA
BRANCH  37  38
ATOM     38  C   UNL     1       4.275  -4.016   2.544  1.00  0.00     0.202 C 
BRANCH  38  39
ATOM     39  C   UNL     1       3.865  -5.301   1.758  1.00  0.00     0.261 C 
BRANCH  39  40
ATOM     40  O   UNL     1       3.725  -5.110   0.313  1.00  0.00    -0.460 OA
BRANCH  40  41
ATOM     41  C   UNL     1       2.980  -6.030  -0.366  1.00  0.00     0.338 C 
ATOM     42  O   UNL     1       2.397  -6.977   0.137  1.00  0.00    -0.246 OA
BRANCH  41  43
ATOM     43  C   UNL     1       2.807  -5.698  -1.815  1.00  0.00     0.060 A 
ATOM     44  C   UNL     1       1.631  -5.036  -2.175  1.00  0.00     0.016 A 
ATOM     45  C   UNL     1       3.625  -6.185  -2.843  1.00  0.00     0.016 A 
ATOM     46  C   UNL     1       1.313  -4.760  -3.510  1.00  0.00     0.010 A 
ATOM     47  C   UNL     1       3.272  -5.966  -4.203  1.00  0.00     0.010 A 
ATOM     48  C   UNL     1       2.108  -5.247  -4.549  1.00  0.00    -0.014 A 
BRANCH  48  49
ATOM     49  C   UNL     1       1.529  -5.227  -5.933  1.00  0.00     0.031 A 
ATOM     50  C   UNL     1       0.807  -6.462  -6.413  1.00  0.00     0.074 A 
ATOM     51  C   UNL     1       1.457  -4.113  -6.691  1.00  0.00     0.049 A 
ATOM     52  N   UNL     1       0.300  -6.741  -7.587  1.00  0.00    -0.248 NA
ATOM     53  C   UNL     1       0.609  -7.517  -5.407  1.00  0.00     0.031 C 
ATOM     54  C   UNL     1       1.925  -2.788  -6.293  1.00  0.00     0.029 A 
ATOM     55  N   UNL     1       0.939  -3.913  -7.954  1.00  0.00    -0.354 N 
ATOM     56  C   UNL     1      -0.235  -8.020  -7.473  1.00  0.00     0.074 A 
ATOM     57  C   UNL     1      -0.006  -8.453  -6.112  1.00  0.00     0.031 C 
ATOM     58  C   UNL     1       1.686  -1.917  -7.291  1.00  0.00     0.029 A 
ATOM     59  C   UNL     1       1.114  -2.632  -8.431  1.00  0.00     0.049 A 
ATOM     60  H   UNL     1       0.486  -4.620  -8.467  1.00  0.00     0.167 HD
ATOM     61  C   UNL     1      -0.845  -8.775  -8.418  1.00  0.00     0.037 A 
ATOM     62  C   UNL     1       0.893  -2.115  -9.660  1.00  0.00     0.037 A 
ATOM     63  C   UNL     1      -1.088  -8.335  -9.766  1.00  0.00     0.049 A 
ATOM     64  C   UNL     1       0.347  -3.012 -10.749  1.00  0.00     0.074 A 
ATOM     65  C   UNL     1      -1.637  -9.041 -10.822  1.00  0.00     0.029 A 
ATOM     66  N   UNL     1      -0.797  -7.065 -10.241  1.00  0.00    -0.354 N 
ATOM     67  N   UNL     1      -0.052  -4.260 -10.671  1.00  0.00    -0.248 NA
ATOM     68  C   UNL     1       0.241  -2.440 -12.101  1.00  0.00     0.031 C 
ATOM     69  C   UNL     1      -1.619  -8.217 -11.952  1.00  0.00     0.029 A 
ATOM     70  C   UNL     1      -1.127  -6.975 -11.582  1.00  0.00     0.049 A 
ATOM     71  H   UNL     1      -0.413  -6.335  -9.703  1.00  0.00     0.167 HD
ATOM     72  C   UNL     1      -0.477  -4.610 -11.949  1.00  0.00     0.074 A 
ATOM     73  C   UNL     1      -0.301  -3.440 -12.783  1.00  0.00     0.031 C 
ATOM     74  C   UNL     1      -0.965  -5.795 -12.394  1.00  0.00     0.037 A 
BRANCH  61  75
ATOM     75  C   UNL     1      -1.182 -10.191  -8.044  1.00  0.00     0.057 A 
ATOM     76  C   UNL     1      -2.200 -10.516  -7.137  1.00  0.00     0.134 A 
ATOM     77  C   UNL     1      -0.430 -11.249  -8.574  1.00  0.00     0.134 A 
ATOM     78  F   UNL     1      -2.943  -9.552  -6.574  1.00  0.00    -0.206 F 
ATOM     79  C   UNL     1      -2.424 -11.836  -6.736  1.00  0.00     0.040 A 
ATOM     80  C   UNL     1      -0.667 -12.574  -8.206  1.00  0.00     0.040 A 
ATOM     81  F   UNL     1       0.557 -11.011  -9.451  1.00  0.00    -0.206 F 
ATOM     82  C   UNL     1      -1.657 -12.869  -7.272  1.00  0.00     0.006 A 
ENDBRANCH  61  75
BRANCH  62  83
ATOM     83  C   UNL     1       1.278  -0.708  -9.979  1.00  0.00     0.057 A 
ATOM     84  C   UNL     1       0.337   0.248 -10.385  1.00  0.00     0.134 A 
ATOM     85  C   UNL     1       2.620  -0.303  -9.957  1.00  0.00     0.134 A 
ATOM     86  F   UNL     1      -0.962  -0.077 -10.472  1.00  0.00    -0.206 F 
ATOM     87  C   UNL     1       0.715   1.539 -10.769  1.00  0.00     0.040 A 
ATOM     88  C   UNL     1       3.009   0.993 -10.306  1.00  0.00     0.040 A 
ATOM     89  F   UNL     1       3.582  -1.169  -9.603  1.00  0.00    -0.206 F 
ATOM     90  C   UNL     1       2.055   1.917 -10.723  1.00  0.00     0.006 A 
ENDBRANCH  62  83
BRANCH  74  91
ATOM     91  C   UNL     1      -1.399  -5.881 -13.830  1.00  0.00     0.057 A 
ATOM     92  C   UNL     1      -0.480  -5.904 -14.887  1.00  0.00     0.134 A 
ATOM     93  C   UNL     1      -2.756  -6.023 -14.152  1.00  0.00     0.134 A 
ATOM     94  F   UNL     1       0.833  -5.763 -14.650  1.00  0.00    -0.206 F 
ATOM     95  C   UNL     1      -0.896  -6.052 -16.212  1.00  0.00     0.040 A 
ATOM     96  C   UNL     1      -3.181  -6.202 -15.469  1.00  0.00     0.040 A 
ATOM     97  F   UNL     1      -3.688  -6.021 -13.187  1.00  0.00    -0.206 F 
ATOM     98  C   UNL     1      -2.250  -6.213 -16.504  1.00  0.00     0.006 A 
ENDBRANCH  74  91
ENDBRANCH  48  49
ENDBRANCH  41  43
ENDBRANCH  40  41
ENDBRANCH  39  40
ENDBRANCH  38  39
ENDBRANCH  37  38
ENDBRANCH  36  37
ENDBRANCH  35  36
ENDBRANCH   1  35
TORSDOF 23
