REMARK SMILES O=C(CNC(=O)c1ccco1)Nc1cccc(C(=O)OCCOCCOCCOC(=O)c2ccc(-c3c4nc(c(-c5c(F)cccc5F)c5ccc([nH]5)c(-c5c(F)cccc5F)c5nc(c(-c6c(F)cccc6F)c6ccc3[nH]6)C=C5)C=C4)cc2)c1
REMARK SMILES IDX 24 1 23 2 22 3 21 4 20 5 18 6 19 7 17 8 13 9 14 10 86 11
REMARK SMILES IDX 15 12 16 13 12 14 1 15 2 16 3 18 4 19 5 20 6 22 7 23 8 24
REMARK SMILES IDX 11 25 9 26 10 27 25 28 26 29 27 30 28 31 29 32 30 33 31 34
REMARK SMILES IDX 32 35 33 36 85 37 34 38 84 39 35 40 36 41 37 42 78 43 38 44
REMARK SMILES IDX 83 45 77 46 79 47 39 48 82 49 76 50 75 51 40 53 66 54 49 55
REMARK SMILES IDX 65 56 50 57 53 58 64 59 80 60 51 61 52 62 63 64 81 65 54 66
REMARK SMILES IDX 41 67 42 68 47 69 43 70 44 71 46 72 48 73 45 74 67 75 68 76
REMARK SMILES IDX 73 77 69 78 70 79 72 80 74 81 71 82 55 83 56 84 61 85 57 86
REMARK SMILES IDX 58 87 60 88 62 89 59 90
REMARK H PARENT 12 17 4 21 79 52 53 63
REMARK Flexibility Score: inf
ROOT
ATOM      1  C   UNL     1      -0.427   5.854   2.573  1.00  0.00     0.188 C 
ENDROOT
BRANCH   1   2
ATOM      2  O   UNL     1      -1.623   5.841   3.322  1.00  0.00    -0.376 OA
BRANCH   2   3
ATOM      3  C   UNL     1      -2.403   4.662   3.433  1.00  0.00     0.202 C 
BRANCH   3   4
ATOM      4  C   UNL     1      -2.603   3.681   2.273  1.00  0.00     0.261 C 
BRANCH   4   5
ATOM      5  O   UNL     1      -1.420   3.358   1.539  1.00  0.00    -0.460 OA
BRANCH   5   6
ATOM      6  C   UNL     1      -1.419   3.739   0.235  1.00  0.00     0.338 C 
ATOM      7  O   UNL     1      -2.303   4.325  -0.364  1.00  0.00    -0.246 OA
BRANCH   6   8
ATOM      8  C   UNL     1      -0.071   3.514  -0.324  1.00  0.00     0.062 A 
ATOM      9  C   UNL     1       1.875   2.106  -0.628  1.00  0.00     0.042 A 
ATOM     10  C   UNL     1       2.522   3.175  -1.264  1.00  0.00     0.026 A 
ATOM     11  C   UNL     1       0.587   2.299  -0.125  1.00  0.00     0.041 A 
ATOM     12  C   UNL     1       1.861   4.392  -1.464  1.00  0.00     0.003 A 
ATOM     13  C   UNL     1       0.553   4.556  -1.014  1.00  0.00     0.016 A 
BRANCH   9  14
ATOM     14  N   UNL     1       2.561   0.878  -0.523  1.00  0.00    -0.325 N 
ATOM     15  O   UNL     1       0.823  -0.541   0.121  1.00  0.00    -0.273 OA
ATOM     16  C   UNL     1       2.003  -0.337  -0.153  1.00  0.00     0.243 C 
ATOM     17  H   UNL     1       3.524   0.884  -0.732  1.00  0.00     0.169 HD
BRANCH  16  18
ATOM     18  C   UNL     1       3.033  -1.439   0.076  1.00  0.00     0.216 C 
BRANCH  18  19
ATOM     19  N   UNL     1       4.061  -1.477  -0.952  1.00  0.00    -0.340 N 
ATOM     20  C   UNL     1       5.428  -1.496  -0.815  1.00  0.00     0.287 C 
ATOM     21  H   UNL     1       3.729  -1.490  -1.878  1.00  0.00     0.164 HD
ATOM     22  O   UNL     1       6.089  -1.401  -1.849  1.00  0.00    -0.266 OA
BRANCH  20  23
ATOM     23  C   UNL     1       6.007  -1.581   0.506  1.00  0.00     0.191 A 
ATOM     24  C   UNL     1       5.705  -2.326   1.634  1.00  0.00     0.056 A 
ATOM     25  O   UNL     1       7.090  -0.786   0.775  1.00  0.00    -0.459 OA
ATOM     26  C   UNL     1       6.607  -1.923   2.648  1.00  0.00     0.043 A 
ATOM     27  C   UNL     1       7.435  -0.991   2.071  1.00  0.00     0.196 A 
ENDBRANCH  20  23
ENDBRANCH  18  19
ENDBRANCH  16  18
ENDBRANCH   9  14
ENDBRANCH   6   8
ENDBRANCH   5   6
ENDBRANCH   4   5
ENDBRANCH   3   4
ENDBRANCH   2   3
ENDBRANCH   1   2
BRANCH   1  28
ATOM     28  C   UNL     1       0.764   4.947   2.948  1.00  0.00     0.188 C 
BRANCH  28  29
ATOM     29  O   UNL     1       0.709   4.075   4.058  1.00  0.00    -0.376 OA
BRANCH  29  30
ATOM     30  C   UNL     1       0.441   4.580   5.354  1.00  0.00     0.202 C 
BRANCH  30  31
ATOM     31  C   UNL     1       1.090   5.862   5.887  1.00  0.00     0.261 C 
BRANCH  31  32
ATOM     32  O   UNL     1       1.067   6.978   4.991  1.00  0.00    -0.460 OA
BRANCH  32  33
ATOM     33  C   UNL     1       2.289   7.390   4.563  1.00  0.00     0.338 C 
ATOM     34  O   UNL     1       3.371   6.921   4.835  1.00  0.00    -0.246 OA
BRANCH  33  35
ATOM     35  C   UNL     1       2.105   8.449   3.554  1.00  0.00     0.060 A 
ATOM     36  C   UNL     1       2.537   8.209   2.243  1.00  0.00     0.016 A 
ATOM     37  C   UNL     1       1.565   9.682   3.917  1.00  0.00     0.016 A 
ATOM     38  C   UNL     1       2.444   9.218   1.285  1.00  0.00     0.010 A 
ATOM     39  C   UNL     1       1.495  10.698   2.963  1.00  0.00     0.010 A 
ATOM     40  C   UNL     1       1.955  10.478   1.652  1.00  0.00    -0.014 A 
BRANCH  40  41
ATOM     41  C   UNL     1       2.072  11.628   0.727  1.00  0.00     0.031 A 
ATOM     42  C   UNL     1       3.229  12.571   0.901  1.00  0.00     0.074 A 
ATOM     43  C   UNL     1       1.149  11.854  -0.222  1.00  0.00     0.049 A 
ATOM     44  N   UNL     1       3.461  13.718   0.318  1.00  0.00    -0.248 NA
ATOM     45  C   UNL     1       4.258  12.166   1.872  1.00  0.00     0.031 C 
ATOM     46  C   UNL     1       0.009  10.989  -0.517  1.00  0.00     0.029 A 
ATOM     47  N   UNL     1       1.016  12.902  -1.097  1.00  0.00    -0.354 N 
ATOM     48  C   UNL     1       4.651  14.181   0.864  1.00  0.00     0.074 A 
ATOM     49  C   UNL     1       5.084  13.200   1.836  1.00  0.00     0.031 C 
ATOM     50  C   UNL     1      -0.727  11.558  -1.488  1.00  0.00     0.029 A 
ATOM     51  C   UNL     1      -0.131  12.843  -1.851  1.00  0.00     0.049 A 
ATOM     52  H   UNL     1       1.677  13.627  -1.177  1.00  0.00     0.167 HD
ATOM     53  C   UNL     1       5.322  15.321   0.579  1.00  0.00     0.037 A 
ATOM     54  C   UNL     1      -0.655  13.743  -2.705  1.00  0.00     0.037 A 
ATOM     55  C   UNL     1       4.884  16.297  -0.383  1.00  0.00     0.049 A 
ATOM     56  C   UNL     1       0.068  15.043  -2.948  1.00  0.00     0.074 A 
ATOM     57  C   UNL     1       5.498  17.480  -0.753  1.00  0.00     0.029 A 
ATOM     58  N   UNL     1       3.713  16.206  -1.120  1.00  0.00    -0.354 N 
ATOM     59  N   UNL     1       1.200  15.469  -2.442  1.00  0.00    -0.248 NA
ATOM     60  C   UNL     1      -0.562  15.989  -3.882  1.00  0.00     0.031 C 
ATOM     61  C   UNL     1       4.674  18.129  -1.678  1.00  0.00     0.029 A 
ATOM     62  C   UNL     1       3.575  17.323  -1.927  1.00  0.00     0.049 A 
ATOM     63  H   UNL     1       3.074  15.458  -1.077  1.00  0.00     0.167 HD
ATOM     64  C   UNL     1       1.437  16.710  -3.022  1.00  0.00     0.074 A 
ATOM     65  C   UNL     1       0.331  16.968  -3.920  1.00  0.00     0.031 C 
ATOM     66  C   UNL     1       2.478  17.556  -2.832  1.00  0.00     0.037 A 
BRANCH  53  67
ATOM     67  C   UNL     1       6.583  15.589   1.346  1.00  0.00     0.057 A 
ATOM     68  C   UNL     1       7.754  14.851   1.130  1.00  0.00     0.134 A 
ATOM     69  C   UNL     1       6.633  16.615   2.298  1.00  0.00     0.134 A 
ATOM     70  F   UNL     1       7.769  13.843   0.244  1.00  0.00    -0.206 F 
ATOM     71  C   UNL     1       8.921  15.108   1.851  1.00  0.00     0.040 A 
ATOM     72  C   UNL     1       7.801  16.900   3.005  1.00  0.00     0.040 A 
ATOM     73  F   UNL     1       5.547  17.362   2.551  1.00  0.00    -0.206 F 
ATOM     74  C   UNL     1       8.949  16.140   2.787  1.00  0.00     0.006 A 
ENDBRANCH  53  67
BRANCH  54  75
ATOM     75  C   UNL     1      -1.947  13.463  -3.381  1.00  0.00     0.057 A 
ATOM     76  C   UNL     1      -2.008  13.235  -4.760  1.00  0.00     0.134 A 
ATOM     77  C   UNL     1      -3.154  13.438  -2.670  1.00  0.00     0.134 A 
ATOM     78  F   UNL     1      -0.889  13.272  -5.499  1.00  0.00    -0.206 F 
ATOM     79  C   UNL     1      -3.221  13.010  -5.412  1.00  0.00     0.040 A 
ATOM     80  C   UNL     1      -4.371  13.189  -3.304  1.00  0.00     0.040 A 
ATOM     81  F   UNL     1      -3.164  13.651  -1.346  1.00  0.00    -0.206 F 
ATOM     82  C   UNL     1      -4.408  12.981  -4.682  1.00  0.00     0.006 A 
ENDBRANCH  54  75
BRANCH  66  83
ATOM     83  C   UNL     1       2.510  18.814  -3.651  1.00  0.00     0.057 A 
ATOM     84  C   UNL     1       1.649  19.889  -3.401  1.00  0.00     0.134 A 
ATOM     85  C   UNL     1       3.462  18.971  -4.669  1.00  0.00     0.134 A 
ATOM     86  F   UNL     1       0.709  19.800  -2.449  1.00  0.00    -0.206 F 
ATOM     87  C   UNL     1       1.721  21.069  -4.145  1.00  0.00     0.040 A 
ATOM     88  C   UNL     1       3.561  20.155  -5.401  1.00  0.00     0.040 A 
ATOM     89  F   UNL     1       4.325  17.984  -4.952  1.00  0.00    -0.206 F 
ATOM     90  C   UNL     1       2.685  21.207  -5.142  1.00  0.00     0.006 A 
ENDBRANCH  66  83
ENDBRANCH  40  41
ENDBRANCH  33  35
ENDBRANCH  32  33
ENDBRANCH  31  32
ENDBRANCH  30  31
ENDBRANCH  29  30
ENDBRANCH  28  29
ENDBRANCH   1  28
TORSDOF 21
