REMARK SMILES CN(C(=O)N(CC(=O)OCCOCCOCCOC(=O)c1ccc(-c2c3nc(c(-c4c(F)cccc4F)c4ccc([nH]4)c(-c4c(F)cccc4F)c4nc(c(-c5c(F)cccc5F)c5ccc2[nH]5)C=C4)C=C3)cc1)C(C)(C)C)C1CCCCCC1
REMARK SMILES IDX 11 1 10 2 9 3 7 4 8 5 6 6 5 7 3 8 4 9 2 10 1 11 79 12 80 13
REMARK SMILES IDX 81 14 82 15 85 17 84 18 83 19 75 21 76 22 77 23 78 24 12 25
REMARK SMILES IDX 13 26 14 27 15 28 16 29 17 30 18 31 19 32 20 33 21 34 22 35
REMARK SMILES IDX 74 36 23 37 73 38 24 39 25 40 26 41 67 42 27 43 72 44 66 45
REMARK SMILES IDX 68 46 28 47 71 48 65 49 64 50 29 52 55 53 38 54 54 55 39 56
REMARK SMILES IDX 42 57 53 58 69 59 40 60 41 61 52 63 70 64 43 65 30 66 31 67
REMARK SMILES IDX 36 68 32 69 33 70 35 71 37 72 34 73 56 74 57 75 62 76 58 77
REMARK SMILES IDX 59 78 61 79 63 80 60 81 44 82 45 83 50 84 46 85 47 86 49 87
REMARK SMILES IDX 51 88 48 89
REMARK H PARENT 68 51 42 62
REMARK Flexibility Score: 90.00
ROOT
ATOM      1  C   UNL     1      -3.350  -2.832  -1.752  1.00  0.00     0.202 C 
ENDROOT
BRANCH   1   2
ATOM      2  C   UNL     1      -2.005  -2.543  -1.079  1.00  0.00     0.261 C 
BRANCH   2   3
ATOM      3  O   UNL     1      -1.447  -1.245  -1.394  1.00  0.00    -0.462 OA
BRANCH   3   4
ATOM      4  C   UNL     1      -0.213  -1.257  -1.973  1.00  0.00     0.325 C 
ATOM      5  O   UNL     1       0.345  -2.268  -2.390  1.00  0.00    -0.250 OA
BRANCH   4   6
ATOM      6  C   UNL     1       0.499   0.106  -1.997  1.00  0.00     0.244 C 
BRANCH   6   7
ATOM      7  N   UNL     1      -0.192   1.324  -1.530  1.00  0.00    -0.309 N 
BRANCH   7   8
ATOM      8  C   UNL     1      -0.187   1.800  -0.221  1.00  0.00     0.320 C 
ATOM      9  O   UNL     1      -0.781   2.853   0.027  1.00  0.00    -0.248 OA
BRANCH   8  10
ATOM     10  N   UNL     1       0.541   1.208   0.794  1.00  0.00    -0.325 N 
ATOM     11  C   UNL     1       0.961  -0.179   0.924  1.00  0.00     0.149 C 
BRANCH  10  12
ATOM     12  C   UNL     1       0.961   2.080   1.933  1.00  0.00     0.086 C 
BRANCH  12  13
ATOM     13  C   UNL     1       2.034   3.103   1.502  1.00  0.00     0.025 C 
BRANCH  13  14
ATOM     14  C   UNL     1       1.607   4.523   1.147  1.00  0.00     0.002 C 
BRANCH  14  15
ATOM     15  C   UNL     1       1.325   5.406   2.355  1.00  0.00     0.000 CG0
ATOM     16  G   UNL     1       0.048   5.057   3.105  1.00  0.00     0.000 G0
ENDBRANCH  14  15
ENDBRANCH  13  14
ENDBRANCH  12  13
BRANCH  12  17
ATOM     17  C   UNL     1      -0.224   2.544   2.804  1.00  0.00     0.025 C 
BRANCH  17  18
ATOM     18  C   UNL     1       0.068   3.684   3.772  1.00  0.00     0.002 C 
BRANCH  18  19
ATOM     19  C   UNL     1       0.048   5.057   3.105  1.00  0.00     0.000 CG0
ATOM     20  G   UNL     1       1.325   5.406   2.355  1.00  0.00     0.000 G0
ENDBRANCH  18  19
ENDBRANCH  17  18
ENDBRANCH  12  17
ENDBRANCH  10  12
ENDBRANCH   8  10
ENDBRANCH   7   8
BRANCH   7  21
ATOM     21  C   UNL     1      -0.744   2.281  -2.582  1.00  0.00     0.037 C 
ATOM     22  C   UNL     1      -2.210   2.696  -2.281  1.00  0.00     0.034 C 
ATOM     23  C   UNL     1       0.144   3.548  -2.674  1.00  0.00     0.034 C 
ATOM     24  C   UNL     1      -0.745   1.700  -4.008  1.00  0.00     0.034 C 
ENDBRANCH   7  21
ENDBRANCH   6   7
ENDBRANCH   4   6
ENDBRANCH   3   4
ENDBRANCH   2   3
ENDBRANCH   1   2
BRANCH   1  25
ATOM     25  O   UNL     1      -3.317  -2.872  -3.174  1.00  0.00    -0.376 OA
BRANCH  25  26
ATOM     26  C   UNL     1      -3.202  -1.624  -3.853  1.00  0.00     0.188 C 
BRANCH  26  27
ATOM     27  C   UNL     1      -3.938  -0.427  -3.246  1.00  0.00     0.188 C 
BRANCH  27  28
ATOM     28  O   UNL     1      -5.343  -0.675  -3.181  1.00  0.00    -0.376 OA
BRANCH  28  29
ATOM     29  C   UNL     1      -6.104   0.525  -3.325  1.00  0.00     0.202 C 
BRANCH  29  30
ATOM     30  C   UNL     1      -6.645   0.634  -4.752  1.00  0.00     0.261 C 
BRANCH  30  31
ATOM     31  O   UNL     1      -5.624   0.424  -5.752  1.00  0.00    -0.460 OA
BRANCH  31  32
ATOM     32  C   UNL     1      -5.017   1.528  -6.222  1.00  0.00     0.338 C 
ATOM     33  O   UNL     1      -5.196   2.686  -5.862  1.00  0.00    -0.246 OA
BRANCH  32  34
ATOM     34  C   UNL     1      -4.002   1.144  -7.214  1.00  0.00     0.060 A 
ATOM     35  C   UNL     1      -2.697   0.933  -6.777  1.00  0.00     0.016 A 
ATOM     36  C   UNL     1      -4.286   1.139  -8.576  1.00  0.00     0.016 A 
ATOM     37  C   UNL     1      -1.646   0.817  -7.687  1.00  0.00     0.010 A 
ATOM     38  C   UNL     1      -3.240   0.960  -9.493  1.00  0.00     0.010 A 
ATOM     39  C   UNL     1      -1.902   0.849  -9.062  1.00  0.00    -0.014 A 
BRANCH  39  40
ATOM     40  C   UNL     1      -0.789   0.905 -10.055  1.00  0.00     0.031 A 
ATOM     41  C   UNL     1      -0.670   2.113 -10.949  1.00  0.00     0.074 A 
ATOM     42  C   UNL     1       0.134  -0.070 -10.159  1.00  0.00     0.049 A 
ATOM     43  N   UNL     1       0.015   2.270 -12.053  1.00  0.00    -0.248 NA
ATOM     44  C   UNL     1      -1.436   3.303 -10.544  1.00  0.00     0.031 C 
ATOM     45  C   UNL     1       0.237  -1.248  -9.298  1.00  0.00     0.029 A 
ATOM     46  N   UNL     1       1.171  -0.221 -11.051  1.00  0.00    -0.354 N 
ATOM     47  C   UNL     1      -0.292   3.546 -12.510  1.00  0.00     0.074 A 
ATOM     48  C   UNL     1      -1.212   4.128 -11.556  1.00  0.00     0.031 C 
ATOM     49  C   UNL     1       1.285  -1.990  -9.692  1.00  0.00     0.029 A 
ATOM     50  C   UNL     1       1.873  -1.391 -10.887  1.00  0.00     0.049 A 
ATOM     51  H   UNL     1       1.389   0.446 -11.742  1.00  0.00     0.167 HD
ATOM     52  C   UNL     1       0.146   4.172 -13.629  1.00  0.00     0.037 A 
ATOM     53  C   UNL     1       2.838  -1.948 -11.645  1.00  0.00     0.037 A 
ATOM     54  C   UNL     1       1.105   3.617 -14.546  1.00  0.00     0.049 A 
ATOM     55  C   UNL     1       3.266  -1.270 -12.918  1.00  0.00     0.074 A 
ATOM     56  C   UNL     1       1.580   4.150 -15.733  1.00  0.00     0.029 A 
ATOM     57  N   UNL     1       1.759   2.410 -14.361  1.00  0.00    -0.354 N 
ATOM     58  N   UNL     1       2.872  -0.126 -13.420  1.00  0.00    -0.248 NA
ATOM     59  C   UNL     1       4.251  -1.981 -13.749  1.00  0.00     0.031 C 
ATOM     60  C   UNL     1       2.511   3.256 -16.273  1.00  0.00     0.029 A 
ATOM     61  C   UNL     1       2.637   2.182 -15.407  1.00  0.00     0.049 A 
ATOM     62  H   UNL     1       1.621   1.804 -13.597  1.00  0.00     0.167 HD
ATOM     63  C   UNL     1       3.563   0.025 -14.616  1.00  0.00     0.074 A 
ATOM     64  C   UNL     1       4.418  -1.135 -14.756  1.00  0.00     0.031 C 
ATOM     65  C   UNL     1       3.490   1.029 -15.523  1.00  0.00     0.037 A 
BRANCH  52  66
ATOM     66  C   UNL     1      -0.447   5.513 -13.944  1.00  0.00     0.057 A 
ATOM     67  C   UNL     1      -0.080   6.672 -13.252  1.00  0.00     0.134 A 
ATOM     68  C   UNL     1      -1.389   5.643 -14.973  1.00  0.00     0.134 A 
ATOM     69  F   UNL     1       0.803   6.611 -12.244  1.00  0.00    -0.206 F 
ATOM     70  C   UNL     1      -0.644   7.912 -13.559  1.00  0.00     0.040 A 
ATOM     71  C   UNL     1      -1.944   6.880 -15.303  1.00  0.00     0.040 A 
ATOM     72  F   UNL     1      -1.782   4.570 -15.677  1.00  0.00    -0.206 F 
ATOM     73  C   UNL     1      -1.575   8.019 -14.591  1.00  0.00     0.006 A 
ENDBRANCH  52  66
BRANCH  53  74
ATOM     74  C   UNL     1       3.427  -3.258 -11.262  1.00  0.00     0.057 A 
ATOM     75  C   UNL     1       4.761  -3.360 -10.851  1.00  0.00     0.134 A 
ATOM     76  C   UNL     1       2.680  -4.441 -11.325  1.00  0.00     0.134 A 
ATOM     77  F   UNL     1       5.537  -2.267 -10.802  1.00  0.00    -0.206 F 
ATOM     78  C   UNL     1       5.333  -4.590 -10.523  1.00  0.00     0.040 A 
ATOM     79  C   UNL     1       3.231  -5.674 -10.975  1.00  0.00     0.040 A 
ATOM     80  F   UNL     1       1.399  -4.413 -11.720  1.00  0.00    -0.206 F 
ATOM     81  C   UNL     1       4.565  -5.752 -10.578  1.00  0.00     0.006 A 
ENDBRANCH  53  74
BRANCH  65  82
ATOM     82  C   UNL     1       4.380   0.933 -16.723  1.00  0.00     0.057 A 
ATOM     83  C   UNL     1       4.088   0.073 -17.788  1.00  0.00     0.134 A 
ATOM     84  C   UNL     1       5.525   1.732 -16.828  1.00  0.00     0.134 A 
ATOM     85  F   UNL     1       3.012  -0.728 -17.740  1.00  0.00    -0.206 F 
ATOM     86  C   UNL     1       4.915  -0.002 -18.911  1.00  0.00     0.040 A 
ATOM     87  C   UNL     1       6.349   1.679 -17.952  1.00  0.00     0.040 A 
ATOM     88  F   UNL     1       5.856   2.580 -15.842  1.00  0.00    -0.206 F 
ATOM     89  C   UNL     1       6.047   0.807 -18.996  1.00  0.00     0.006 A 
ENDBRANCH  65  82
ENDBRANCH  39  40
ENDBRANCH  32  34
ENDBRANCH  31  32
ENDBRANCH  30  31
ENDBRANCH  29  30
ENDBRANCH  28  29
ENDBRANCH  27  28
ENDBRANCH  26  27
ENDBRANCH  25  26
ENDBRANCH   1  25
TORSDOF 22
