REMARK SMILES Cc1cccc(S(=O)(=O)N[C@@H](CCC(N)=O)C(=O)OCCOCCOCCOC(=O)c2ccc(-c3c4nc(c(-c5c(F)cccc5F)c5ccc([nH]5)c(-c5c(F)cccc5F)c5nc(c(-c6c(F)cccc6F)c6ccc3[nH]6)C=C5)C=C4)cc2)c1
REMARK SMILES IDX 23 1 22 2 21 3 20 4 19 5 17 6 18 7 11 8 10 9 7 11 8 12 9 13
REMARK SMILES IDX 6 14 1 15 2 16 3 17 85 18 4 19 5 20 12 21 13 22 14 23 15 24
REMARK SMILES IDX 16 25 24 28 25 29 26 30 27 31 28 32 29 33 30 34 31 35 32 36
REMARK SMILES IDX 84 37 33 38 83 39 34 40 35 41 36 42 77 43 37 44 82 45 76 46
REMARK SMILES IDX 78 47 38 48 81 49 75 50 74 51 39 53 65 54 48 55 64 56 49 57
REMARK SMILES IDX 52 58 63 59 79 60 50 61 51 62 62 64 80 65 53 66 40 67 41 68
REMARK SMILES IDX 46 69 42 70 43 71 45 72 47 73 44 74 66 75 67 76 72 77 68 78
REMARK SMILES IDX 69 79 71 80 73 81 70 82 54 83 55 84 60 85 56 86 57 87 59 88
REMARK SMILES IDX 61 89 58 90
REMARK H PARENT 10 10 15 26 15 27 78 52 52 63
REMARK Flexibility Score: inf
ROOT
ATOM      1  C   UNL     1       4.317   6.196   2.647  1.00  0.00     0.188 C 
ENDROOT
BRANCH   1   2
ATOM      2  O   UNL     1       4.222   7.554   2.255  1.00  0.00    -0.376 OA
BRANCH   2   3
ATOM      3  C   UNL     1       3.455   7.707   1.067  1.00  0.00     0.202 C 
BRANCH   3   4
ATOM      4  C   UNL     1       2.071   7.007   1.054  1.00  0.00     0.261 C 
BRANCH   4   5
ATOM      5  O   UNL     1       1.989   5.420   0.709  1.00  0.00    -0.462 OA
BRANCH   5   6
ATOM      6  C   UNL     1       1.614   4.295  -0.048  1.00  0.00     0.324 C 
ATOM      7  O   UNL     1       1.917   3.233   0.516  1.00  0.00    -0.250 OA
BRANCH   6   8
ATOM      8  C   UNL     1       0.804   4.148  -1.596  1.00  0.00     0.180 C 
BRANCH   8   9
ATOM      9  N   UNL     1      -0.637   3.779  -1.529  1.00  0.00    -0.197 NA
ATOM     10  H   UNL     1      -0.959   4.335  -0.737  1.00  0.00     0.142 HD
BRANCH   9  11
ATOM     11  S   UNL     1      -1.560   2.403  -1.378  1.00  0.00     0.241 S 
ATOM     12  O   UNL     1      -2.045   2.083  -2.703  1.00  0.00    -0.207 OA
ATOM     13  O   UNL     1      -2.518   2.808  -0.363  1.00  0.00    -0.207 OA
BRANCH  11  14
ATOM     14  C   UNL     1      -0.815   0.940  -0.739  1.00  0.00     0.082 A 
ATOM     15  C   UNL     1       2.558  -0.557   0.089  1.00  0.00     0.044 C 
ATOM     16  C   UNL     1       1.079  -0.433  -0.102  1.00  0.00    -0.050 A 
ATOM     17  C   UNL     1       0.236  -1.529   0.092  1.00  0.00     0.003 A 
ATOM     18  C   UNL     1       0.543   0.786  -0.541  1.00  0.00     0.025 A 
ATOM     19  C   UNL     1      -1.135  -1.394  -0.111  1.00  0.00     0.002 A 
ATOM     20  C   UNL     1      -1.661  -0.162  -0.513  1.00  0.00     0.022 A 
ENDBRANCH  11  14
ENDBRANCH   9  11
ENDBRANCH   8   9
BRANCH   8  21
ATOM     21  C   UNL     1       1.041   4.864  -3.037  1.00  0.00     0.042 C 
BRANCH  21  22
ATOM     22  C   UNL     1       0.728   6.328  -3.814  1.00  0.00     0.102 C 
BRANCH  22  23
ATOM     23  C   UNL     1       0.685   8.140  -3.709  1.00  0.00     0.217 C 
ATOM     24  N   UNL     1       0.669   8.968  -4.762  1.00  0.00    -0.370 N 
ATOM     25  O   UNL     1       0.418   8.883  -2.734  1.00  0.00    -0.275 OA
ATOM     26  H   UNL     1       0.853   8.620  -5.665  1.00  0.00     0.159 HD
ATOM     27  H   UNL     1       0.473   9.924  -4.634  1.00  0.00     0.159 HD
ENDBRANCH  22  23
ENDBRANCH  21  22
ENDBRANCH   8  21
ENDBRANCH   6   8
ENDBRANCH   5   6
ENDBRANCH   4   5
ENDBRANCH   3   4
ENDBRANCH   2   3
ENDBRANCH   1   2
BRANCH   1  28
ATOM     28  C   UNL     1       3.377   5.883   3.810  1.00  0.00     0.188 C 
BRANCH  28  29
ATOM     29  O   UNL     1       2.111   6.509   3.732  1.00  0.00    -0.376 OA
BRANCH  29  30
ATOM     30  C   UNL     1       2.003   7.843   4.239  1.00  0.00     0.202 C 
BRANCH  30  31
ATOM     31  C   UNL     1       1.053   7.771   5.429  1.00  0.00     0.261 C 
BRANCH  31  32
ATOM     32  O   UNL     1      -0.293   7.544   4.943  1.00  0.00    -0.460 OA
BRANCH  32  33
ATOM     33  C   UNL     1      -0.546   6.282   4.509  1.00  0.00     0.338 C 
ATOM     34  O   UNL     1      -0.240   5.251   5.103  1.00  0.00    -0.246 OA
BRANCH  33  35
ATOM     35  C   UNL     1      -0.980   6.346   3.077  1.00  0.00     0.060 A 
ATOM     36  C   UNL     1      -0.852   5.204   2.322  1.00  0.00     0.016 A 
ATOM     37  C   UNL     1      -1.231   7.544   2.393  1.00  0.00     0.016 A 
ATOM     38  C   UNL     1      -0.746   5.319   0.925  1.00  0.00     0.010 A 
ATOM     39  C   UNL     1      -1.058   7.641   0.985  1.00  0.00     0.010 A 
ATOM     40  C   UNL     1      -0.633   6.545   0.221  1.00  0.00    -0.014 A 
BRANCH  40  41
ATOM     41  C   UNL     1       0.042   6.893  -1.224  1.00  0.00     0.031 A 
ATOM     42  C   UNL     1      -1.363   7.063  -2.336  1.00  0.00     0.074 A 
ATOM     43  C   UNL     1       1.578   7.029  -1.491  1.00  0.00     0.049 A 
ATOM     44  N   UNL     1      -1.475   7.718  -3.480  1.00  0.00    -0.248 NA
ATOM     45  C   UNL     1      -2.564   6.194  -2.243  1.00  0.00     0.031 C 
ATOM     46  C   UNL     1       2.536   8.011  -2.236  1.00  0.00     0.029 A 
ATOM     47  N   UNL     1       2.673   6.061  -1.370  1.00  0.00    -0.354 N 
ATOM     48  C   UNL     1      -2.325   7.114  -4.378  1.00  0.00     0.074 A 
ATOM     49  C   UNL     1      -3.061   6.208  -3.502  1.00  0.00     0.031 C 
ATOM     50  C   UNL     1       3.596   7.429  -2.832  1.00  0.00     0.029 A 
ATOM     51  C   UNL     1       3.720   6.127  -2.283  1.00  0.00     0.049 A 
ATOM     52  H   UNL     1       2.666   5.381  -0.659  1.00  0.00     0.167 HD
ATOM     53  C   UNL     1      -2.158   7.070  -5.771  1.00  0.00     0.037 A 
ATOM     54  C   UNL     1       4.639   5.200  -2.645  1.00  0.00     0.037 A 
ATOM     55  C   UNL     1      -0.761   6.864  -6.417  1.00  0.00     0.049 A 
ATOM     56  C   UNL     1       4.439   4.858  -4.125  1.00  0.00     0.074 A 
ATOM     57  C   UNL     1       0.174   7.721  -7.019  1.00  0.00     0.029 A 
ATOM     58  N   UNL     1      -0.082   5.605  -6.537  1.00  0.00    -0.354 N 
ATOM     59  N   UNL     1       3.452   5.325  -4.859  1.00  0.00    -0.248 NA
ATOM     60  C   UNL     1       5.283   3.940  -4.882  1.00  0.00     0.031 C 
ATOM     61  C   UNL     1       1.457   7.128  -7.058  1.00  0.00     0.029 A 
ATOM     62  C   UNL     1       1.310   5.786  -6.795  1.00  0.00     0.049 A 
ATOM     63  H   UNL     1      -0.520   4.728  -6.451  1.00  0.00     0.167 HD
ATOM     64  C   UNL     1       3.395   4.666  -6.069  1.00  0.00     0.074 A 
ATOM     65  C   UNL     1       4.645   3.909  -6.069  1.00  0.00     0.031 C 
ATOM     66  C   UNL     1       2.342   4.743  -6.965  1.00  0.00     0.037 A 
BRANCH  53  67
ATOM     67  C   UNL     1      -3.136   8.129  -6.394  1.00  0.00     0.057 A 
ATOM     68  C   UNL     1      -2.780   9.103  -7.355  1.00  0.00     0.134 A 
ATOM     69  C   UNL     1      -4.476   8.239  -5.971  1.00  0.00     0.134 A 
ATOM     70  F   UNL     1      -1.641   9.068  -8.044  1.00  0.00    -0.206 F 
ATOM     71  C   UNL     1      -3.603  10.175  -7.731  1.00  0.00     0.040 A 
ATOM     72  C   UNL     1      -5.329   9.287  -6.370  1.00  0.00     0.040 A 
ATOM     73  F   UNL     1      -5.020   7.317  -5.164  1.00  0.00    -0.206 F 
ATOM     74  C   UNL     1      -4.883  10.282  -7.227  1.00  0.00     0.006 A 
ENDBRANCH  53  67
BRANCH  54  75
ATOM     75  C   UNL     1       5.222   4.370  -1.546  1.00  0.00     0.057 A 
ATOM     76  C   UNL     1       6.171   4.997  -0.705  1.00  0.00     0.134 A 
ATOM     77  C   UNL     1       4.742   3.140  -1.093  1.00  0.00     0.134 A 
ATOM     78  F   UNL     1       6.694   6.182  -1.060  1.00  0.00    -0.206 F 
ATOM     79  C   UNL     1       6.558   4.482   0.542  1.00  0.00     0.040 A 
ATOM     80  C   UNL     1       5.116   2.617   0.164  1.00  0.00     0.040 A 
ATOM     81  F   UNL     1       3.833   2.465  -1.810  1.00  0.00    -0.206 F 
ATOM     82  C   UNL     1       6.001   3.298   0.998  1.00  0.00     0.006 A 
ENDBRANCH  54  75
BRANCH  66  83
ATOM     83  C   UNL     1       2.319   4.008  -8.289  1.00  0.00     0.057 A 
ATOM     84  C   UNL     1       2.844   2.729  -8.501  1.00  0.00     0.134 A 
ATOM     85  C   UNL     1       1.659   4.577  -9.407  1.00  0.00     0.134 A 
ATOM     86  F   UNL     1       3.410   2.029  -7.508  1.00  0.00    -0.206 F 
ATOM     87  C   UNL     1       2.770   2.088  -9.745  1.00  0.00     0.040 A 
ATOM     88  C   UNL     1       1.517   3.920 -10.627  1.00  0.00     0.040 A 
ATOM     89  F   UNL     1       1.112   5.799  -9.372  1.00  0.00    -0.206 F 
ATOM     90  C   UNL     1       2.088   2.674 -10.806  1.00  0.00     0.006 A 
ENDBRANCH  66  83
ENDBRANCH  40  41
ENDBRANCH  33  35
ENDBRANCH  32  33
ENDBRANCH  31  32
ENDBRANCH  30  31
ENDBRANCH  29  30
ENDBRANCH  28  29
ENDBRANCH   1  28
TORSDOF 23
