REMARK SMILES CS(=O)(=O)c1ccc(C2=NN(c3ccc(C(=O)OCCOCCOCCOCCOC(=O)c4ccc(-c5c6nc(c(-c7c(F)cccc7F)c7ccc([nH]7)c(-c7c(F)cccc7F)c7nc(c(-c8c(F)cccc8F)c8ccc5[nH]8)C=C7)C=C6)cc4)cc3)[C@H](c3ccccc3)C2)cc1
REMARK SMILES IDX 23 1 22 2 21 3 20 4 19 5 18 6 16 7 17 8 15 9 12 10 13 11
REMARK SMILES IDX 88 12 14 13 87 14 11 15 9 16 10 17 96 18 89 19 8 20 5 21
REMARK SMILES IDX 6 22 98 23 7 24 97 25 2 26 1 27 3 28 4 29 90 30 91 31 95 32
REMARK SMILES IDX 92 33 94 34 93 35 24 36 25 37 26 38 27 39 28 40 29 41 30 42
REMARK SMILES IDX 31 43 32 44 33 45 34 46 86 47 35 48 85 49 36 50 37 51 38 52
REMARK SMILES IDX 79 53 39 54 84 55 78 56 80 57 40 58 83 59 77 60 76 61 41 63
REMARK SMILES IDX 67 64 50 65 66 66 51 67 54 68 65 69 81 70 52 71 53 72 64 74
REMARK SMILES IDX 82 75 55 76 42 77 43 78 48 79 44 80 45 81 47 82 49 83 46 84
REMARK SMILES IDX 68 85 69 86 74 87 70 88 71 89 73 90 75 91 72 92 56 93 57 94
REMARK SMILES IDX 62 95 58 96 59 97 61 98 63 99 60 100
REMARK H PARENT 80 62 54 73
REMARK Flexibility Score: inf
ROOT
ATOM      1  C   UNL     1       8.536  -1.076   9.936  1.00  0.00     0.188 C 
ENDROOT
BRANCH   1   2
ATOM      2  C   UNL     1       9.618   0.009  10.100  1.00  0.00     0.188 C 
BRANCH   2   3
ATOM      3  O   UNL     1      10.530  -0.268  11.149  1.00  0.00    -0.376 OA
BRANCH   3   4
ATOM      4  C   UNL     1      10.398   0.369  12.405  1.00  0.00     0.202 C 
BRANCH   4   5
ATOM      5  C   UNL     1       9.051   0.476  13.140  1.00  0.00     0.261 C 
BRANCH   5   6
ATOM      6  O   UNL     1       7.881   0.602  12.333  1.00  0.00    -0.460 OA
BRANCH   6   7
ATOM      7  C   UNL     1       7.609   1.812  11.803  1.00  0.00     0.338 C 
ATOM      8  O   UNL     1       8.243   2.839  11.969  1.00  0.00    -0.246 OA
BRANCH   7   9
ATOM      9  C   UNL     1       6.498   1.647  10.829  1.00  0.00     0.060 A 
ATOM     10  C   UNL     1       4.379   1.443   8.997  1.00  0.00     0.060 A 
ATOM     11  C   UNL     1       5.436   2.331   8.760  1.00  0.00     0.029 A 
ATOM     12  C   UNL     1       4.468   0.567  10.087  1.00  0.00     0.029 A 
ATOM     13  C   UNL     1       6.489   2.440   9.675  1.00  0.00     0.018 A 
ATOM     14  C   UNL     1       5.505   0.678  11.012  1.00  0.00     0.018 A 
BRANCH  10  15
ATOM     15  N   UNL     1       3.176   1.524   8.284  1.00  0.00    -0.257 N 
ATOM     16  C   UNL     1       2.193   2.018   6.455  1.00  0.00     0.071 C 
ATOM     17  N   UNL     1       3.185   1.335   6.935  1.00  0.00    -0.176 NA
ATOM     18  C   UNL     1       1.443   2.875   7.435  1.00  0.00     0.091 C 
ATOM     19  C   UNL     1       2.185   2.529   8.733  1.00  0.00     0.144 C 
BRANCH  16  20
ATOM     20  C   UNL     1       1.773   1.932   5.046  1.00  0.00    -0.002 A 
ATOM     21  C   UNL     1       0.883   1.653   2.419  1.00  0.00     0.067 A 
ATOM     22  C   UNL     1       1.230   0.517   3.152  1.00  0.00     0.021 A 
ATOM     23  C   UNL     1       0.990   2.929   2.991  1.00  0.00     0.021 A 
ATOM     24  C   UNL     1       1.689   0.661   4.463  1.00  0.00     0.011 A 
ATOM     25  C   UNL     1       1.423   3.069   4.314  1.00  0.00     0.011 A 
BRANCH  21  26
ATOM     26  S   UNL     1       0.302   1.530   0.742  1.00  0.00     0.175 S 
ATOM     27  C   UNL     1       0.977   0.036   0.070  1.00  0.00     0.163 C 
ATOM     28  O   UNL     1       0.902   2.632   0.014  1.00  0.00    -0.224 OA
ATOM     29  O   UNL     1      -1.138   1.379   0.822  1.00  0.00    -0.224 OA
ENDBRANCH  21  26
ENDBRANCH  16  20
BRANCH  19  30
ATOM     30  C   UNL     1       1.371   2.022   9.921  1.00  0.00    -0.023 A 
ATOM     31  C   UNL     1       0.094   1.455   9.817  1.00  0.00     0.006 A 
ATOM     32  C   UNL     1       1.956   2.068  11.204  1.00  0.00     0.006 A 
ATOM     33  C   UNL     1      -0.555   0.933  10.943  1.00  0.00     0.000 A 
ATOM     34  C   UNL     1       1.336   1.496  12.316  1.00  0.00     0.000 A 
ATOM     35  C   UNL     1       0.075   0.930  12.185  1.00  0.00     0.000 A 
ENDBRANCH  19  30
ENDBRANCH  10  15
ENDBRANCH   7   9
ENDBRANCH   6   7
ENDBRANCH   5   6
ENDBRANCH   4   5
ENDBRANCH   3   4
ENDBRANCH   2   3
ENDBRANCH   1   2
BRANCH   1  36
ATOM     36  O   UNL     1       8.358  -1.946  11.043  1.00  0.00    -0.377 OA
BRANCH  36  37
ATOM     37  C   UNL     1       9.405  -2.848  11.402  1.00  0.00     0.188 C 
BRANCH  37  38
ATOM     38  C   UNL     1      10.737  -2.961  10.616  1.00  0.00     0.188 C 
BRANCH  38  39
ATOM     39  O   UNL     1      10.697  -2.491   9.279  1.00  0.00    -0.376 OA
BRANCH  39  40
ATOM     40  C   UNL     1      10.695  -3.440   8.229  1.00  0.00     0.202 C 
BRANCH  40  41
ATOM     41  C   UNL     1       9.462  -4.348   8.125  1.00  0.00     0.261 C 
BRANCH  41  42
ATOM     42  O   UNL     1       9.135  -5.087   9.311  1.00  0.00    -0.460 OA
BRANCH  42  43
ATOM     43  C   UNL     1      10.024  -6.017   9.708  1.00  0.00     0.338 C 
ATOM     44  O   UNL     1      11.072  -6.322   9.153  1.00  0.00    -0.246 OA
BRANCH  43  45
ATOM     45  C   UNL     1       9.625  -6.504  11.041  1.00  0.00     0.060 A 
ATOM     46  C   UNL     1      10.530  -6.376  12.102  1.00  0.00     0.016 A 
ATOM     47  C   UNL     1       8.380  -7.107  11.238  1.00  0.00     0.016 A 
ATOM     48  C   UNL     1      10.220  -6.914  13.348  1.00  0.00     0.010 A 
ATOM     49  C   UNL     1       8.077  -7.662  12.485  1.00  0.00     0.010 A 
ATOM     50  C   UNL     1       9.019  -7.614  13.529  1.00  0.00    -0.014 A 
BRANCH  50  51
ATOM     51  C   UNL     1       8.877  -8.489  14.719  1.00  0.00     0.031 A 
ATOM     52  C   UNL     1       9.170  -9.959  14.556  1.00  0.00     0.074 A 
ATOM     53  C   UNL     1       8.583  -7.987  15.931  1.00  0.00     0.049 A 
ATOM     54  N   UNL     1       9.140 -10.917  15.446  1.00  0.00    -0.248 NA
ATOM     55  C   UNL     1       9.556 -10.405  13.206  1.00  0.00     0.031 C 
ATOM     56  C   UNL     1       8.324  -6.580  16.227  1.00  0.00     0.029 A 
ATOM     57  N   UNL     1       8.460  -8.615  17.146  1.00  0.00    -0.354 N 
ATOM     58  C   UNL     1       9.515 -12.071  14.768  1.00  0.00     0.074 A 
ATOM     59  C   UNL     1       9.714 -11.708  13.383  1.00  0.00     0.031 C 
ATOM     60  C   UNL     1       8.067  -6.451  17.541  1.00  0.00     0.029 A 
ATOM     61  C   UNL     1       8.117  -7.768  18.172  1.00  0.00     0.049 A 
ATOM     62  H   UNL     1       8.604  -9.581  17.270  1.00  0.00     0.167 HD
ATOM     63  C   UNL     1       9.703 -13.319  15.257  1.00  0.00     0.037 A 
ATOM     64  C   UNL     1       7.858  -8.036  19.468  1.00  0.00     0.037 A 
ATOM     65  C   UNL     1       9.500 -13.686  16.633  1.00  0.00     0.049 A 
ATOM     66  C   UNL     1       7.978  -9.456  19.965  1.00  0.00     0.074 A 
ATOM     67  C   UNL     1       9.644 -14.928  17.224  1.00  0.00     0.029 A 
ATOM     68  N   UNL     1       9.110 -12.808  17.632  1.00  0.00    -0.354 N 
ATOM     69  N   UNL     1       8.351 -10.535  19.319  1.00  0.00    -0.248 NA
ATOM     70  C   UNL     1       7.647  -9.693  21.378  1.00  0.00     0.031 C 
ATOM     71  C   UNL     1       9.297 -14.812  18.573  1.00  0.00     0.029 A 
ATOM     72  C   UNL     1       8.992 -13.486  18.833  1.00  0.00     0.049 A 
ATOM     73  H   UNL     1       8.941 -11.846  17.506  1.00  0.00     0.167 HD
ATOM     74  C   UNL     1       8.334 -11.565  20.253  1.00  0.00     0.074 A 
ATOM     75  C   UNL     1       7.937 -10.979  21.515  1.00  0.00     0.031 C 
ATOM     76  C   UNL     1       8.615 -12.881  20.084  1.00  0.00     0.037 A 
BRANCH  63  77
ATOM     77  C   UNL     1      10.149 -14.382  14.296  1.00  0.00     0.057 A 
ATOM     78  C   UNL     1      11.448 -14.397  13.769  1.00  0.00     0.134 A 
ATOM     79  C   UNL     1       9.292 -15.427  13.932  1.00  0.00     0.134 A 
ATOM     80  F   UNL     1      12.313 -13.415  14.064  1.00  0.00    -0.206 F 
ATOM     81  C   UNL     1      11.872 -15.406  12.904  1.00  0.00     0.040 A 
ATOM     82  C   UNL     1       9.714 -16.457  13.089  1.00  0.00     0.040 A 
ATOM     83  F   UNL     1       8.036 -15.474  14.402  1.00  0.00    -0.206 F 
ATOM     84  C   UNL     1      11.007 -16.446  12.570  1.00  0.00     0.006 A 
ENDBRANCH  63  77
BRANCH  64  85
ATOM     85  C   UNL     1       7.428  -6.955  20.396  1.00  0.00     0.057 A 
ATOM     86  C   UNL     1       8.203  -6.589  21.503  1.00  0.00     0.134 A 
ATOM     87  C   UNL     1       6.189  -6.320  20.244  1.00  0.00     0.134 A 
ATOM     88  F   UNL     1       9.389  -7.177  21.721  1.00  0.00    -0.206 F 
ATOM     89  C   UNL     1       7.745  -5.666  22.446  1.00  0.00     0.040 A 
ATOM     90  C   UNL     1       5.734  -5.371  21.160  1.00  0.00     0.040 A 
ATOM     91  F   UNL     1       5.395  -6.622  19.206  1.00  0.00    -0.206 F 
ATOM     92  C   UNL     1       6.506  -5.053  22.275  1.00  0.00     0.006 A 
ENDBRANCH  64  85
BRANCH  76  93
ATOM     93  C   UNL     1       8.553 -13.763  21.299  1.00  0.00     0.057 A 
ATOM     94  C   UNL     1       7.341 -14.089  21.920  1.00  0.00     0.134 A 
ATOM     95  C   UNL     1       9.723 -14.320  21.835  1.00  0.00     0.134 A 
ATOM     96  F   UNL     1       6.185 -13.583  21.464  1.00  0.00    -0.206 F 
ATOM     97  C   UNL     1       7.296 -14.910  23.049  1.00  0.00     0.040 A 
ATOM     98  C   UNL     1       9.687 -15.168  22.942  1.00  0.00     0.040 A 
ATOM     99  F   UNL     1      10.917 -14.061  21.282  1.00  0.00    -0.206 F 
ATOM    100  C   UNL     1       8.472 -15.457  23.559  1.00  0.00     0.006 A 
ENDBRANCH  76  93
ENDBRANCH  50  51
ENDBRANCH  43  45
ENDBRANCH  42  43
ENDBRANCH  41  42
ENDBRANCH  40  41
ENDBRANCH  39  40
ENDBRANCH  38  39
ENDBRANCH  37  38
ENDBRANCH  36  37
ENDBRANCH   1  36
TORSDOF 24
