REMARK SMILES C[C@H]1CCc2sc3ncn4nc(/C=C\C(=O)OCCOCCOCCOCCOC(=O)c5ccc(-c6c7nc(c(-c8c(F)cccc8F)c8ccc([nH]8)c(-c8c(F)cccc8F)c8nc(c(-c9c(F)cccc9F)c9ccc6[nH]9)C=C8)C=C7)cc5)nc4c3c2C1
REMARK SMILES IDX 24 1 23 2 22 3 21 4 20 5 19 6 18 7 17 8 15 9 16 10 14 11
REMARK SMILES IDX 13 12 12 13 1 14 2 15 3 16 90 17 4 18 89 19 5 20 88 21 6 22
REMARK SMILES IDX 7 23 87 24 8 25 10 26 86 27 9 28 11 29 25 30 26 31 27 32
REMARK SMILES IDX 28 33 29 34 30 35 31 36 32 37 33 38 85 39 34 40 84 41 35 42
REMARK SMILES IDX 36 43 37 44 78 45 38 46 83 47 77 48 79 49 39 50 82 51 76 52
REMARK SMILES IDX 75 53 40 55 66 56 49 57 65 58 50 59 53 60 64 61 80 62 51 63
REMARK SMILES IDX 52 64 63 66 81 67 54 68 41 69 42 70 47 71 43 72 44 73 46 74
REMARK SMILES IDX 48 75 45 76 67 77 68 78 73 79 69 80 70 81 72 82 74 83 71 84
REMARK SMILES IDX 55 85 56 86 61 87 57 88 58 89 60 90 62 91 59 92
REMARK H PARENT 79 54 53 65
REMARK Flexibility Score: inf
ROOT
ATOM      1  C   UNL     1      -3.240  -1.681  -0.032  1.00  0.00     0.188 C 
ENDROOT
BRANCH   1   2
ATOM      2  O   UNL     1      -3.939  -2.912  -0.064  1.00  0.00    -0.377 OA
BRANCH   2   3
ATOM      3  C   UNL     1      -3.143  -4.071  -0.280  1.00  0.00     0.188 C 
BRANCH   3   4
ATOM      4  C   UNL     1      -1.933  -4.326   0.649  1.00  0.00     0.188 C 
BRANCH   4   5
ATOM      5  O   UNL     1      -1.202  -3.146   0.956  1.00  0.00    -0.376 OA
BRANCH   5   6
ATOM      6  C   UNL     1       0.186  -3.175   0.664  1.00  0.00     0.202 C 
BRANCH   6   7
ATOM      7  C   UNL     1       0.482  -3.032  -0.821  1.00  0.00     0.261 C 
BRANCH   7   8
ATOM      8  O   UNL     1      -0.339  -3.829  -1.672  1.00  0.00    -0.460 OA
BRANCH   8   9
ATOM      9  C   UNL     1       0.024  -5.086  -1.942  1.00  0.00     0.330 C 
ATOM     10  O   UNL     1       0.967  -5.684  -1.444  1.00  0.00    -0.247 OA
BRANCH   9  11
ATOM     11  C   UNL     1      -0.998  -5.751  -2.778  1.00  0.00     0.097 C 
ATOM     12  C   UNL     1      -1.851  -5.258  -3.696  1.00  0.00     0.058 C 
BRANCH  12  13
ATOM     13  C   UNL     1      -2.051  -3.943  -4.228  1.00  0.00     0.175 A 
ATOM     14  C   UNL     1       2.122   1.070  -2.460  1.00  0.00     0.008 C 
ATOM     15  C   UNL     1       0.746   1.093  -1.789  1.00  0.00    -0.009 C 
ATOM     16  C   UNL     1       0.082   2.484  -1.841  1.00  0.00     0.009 C 
ATOM     17  C   UNL     1      -0.176   0.014  -2.379  1.00  0.00     0.041 C 
ATOM     18  C   UNL     1      -0.380   2.904  -3.251  1.00  0.00     0.047 C 
ATOM     19  C   UNL     1      -0.946   0.440  -3.572  1.00  0.00    -0.020 A 
ATOM     20  C   UNL     1      -1.047   1.760  -3.957  1.00  0.00     0.011 A 
ATOM     21  C   UNL     1      -1.683  -0.395  -4.439  1.00  0.00     0.060 A 
ATOM     22  S   UNL     1      -1.988   1.955  -5.372  1.00  0.00    -0.120 S 
ATOM     23  C   UNL     1      -2.303   0.271  -5.484  1.00  0.00     0.129 A 
ATOM     24  C   UNL     1      -1.905  -1.853  -4.439  1.00  0.00     0.168 A 
ATOM     25  N   UNL     1      -3.065  -0.277  -6.492  1.00  0.00    -0.225 NA
ATOM     26  N   UNL     1      -2.677  -2.362  -5.434  1.00  0.00    -0.201 N 
ATOM     27  N   UNL     1      -1.484  -2.820  -3.665  1.00  0.00    -0.207 NA
ATOM     28  C   UNL     1      -3.233  -1.578  -6.444  1.00  0.00     0.227 A 
ATOM     29  N   UNL     1      -2.809  -3.697  -5.316  1.00  0.00    -0.145 NA
ENDBRANCH  12  13
ENDBRANCH   9  11
ENDBRANCH   8   9
ENDBRANCH   7   8
ENDBRANCH   6   7
ENDBRANCH   5   6
ENDBRANCH   4   5
ENDBRANCH   3   4
ENDBRANCH   2   3
ENDBRANCH   1   2
BRANCH   1  30
ATOM     30  C   UNL     1      -3.168  -1.031   1.366  1.00  0.00     0.188 C 
BRANCH  30  31
ATOM     31  O   UNL     1      -3.372  -1.738   2.588  1.00  0.00    -0.376 OA
BRANCH  31  32
ATOM     32  C   UNL     1      -4.208  -2.875   2.725  1.00  0.00     0.202 C 
BRANCH  32  33
ATOM     33  C   UNL     1      -5.692  -2.874   2.372  1.00  0.00     0.261 C 
BRANCH  33  34
ATOM     34  O   UNL     1      -6.030  -2.049   1.283  1.00  0.00    -0.460 OA
BRANCH  34  35
ATOM     35  C   UNL     1      -6.153  -0.762   1.616  1.00  0.00     0.338 C 
ATOM     36  O   UNL     1      -5.979  -0.256   2.728  1.00  0.00    -0.246 OA
BRANCH  35  37
ATOM     37  C   UNL     1      -6.684  -0.034   0.469  1.00  0.00     0.060 A 
ATOM     38  C   UNL     1      -6.951   1.310   0.710  1.00  0.00     0.016 A 
ATOM     39  C   UNL     1      -7.274  -0.750  -0.588  1.00  0.00     0.016 A 
ATOM     40  C   UNL     1      -8.068   1.835   0.123  1.00  0.00     0.010 A 
ATOM     41  C   UNL     1      -8.390  -0.217  -1.181  1.00  0.00     0.010 A 
ATOM     42  C   UNL     1      -8.833   1.014  -0.718  1.00  0.00    -0.014 A 
BRANCH  42  43
ATOM     43  C   UNL     1     -10.125   1.524  -1.100  1.00  0.00     0.031 A 
ATOM     44  C   UNL     1     -10.023   2.683  -2.002  1.00  0.00     0.074 A 
ATOM     45  C   UNL     1     -11.277   0.998  -0.650  1.00  0.00     0.049 A 
ATOM     46  N   UNL     1     -10.287   3.913  -1.720  1.00  0.00    -0.248 NA
ATOM     47  C   UNL     1      -9.356   2.476  -3.294  1.00  0.00     0.031 C 
ATOM     48  C   UNL     1     -11.505  -0.267   0.053  1.00  0.00     0.029 A 
ATOM     49  N   UNL     1     -12.531   1.492  -0.807  1.00  0.00    -0.354 N 
ATOM     50  C   UNL     1     -10.000   4.622  -2.877  1.00  0.00     0.074 A 
ATOM     51  C   UNL     1      -9.273   3.728  -3.741  1.00  0.00     0.031 C 
ATOM     52  C   UNL     1     -12.831  -0.542   0.047  1.00  0.00     0.029 A 
ATOM     53  C   UNL     1     -13.542   0.588  -0.529  1.00  0.00     0.049 A 
ATOM     54  H   UNL     1     -12.707   2.417  -1.095  1.00  0.00     0.167 HD
ATOM     55  C   UNL     1     -10.603   5.812  -3.127  1.00  0.00     0.037 A 
ATOM     56  C   UNL     1     -14.849   0.751  -0.848  1.00  0.00     0.037 A 
ATOM     57  C   UNL     1     -11.126   6.400  -1.920  1.00  0.00     0.049 A 
ATOM     58  C   UNL     1     -15.078   2.208  -1.050  1.00  0.00     0.074 A 
ATOM     59  C   UNL     1     -10.563   6.833  -0.735  1.00  0.00     0.029 A 
ATOM     60  N   UNL     1     -12.470   6.266  -1.670  1.00  0.00    -0.354 N 
ATOM     61  N   UNL     1     -15.033   3.087  -0.086  1.00  0.00    -0.248 NA
ATOM     62  C   UNL     1     -14.879   2.746  -2.390  1.00  0.00     0.031 C 
ATOM     63  C   UNL     1     -11.505   6.484   0.274  1.00  0.00     0.029 A 
ATOM     64  C   UNL     1     -12.611   5.908  -0.354  1.00  0.00     0.049 A 
ATOM     65  H   UNL     1     -13.200   6.403  -2.317  1.00  0.00     0.167 HD
ATOM     66  C   UNL     1     -14.387   4.186  -0.635  1.00  0.00     0.074 A 
ATOM     67  C   UNL     1     -14.386   3.948  -2.076  1.00  0.00     0.031 C 
ATOM     68  C   UNL     1     -13.657   5.042   0.141  1.00  0.00     0.037 A 
BRANCH  55  69
ATOM     69  C   UNL     1     -11.047   6.231  -4.500  1.00  0.00     0.057 A 
ATOM     70  C   UNL     1     -11.540   7.531  -4.690  1.00  0.00     0.134 A 
ATOM     71  C   UNL     1     -11.284   5.334  -5.563  1.00  0.00     0.134 A 
ATOM     72  F   UNL     1     -11.394   8.469  -3.742  1.00  0.00    -0.206 F 
ATOM     73  C   UNL     1     -12.278   7.891  -5.823  1.00  0.00     0.040 A 
ATOM     74  C   UNL     1     -11.971   5.698  -6.721  1.00  0.00     0.040 A 
ATOM     75  F   UNL     1     -10.961   4.037  -5.501  1.00  0.00    -0.206 F 
ATOM     76  C   UNL     1     -12.501   6.971  -6.840  1.00  0.00     0.006 A 
ENDBRANCH  55  69
BRANCH  56  77
ATOM     77  C   UNL     1     -15.782  -0.283  -1.353  1.00  0.00     0.057 A 
ATOM     78  C   UNL     1     -17.165  -0.057  -1.397  1.00  0.00     0.134 A 
ATOM     79  C   UNL     1     -15.321  -1.413  -2.054  1.00  0.00     0.134 A 
ATOM     80  F   UNL     1     -17.697   1.021  -0.802  1.00  0.00    -0.206 F 
ATOM     81  C   UNL     1     -18.035  -0.897  -2.107  1.00  0.00     0.040 A 
ATOM     82  C   UNL     1     -16.178  -2.262  -2.759  1.00  0.00     0.040 A 
ATOM     83  F   UNL     1     -14.012  -1.683  -2.153  1.00  0.00    -0.206 F 
ATOM     84  C   UNL     1     -17.541  -1.999  -2.798  1.00  0.00     0.006 A 
ENDBRANCH  56  77
BRANCH  68  85
ATOM     85  C   UNL     1     -13.753   4.901   1.636  1.00  0.00     0.057 A 
ATOM     86  C   UNL     1     -13.308   3.774   2.344  1.00  0.00     0.134 A 
ATOM     87  C   UNL     1     -14.129   6.016   2.393  1.00  0.00     0.134 A 
ATOM     88  F   UNL     1     -12.839   2.695   1.706  1.00  0.00    -0.206 F 
ATOM     89  C   UNL     1     -13.265   3.751   3.743  1.00  0.00     0.040 A 
ATOM     90  C   UNL     1     -14.059   6.018   3.789  1.00  0.00     0.040 A 
ATOM     91  F   UNL     1     -14.512   7.149   1.784  1.00  0.00    -0.206 F 
ATOM     92  C   UNL     1     -13.631   4.881   4.468  1.00  0.00     0.006 A 
ENDBRANCH  68  85
ENDBRANCH  42  43
ENDBRANCH  35  37
ENDBRANCH  34  35
ENDBRANCH  33  34
ENDBRANCH  32  33
ENDBRANCH  31  32
ENDBRANCH  30  31
ENDBRANCH   1  30
TORSDOF 21
