REMARK SMILES C[C@@H](C(=O)OCCOCCOCCOCCOC(=O)c1ccc(-c2c3nc(c(-c4c(F)cccc4F)c4ccc([nH]4)c(-c4c(F)cccc4F)c4nc(c(-c5c(F)cccc5F)c5ccc2[nH]5)C=C4)C=C3)cc1)c1ccc(-c2cccc(OC(=O)NCCC3CCCCC3)c2)c(F)c1
REMARK SMILES IDX 9 1 8 2 7 3 6 4 5 5 3 6 4 7 2 8 1 9 74 10 75 11 98 12 76 13
REMARK SMILES IDX 96 14 77 15 97 16 78 17 79 18 95 19 80 20 82 21 81 22 83 23
REMARK SMILES IDX 84 24 85 25 86 26 87 28 88 29 89 30 90 31 94 32 91 33 93 34
REMARK SMILES IDX 92 35 10 36 11 37 12 38 13 39 14 40 15 41 16 42 17 43 18 44
REMARK SMILES IDX 19 45 20 46 21 47 73 48 22 49 72 50 23 51 24 52 25 53 66 54
REMARK SMILES IDX 26 55 71 56 65 57 67 58 27 59 70 60 64 61 63 62 28 64 54 65
REMARK SMILES IDX 37 66 53 67 38 68 41 69 52 70 68 71 39 72 40 73 51 75 69 76
REMARK SMILES IDX 42 77 29 78 30 79 35 80 31 81 32 82 34 83 36 84 33 85 55 86
REMARK SMILES IDX 56 87 61 88 57 89 58 90 60 91 62 92 59 93 43 94 44 95 49 96
REMARK SMILES IDX 45 97 46 98 48 99 50 100 47 101
REMARK H PARENT 86 27 67 63 41 74
REMARK Flexibility Score: inf
ROOT
ATOM      1  C   UNL     1       0.230   1.977   3.062  1.00  0.00     0.188 C 
ENDROOT
BRANCH   1   2
ATOM      2  O   UNL     1       0.802   2.048   4.358  1.00  0.00    -0.376 OA
BRANCH   2   3
ATOM      3  C   UNL     1       2.029   1.387   4.631  1.00  0.00     0.202 C 
BRANCH   3   4
ATOM      4  C   UNL     1       2.362  -0.016   4.078  1.00  0.00     0.261 C 
BRANCH   4   5
ATOM      5  O   UNL     1       1.942  -0.324   2.734  1.00  0.00    -0.463 OA
BRANCH   5   6
ATOM      6  C   UNL     1       0.917  -1.204   2.602  1.00  0.00     0.313 C 
ATOM      7  O   UNL     1       0.376  -1.758   3.554  1.00  0.00    -0.252 OA
BRANCH   6   8
ATOM      8  C   UNL     1       0.474  -1.453   1.143  1.00  0.00     0.126 C 
ATOM      9  C   UNL     1       1.291  -0.843  -0.003  1.00  0.00     0.025 C 
BRANCH   8  10
ATOM     10  C   UNL     1      -1.033  -1.237   0.991  1.00  0.00    -0.031 A 
ATOM     11  C   UNL     1      -1.633   0.020   0.800  1.00  0.00     0.005 A 
ATOM     12  C   UNL     1      -1.876  -2.337   1.162  1.00  0.00     0.044 A 
ATOM     13  C   UNL     1      -3.026   0.183   0.864  1.00  0.00     0.012 A 
ATOM     14  C   UNL     1      -3.258  -2.175   1.190  1.00  0.00     0.131 A 
ATOM     15  C   UNL     1      -3.866  -0.914   1.084  1.00  0.00     0.018 A 
ATOM     16  F   UNL     1      -4.006  -3.276   1.361  1.00  0.00    -0.206 F 
BRANCH  15  17
ATOM     17  C   UNL     1      -5.315  -0.754   1.294  1.00  0.00    -0.012 A 
ATOM     18  C   UNL     1      -6.134  -0.012   0.430  1.00  0.00     0.009 A 
ATOM     19  C   UNL     1      -5.913  -1.362   2.412  1.00  0.00     0.056 A 
ATOM     20  C   UNL     1      -7.511   0.090   0.665  1.00  0.00     0.004 A 
ATOM     21  C   UNL     1      -7.277  -1.248   2.659  1.00  0.00     0.133 A 
ATOM     22  C   UNL     1      -8.085  -0.533   1.776  1.00  0.00     0.047 A 
BRANCH  21  23
ATOM     23  O   UNL     1      -7.931  -1.843   3.766  1.00  0.00    -0.410 OA
BRANCH  23  24
ATOM     24  C   UNL     1      -7.275  -2.348   4.887  1.00  0.00     0.412 C 
ATOM     25  O   UNL     1      -6.062  -2.383   5.078  1.00  0.00    -0.224 OA
ATOM     26  N   UNL     1      -8.108  -2.818   5.855  1.00  0.00    -0.321 N 
ATOM     27  H   UNL     1      -7.673  -3.156   6.671  1.00  0.00     0.167 HD
BRANCH  26  28
ATOM     28  C   UNL     1      -9.552  -2.882   5.836  1.00  0.00     0.119 C 
BRANCH  28  29
ATOM     29  C   UNL     1     -10.043  -4.331   5.859  1.00  0.00     0.025 C 
BRANCH  29  30
ATOM     30  C   UNL     1      -9.607  -5.137   7.103  1.00  0.00    -0.009 C 
ATOM     31  C   UNL     1     -10.252  -4.601   8.393  1.00  0.00     0.003 C 
ATOM     32  C   UNL     1      -9.942  -6.625   6.904  1.00  0.00     0.003 C 
ATOM     33  C   UNL     1      -9.899  -5.454   9.610  1.00  0.00     0.000 C 
ATOM     34  C   UNL     1      -9.567  -7.459   8.127  1.00  0.00     0.000 C 
ATOM     35  C   UNL     1     -10.234  -6.924   9.389  1.00  0.00     0.000 C 
ENDBRANCH  29  30
ENDBRANCH  28  29
ENDBRANCH  26  28
ENDBRANCH  23  24
ENDBRANCH  21  23
ENDBRANCH  15  17
ENDBRANCH   8  10
ENDBRANCH   6   8
ENDBRANCH   5   6
ENDBRANCH   4   5
ENDBRANCH   3   4
ENDBRANCH   2   3
ENDBRANCH   1   2
BRANCH   1  36
ATOM     36  C   UNL     1       1.121   2.182   1.822  1.00  0.00     0.188 C 
BRANCH  36  37
ATOM     37  O   UNL     1       2.502   2.291   2.094  1.00  0.00    -0.377 OA
BRANCH  37  38
ATOM     38  C   UNL     1       3.015   3.607   2.215  1.00  0.00     0.188 C 
BRANCH  38  39
ATOM     39  C   UNL     1       2.119   4.681   2.862  1.00  0.00     0.188 C 
BRANCH  39  40
ATOM     40  O   UNL     1       0.811   4.759   2.306  1.00  0.00    -0.376 OA
BRANCH  40  41
ATOM     41  C   UNL     1       0.533   5.761   1.340  1.00  0.00     0.202 C 
BRANCH  41  42
ATOM     42  C   UNL     1       1.182   5.609  -0.046  1.00  0.00     0.261 C 
BRANCH  42  43
ATOM     43  O   UNL     1       2.615   5.539  -0.076  1.00  0.00    -0.460 OA
BRANCH  43  44
ATOM     44  C   UNL     1       3.306   6.581   0.437  1.00  0.00     0.338 C 
ATOM     45  O   UNL     1       2.854   7.620   0.872  1.00  0.00    -0.246 OA
BRANCH  44  46
ATOM     46  C   UNL     1       4.717   6.154   0.574  1.00  0.00     0.060 A 
ATOM     47  C   UNL     1       5.303   6.161   1.847  1.00  0.00     0.016 A 
ATOM     48  C   UNL     1       5.448   5.730  -0.538  1.00  0.00     0.016 A 
ATOM     49  C   UNL     1       6.634   5.776   2.006  1.00  0.00     0.010 A 
ATOM     50  C   UNL     1       6.789   5.372  -0.382  1.00  0.00     0.010 A 
ATOM     51  C   UNL     1       7.397   5.427   0.885  1.00  0.00    -0.014 A 
BRANCH  51  52
ATOM     52  C   UNL     1       8.872   5.340   1.004  1.00  0.00     0.031 A 
ATOM     53  C   UNL     1       9.685   6.546   0.618  1.00  0.00     0.074 A 
ATOM     54  C   UNL     1       9.480   4.234   1.467  1.00  0.00     0.049 A 
ATOM     55  N   UNL     1      10.982   6.701   0.584  1.00  0.00    -0.248 NA
ATOM     56  C   UNL     1       8.924   7.740   0.211  1.00  0.00     0.031 C 
ATOM     57  C   UNL     1       8.803   3.022   1.922  1.00  0.00     0.029 A 
ATOM     58  N   UNL     1      10.815   3.954   1.622  1.00  0.00    -0.354 N 
ATOM     59  C   UNL     1      11.193   8.002   0.143  1.00  0.00     0.074 A 
ATOM     60  C   UNL     1       9.893   8.583  -0.106  1.00  0.00     0.031 C 
ATOM     61  C   UNL     1       9.730   2.121   2.295  1.00  0.00     0.029 A 
ATOM     62  C   UNL     1      11.062   2.680   2.071  1.00  0.00     0.049 A 
ATOM     63  H   UNL     1      11.528   4.605   1.430  1.00  0.00     0.167 HD
ATOM     64  C   UNL     1      12.366   8.655  -0.032  1.00  0.00     0.037 A 
ATOM     65  C   UNL     1      12.232   2.035   2.253  1.00  0.00     0.037 A 
ATOM     66  C   UNL     1      13.657   8.072   0.215  1.00  0.00     0.049 A 
ATOM     67  C   UNL     1      13.525   2.757   1.968  1.00  0.00     0.074 A 
ATOM     68  C   UNL     1      14.905   8.657   0.086  1.00  0.00     0.029 A 
ATOM     69  N   UNL     1      13.867   6.766   0.631  1.00  0.00    -0.354 N 
ATOM     70  N   UNL     1      13.717   3.994   1.576  1.00  0.00    -0.248 NA
ATOM     71  C   UNL     1      14.767   1.990   2.152  1.00  0.00     0.031 C 
ATOM     72  C   UNL     1      15.871   7.685   0.362  1.00  0.00     0.029 A 
ATOM     73  C   UNL     1      15.226   6.516   0.731  1.00  0.00     0.049 A 
ATOM     74  H   UNL     1      13.156   6.114   0.826  1.00  0.00     0.167 HD
ATOM     75  C   UNL     1      15.095   4.163   1.503  1.00  0.00     0.074 A 
ATOM     76  C   UNL     1      15.691   2.906   1.902  1.00  0.00     0.031 C 
ATOM     77  C   UNL     1      15.805   5.261   1.141  1.00  0.00     0.037 A 
BRANCH  64  78
ATOM     78  C   UNL     1      12.303  10.062  -0.551  1.00  0.00     0.057 A 
ATOM     79  C   UNL     1      11.815  11.123   0.224  1.00  0.00     0.134 A 
ATOM     80  C   UNL     1      12.765  10.364  -1.839  1.00  0.00     0.134 A 
ATOM     81  F   UNL     1      11.340  10.901   1.459  1.00  0.00    -0.206 F 
ATOM     82  C   UNL     1      11.765  12.427  -0.273  1.00  0.00     0.040 A 
ATOM     83  C   UNL     1      12.749  11.668  -2.335  1.00  0.00     0.040 A 
ATOM     84  F   UNL     1      13.247   9.397  -2.634  1.00  0.00    -0.206 F 
ATOM     85  C   UNL     1      12.241  12.704  -1.553  1.00  0.00     0.006 A 
ENDBRANCH  64  78
BRANCH  65  86
ATOM     86  C   UNL     1      12.245   0.622   2.714  1.00  0.00     0.057 A 
ATOM     87  C   UNL     1      12.765   0.270   3.966  1.00  0.00     0.134 A 
ATOM     88  C   UNL     1      11.776  -0.416   1.899  1.00  0.00     0.134 A 
ATOM     89  F   UNL     1      13.255   1.214   4.782  1.00  0.00    -0.206 F 
ATOM     90  C   UNL     1      12.839  -1.061   4.381  1.00  0.00     0.040 A 
ATOM     91  C   UNL     1      11.815  -1.748   2.314  1.00  0.00     0.040 A 
ATOM     92  F   UNL     1      11.267  -0.149   0.687  1.00  0.00    -0.206 F 
ATOM     93  C   UNL     1      12.357  -2.075   3.555  1.00  0.00     0.006 A 
ENDBRANCH  65  86
BRANCH  77  94
ATOM     94  C   UNL     1      17.304   5.173   1.208  1.00  0.00     0.057 A 
ATOM     95  C   UNL     1      18.047   4.398   0.309  1.00  0.00     0.134 A 
ATOM     96  C   UNL     1      18.016   5.915   2.161  1.00  0.00     0.134 A 
ATOM     97  F   UNL     1      17.428   3.656  -0.622  1.00  0.00    -0.206 F 
ATOM     98  C   UNL     1      19.441   4.343   0.372  1.00  0.00     0.040 A 
ATOM     99  C   UNL     1      19.410   5.894   2.213  1.00  0.00     0.040 A 
ATOM    100  F   UNL     1      17.369   6.690   3.045  1.00  0.00    -0.206 F 
ATOM    101  C   UNL     1      20.126   5.099   1.321  1.00  0.00     0.006 A 
ENDBRANCH  77  94
ENDBRANCH  51  52
ENDBRANCH  44  46
ENDBRANCH  43  44
ENDBRANCH  42  43
ENDBRANCH  41  42
ENDBRANCH  40  41
ENDBRANCH  39  40
ENDBRANCH  38  39
ENDBRANCH  37  38
ENDBRANCH  36  37
ENDBRANCH   1  36
TORSDOF 27
