REMARK SMILES Cc1ccccc1[C@@H]1[NH2+][C@H](C(=O)OCCOCCOCCOCCOC(=O)c2ccc(-c3c4nc(c(-c5c(F)cccc5F)c5ccc([nH]5)c(-c5c(F)cccc5F)c5nc(c(-c6c(F)cccc6F)c6ccc3[nH]6)C=C5)C=C4)cc2)CC2=c3ccccc3=N[C@@H]21
REMARK SMILES IDX 20 1 19 2 18 3 17 4 16 5 15 6 14 7 13 8 11 9 12 10 10 11
REMARK SMILES IDX 8 12 9 13 91 14 83 17 90 18 82 19 84 20 89 21 85 22 88 23
REMARK SMILES IDX 86 24 87 25 7 26 1 27 2 28 3 29 4 30 6 31 5 32 21 33 22 34
REMARK SMILES IDX 23 35 24 36 25 37 26 38 27 39 28 40 29 41 81 42 30 43 80 44
REMARK SMILES IDX 31 45 32 46 33 47 74 48 34 49 79 50 73 51 75 52 35 53 78 54
REMARK SMILES IDX 72 55 71 56 36 58 62 59 45 60 61 61 46 62 49 63 60 64 76 65
REMARK SMILES IDX 47 66 48 67 59 69 77 70 50 71 37 72 38 73 43 74 39 75 40 76
REMARK SMILES IDX 42 77 44 78 41 79 63 80 64 81 69 82 65 83 66 84 68 85 70 86
REMARK SMILES IDX 67 87 51 88 52 89 57 90 53 91 54 92 56 93 58 94 55 95
REMARK H PARENT 9 15 9 16 75 57 49 68
REMARK Flexibility Score: inf
ROOT
ATOM      1  C   UNL     1       0.339   0.180   2.060  1.00  0.00     0.188 C 
ENDROOT
BRANCH   1   2
ATOM      2  O   UNL     1      -0.547   1.208   2.627  1.00  0.00    -0.377 OA
BRANCH   2   3
ATOM      3  C   UNL     1      -0.822   2.653   2.168  1.00  0.00     0.188 C 
BRANCH   3   4
ATOM      4  C   UNL     1      -0.881   3.541   0.505  1.00  0.00     0.188 C 
BRANCH   4   5
ATOM      5  O   UNL     1       0.289   3.554  -1.006  1.00  0.00    -0.376 OA
BRANCH   5   6
ATOM      6  C   UNL     1       0.473   4.730  -2.564  1.00  0.00     0.202 C 
BRANCH   6   7
ATOM      7  C   UNL     1       0.159   6.589  -2.154  1.00  0.00     0.261 C 
BRANCH   7   8
ATOM      8  O   UNL     1      -0.225   7.051  -0.366  1.00  0.00    -0.459 OA
BRANCH   8   9
ATOM      9  C   UNL     1      -0.178   6.650   1.163  1.00  0.00     0.365 C 
ATOM     10  O   UNL     1      -0.810   7.387   1.940  1.00  0.00    -0.245 OA
BRANCH   9  11
ATOM     11  C   UNL     1       0.695   5.200   1.992  1.00  0.00     0.298 C 
ATOM     12  C   UNL     1       1.362   2.590   0.837  1.00  0.00     0.243 C 
ATOM     13  N   UNL     1       1.109   4.061   1.132  1.00  0.00    -0.326 N 
ATOM     14  C   UNL     1       2.816   2.752   1.857  1.00  0.00     0.196 C 
ATOM     15  H   UNL     1       0.474   4.244   0.355  1.00  0.00     0.347 HD
ATOM     16  H   UNL     1       2.017   4.087   1.597  1.00  0.00     0.347 HD
ATOM     17  C   UNL     1       3.018   4.224   2.621  1.00  0.00    -0.024 C 
ATOM     18  N   UNL     1       4.139   2.630   1.220  1.00  0.00    -0.270 NA
ATOM     19  C   UNL     1       1.847   5.176   3.025  1.00  0.00     0.111 C 
ATOM     20  C   UNL     1       4.260   4.683   2.447  1.00  0.00     0.002 A 
ATOM     21  C   UNL     1       4.854   3.669   1.565  1.00  0.00     0.066 A 
ATOM     22  C   UNL     1       4.872   5.971   2.658  1.00  0.00     0.010 A 
ATOM     23  C   UNL     1       6.212   4.048   1.043  1.00  0.00     0.028 A 
ATOM     24  C   UNL     1       6.017   6.274   2.023  1.00  0.00     0.001 A 
ATOM     25  C   UNL     1       6.692   5.291   1.209  1.00  0.00     0.002 A 
BRANCH  12  26
ATOM     26  C   UNL     1       0.335   1.659  -0.602  1.00  0.00     0.015 A 
ATOM     27  C   UNL     1      -2.386   1.391   0.505  1.00  0.00     0.045 C 
ATOM     28  C   UNL     1      -1.565   1.440  -0.806  1.00  0.00    -0.042 A 
ATOM     29  C   UNL     1      -2.438   1.605  -2.663  1.00  0.00     0.004 A 
ATOM     30  C   UNL     1      -1.456   2.199  -4.051  1.00  0.00     0.000 A 
ATOM     31  C   UNL     1       1.109   2.124  -2.220  1.00  0.00     0.010 A 
ATOM     32  C   UNL     1       0.260   2.448  -3.803  1.00  0.00     0.001 A 
ENDBRANCH  12  26
ENDBRANCH   9  11
ENDBRANCH   8   9
ENDBRANCH   7   8
ENDBRANCH   6   7
ENDBRANCH   5   6
ENDBRANCH   4   5
ENDBRANCH   3   4
ENDBRANCH   2   3
ENDBRANCH   1   2
BRANCH   1  33
ATOM     33  C   UNL     1      -0.286  -1.022   1.362  1.00  0.00     0.188 C 
BRANCH  33  34
ATOM     34  O   UNL     1      -1.642  -0.867   1.155  1.00  0.00    -0.376 OA
BRANCH  34  35
ATOM     35  C   UNL     1      -2.537  -1.088   2.223  1.00  0.00     0.202 C 
BRANCH  35  36
ATOM     36  C   UNL     1      -3.267  -2.250   1.603  1.00  0.00     0.261 C 
BRANCH  36  37
ATOM     37  O   UNL     1      -3.996  -1.644   0.430  1.00  0.00    -0.460 OA
BRANCH  37  38
ATOM     38  C   UNL     1      -3.393  -1.638  -0.808  1.00  0.00     0.338 C 
ATOM     39  O   UNL     1      -2.866  -2.642  -1.283  1.00  0.00    -0.246 OA
BRANCH  38  40
ATOM     40  C   UNL     1      -3.164  -0.251  -1.488  1.00  0.00     0.060 A 
ATOM     41  C   UNL     1      -1.614  -0.297  -2.170  1.00  0.00     0.016 A 
ATOM     42  C   UNL     1      -3.987   1.292  -1.157  1.00  0.00     0.016 A 
ATOM     43  C   UNL     1      -0.696   1.224  -2.396  1.00  0.00     0.010 A 
ATOM     44  C   UNL     1      -3.191   2.917  -1.318  1.00  0.00     0.010 A 
ATOM     45  C   UNL     1      -1.438   3.072  -1.898  1.00  0.00    -0.014 A 
BRANCH  45  46
ATOM     46  C   UNL     1      -0.934   4.884  -1.202  1.00  0.00     0.031 A 
ATOM     47  C   UNL     1      -2.186   5.818  -1.537  1.00  0.00     0.074 A 
ATOM     48  C   UNL     1       0.749   5.338  -0.659  1.00  0.00     0.049 A 
ATOM     49  N   UNL     1      -2.177   7.033  -1.143  1.00  0.00    -0.248 NA
ATOM     50  C   UNL     1      -3.344   5.632  -2.427  1.00  0.00     0.031 C 
ATOM     51  C   UNL     1       1.884   6.542  -0.130  1.00  0.00     0.029 A 
ATOM     52  N   UNL     1       2.099   4.509  -0.903  1.00  0.00    -0.354 N 
ATOM     53  C   UNL     1      -3.077   7.813  -1.737  1.00  0.00     0.074 A 
ATOM     54  C   UNL     1      -3.915   6.857  -2.416  1.00  0.00     0.031 C 
ATOM     55  C   UNL     1       3.193   6.223  -0.206  1.00  0.00     0.029 A 
ATOM     56  C   UNL     1       3.371   4.980  -0.903  1.00  0.00     0.049 A 
ATOM     57  H   UNL     1       1.992   3.545  -1.071  1.00  0.00     0.167 HD
ATOM     58  C   UNL     1      -2.965   9.096  -1.312  1.00  0.00     0.037 A 
ATOM     59  C   UNL     1       4.224   4.685  -1.930  1.00  0.00     0.037 A 
ATOM     60  C   UNL     1      -1.496   9.498  -1.044  1.00  0.00     0.049 A 
ATOM     61  C   UNL     1       4.021   6.099  -2.688  1.00  0.00     0.074 A 
ATOM     62  C   UNL     1      -0.764   9.857   0.082  1.00  0.00     0.029 A 
ATOM     63  N   UNL     1      -0.474   9.299  -2.032  1.00  0.00    -0.354 N 
ATOM     64  N   UNL     1       2.881   6.797  -2.731  1.00  0.00    -0.248 NA
ATOM     65  C   UNL     1       5.145   6.999  -2.914  1.00  0.00     0.031 C 
ATOM     66  C   UNL     1       0.665   9.773  -0.213  1.00  0.00     0.029 A 
ATOM     67  C   UNL     1       0.881   9.334  -1.536  1.00  0.00     0.049 A 
ATOM     68  H   UNL     1      -0.684   9.149  -2.982  1.00  0.00     0.167 HD
ATOM     69  C   UNL     1       3.084   8.203  -2.697  1.00  0.00     0.074 A 
ATOM     70  C   UNL     1       4.557   8.218  -2.880  1.00  0.00     0.031 C 
ATOM     71  C   UNL     1       2.164   9.287  -2.461  1.00  0.00     0.037 A 
BRANCH  58  72
ATOM     72  C   UNL     1      -4.235   9.761  -0.801  1.00  0.00     0.057 A 
ATOM     73  C   UNL     1      -4.188  11.029  -0.211  1.00  0.00     0.134 A 
ATOM     74  C   UNL     1      -5.522   9.154  -0.750  1.00  0.00     0.134 A 
ATOM     75  F   UNL     1      -3.034  11.699  -0.100  1.00  0.00    -0.206 F 
ATOM     76  C   UNL     1      -5.328  11.668   0.313  1.00  0.00     0.040 A 
ATOM     77  C   UNL     1      -6.673   9.798  -0.275  1.00  0.00     0.040 A 
ATOM     78  F   UNL     1      -5.744   7.882  -1.103  1.00  0.00    -0.206 F 
ATOM     79  C   UNL     1      -6.580  11.068   0.255  1.00  0.00     0.006 A 
ENDBRANCH  58  72
BRANCH  59  80
ATOM     80  C   UNL     1       4.331   3.122  -2.361  1.00  0.00     0.057 A 
ATOM     81  C   UNL     1       4.536   2.089  -1.382  1.00  0.00     0.134 A 
ATOM     82  C   UNL     1       3.970   2.511  -3.565  1.00  0.00     0.134 A 
ATOM     83  F   UNL     1       5.617   2.151  -0.604  1.00  0.00    -0.206 F 
ATOM     84  C   UNL     1       3.962   0.783  -1.365  1.00  0.00     0.040 A 
ATOM     85  C   UNL     1       3.543   1.119  -3.651  1.00  0.00     0.040 A 
ATOM     86  F   UNL     1       3.875   3.240  -4.679  1.00  0.00    -0.206 F 
ATOM     87  C   UNL     1       3.413   0.296  -2.522  1.00  0.00     0.006 A 
ENDBRANCH  59  80
BRANCH  71  88
ATOM     88  C   UNL     1       2.273  10.590  -3.289  1.00  0.00     0.057 A 
ATOM     89  C   UNL     1       3.208  10.824  -4.301  1.00  0.00     0.134 A 
ATOM     90  C   UNL     1       1.243  11.577  -3.237  1.00  0.00     0.134 A 
ATOM     91  F   UNL     1       4.223   9.997  -4.559  1.00  0.00    -0.206 F 
ATOM     92  C   UNL     1       3.126  11.917  -5.172  1.00  0.00     0.040 A 
ATOM     93  C   UNL     1       1.089  12.599  -4.170  1.00  0.00     0.040 A 
ATOM     94  F   UNL     1       0.294  11.618  -2.296  1.00  0.00    -0.206 F 
ATOM     95  C   UNL     1       2.046  12.784  -5.138  1.00  0.00     0.006 A 
ENDBRANCH  71  88
ENDBRANCH  45  46
ENDBRANCH  38  40
ENDBRANCH  37  38
ENDBRANCH  36  37
ENDBRANCH  35  36
ENDBRANCH  34  35
ENDBRANCH  33  34
ENDBRANCH   1  33
TORSDOF 21
