REMARK SMILES C[NH2+][C@]1(C(=O)OCCOCCOCCOCCOC(=O)c2ccc(-c3c4nc(c(-c5c(F)cccc5F)c5ccc([nH]5)c(-c5c(F)cccc5F)c5nc(c(-c6c(F)cccc6F)c6ccc3[nH]6)C=C5)C=C4)cc2)CCC[C@@H](OCC2CCCCC2)C1
REMARK SMILES IDX 11 1 10 2 9 3 8 4 7 5 6 6 4 7 5 8 3 9 75 10 87 11 76 12
REMARK SMILES IDX 78 13 77 14 2 15 1 16 79 19 80 20 81 21 82 22 86 23 83 24
REMARK SMILES IDX 85 25 84 26 12 27 13 28 14 29 15 30 16 31 17 32 18 33 19 34
REMARK SMILES IDX 20 35 21 36 22 37 74 38 23 39 73 40 24 41 25 42 26 43 67 44
REMARK SMILES IDX 27 45 72 46 66 47 68 48 28 49 71 50 65 51 64 52 29 54 55 55
REMARK SMILES IDX 38 56 54 57 39 58 42 59 53 60 69 61 40 62 41 63 52 65 70 66
REMARK SMILES IDX 43 67 30 68 31 69 36 70 32 71 33 72 35 73 37 74 34 75 56 76
REMARK SMILES IDX 57 77 62 78 58 79 59 80 61 81 63 82 60 83 44 84 45 85 50 86
REMARK SMILES IDX 46 87 47 88 49 89 51 90 48 91
REMARK H PARENT 2 17 2 18 68 53 42 64
REMARK Flexibility Score: inf
ROOT
ATOM      1  C   UNL     1       1.251  -3.473  -0.521  1.00  0.00     0.188 C 
ENDROOT
BRANCH   1   2
ATOM      2  C   UNL     1       1.994  -2.508  -1.459  1.00  0.00     0.188 C 
BRANCH   2   3
ATOM      3  O   UNL     1       3.164  -1.831  -1.034  1.00  0.00    -0.376 OA
BRANCH   3   4
ATOM      4  C   UNL     1       3.351  -1.470   0.323  1.00  0.00     0.202 C 
BRANCH   4   5
ATOM      5  C   UNL     1       2.275  -0.727   1.145  1.00  0.00     0.261 C 
BRANCH   5   6
ATOM      6  O   UNL     1       0.896  -1.127   1.022  1.00  0.00    -0.459 OA
BRANCH   6   7
ATOM      7  C   UNL     1       0.174  -0.472   0.076  1.00  0.00     0.368 C 
ATOM      8  O   UNL     1       0.645   0.391  -0.664  1.00  0.00    -0.245 OA
BRANCH   7   9
ATOM      9  C   UNL     1      -1.352  -0.833   0.054  1.00  0.00     0.196 C 
ATOM     10  C   UNL     1      -1.823  -2.135   0.731  1.00  0.00     0.081 C 
ATOM     11  C   UNL     1      -1.946   0.317   0.911  1.00  0.00     0.113 C 
ATOM     12  C   UNL     1      -3.344  -2.321   0.672  1.00  0.00     0.010 C 
ATOM     13  C   UNL     1      -3.454   0.237   1.185  1.00  0.00     0.125 C 
ATOM     14  C   UNL     1      -4.167  -1.036   0.715  1.00  0.00     0.032 C 
BRANCH   9  15
ATOM     15  N   UNL     1      -1.839  -0.727  -1.356  1.00  0.00    -0.334 N 
ATOM     16  C   UNL     1      -1.652  -1.903  -2.200  1.00  0.00     0.331 C 
ATOM     17  H   UNL     1      -2.839  -0.525  -1.324  1.00  0.00     0.347 HD
ATOM     18  H   UNL     1      -1.272   0.005  -1.783  1.00  0.00     0.347 HD
ENDBRANCH   9  15
BRANCH  13  19
ATOM     19  O   UNL     1      -3.962   0.659   2.465  1.00  0.00    -0.378 OA
BRANCH  19  20
ATOM     20  C   UNL     1      -3.200   0.579   3.662  1.00  0.00     0.164 C 
BRANCH  20  21
ATOM     21  C   UNL     1      -3.557  -0.602   4.599  1.00  0.00     0.015 C 
ATOM     22  C   UNL     1      -3.655  -1.922   3.847  1.00  0.00     0.006 C 
ATOM     23  C   UNL     1      -2.518  -0.675   5.731  1.00  0.00     0.006 C 
ATOM     24  C   UNL     1      -3.630  -3.203   4.665  1.00  0.00     0.000 C 
ATOM     25  C   UNL     1      -2.643  -1.944   6.570  1.00  0.00     0.000 C 
ATOM     26  C   UNL     1      -2.517  -3.184   5.696  1.00  0.00     0.000 C 
ENDBRANCH  20  21
ENDBRANCH  19  20
ENDBRANCH  13  19
ENDBRANCH   7   9
ENDBRANCH   6   7
ENDBRANCH   5   6
ENDBRANCH   4   5
ENDBRANCH   3   4
ENDBRANCH   2   3
ENDBRANCH   1   2
BRANCH   1  27
ATOM     27  O   UNL     1       1.859  -3.699   0.734  1.00  0.00    -0.377 OA
BRANCH  27  28
ATOM     28  C   UNL     1       2.721  -4.822   0.817  1.00  0.00     0.188 C 
BRANCH  28  29
ATOM     29  C   UNL     1       3.550  -5.165  -0.435  1.00  0.00     0.188 C 
BRANCH  29  30
ATOM     30  O   UNL     1       2.779  -5.268  -1.624  1.00  0.00    -0.376 OA
BRANCH  30  31
ATOM     31  C   UNL     1       2.299  -6.526  -2.068  1.00  0.00     0.202 C 
BRANCH  31  32
ATOM     32  C   UNL     1       1.312  -7.307  -1.185  1.00  0.00     0.261 C 
BRANCH  32  33
ATOM     33  O   UNL     1       1.717  -7.577   0.163  1.00  0.00    -0.460 OA
BRANCH  33  34
ATOM     34  C   UNL     1       2.875  -8.251   0.352  1.00  0.00     0.338 C 
ATOM     35  O   UNL     1       3.594  -8.726  -0.495  1.00  0.00    -0.246 OA
BRANCH  34  36
ATOM     36  C   UNL     1       3.228  -8.114   1.785  1.00  0.00     0.060 A 
ATOM     37  C   UNL     1       4.453  -7.523   2.122  1.00  0.00     0.016 A 
ATOM     38  C   UNL     1       2.353  -8.546   2.783  1.00  0.00     0.016 A 
ATOM     39  C   UNL     1       4.823  -7.393   3.459  1.00  0.00     0.010 A 
ATOM     40  C   UNL     1       2.738  -8.448   4.122  1.00  0.00     0.010 A 
ATOM     41  C   UNL     1       3.991  -7.905   4.461  1.00  0.00    -0.014 A 
BRANCH  41  42
ATOM     42  C   UNL     1       4.534  -8.089   5.827  1.00  0.00     0.031 A 
ATOM     43  C   UNL     1       5.089  -9.439   6.187  1.00  0.00     0.074 A 
ATOM     44  C   UNL     1       4.570  -7.080   6.713  1.00  0.00     0.049 A 
ATOM     45  N   UNL     1       5.572  -9.865   7.324  1.00  0.00    -0.248 NA
ATOM     46  C   UNL     1       5.098 -10.446   5.112  1.00  0.00     0.031 C 
ATOM     47  C   UNL     1       4.114  -5.715   6.463  1.00  0.00     0.029 A 
ATOM     48  N   UNL     1       5.007  -7.059   8.014  1.00  0.00    -0.354 N 
ATOM     49  C   UNL     1       5.935 -11.188   7.105  1.00  0.00     0.074 A 
ATOM     50  C   UNL     1       5.587 -11.505   5.738  1.00  0.00     0.031 C 
ATOM     51  C   UNL     1       4.280  -4.990   7.584  1.00  0.00     0.029 A 
ATOM     52  C   UNL     1       4.819  -5.850   8.637  1.00  0.00     0.049 A 
ATOM     53  H   UNL     1       5.416  -7.837   8.458  1.00  0.00     0.167 HD
ATOM     54  C   UNL     1       6.514 -12.059   7.963  1.00  0.00     0.037 A 
ATOM     55  C   UNL     1       5.034  -5.493   9.918  1.00  0.00     0.037 A 
ATOM     56  C   UNL     1       6.851 -11.741   9.325  1.00  0.00     0.049 A 
ATOM     57  C   UNL     1       5.595  -6.507  10.883  1.00  0.00     0.074 A 
ATOM     58  C   UNL     1       7.445 -12.550  10.277  1.00  0.00     0.029 A 
ATOM     59  N   UNL     1       6.610 -10.517   9.931  1.00  0.00    -0.354 N 
ATOM     60  N   UNL     1       5.952  -7.751  10.665  1.00  0.00    -0.248 NA
ATOM     61  C   UNL     1       5.787  -6.066  12.272  1.00  0.00     0.031 C 
ATOM     62  C   UNL     1       7.510 -11.835  11.477  1.00  0.00     0.029 A 
ATOM     63  C   UNL     1       7.018 -10.558  11.254  1.00  0.00     0.049 A 
ATOM     64  H   UNL     1       6.209  -9.735   9.487  1.00  0.00     0.167 HD
ATOM     65  C   UNL     1       6.440  -8.228  11.877  1.00  0.00     0.074 A 
ATOM     66  C   UNL     1       6.344  -7.136  12.822  1.00  0.00     0.031 C 
ATOM     67  C   UNL     1       6.925  -9.457  12.180  1.00  0.00     0.037 A 
BRANCH  54  68
ATOM     68  C   UNL     1       6.785 -13.447   7.461  1.00  0.00     0.057 A 
ATOM     69  C   UNL     1       7.771 -13.713   6.502  1.00  0.00     0.134 A 
ATOM     70  C   UNL     1       6.061 -14.537   7.961  1.00  0.00     0.134 A 
ATOM     71  F   UNL     1       8.487 -12.712   5.967  1.00  0.00    -0.206 F 
ATOM     72  C   UNL     1       8.009 -15.008   6.039  1.00  0.00     0.040 A 
ATOM     73  C   UNL     1       6.311 -15.841   7.529  1.00  0.00     0.040 A 
ATOM     74  F   UNL     1       5.103 -14.355   8.882  1.00  0.00    -0.206 F 
ATOM     75  C   UNL     1       7.283 -16.078   6.559  1.00  0.00     0.006 A 
ENDBRANCH  54  68
BRANCH  55  76
ATOM     76  C   UNL     1       4.696  -4.121  10.378  1.00  0.00     0.057 A 
ATOM     77  C   UNL     1       5.690  -3.224  10.787  1.00  0.00     0.134 A 
ATOM     78  C   UNL     1       3.367  -3.684  10.451  1.00  0.00     0.134 A 
ATOM     79  F   UNL     1       6.980  -3.590  10.765  1.00  0.00    -0.206 F 
ATOM     80  C   UNL     1       5.375  -1.953  11.272  1.00  0.00     0.040 A 
ATOM     81  C   UNL     1       3.039  -2.406  10.905  1.00  0.00     0.040 A 
ATOM     82  F   UNL     1       2.366  -4.494  10.075  1.00  0.00    -0.206 F 
ATOM     83  C   UNL     1       4.045  -1.539  11.327  1.00  0.00     0.006 A 
ENDBRANCH  55  76
BRANCH  67  84
ATOM     84  C   UNL     1       7.436  -9.677  13.577  1.00  0.00     0.057 A 
ATOM     85  C   UNL     1       6.578  -9.745  14.682  1.00  0.00     0.134 A 
ATOM     86  C   UNL     1       8.805  -9.869  13.810  1.00  0.00     0.134 A 
ATOM     87  F   UNL     1       5.258  -9.560  14.531  1.00  0.00    -0.206 F 
ATOM     88  C   UNL     1       7.066  -9.970  15.971  1.00  0.00     0.040 A 
ATOM     89  C   UNL     1       9.300 -10.127  15.089  1.00  0.00     0.040 A 
ATOM     90  F   UNL     1       9.681  -9.830  12.795  1.00  0.00    -0.206 F 
ATOM     91  C   UNL     1       8.430 -10.170  16.175  1.00  0.00     0.006 A 
ENDBRANCH  67  84
ENDBRANCH  41  42
ENDBRANCH  34  36
ENDBRANCH  33  34
ENDBRANCH  32  33
ENDBRANCH  31  32
ENDBRANCH  30  31
ENDBRANCH  29  30
ENDBRANCH  28  29
ENDBRANCH  27  28
ENDBRANCH   1  27
TORSDOF 24
