REMARK SMILES Cc1ccc(/C=C/C(=O)N2C[C@@H](O)C[C@H]2C(=O)OCCOCCOCCOCCOC(=O)c2ccc(-c3c4nc(c(-c5c(F)cccc5F)c5ccc([nH]5)c(-c5c(F)cccc5F)c5nc(c(-c6c(F)cccc6F)c6ccc3[nH]6)C=C5)C=C4)cc2)c(C)c1
REMARK SMILES IDX 23 1 22 2 21 3 20 4 19 5 18 6 16 7 17 8 15 9 10 10 11 11
REMARK SMILES IDX 12 12 14 13 8 14 9 15 7 16 6 17 5 18 1 19 2 20 3 21 89 22
REMARK SMILES IDX 4 23 87 24 88 25 13 26 24 28 25 29 26 30 27 31 28 32 29 33
REMARK SMILES IDX 30 34 31 35 32 36 33 37 34 38 86 39 35 40 85 41 36 42 37 43
REMARK SMILES IDX 38 44 79 45 39 46 84 47 78 48 80 49 40 50 83 51 77 52 76 53
REMARK SMILES IDX 41 55 67 56 50 57 66 58 51 59 54 60 65 61 81 62 52 63 53 64
REMARK SMILES IDX 64 66 82 67 55 68 42 69 43 70 48 71 44 72 45 73 47 74 49 75
REMARK SMILES IDX 46 76 68 77 69 78 74 79 70 80 71 81 73 82 75 83 72 84 56 85
REMARK SMILES IDX 57 86 62 87 58 88 59 89 61 90 63 91 60 92
REMARK H PARENT 13 27 80 54 54 65
REMARK Flexibility Score: inf
ROOT
ATOM      1  C   UNL     1      -7.400  -1.689   0.121  1.00  0.00     0.188 C 
ENDROOT
BRANCH   1   2
ATOM      2  C   UNL     1      -8.540  -2.008  -0.859  1.00  0.00     0.188 C 
BRANCH   2   3
ATOM      3  O   UNL     1      -9.777  -2.279  -0.246  1.00  0.00    -0.376 OA
BRANCH   3   4
ATOM      4  C   UNL     1     -10.104  -3.590   0.160  1.00  0.00     0.202 C 
BRANCH   4   5
ATOM      5  C   UNL     1      -9.083  -4.689   0.521  1.00  0.00     0.261 C 
BRANCH   5   6
ATOM      6  O   UNL     1      -7.690  -4.485   0.234  1.00  0.00    -0.462 OA
BRANCH   6   7
ATOM      7  C   UNL     1      -7.212  -5.012  -0.923  1.00  0.00     0.329 C 
ATOM      8  O   UNL     1      -7.911  -5.635  -1.718  1.00  0.00    -0.250 OA
BRANCH   7   9
ATOM      9  C   UNL     1      -5.671  -4.914  -1.078  1.00  0.00     0.198 C 
ATOM     10  N   UNL     1      -4.832  -3.982  -0.287  1.00  0.00    -0.323 N 
ATOM     11  C   UNL     1      -4.116  -4.692   0.750  1.00  0.00     0.152 C 
ATOM     12  C   UNL     1      -3.843  -6.033   0.079  1.00  0.00     0.136 C 
ATOM     13  C   UNL     1      -5.126  -6.303  -0.704  1.00  0.00     0.071 C 
BRANCH  10  14
ATOM     14  C   UNL     1      -4.496  -2.739  -0.784  1.00  0.00     0.247 C 
ATOM     15  O   UNL     1      -4.984  -2.282  -1.816  1.00  0.00    -0.270 OA
BRANCH  14  16
ATOM     16  C   UNL     1      -3.513  -1.921  -0.025  1.00  0.00     0.072 C 
ATOM     17  C   UNL     1      -2.273  -1.861  -0.533  1.00  0.00     0.014 C 
BRANCH  17  18
ATOM     18  C   UNL     1      -1.125  -1.035  -0.111  1.00  0.00    -0.023 A 
ATOM     19  C   UNL     1       2.643   1.099   0.121  1.00  0.00     0.044 C 
ATOM     20  C   UNL     1       1.344   0.347   0.129  1.00  0.00    -0.051 A 
ATOM     21  C   UNL     1       1.317  -1.045   0.116  1.00  0.00     0.004 A 
ATOM     22  C   UNL     1       0.129   1.040   0.097  1.00  0.00     0.007 A 
ATOM     23  C   UNL     1       0.100  -1.722  -0.002  1.00  0.00     0.008 A 
ATOM     24  C   UNL     1      -1.113   0.371  -0.018  1.00  0.00    -0.044 A 
ATOM     25  C   UNL     1      -2.326   1.253  -0.128  1.00  0.00     0.045 C 
ENDBRANCH  17  18
ENDBRANCH  14  16
ENDBRANCH  10  14
BRANCH  12  26
ATOM     26  O   UNL     1      -3.559  -7.070   0.996  1.00  0.00    -0.391 OA
ATOM     27  H   UNL     1      -4.306  -7.177   1.606  1.00  0.00     0.211 HD
ENDBRANCH  12  26
ENDBRANCH   7   9
ENDBRANCH   6   7
ENDBRANCH   5   6
ENDBRANCH   4   5
ENDBRANCH   3   4
ENDBRANCH   2   3
ENDBRANCH   1   2
BRANCH   1  28
ATOM     28  O   UNL     1      -7.574  -1.663   1.528  1.00  0.00    -0.377 OA
BRANCH  28  29
ATOM     29  C   UNL     1      -8.752  -1.116   2.084  1.00  0.00     0.188 C 
BRANCH  29  30
ATOM     30  C   UNL     1      -9.404   0.113   1.428  1.00  0.00     0.188 C 
BRANCH  30  31
ATOM     31  O   UNL     1      -8.737   0.588   0.273  1.00  0.00    -0.376 OA
BRANCH  31  32
ATOM     32  C   UNL     1      -7.908   1.731   0.400  1.00  0.00     0.202 C 
BRANCH  32  33
ATOM     33  C   UNL     1      -6.681   1.647   1.323  1.00  0.00     0.261 C 
BRANCH  33  34
ATOM     34  O   UNL     1      -6.918   1.199   2.664  1.00  0.00    -0.460 OA
BRANCH  34  35
ATOM     35  C   UNL     1      -7.658   2.004   3.458  1.00  0.00     0.338 C 
ATOM     36  O   UNL     1      -8.151   3.074   3.172  1.00  0.00    -0.246 OA
BRANCH  35  37
ATOM     37  C   UNL     1      -7.921   1.264   4.710  1.00  0.00     0.060 A 
ATOM     38  C   UNL     1      -9.243   0.930   5.025  1.00  0.00     0.016 A 
ATOM     39  C   UNL     1      -6.872   0.897   5.556  1.00  0.00     0.016 A 
ATOM     40  C   UNL     1      -9.524   0.248   6.206  1.00  0.00     0.010 A 
ATOM     41  C   UNL     1      -7.157   0.242   6.756  1.00  0.00     0.010 A 
ATOM     42  C   UNL     1      -8.489  -0.051   7.101  1.00  0.00    -0.014 A 
BRANCH  42  43
ATOM     43  C   UNL     1      -8.841  -0.445   8.485  1.00  0.00     0.031 A 
ATOM     44  C   UNL     1      -8.891   0.633   9.531  1.00  0.00     0.074 A 
ATOM     45  C   UNL     1      -9.174  -1.710   8.792  1.00  0.00     0.049 A 
ATOM     46  N   UNL     1      -9.190   0.549  10.801  1.00  0.00    -0.248 NA
ATOM     47  C   UNL     1      -8.560   1.995   9.079  1.00  0.00     0.031 C 
ATOM     48  C   UNL     1      -9.204  -2.829   7.854  1.00  0.00     0.029 A 
ATOM     49  N   UNL     1      -9.552  -2.260   9.990  1.00  0.00    -0.354 N 
ATOM     50  C   UNL     1      -9.086   1.843  11.297  1.00  0.00     0.074 A 
ATOM     51  C   UNL     1      -8.655   2.685  10.203  1.00  0.00     0.031 C 
ATOM     52  C   UNL     1      -9.570  -3.940   8.517  1.00  0.00     0.029 A 
ATOM     53  C   UNL     1      -9.773  -3.614   9.927  1.00  0.00     0.049 A 
ATOM     54  H   UNL     1      -9.655  -1.735  10.816  1.00  0.00     0.167 HD
ATOM     55  C   UNL     1      -9.341   2.292  12.548  1.00  0.00     0.037 A 
ATOM     56  C   UNL     1     -10.085  -4.487  10.905  1.00  0.00     0.037 A 
ATOM     57  C   UNL     1      -9.754   1.447  13.636  1.00  0.00     0.049 A 
ATOM     58  C   UNL     1     -10.287  -3.978  12.309  1.00  0.00     0.074 A 
ATOM     59  C   UNL     1     -10.036   1.799  14.943  1.00  0.00     0.029 A 
ATOM     60  N   UNL     1      -9.931   0.074  13.543  1.00  0.00    -0.354 N 
ATOM     61  N   UNL     1     -10.209  -2.751  12.766  1.00  0.00    -0.248 NA
ATOM     62  C   UNL     1     -10.630  -4.976  13.332  1.00  0.00     0.031 C 
ATOM     63  C   UNL     1     -10.327   0.630  15.655  1.00  0.00     0.029 A 
ATOM     64  C   UNL     1     -10.293  -0.441  14.776  1.00  0.00     0.049 A 
ATOM     65  H   UNL     1      -9.816  -0.456  12.721  1.00  0.00     0.167 HD
ATOM     66  C   UNL     1     -10.521  -2.824  14.118  1.00  0.00     0.074 A 
ATOM     67  C   UNL     1     -10.806  -4.215  14.403  1.00  0.00     0.031 C 
ATOM     68  C   UNL     1     -10.572  -1.831  15.042  1.00  0.00     0.037 A 
BRANCH  55  69
ATOM     69  C   UNL     1      -9.137   3.758  12.804  1.00  0.00     0.057 A 
ATOM     70  C   UNL     1      -9.972   4.735  12.242  1.00  0.00     0.134 A 
ATOM     71  C   UNL     1      -8.089   4.200  13.620  1.00  0.00     0.134 A 
ATOM     72  F   UNL     1     -10.984   4.383  11.434  1.00  0.00    -0.206 F 
ATOM     73  C   UNL     1      -9.751   6.097  12.457  1.00  0.00     0.040 A 
ATOM     74  C   UNL     1      -7.877   5.557  13.868  1.00  0.00     0.040 A 
ATOM     75  F   UNL     1      -7.252   3.320  14.190  1.00  0.00    -0.206 F 
ATOM     76  C   UNL     1      -8.703   6.511  13.277  1.00  0.00     0.006 A 
ENDBRANCH  55  69
BRANCH  56  77
ATOM     77  C   UNL     1     -10.207  -5.936  10.595  1.00  0.00     0.057 A 
ATOM     78  C   UNL     1     -11.435  -6.602  10.673  1.00  0.00     0.134 A 
ATOM     79  C   UNL     1      -9.086  -6.694  10.231  1.00  0.00     0.134 A 
ATOM     80  F   UNL     1     -12.541  -5.938  11.039  1.00  0.00    -0.206 F 
ATOM     81  C   UNL     1     -11.543  -7.971  10.418  1.00  0.00     0.040 A 
ATOM     82  C   UNL     1      -9.184  -8.057   9.945  1.00  0.00     0.040 A 
ATOM     83  F   UNL     1      -7.879  -6.117  10.137  1.00  0.00    -0.206 F 
ATOM     84  C   UNL     1     -10.415  -8.701  10.047  1.00  0.00     0.006 A 
ENDBRANCH  56  77
BRANCH  68  85
ATOM     85  C   UNL     1     -10.989  -2.207  16.436  1.00  0.00     0.057 A 
ATOM     86  C   UNL     1     -10.169  -2.968  17.280  1.00  0.00     0.134 A 
ATOM     87  C   UNL     1     -12.217  -1.771  16.953  1.00  0.00     0.134 A 
ATOM     88  F   UNL     1      -8.985  -3.425  16.846  1.00  0.00    -0.206 F 
ATOM     89  C   UNL     1     -10.570  -3.310  18.573  1.00  0.00     0.040 A 
ATOM     90  C   UNL     1     -12.614  -2.079  18.255  1.00  0.00     0.040 A 
ATOM     91  F   UNL     1     -13.046  -1.027  16.205  1.00  0.00    -0.206 F 
ATOM     92  C   UNL     1     -11.793  -2.859  19.065  1.00  0.00     0.006 A 
ENDBRANCH  68  85
ENDBRANCH  42  43
ENDBRANCH  35  37
ENDBRANCH  34  35
ENDBRANCH  33  34
ENDBRANCH  32  33
ENDBRANCH  31  32
ENDBRANCH  30  31
ENDBRANCH  29  30
ENDBRANCH  28  29
ENDBRANCH   1  28
TORSDOF 24
