REMARK SMILES CC[C@@]1(C)NC(=O)N(/N=C/c2ccccc2C(=O)OCCOCCOCCOCCOC(=O)c2ccc(-c3c4nc(c(-c5c(F)cccc5F)c5ccc([nH]5)c(-c5c(F)cccc5F)c5nc(c(-c6c(F)cccc6F)c6ccc3[nH]6)C=C5)C=C4)cc2)C1=O
REMARK SMILES IDX 24 1 23 2 22 3 21 4 20 5 19 6 17 7 18 8 16 9 11 10 12 11
REMARK SMILES IDX 13 12 15 13 14 14 10 15 9 16 8 17 3 18 4 19 5 20 88 21 6 22
REMARK SMILES IDX 89 24 7 25 2 26 1 27 25 28 26 29 27 30 28 31 29 32 30 33
REMARK SMILES IDX 31 34 32 35 33 36 34 37 35 38 87 39 36 40 86 41 37 42 38 43
REMARK SMILES IDX 39 44 80 45 40 46 85 47 79 48 81 49 41 50 84 51 78 52 77 53
REMARK SMILES IDX 42 55 68 56 51 57 67 58 52 59 55 60 66 61 82 62 53 63 54 64
REMARK SMILES IDX 65 66 83 67 56 68 43 69 44 70 49 71 45 72 46 73 48 74 50 75
REMARK SMILES IDX 47 76 69 77 70 78 75 79 71 80 72 81 74 82 76 83 73 84 57 85
REMARK SMILES IDX 58 86 63 87 59 88 60 89 62 90 64 91 61 92
REMARK H PARENT 5 23 81 54 55 65
REMARK Flexibility Score: inf
ROOT
ATOM      1  C   UNL     1      -4.787   2.124   5.265  1.00  0.00     0.188 C 
ENDROOT
BRANCH   1   2
ATOM      2  C   UNL     1      -4.956   3.634   5.561  1.00  0.00     0.188 C 
BRANCH   2   3
ATOM      3  O   UNL     1      -4.618   4.480   4.477  1.00  0.00    -0.376 OA
BRANCH   3   4
ATOM      4  C   UNL     1      -3.403   5.207   4.504  1.00  0.00     0.202 C 
BRANCH   4   5
ATOM      5  C   UNL     1      -2.094   4.510   4.884  1.00  0.00     0.261 C 
BRANCH   5   6
ATOM      6  O   UNL     1      -2.240   3.434   5.812  1.00  0.00    -0.460 OA
BRANCH   6   7
ATOM      7  C   UNL     1      -2.003   3.675   7.115  1.00  0.00     0.338 C 
ATOM      8  O   UNL     1      -1.789   4.761   7.628  1.00  0.00    -0.246 OA
BRANCH   7   9
ATOM      9  C   UNL     1      -2.319   2.446   7.885  1.00  0.00     0.068 A 
ATOM     10  C   UNL     1      -1.883   1.154   7.557  1.00  0.00     0.009 A 
ATOM     11  C   UNL     1      -2.310   0.055   8.322  1.00  0.00     0.010 A 
ATOM     12  C   UNL     1      -3.202   0.232   9.379  1.00  0.00     0.001 A 
ATOM     13  C   UNL     1      -3.229   2.608   8.946  1.00  0.00     0.016 A 
ATOM     14  C   UNL     1      -3.680   1.505   9.676  1.00  0.00     0.001 A 
BRANCH  10  15
ATOM     15  C   UNL     1      -1.109   0.815   6.347  1.00  0.00     0.143 C 
ATOM     16  N   UNL     1      -0.284   1.631   5.782  1.00  0.00    -0.169 NA
BRANCH  16  17
ATOM     17  N   UNL     1       0.266   1.246   4.588  1.00  0.00    -0.146 N 
ATOM     18  C   UNL     1       1.189   0.082   2.759  1.00  0.00     0.120 C 
ATOM     19  C   UNL     1       2.654  -0.305   2.959  1.00  0.00     0.045 C 
ATOM     20  N   UNL     1       1.101   1.505   2.532  1.00  0.00    -0.322 N 
ATOM     21  C   UNL     1       0.476  -0.036   4.117  1.00  0.00     0.276 C 
ATOM     22  C   UNL     1       0.682   2.182   3.663  1.00  0.00     0.346 C 
ATOM     23  H   UNL     1       1.314   1.941   1.676  1.00  0.00     0.166 HD
ATOM     24  O   UNL     1       0.245  -1.107   4.668  1.00  0.00    -0.270 OA
ATOM     25  O   UNL     1       0.702   3.401   3.731  1.00  0.00    -0.246 OA
BRANCH  18  26
ATOM     26  C   UNL     1       0.461  -0.745   1.694  1.00  0.00     0.035 C 
ATOM     27  C   UNL     1       1.180  -0.740   0.359  1.00  0.00     0.007 C 
ENDBRANCH  18  26
ENDBRANCH  16  17
ENDBRANCH  10  15
ENDBRANCH   7   9
ENDBRANCH   6   7
ENDBRANCH   5   6
ENDBRANCH   4   5
ENDBRANCH   3   4
ENDBRANCH   2   3
ENDBRANCH   1   2
BRANCH   1  28
ATOM     28  O   UNL     1      -3.995   1.706   4.160  1.00  0.00    -0.377 OA
BRANCH  28  29
ATOM     29  C   UNL     1      -4.233   2.251   2.864  1.00  0.00     0.188 C 
BRANCH  29  30
ATOM     30  C   UNL     1      -5.583   2.901   2.477  1.00  0.00     0.188 C 
BRANCH  30  31
ATOM     31  O   UNL     1      -6.618   2.737   3.430  1.00  0.00    -0.376 OA
BRANCH  31  32
ATOM     32  C   UNL     1      -7.669   1.840   3.128  1.00  0.00     0.202 C 
BRANCH  32  33
ATOM     33  C   UNL     1      -7.291   0.364   2.937  1.00  0.00     0.261 C 
BRANCH  33  34
ATOM     34  O   UNL     1      -6.264   0.101   1.966  1.00  0.00    -0.460 OA
BRANCH  34  35
ATOM     35  C   UNL     1      -6.568   0.356   0.678  1.00  0.00     0.338 C 
ATOM     36  O   UNL     1      -7.636   0.765   0.240  1.00  0.00    -0.246 OA
BRANCH  35  37
ATOM     37  C   UNL     1      -5.334   0.247  -0.124  1.00  0.00     0.060 A 
ATOM     38  C   UNL     1      -4.896   1.367  -0.842  1.00  0.00     0.016 A 
ATOM     39  C   UNL     1      -4.623  -0.953  -0.188  1.00  0.00     0.016 A 
ATOM     40  C   UNL     1      -3.777   1.276  -1.670  1.00  0.00     0.010 A 
ATOM     41  C   UNL     1      -3.506  -1.045  -1.025  1.00  0.00     0.010 A 
ATOM     42  C   UNL     1      -3.101   0.057  -1.804  1.00  0.00    -0.014 A 
BRANCH  42  43
ATOM     43  C   UNL     1      -2.100  -0.117  -2.889  1.00  0.00     0.031 A 
ATOM     44  C   UNL     1      -2.487  -0.908  -4.111  1.00  0.00     0.074 A 
ATOM     45  C   UNL     1      -0.886   0.462  -2.843  1.00  0.00     0.049 A 
ATOM     46  N   UNL     1      -1.767  -1.222  -5.158  1.00  0.00    -0.248 NA
ATOM     47  C   UNL     1      -3.881  -1.375  -4.177  1.00  0.00     0.031 C 
ATOM     48  C   UNL     1      -0.411   1.371  -1.803  1.00  0.00     0.029 A 
ATOM     49  N   UNL     1       0.189   0.332  -3.691  1.00  0.00    -0.354 N 
ATOM     50  C   UNL     1      -2.633  -1.872  -6.028  1.00  0.00     0.074 A 
ATOM     51  C   UNL     1      -3.905  -1.990  -5.349  1.00  0.00     0.031 C 
ATOM     52  C   UNL     1       0.886   1.649  -2.029  1.00  0.00     0.029 A 
ATOM     53  C   UNL     1       1.337   0.901  -3.197  1.00  0.00     0.049 A 
ATOM     54  H   UNL     1       0.140  -0.122  -4.563  1.00  0.00     0.167 HD
ATOM     55  C   UNL     1      -2.404  -2.287  -7.297  1.00  0.00     0.037 A 
ATOM     56  C   UNL     1       2.614   0.781  -3.604  1.00  0.00     0.037 A 
ATOM     57  C   UNL     1      -1.133  -2.186  -7.966  1.00  0.00     0.049 A 
ATOM     58  C   UNL     1       2.916   0.084  -4.895  1.00  0.00     0.074 A 
ATOM     59  C   UNL     1      -0.809  -2.544  -9.263  1.00  0.00     0.029 A 
ATOM     60  N   UNL     1       0.033  -1.714  -7.381  1.00  0.00    -0.354 N 
ATOM     61  N   UNL     1       2.092  -0.505  -5.724  1.00  0.00    -0.248 NA
ATOM     62  C   UNL     1       4.316   0.096  -5.339  1.00  0.00     0.031 C 
ATOM     63  C   UNL     1       0.567  -2.355  -9.439  1.00  0.00     0.029 A 
ATOM     64  C   UNL     1       1.087  -1.813  -8.275  1.00  0.00     0.049 A 
ATOM     65  H   UNL     1       0.101  -1.362  -6.464  1.00  0.00     0.167 HD
ATOM     66  C   UNL     1       2.855  -0.856  -6.830  1.00  0.00     0.074 A 
ATOM     67  C   UNL     1       4.216  -0.453  -6.542  1.00  0.00     0.031 C 
ATOM     68  C   UNL     1       2.445  -1.415  -7.994  1.00  0.00     0.037 A 
BRANCH  55  69
ATOM     69  C   UNL     1      -3.561  -2.892  -8.040  1.00  0.00     0.057 A 
ATOM     70  C   UNL     1      -4.666  -2.126  -8.440  1.00  0.00     0.134 A 
ATOM     71  C   UNL     1      -3.563  -4.250  -8.377  1.00  0.00     0.134 A 
ATOM     72  F   UNL     1      -4.734  -0.820  -8.139  1.00  0.00    -0.206 F 
ATOM     73  C   UNL     1      -5.743  -2.697  -9.120  1.00  0.00     0.040 A 
ATOM     74  C   UNL     1      -4.620  -4.826  -9.083  1.00  0.00     0.040 A 
ATOM     75  F   UNL     1      -2.535  -5.040  -8.030  1.00  0.00    -0.206 F 
ATOM     76  C   UNL     1      -5.719  -4.050  -9.449  1.00  0.00     0.006 A 
ENDBRANCH  55  69
BRANCH  56  77
ATOM     77  C   UNL     1       3.713   1.310  -2.763  1.00  0.00     0.057 A 
ATOM     78  C   UNL     1       4.340   2.526  -3.045  1.00  0.00     0.134 A 
ATOM     79  C   UNL     1       4.178   0.580  -1.662  1.00  0.00     0.134 A 
ATOM     80  F   UNL     1       3.966   3.244  -4.113  1.00  0.00    -0.206 F 
ATOM     81  C   UNL     1       5.386   3.004  -2.254  1.00  0.00     0.040 A 
ATOM     82  C   UNL     1       5.208   1.054  -0.850  1.00  0.00     0.040 A 
ATOM     83  F   UNL     1       3.647  -0.616  -1.372  1.00  0.00    -0.206 F 
ATOM     84  C   UNL     1       5.816   2.272  -1.147  1.00  0.00     0.006 A 
ENDBRANCH  56  77
BRANCH  68  85
ATOM     85  C   UNL     1       3.466  -1.545  -9.088  1.00  0.00     0.057 A 
ATOM     86  C   UNL     1       4.533  -2.449  -9.019  1.00  0.00     0.134 A 
ATOM     87  C   UNL     1       3.372  -0.744 -10.235  1.00  0.00     0.134 A 
ATOM     88  F   UNL     1       4.693  -3.232  -7.941  1.00  0.00    -0.206 F 
ATOM     89  C   UNL     1       5.487  -2.528 -10.035  1.00  0.00     0.040 A 
ATOM     90  C   UNL     1       4.300  -0.838 -11.272  1.00  0.00     0.040 A 
ATOM     91  F   UNL     1       2.372   0.141 -10.369  1.00  0.00    -0.206 F 
ATOM     92  C   UNL     1       5.368  -1.725 -11.168  1.00  0.00     0.006 A 
ENDBRANCH  68  85
ENDBRANCH  42  43
ENDBRANCH  35  37
ENDBRANCH  34  35
ENDBRANCH  33  34
ENDBRANCH  32  33
ENDBRANCH  31  32
ENDBRANCH  30  31
ENDBRANCH  29  30
ENDBRANCH  28  29
ENDBRANCH   1  28
TORSDOF 23
