REMARK SMILES CC[C@@H](C)CN(CC)S(=O)(=O)c1cc(C(=O)OCCOCCOCCOCCOC(=O)c2ccc(-c3c4nc(c(-c5c(F)cccc5F)c5ccc([nH]5)c(-c5c(F)cccc5F)c5nc(c(-c6c(F)cccc6F)c6ccc3[nH]6)C=C5)C=C4)cc2)n(C)c1
REMARK SMILES IDX 21 1 20 2 19 3 18 4 17 5 15 6 16 7 14 8 12 9 13 10 88 11
REMARK SMILES IDX 86 12 87 13 9 14 10 15 11 16 6 17 5 18 3 19 4 20 2 21 1 22
REMARK SMILES IDX 7 23 8 24 22 25 23 26 24 27 25 28 26 29 27 30 28 31 29 32
REMARK SMILES IDX 30 33 31 34 32 35 33 36 85 37 34 38 84 39 35 40 36 41 37 42
REMARK SMILES IDX 78 43 38 44 83 45 77 46 79 47 39 48 82 49 76 50 75 51 40 53
REMARK SMILES IDX 66 54 49 55 65 56 50 57 53 58 64 59 80 60 51 61 52 62 63 64
REMARK SMILES IDX 81 65 54 66 41 67 42 68 47 69 43 70 44 71 46 72 48 73 45 74
REMARK SMILES IDX 67 75 68 76 73 77 69 78 70 79 72 80 74 81 71 82 55 83 56 84
REMARK SMILES IDX 61 85 57 86 58 87 60 88 62 89 59 90
REMARK H PARENT 79 52 53 63
REMARK Flexibility Score: inf
ROOT
ATOM      1  C   UNL     1       4.269   4.163  -7.632  1.00  0.00     0.188 C 
ENDROOT
BRANCH   1   2
ATOM      2  O   UNL     1       4.474   5.006  -8.769  1.00  0.00    -0.376 OA
BRANCH   2   3
ATOM      3  C   UNL     1       3.327   5.256  -9.577  1.00  0.00     0.202 C 
BRANCH   3   4
ATOM      4  C   UNL     1       2.353   6.301  -9.012  1.00  0.00     0.261 C 
BRANCH   4   5
ATOM      5  O   UNL     1       1.714   5.914  -7.787  1.00  0.00    -0.459 OA
BRANCH   5   6
ATOM      6  C   UNL     1       0.925   4.816  -7.813  1.00  0.00     0.355 C 
ATOM      7  O   UNL     1       0.582   4.225  -8.829  1.00  0.00    -0.244 OA
BRANCH   6   8
ATOM      8  C   UNL     1       0.723   4.335  -6.462  1.00  0.00     0.128 A 
ATOM      9  C   UNL     1       0.569   2.922  -4.675  1.00  0.00     0.101 A 
ATOM     10  C   UNL     1       0.674   2.994  -6.081  1.00  0.00     0.057 A 
ATOM     11  C   UNL     1       0.505   4.231  -4.230  1.00  0.00     0.107 A 
ATOM     12  N   UNL     1       0.617   5.076  -5.301  1.00  0.00    -0.344 N 
ATOM     13  C   UNL     1       0.591   6.518  -5.174  1.00  0.00     0.150 C 
BRANCH   9  14
ATOM     14  S   UNL     1       0.471   1.583  -3.582  1.00  0.00     0.244 S 
ATOM     15  O   UNL     1      -0.905   1.663  -3.133  1.00  0.00    -0.207 OA
ATOM     16  O   UNL     1       1.571   1.856  -2.678  1.00  0.00    -0.207 OA
BRANCH  14  17
ATOM     17  N   UNL     1       0.713   0.006  -4.181  1.00  0.00    -0.198 NA
BRANCH  17  18
ATOM     18  C   UNL     1       0.216  -1.086  -3.257  1.00  0.00     0.105 C 
BRANCH  18  19
ATOM     19  C   UNL     1       0.982  -1.253  -1.924  1.00  0.00     0.001 C 
ATOM     20  C   UNL     1       0.945  -2.743  -1.535  1.00  0.00     0.009 C 
BRANCH  19  21
ATOM     21  C   UNL     1       0.363  -0.415  -0.779  1.00  0.00     0.001 C 
ATOM     22  C   UNL     1       1.054  -0.585   0.569  1.00  0.00     0.004 C 
ENDBRANCH  19  21
ENDBRANCH  18  19
ENDBRANCH  17  18
BRANCH  17  23
ATOM     23  C   UNL     1       0.356  -0.302  -5.589  1.00  0.00     0.099 C 
ATOM     24  C   UNL     1      -1.117  -0.123  -5.906  1.00  0.00     0.022 C 
ENDBRANCH  17  23
ENDBRANCH  14  17
ENDBRANCH   9  14
ENDBRANCH   6   8
ENDBRANCH   5   6
ENDBRANCH   4   5
ENDBRANCH   3   4
ENDBRANCH   2   3
ENDBRANCH   1   2
BRANCH   1  25
ATOM     25  C   UNL     1       4.268   4.929  -6.298  1.00  0.00     0.188 C 
BRANCH  25  26
ATOM     26  O   UNL     1       4.291   6.336  -6.474  1.00  0.00    -0.377 OA
BRANCH  26  27
ATOM     27  C   UNL     1       5.567   6.953  -6.637  1.00  0.00     0.188 C 
BRANCH  27  28
ATOM     28  C   UNL     1       6.764   6.170  -7.218  1.00  0.00     0.188 C 
BRANCH  28  29
ATOM     29  O   UNL     1       7.048   4.954  -6.525  1.00  0.00    -0.376 OA
BRANCH  29  30
ATOM     30  C   UNL     1       8.232   4.941  -5.734  1.00  0.00     0.202 C 
BRANCH  30  31
ATOM     31  C   UNL     1       8.034   5.561  -4.346  1.00  0.00     0.261 C 
BRANCH  31  32
ATOM     32  O   UNL     1       7.756   6.971  -4.363  1.00  0.00    -0.460 OA
BRANCH  32  33
ATOM     33  C   UNL     1       8.703   7.772  -4.895  1.00  0.00     0.338 C 
ATOM     34  O   UNL     1       9.802   7.450  -5.308  1.00  0.00    -0.246 OA
BRANCH  33  35
ATOM     35  C   UNL     1       8.116   9.114  -5.059  1.00  0.00     0.060 A 
ATOM     36  C   UNL     1       8.171   9.724  -6.318  1.00  0.00     0.016 A 
ATOM     37  C   UNL     1       7.527   9.767  -3.973  1.00  0.00     0.016 A 
ATOM     38  C   UNL     1       7.670  11.015  -6.483  1.00  0.00     0.010 A 
ATOM     39  C   UNL     1       7.041  11.063  -4.136  1.00  0.00     0.010 A 
ATOM     40  C   UNL     1       7.141  11.703  -5.382  1.00  0.00    -0.014 A 
BRANCH  40  41
ATOM     41  C   UNL     1       6.871  13.155  -5.473  1.00  0.00     0.031 A 
ATOM     42  C   UNL     1       7.957  14.108  -5.060  1.00  0.00     0.074 A 
ATOM     43  C   UNL     1       5.681  13.617  -5.891  1.00  0.00     0.049 A 
ATOM     44  N   UNL     1       7.936  15.413  -4.995  1.00  0.00    -0.248 NA
ATOM     45  C   UNL     1       9.239  13.503  -4.661  1.00  0.00     0.031 C 
ATOM     46  C   UNL     1       4.559  12.793  -6.335  1.00  0.00     0.029 A 
ATOM     47  N   UNL     1       5.218  14.905  -5.991  1.00  0.00    -0.354 N 
ATOM     48  C   UNL     1       9.197  15.786  -4.550  1.00  0.00     0.074 A 
ATOM     49  C   UNL     1       9.951  14.570  -4.334  1.00  0.00     0.031 C 
ATOM     50  C   UNL     1       3.526  13.598  -6.645  1.00  0.00     0.029 A 
ATOM     51  C   UNL     1       3.910  14.987  -6.398  1.00  0.00     0.049 A 
ATOM     52  H   UNL     1       5.771  15.694  -5.790  1.00  0.00     0.167 HD
ATOM     53  C   UNL     1       9.687  17.030  -4.345  1.00  0.00     0.037 A 
ATOM     54  C   UNL     1       3.112  16.064  -6.535  1.00  0.00     0.037 A 
ATOM     55  C   UNL     1       8.935  18.238  -4.545  1.00  0.00     0.049 A 
ATOM     56  C   UNL     1       3.659  17.435  -6.237  1.00  0.00     0.074 A 
ATOM     57  C   UNL     1       9.347  19.549  -4.380  1.00  0.00     0.029 A 
ATOM     58  N   UNL     1       7.609  18.280  -4.945  1.00  0.00    -0.354 N 
ATOM     59  N   UNL     1       4.864  17.780  -5.855  1.00  0.00    -0.248 NA
ATOM     60  C   UNL     1       2.732  18.567  -6.390  1.00  0.00     0.031 C 
ATOM     61  C   UNL     1       8.256  20.384  -4.645  1.00  0.00     0.029 A 
ATOM     62  C   UNL     1       7.178  19.594  -5.012  1.00  0.00     0.049 A 
ATOM     63  H   UNL     1       7.055  17.492  -5.151  1.00  0.00     0.167 HD
ATOM     64  C   UNL     1       4.850  19.166  -5.750  1.00  0.00     0.074 A 
ATOM     65  C   UNL     1       3.517  19.599  -6.113  1.00  0.00     0.031 C 
ATOM     66  C   UNL     1       5.851  20.005  -5.389  1.00  0.00     0.037 A 
BRANCH  53  67
ATOM     67  C   UNL     1      11.100  17.137  -3.861  1.00  0.00     0.057 A 
ATOM     68  C   UNL     1      12.187  16.895  -4.711  1.00  0.00     0.134 A 
ATOM     69  C   UNL     1      11.377  17.496  -2.537  1.00  0.00     0.134 A 
ATOM     70  F   UNL     1      11.986  16.528  -5.985  1.00  0.00    -0.206 F 
ATOM     71  C   UNL     1      13.502  16.990  -4.254  1.00  0.00     0.040 A 
ATOM     72  C   UNL     1      12.688  17.614  -2.074  1.00  0.00     0.040 A 
ATOM     73  F   UNL     1      10.379  17.738  -1.674  1.00  0.00    -0.206 F 
ATOM     74  C   UNL     1      13.755  17.355  -2.933  1.00  0.00     0.006 A 
ENDBRANCH  53  67
BRANCH  54  75
ATOM     75  C   UNL     1       1.704  15.895  -6.970  1.00  0.00     0.057 A 
ATOM     76  C   UNL     1       1.285  16.306  -8.240  1.00  0.00     0.134 A 
ATOM     77  C   UNL     1       0.740  15.344  -6.117  1.00  0.00     0.134 A 
ATOM     78  F   UNL     1       2.159  16.863  -9.090  1.00  0.00    -0.206 F 
ATOM     79  C   UNL     1      -0.046  16.189  -8.643  1.00  0.00     0.040 A 
ATOM     80  C   UNL     1      -0.591  15.203  -6.514  1.00  0.00     0.040 A 
ATOM     81  F   UNL     1       1.079  14.933  -4.887  1.00  0.00    -0.206 F 
ATOM     82  C   UNL     1      -0.988  15.632  -7.779  1.00  0.00     0.006 A 
ENDBRANCH  54  75
BRANCH  66  83
ATOM     83  C   UNL     1       5.559  21.475  -5.404  1.00  0.00     0.057 A 
ATOM     84  C   UNL     1       4.797  22.086  -4.401  1.00  0.00     0.134 A 
ATOM     85  C   UNL     1       6.097  22.297  -6.402  1.00  0.00     0.134 A 
ATOM     86  F   UNL     1       4.245  21.351  -3.424  1.00  0.00    -0.206 F 
ATOM     87  C   UNL     1       4.569  23.463  -4.398  1.00  0.00     0.040 A 
ATOM     88  C   UNL     1       5.894  23.677  -6.398  1.00  0.00     0.040 A 
ATOM     89  F   UNL     1       6.844  21.773  -7.386  1.00  0.00    -0.206 F 
ATOM     90  C   UNL     1       5.126  24.263  -5.395  1.00  0.00     0.006 A 
ENDBRANCH  66  83
ENDBRANCH  40  41
ENDBRANCH  33  35
ENDBRANCH  32  33
ENDBRANCH  31  32
ENDBRANCH  30  31
ENDBRANCH  29  30
ENDBRANCH  28  29
ENDBRANCH  27  28
ENDBRANCH  26  27
ENDBRANCH  25  26
ENDBRANCH   1  25
TORSDOF 26
