REMARK SMILES O=C(Cc1cc(=O)[nH]c(=O)[nH]1)Nc1cccc(C(=O)OCCOCCOCCOCCOC(=O)c2ccc(-c3c4nc(c(-c5c(F)cccc5F)c5ccc([nH]5)c(-c5c(F)cccc5F)c5nc(c(-c6c(F)cccc6F)c6ccc3[nH]6)C=C5)C=C4)cc2)c1
REMARK SMILES IDX 25 1 24 2 23 3 22 4 21 5 20 6 18 7 19 8 17 9 13 10 14 11
REMARK SMILES IDX 89 12 15 13 16 14 12 15 1 16 2 17 3 19 4 20 5 21 11 22 6 23
REMARK SMILES IDX 9 24 7 26 8 27 10 28 26 30 27 31 28 32 29 33 30 34 31 35
REMARK SMILES IDX 32 36 33 37 34 38 35 39 36 40 88 41 37 42 87 43 38 44 39 45
REMARK SMILES IDX 40 46 81 47 41 48 86 49 80 50 82 51 42 52 85 53 79 54 78 55
REMARK SMILES IDX 43 57 69 58 52 59 68 60 53 61 56 62 67 63 83 64 54 65 55 66
REMARK SMILES IDX 66 68 84 69 57 70 44 71 45 72 50 73 46 74 47 75 49 76 51 77
REMARK SMILES IDX 48 78 70 79 71 80 76 81 72 82 73 83 75 84 77 85 74 86 58 87
REMARK SMILES IDX 59 88 64 89 60 90 61 91 63 92 65 93 62 94
REMARK H PARENT 12 18 11 25 8 29 82 56 56 67
REMARK Flexibility Score: inf
ROOT
ATOM      1  C   UNL     1       0.811   3.025  -4.845  1.00  0.00     0.188 C 
ENDROOT
BRANCH   1   2
ATOM      2  C   UNL     1      -0.448   2.690  -5.675  1.00  0.00     0.188 C 
BRANCH   2   3
ATOM      3  O   UNL     1      -1.532   3.570  -5.445  1.00  0.00    -0.376 OA
BRANCH   3   4
ATOM      4  C   UNL     1      -2.675   3.104  -4.756  1.00  0.00     0.202 C 
BRANCH   4   5
ATOM      5  C   UNL     1      -2.517   2.531  -3.342  1.00  0.00     0.261 C 
BRANCH   5   6
ATOM      6  O   UNL     1      -1.391   1.676  -3.132  1.00  0.00    -0.460 OA
BRANCH   6   7
ATOM      7  C   UNL     1      -1.442   0.419  -3.623  1.00  0.00     0.338 C 
ATOM      8  O   UNL     1      -2.358  -0.087  -4.252  1.00  0.00    -0.246 OA
BRANCH   7   9
ATOM      9  C   UNL     1      -0.086  -0.157  -3.467  1.00  0.00     0.062 A 
ATOM     10  C   UNL     1       1.949  -0.371  -2.169  1.00  0.00     0.042 A 
ATOM     11  C   UNL     1       2.576  -0.953  -3.278  1.00  0.00     0.026 A 
ATOM     12  C   UNL     1       0.627   0.053  -2.281  1.00  0.00     0.041 A 
ATOM     13  C   UNL     1       1.863  -1.173  -4.462  1.00  0.00     0.003 A 
ATOM     14  C   UNL     1       0.524  -0.792  -4.553  1.00  0.00     0.016 A 
BRANCH  10  15
ATOM     15  N   UNL     1       2.690  -0.236  -0.978  1.00  0.00    -0.326 N 
ATOM     16  O   UNL     1       0.964   0.082   0.565  1.00  0.00    -0.274 OA
ATOM     17  C   UNL     1       2.155  -0.009   0.284  1.00  0.00     0.230 C 
ATOM     18  H   UNL     1       3.669  -0.309  -1.046  1.00  0.00     0.169 HD
BRANCH  17  19
ATOM     19  C   UNL     1       3.208   0.069   1.380  1.00  0.00     0.154 C 
BRANCH  19  20
ATOM     20  C   UNL     1       3.939  -1.236   1.573  1.00  0.00     0.034 A 
ATOM     21  C   UNL     1       3.364  -2.446   1.490  1.00  0.00     0.093 A 
ATOM     22  N   UNL     1       5.287  -1.149   1.831  1.00  0.00    -0.311 N 
ATOM     23  C   UNL     1       4.190  -3.659   1.656  1.00  0.00     0.253 A 
ATOM     24  C   UNL     1       6.111  -2.227   2.002  1.00  0.00     0.325 A 
ATOM     25  H   UNL     1       5.686  -0.251   1.896  1.00  0.00     0.171 HD
ATOM     26  O   UNL     1       3.699  -4.776   1.555  1.00  0.00    -0.269 OA
ATOM     27  N   UNL     1       5.515  -3.449   1.904  1.00  0.00    -0.274 N 
ATOM     28  O   UNL     1       7.309  -2.090   2.218  1.00  0.00    -0.248 OA
ATOM     29  H   UNL     1       6.086  -4.243   2.022  1.00  0.00     0.175 HD
ENDBRANCH  19  20
ENDBRANCH  17  19
ENDBRANCH  10  15
ENDBRANCH   7   9
ENDBRANCH   6   7
ENDBRANCH   5   6
ENDBRANCH   4   5
ENDBRANCH   3   4
ENDBRANCH   2   3
ENDBRANCH   1   2
BRANCH   1  30
ATOM     30  O   UNL     1       0.734   4.006  -3.819  1.00  0.00    -0.377 OA
BRANCH  30  31
ATOM     31  C   UNL     1       0.081   5.248  -4.066  1.00  0.00     0.188 C 
BRANCH  31  32
ATOM     32  C   UNL     1      -0.025   5.844  -5.491  1.00  0.00     0.188 C 
BRANCH  32  33
ATOM     33  O   UNL     1       0.683   5.128  -6.488  1.00  0.00    -0.376 OA
BRANCH  33  34
ATOM     34  C   UNL     1       1.855   5.713  -7.022  1.00  0.00     0.202 C 
BRANCH  34  35
ATOM     35  C   UNL     1       3.026   5.925  -6.052  1.00  0.00     0.261 C 
BRANCH  35  36
ATOM     36  O   UNL     1       2.722   6.650  -4.850  1.00  0.00    -0.460 OA
BRANCH  36  37
ATOM     37  C   UNL     1       2.389   7.950  -4.995  1.00  0.00     0.338 C 
ATOM     38  O   UNL     1       2.328   8.585  -6.034  1.00  0.00    -0.246 OA
BRANCH  37  39
ATOM     39  C   UNL     1       1.923   8.450  -3.687  1.00  0.00     0.060 A 
ATOM     40  C   UNL     1       0.621   8.954  -3.581  1.00  0.00     0.016 A 
ATOM     41  C   UNL     1       2.773   8.440  -2.579  1.00  0.00     0.016 A 
ATOM     42  C   UNL     1       0.183   9.500  -2.377  1.00  0.00     0.010 A 
ATOM     43  C   UNL     1       2.340   9.005  -1.377  1.00  0.00     0.010 A 
ATOM     44  C   UNL     1       1.059   9.579  -1.286  1.00  0.00    -0.014 A 
BRANCH  44  45
ATOM     45  C   UNL     1       0.700  10.444  -0.137  1.00  0.00     0.031 A 
ATOM     46  C   UNL     1       1.284  11.830  -0.073  1.00  0.00     0.074 A 
ATOM     47  C   UNL     1      -0.171  10.032   0.801  1.00  0.00     0.049 A 
ATOM     48  N   UNL     1       1.106  12.768   0.820  1.00  0.00    -0.248 NA
ATOM     49  C   UNL     1       2.195  12.208  -1.167  1.00  0.00     0.031 C 
ATOM     50  C   UNL     1      -0.826   8.726   0.834  1.00  0.00     0.029 A 
ATOM     51  N   UNL     1      -0.651  10.679   1.913  1.00  0.00    -0.354 N 
ATOM     52  C   UNL     1       1.887  13.839   0.403  1.00  0.00     0.074 A 
ATOM     53  C   UNL     1       2.565  13.427  -0.805  1.00  0.00     0.031 C 
ATOM     54  C   UNL     1      -1.618   8.664   1.918  1.00  0.00     0.029 A 
ATOM     55  C   UNL     1      -1.504   9.913   2.669  1.00  0.00     0.049 A 
ATOM     56  H   UNL     1      -0.407  11.604   2.146  1.00  0.00     0.167 HD
ATOM     57  C   UNL     1       2.021  15.061   0.971  1.00  0.00     0.037 A 
ATOM     58  C   UNL     1      -2.108  10.187   3.841  1.00  0.00     0.037 A 
ATOM     59  C   UNL     1       1.339  15.472   2.170  1.00  0.00     0.049 A 
ATOM     60  C   UNL     1      -1.909  11.540   4.475  1.00  0.00     0.074 A 
ATOM     61  C   UNL     1       1.383  16.700   2.808  1.00  0.00     0.029 A 
ATOM     62  N   UNL     1       0.496  14.663   2.917  1.00  0.00    -0.354 N 
ATOM     63  N   UNL     1      -1.199  12.559   4.053  1.00  0.00    -0.248 NA
ATOM     64  C   UNL     1      -2.609  11.786   5.744  1.00  0.00     0.031 C 
ATOM     65  C   UNL     1       0.618  16.613   3.976  1.00  0.00     0.029 A 
ATOM     66  C   UNL     1       0.037  15.356   4.026  1.00  0.00     0.049 A 
ATOM     67  H   UNL     1       0.259  13.735   2.693  1.00  0.00     0.167 HD
ATOM     68  C   UNL     1      -1.396  13.575   4.982  1.00  0.00     0.074 A 
ATOM     69  C   UNL     1      -2.308  13.054   5.979  1.00  0.00     0.031 C 
ATOM     70  C   UNL     1      -0.874  14.827   5.008  1.00  0.00     0.037 A 
BRANCH  57  71
ATOM     71  C   UNL     1       2.965  16.032   0.324  1.00  0.00     0.057 A 
ATOM     72  C   UNL     1       2.685  16.640  -0.907  1.00  0.00     0.134 A 
ATOM     73  C   UNL     1       4.154  16.399   0.968  1.00  0.00     0.134 A 
ATOM     74  F   UNL     1       1.573  16.322  -1.587  1.00  0.00    -0.206 F 
ATOM     75  C   UNL     1       3.561  17.564  -1.481  1.00  0.00     0.040 A 
ATOM     76  C   UNL     1       5.023  17.343   0.419  1.00  0.00     0.040 A 
ATOM     77  F   UNL     1       4.484  15.856   2.150  1.00  0.00    -0.206 F 
ATOM     78  C   UNL     1       4.729  17.926  -0.811  1.00  0.00     0.006 A 
ENDBRANCH  57  71
BRANCH  58  79
ATOM     79  C   UNL     1      -2.947   9.158   4.510  1.00  0.00     0.057 A 
ATOM     80  C   UNL     1      -4.326   9.329   4.675  1.00  0.00     0.134 A 
ATOM     81  C   UNL     1      -2.376   7.995   5.043  1.00  0.00     0.134 A 
ATOM     82  F   UNL     1      -4.930  10.433   4.209  1.00  0.00    -0.206 F 
ATOM     83  C   UNL     1      -5.102   8.400   5.371  1.00  0.00     0.040 A 
ATOM     84  C   UNL     1      -3.145   7.042   5.713  1.00  0.00     0.040 A 
ATOM     85  F   UNL     1      -1.060   7.768   4.920  1.00  0.00    -0.206 F 
ATOM     86  C   UNL     1      -4.511   7.249   5.889  1.00  0.00     0.006 A 
ENDBRANCH  58  79
BRANCH  70  87
ATOM     87  C   UNL     1      -1.321  15.735   6.121  1.00  0.00     0.057 A 
ATOM     88  C   UNL     1      -0.964  15.513   7.458  1.00  0.00     0.134 A 
ATOM     89  C   UNL     1      -2.118  16.854   5.846  1.00  0.00     0.134 A 
ATOM     90  F   UNL     1      -0.208  14.457   7.795  1.00  0.00    -0.206 F 
ATOM     91  C   UNL     1      -1.422  16.343   8.484  1.00  0.00     0.040 A 
ATOM     92  C   UNL     1      -2.551  17.712   6.858  1.00  0.00     0.040 A 
ATOM     93  F   UNL     1      -2.484  17.138   4.587  1.00  0.00    -0.206 F 
ATOM     94  C   UNL     1      -2.216  17.448   8.184  1.00  0.00     0.006 A 
ENDBRANCH  70  87
ENDBRANCH  44  45
ENDBRANCH  37  39
ENDBRANCH  36  37
ENDBRANCH  35  36
ENDBRANCH  34  35
ENDBRANCH  33  34
ENDBRANCH  32  33
ENDBRANCH  31  32
ENDBRANCH  30  31
ENDBRANCH   1  30
TORSDOF 23
