REMARK SMILES CN(CCS(C)(=O)=O)S(=O)(=O)c1cc(C(=O)OCCOCCOCCOCCOC(=O)c2ccc(-c3c4nc(c(-c5c(F)cccc5F)c5ccc([nH]5)c(-c5c(F)cccc5F)c5nc(c(-c6c(F)cccc6F)c6ccc3[nH]6)C=C5)C=C4)cc2)ccc1F
REMARK SMILES IDX 21 1 20 2 19 3 18 4 17 5 15 6 16 7 14 8 12 9 13 10 88 11
REMARK SMILES IDX 87 12 89 13 86 14 9 15 10 16 11 17 2 18 1 19 3 20 4 21 5 22
REMARK SMILES IDX 6 23 7 24 8 25 22 26 23 27 24 28 25 29 26 30 27 31 28 32
REMARK SMILES IDX 29 33 30 34 31 35 32 36 33 37 85 38 34 39 84 40 35 41 36 42
REMARK SMILES IDX 37 43 78 44 38 45 83 46 77 47 79 48 39 49 82 50 76 51 75 52
REMARK SMILES IDX 40 54 66 55 49 56 65 57 50 58 53 59 64 60 80 61 51 62 52 63
REMARK SMILES IDX 63 65 81 66 54 67 41 68 42 69 47 70 43 71 44 72 46 73 48 74
REMARK SMILES IDX 45 75 67 76 68 77 73 78 69 79 70 80 72 81 74 82 71 83 55 84
REMARK SMILES IDX 56 85 61 86 57 87 58 88 60 89 62 90 59 91
REMARK H PARENT 79 53 53 64
REMARK Flexibility Score: inf
ROOT
ATOM      1  C   UNL     1       0.101  -0.510  -6.716  1.00  0.00     0.188 C 
ENDROOT
BRANCH   1   2
ATOM      2  O   UNL     1      -0.634  -1.029  -7.809  1.00  0.00    -0.376 OA
BRANCH   2   3
ATOM      3  C   UNL     1      -1.990  -0.675  -7.993  1.00  0.00     0.202 C 
BRANCH   3   4
ATOM      4  C   UNL     1      -2.480   0.783  -7.922  1.00  0.00     0.261 C 
BRANCH   4   5
ATOM      5  O   UNL     1      -1.764   1.677  -7.066  1.00  0.00    -0.460 OA
BRANCH   5   6
ATOM      6  C   UNL     1      -2.071   1.662  -5.756  1.00  0.00     0.338 C 
ATOM      7  O   UNL     1      -2.918   0.993  -5.192  1.00  0.00    -0.246 OA
BRANCH   6   8
ATOM      8  C   UNL     1      -1.030   2.430  -5.040  1.00  0.00     0.061 A 
ATOM      9  C   UNL     1       0.644   2.456  -3.286  1.00  0.00     0.119 A 
ATOM     10  C   UNL     1      -0.324   1.772  -4.024  1.00  0.00     0.040 A 
ATOM     11  C   UNL     1       0.957   3.769  -3.611  1.00  0.00     0.143 A 
ATOM     12  C   UNL     1       0.289   4.412  -4.658  1.00  0.00     0.041 A 
ATOM     13  F   UNL     1       1.921   4.438  -2.971  1.00  0.00    -0.206 F 
ATOM     14  C   UNL     1      -0.712   3.747  -5.376  1.00  0.00     0.019 A 
BRANCH   9  15
ATOM     15  S   UNL     1       1.482   1.642  -1.972  1.00  0.00     0.245 S 
ATOM     16  O   UNL     1       1.832   2.582  -0.932  1.00  0.00    -0.207 OA
ATOM     17  O   UNL     1       2.492   0.818  -2.598  1.00  0.00    -0.207 OA
BRANCH  15  18
ATOM     18  N   UNL     1       0.347   0.569  -1.273  1.00  0.00    -0.200 NA
ATOM     19  C   UNL     1       0.945  -0.270  -0.200  1.00  0.00     0.124 C 
BRANCH  18  20
ATOM     20  C   UNL     1      -1.089   0.897  -1.040  1.00  0.00     0.118 C 
BRANCH  20  21
ATOM     21  C   UNL     1      -1.481   1.800   0.107  1.00  0.00     0.153 C 
BRANCH  21  22
ATOM     22  S   UNL     1      -1.698   3.542  -0.225  1.00  0.00     0.148 S 
ATOM     23  C   UNL     1      -2.526   3.730  -1.786  1.00  0.00     0.158 C 
ATOM     24  O   UNL     1      -2.616   4.048   0.780  1.00  0.00    -0.229 OA
ATOM     25  O   UNL     1      -0.395   4.148  -0.383  1.00  0.00    -0.229 OA
ENDBRANCH  21  22
ENDBRANCH  20  21
ENDBRANCH  18  20
ENDBRANCH  15  18
ENDBRANCH   9  15
ENDBRANCH   6   8
ENDBRANCH   5   6
ENDBRANCH   4   5
ENDBRANCH   3   4
ENDBRANCH   2   3
ENDBRANCH   1   2
BRANCH   1  26
ATOM     26  C   UNL     1       1.047   0.643  -7.112  1.00  0.00     0.188 C 
BRANCH  26  27
ATOM     27  O   UNL     1       0.808   1.250  -8.371  1.00  0.00    -0.377 OA
BRANCH  27  28
ATOM     28  C   UNL     1       0.926   0.464  -9.556  1.00  0.00     0.188 C 
BRANCH  28  29
ATOM     29  C   UNL     1       1.482  -0.984  -9.554  1.00  0.00     0.188 C 
BRANCH  29  30
ATOM     30  O   UNL     1       2.221  -1.347  -8.402  1.00  0.00    -0.376 OA
BRANCH  30  31
ATOM     31  C   UNL     1       3.631  -1.428  -8.497  1.00  0.00     0.202 C 
BRANCH  31  32
ATOM     32  C   UNL     1       4.394  -0.148  -8.861  1.00  0.00     0.261 C 
BRANCH  32  33
ATOM     33  O   UNL     1       3.945   0.547 -10.034  1.00  0.00    -0.460 OA
BRANCH  33  34
ATOM     34  C   UNL     1       4.104  -0.064 -11.229  1.00  0.00     0.338 C 
ATOM     35  O   UNL     1       4.588  -1.162 -11.441  1.00  0.00    -0.246 OA
BRANCH  34  36
ATOM     36  C   UNL     1       3.408   0.768 -12.232  1.00  0.00     0.060 A 
ATOM     37  C   UNL     1       2.276   0.263 -12.889  1.00  0.00     0.016 A 
ATOM     38  C   UNL     1       3.844   2.071 -12.475  1.00  0.00     0.016 A 
ATOM     39  C   UNL     1       1.574   1.068 -13.791  1.00  0.00     0.010 A 
ATOM     40  C   UNL     1       3.160   2.862 -13.399  1.00  0.00     0.010 A 
ATOM     41  C   UNL     1       2.030   2.362 -14.070  1.00  0.00    -0.014 A 
BRANCH  41  42
ATOM     42  C   UNL     1       1.427   3.165 -15.160  1.00  0.00     0.031 A 
ATOM     43  C   UNL     1       2.118   3.191 -16.493  1.00  0.00     0.074 A 
ATOM     44  C   UNL     1       0.311   3.888 -14.960  1.00  0.00     0.049 A 
ATOM     45  N   UNL     1       1.877   3.940 -17.536  1.00  0.00    -0.248 NA
ATOM     46  C   UNL     1       3.233   2.247 -16.671  1.00  0.00     0.031 C 
ATOM     47  C   UNL     1      -0.483   3.895 -13.733  1.00  0.00     0.029 A 
ATOM     48  N   UNL     1      -0.335   4.775 -15.786  1.00  0.00    -0.354 N 
ATOM     49  C   UNL     1       2.813   3.565 -18.490  1.00  0.00     0.074 A 
ATOM     50  C   UNL     1       3.641   2.539 -17.897  1.00  0.00     0.031 C 
ATOM     51  C   UNL     1      -1.500   4.763 -13.879  1.00  0.00     0.029 A 
ATOM     52  C   UNL     1      -1.399   5.408 -15.188  1.00  0.00     0.049 A 
ATOM     53  H   UNL     1      -0.063   4.942 -16.717  1.00  0.00     0.167 HD
ATOM     54  C   UNL     1       2.962   4.035 -19.749  1.00  0.00     0.037 A 
ATOM     55  C   UNL     1      -2.173   6.420 -15.631  1.00  0.00     0.037 A 
ATOM     56  C   UNL     1       2.134   5.057 -20.331  1.00  0.00     0.049 A 
ATOM     57  C   UNL     1      -1.912   7.009 -16.994  1.00  0.00     0.074 A 
ATOM     58  C   UNL     1       2.201   5.590 -21.606  1.00  0.00     0.029 A 
ATOM     59  N   UNL     1       1.098   5.705 -19.677  1.00  0.00    -0.354 N 
ATOM     60  N   UNL     1      -1.032   6.645 -17.896  1.00  0.00    -0.248 NA
ATOM     61  C   UNL     1      -2.739   8.158 -17.399  1.00  0.00     0.031 C 
ATOM     62  C   UNL     1       1.246   6.603 -21.703  1.00  0.00     0.029 A 
ATOM     63  C   UNL     1       0.542   6.659 -20.510  1.00  0.00     0.049 A 
ATOM     64  H   UNL     1       0.803   5.514 -18.757  1.00  0.00     0.167 HD
ATOM     65  C   UNL     1      -1.216   7.498 -18.979  1.00  0.00     0.074 A 
ATOM     66  C   UNL     1      -2.297   8.394 -18.628  1.00  0.00     0.031 C 
ATOM     67  C   UNL     1      -0.546   7.534 -20.156  1.00  0.00     0.037 A 
BRANCH  54  68
ATOM     68  C   UNL     1       4.065   3.466 -20.590  1.00  0.00     0.057 A 
ATOM     69  C   UNL     1       5.165   4.256 -20.950  1.00  0.00     0.134 A 
ATOM     70  C   UNL     1       3.993   2.174 -21.123  1.00  0.00     0.134 A 
ATOM     71  F   UNL     1       5.292   5.505 -20.477  1.00  0.00    -0.206 F 
ATOM     72  C   UNL     1       6.141   3.788 -21.830  1.00  0.00     0.040 A 
ATOM     73  C   UNL     1       4.977   1.686 -21.984  1.00  0.00     0.040 A 
ATOM     74  F   UNL     1       2.971   1.364 -20.807  1.00  0.00    -0.206 F 
ATOM     75  C   UNL     1       6.048   2.499 -22.351  1.00  0.00     0.006 A 
ENDBRANCH  54  68
BRANCH  55  76
ATOM     76  C   UNL     1      -3.256   6.958 -14.768  1.00  0.00     0.057 A 
ATOM     77  C   UNL     1      -2.977   7.645 -13.579  1.00  0.00     0.134 A 
ATOM     78  C   UNL     1      -4.603   6.798 -15.114  1.00  0.00     0.134 A 
ATOM     79  F   UNL     1      -1.708   7.838 -13.190  1.00  0.00    -0.206 F 
ATOM     80  C   UNL     1      -3.994   8.130 -12.755  1.00  0.00     0.040 A 
ATOM     81  C   UNL     1      -5.630   7.303 -14.315  1.00  0.00     0.040 A 
ATOM     82  F   UNL     1      -4.936   6.174 -16.253  1.00  0.00    -0.206 F 
ATOM     83  C   UNL     1      -5.327   7.963 -13.126  1.00  0.00     0.006 A 
ENDBRANCH  55  76
BRANCH  67  84
ATOM     84  C   UNL     1      -0.956   8.552 -21.180  1.00  0.00     0.057 A 
ATOM     85  C   UNL     1      -1.567   8.151 -22.377  1.00  0.00     0.134 A 
ATOM     86  C   UNL     1      -0.616   9.903 -21.047  1.00  0.00     0.134 A 
ATOM     87  F   UNL     1      -1.905   6.868 -22.572  1.00  0.00    -0.206 F 
ATOM     88  C   UNL     1      -1.791   9.052 -23.418  1.00  0.00     0.040 A 
ATOM     89  C   UNL     1      -0.860  10.819 -22.072  1.00  0.00     0.040 A 
ATOM     90  F   UNL     1      -0.037  10.351 -19.923  1.00  0.00    -0.206 F 
ATOM     91  C   UNL     1      -1.434  10.390 -23.269  1.00  0.00     0.006 A 
ENDBRANCH  67  84
ENDBRANCH  41  42
ENDBRANCH  34  36
ENDBRANCH  33  34
ENDBRANCH  32  33
ENDBRANCH  31  32
ENDBRANCH  30  31
ENDBRANCH  29  30
ENDBRANCH  28  29
ENDBRANCH  27  28
ENDBRANCH  26  27
ENDBRANCH   1  26
TORSDOF 25
