REMARK SMILES Cc1oc2cc3c(cc2c1C)[C@H](C)[C@@H](CC(=O)N[C@H](CC1=c2ccccc2=NC1)C(=O)OCCOCCOCCOCCOC(=O)c1ccc(-c2c4nc(c(-c5c(F)cccc5F)c5ccc([nH]5)c(-c5c(F)cccc5F)c5nc(c(-c6c(F)cccc6F)c6ccc2[nH]6)C=C5)C=C4)cc1)C(=O)O3
REMARK SMILES IDX 37 1 36 2 35 3 34 4 33 5 32 6 30 7 31 8 19 9 18 10 16 11
REMARK SMILES IDX 17 12 15 14 14 15 1 16 2 17 3 18 10 19 4 20 9 21 11 22 5 23
REMARK SMILES IDX 8 24 6 25 7 26 103 27 12 28 101 29 13 30 102 31 20 32 21 33
REMARK SMILES IDX 22 34 29 35 23 36 27 37 28 38 24 39 26 40 25 41 38 42 39 43
REMARK SMILES IDX 40 44 41 45 42 46 43 47 44 48 45 49 46 50 47 51 48 52 100 53
REMARK SMILES IDX 49 54 99 55 50 56 51 57 52 58 93 59 53 60 98 61 92 62 94 63
REMARK SMILES IDX 54 64 97 65 91 66 90 67 55 69 81 70 64 71 80 72 65 73 68 74
REMARK SMILES IDX 79 75 95 76 66 77 67 78 78 80 96 81 69 82 56 83 57 84 62 85
REMARK SMILES IDX 58 86 59 87 61 88 63 89 60 90 82 91 83 92 88 93 84 94 85 95
REMARK SMILES IDX 87 96 89 97 86 98 70 99 71 100 76 101 72 102 73 103 75 104
REMARK SMILES IDX 77 105 74 106
REMARK H PARENT 18 13 94 68 68 79
REMARK Flexibility Score: inf
ROOT
ATOM      1  C   UNL     1       1.606  -3.318  12.755  1.00  0.00     0.188 C 
ENDROOT
BRANCH   1   2
ATOM      2  C   UNL     1       2.518  -2.302  12.088  1.00  0.00     0.188 C 
BRANCH   2   3
ATOM      3  O   UNL     1       2.319  -0.913  12.357  1.00  0.00    -0.376 OA
BRANCH   3   4
ATOM      4  C   UNL     1       1.223  -0.503  13.163  1.00  0.00     0.202 C 
BRANCH   4   5
ATOM      5  C   UNL     1      -0.116  -0.251  12.440  1.00  0.00     0.261 C 
BRANCH   5   6
ATOM      6  O   UNL     1      -0.772  -1.349  11.732  1.00  0.00    -0.462 OA
BRANCH   6   7
ATOM      7  C   UNL     1      -0.695  -1.250  10.382  1.00  0.00     0.329 C 
ATOM      8  O   UNL     1       0.038  -0.411   9.844  1.00  0.00    -0.250 OA
BRANCH   7   9
ATOM      9  C   UNL     1      -1.616  -2.152   9.472  1.00  0.00     0.196 C 
BRANCH   9  10
ATOM     10  N   UNL     1      -2.138  -1.137   8.525  1.00  0.00    -0.342 N 
ATOM     11  C   UNL     1      -1.496  -0.692   7.401  1.00  0.00     0.221 C 
ATOM     12  O   UNL     1      -1.766   0.426   6.963  1.00  0.00    -0.275 OA
ATOM     13  H   UNL     1      -3.022  -0.751   8.722  1.00  0.00     0.164 HD
BRANCH  11  14
ATOM     14  C   UNL     1      -0.532  -1.615   6.674  1.00  0.00     0.116 C 
BRANCH  14  15
ATOM     15  C   UNL     1       0.961  -1.320   6.902  1.00  0.00     0.116 C 
ATOM     16  C   UNL     1       8.622  -5.045   6.824  1.00  0.00     0.088 C 
ATOM     17  C   UNL     1       7.306  -4.400   6.644  1.00  0.00     0.105 A 
ATOM     18  O   UNL     1       6.777  -3.817   7.753  1.00  0.00    -0.461 OA
ATOM     19  C   UNL     1       6.469  -4.226   5.555  1.00  0.00    -0.002 A 
ATOM     20  C   UNL     1       5.595  -3.259   7.386  1.00  0.00     0.138 A 
ATOM     21  C   UNL     1       5.334  -3.514   6.046  1.00  0.00     0.024 A 
ATOM     22  C   UNL     1       6.693  -4.654   4.155  1.00  0.00     0.049 C 
ATOM     23  C   UNL     1       4.763  -2.535   8.224  1.00  0.00     0.095 A 
ATOM     24  C   UNL     1       4.122  -3.059   5.487  1.00  0.00     0.020 A 
ATOM     25  C   UNL     1       3.580  -2.084   7.638  1.00  0.00     0.138 A 
ATOM     26  C   UNL     1       3.228  -2.339   6.294  1.00  0.00    -0.001 A 
ATOM     27  O   UNL     1       2.713  -1.400   8.478  1.00  0.00    -0.426 OA
ATOM     28  C   UNL     1       1.831  -1.970   5.792  1.00  0.00     0.035 C 
ATOM     29  C   UNL     1       1.512  -1.964   8.154  1.00  0.00     0.315 C 
ATOM     30  C   UNL     1       1.884  -1.105   4.534  1.00  0.00     0.014 C 
ATOM     31  O   UNL     1       1.101  -2.988   8.682  1.00  0.00    -0.251 OA
ENDBRANCH  14  15
ENDBRANCH  11  14
ENDBRANCH   9  10
BRANCH   9  32
ATOM     32  C   UNL     1      -2.752  -3.133   9.859  1.00  0.00     0.070 C 
BRANCH  32  33
ATOM     33  C   UNL     1      -2.364  -4.568  10.283  1.00  0.00    -0.037 C 
ATOM     34  C   UNL     1      -1.759  -5.489   9.486  1.00  0.00     0.001 A 
ATOM     35  C   UNL     1      -1.625  -4.523  11.577  1.00  0.00     0.174 C 
ATOM     36  C   UNL     1      -2.004  -6.947   9.521  1.00  0.00     0.010 A 
ATOM     37  C   UNL     1      -0.365  -5.307  10.007  1.00  0.00     0.065 A 
ATOM     38  N   UNL     1      -0.237  -4.747  11.164  1.00  0.00    -0.280 NA
ATOM     39  C   UNL     1      -0.972  -7.800   9.324  1.00  0.00     0.001 A 
ATOM     40  C   UNL     1       0.698  -6.030   9.291  1.00  0.00     0.028 A 
ATOM     41  C   UNL     1       0.362  -7.298   9.006  1.00  0.00     0.002 A 
ENDBRANCH  32  33
ENDBRANCH   9  32
ENDBRANCH   7   9
ENDBRANCH   6   7
ENDBRANCH   5   6
ENDBRANCH   4   5
ENDBRANCH   3   4
ENDBRANCH   2   3
ENDBRANCH   1   2
BRANCH   1  42
ATOM     42  O   UNL     1       1.613  -3.220  14.171  1.00  0.00    -0.377 OA
BRANCH  42  43
ATOM     43  C   UNL     1       0.527  -3.943  14.753  1.00  0.00     0.188 C 
BRANCH  43  44
ATOM     44  C   UNL     1       1.078  -5.192  15.433  1.00  0.00     0.188 C 
BRANCH  44  45
ATOM     45  O   UNL     1       1.388  -6.287  14.571  1.00  0.00    -0.376 OA
BRANCH  45  46
ATOM     46  C   UNL     1       0.326  -6.840  13.794  1.00  0.00     0.202 C 
BRANCH  46  47
ATOM     47  C   UNL     1      -0.825  -7.461  14.589  1.00  0.00     0.261 C 
BRANCH  47  48
ATOM     48  O   UNL     1      -1.806  -6.447  14.886  1.00  0.00    -0.460 OA
BRANCH  48  49
ATOM     49  C   UNL     1      -2.084  -6.250  16.195  1.00  0.00     0.338 C 
ATOM     50  O   UNL     1      -1.680  -6.875  17.153  1.00  0.00    -0.246 OA
BRANCH  49  51
ATOM     51  C   UNL     1      -2.793  -4.967  16.295  1.00  0.00     0.060 A 
ATOM     52  C   UNL     1      -4.078  -4.792  15.779  1.00  0.00     0.016 A 
ATOM     53  C   UNL     1      -2.129  -3.920  16.929  1.00  0.00     0.016 A 
ATOM     54  C   UNL     1      -4.720  -3.562  15.955  1.00  0.00     0.010 A 
ATOM     55  C   UNL     1      -2.741  -2.680  17.035  1.00  0.00     0.010 A 
ATOM     56  C   UNL     1      -4.065  -2.504  16.611  1.00  0.00    -0.014 A 
BRANCH  56  57
ATOM     57  C   UNL     1      -4.851  -1.342  17.088  1.00  0.00     0.031 A 
ATOM     58  C   UNL     1      -4.366  -0.740  18.377  1.00  0.00     0.074 A 
ATOM     59  C   UNL     1      -5.550  -0.533  16.269  1.00  0.00     0.049 A 
ATOM     60  N   UNL     1      -3.448   0.183  18.453  1.00  0.00    -0.248 NA
ATOM     61  C   UNL     1      -4.663  -1.391  19.654  1.00  0.00     0.031 C 
ATOM     62  C   UNL     1      -4.994   0.028  15.034  1.00  0.00     0.029 A 
ATOM     63  N   UNL     1      -6.666   0.230  16.530  1.00  0.00    -0.354 N 
ATOM     64  C   UNL     1      -2.990   0.186  19.761  1.00  0.00     0.074 A 
ATOM     65  C   UNL     1      -3.782  -0.796  20.469  1.00  0.00     0.031 C 
ATOM     66  C   UNL     1      -5.675   1.155  14.738  1.00  0.00     0.029 A 
ATOM     67  C   UNL     1      -6.791   1.314  15.669  1.00  0.00     0.049 A 
ATOM     68  H   UNL     1      -7.308   0.029  17.250  1.00  0.00     0.167 HD
ATOM     69  C   UNL     1      -1.966   0.959  20.211  1.00  0.00     0.037 A 
ATOM     70  C   UNL     1      -7.395   2.488  15.998  1.00  0.00     0.037 A 
ATOM     71  C   UNL     1      -1.386   1.871  19.276  1.00  0.00     0.049 A 
ATOM     72  C   UNL     1      -6.299   3.173  16.767  1.00  0.00     0.074 A 
ATOM     73  C   UNL     1      -0.278   1.940  18.460  1.00  0.00     0.029 A 
ATOM     74  N   UNL     1      -2.041   3.061  19.062  1.00  0.00    -0.354 N 
ATOM     75  N   UNL     1      -5.288   3.832  16.268  1.00  0.00    -0.248 NA
ATOM     76  C   UNL     1      -6.151   2.808  18.178  1.00  0.00     0.031 C 
ATOM     77  C   UNL     1      -0.585   2.936  17.478  1.00  0.00     0.029 A 
ATOM     78  C   UNL     1      -1.885   3.367  17.735  1.00  0.00     0.049 A 
ATOM     79  H   UNL     1      -2.528   3.591  19.733  1.00  0.00     0.167 HD
ATOM     80  C   UNL     1      -4.271   3.720  17.219  1.00  0.00     0.074 A 
ATOM     81  C   UNL     1      -4.884   3.128  18.389  1.00  0.00     0.031 C 
ATOM     82  C   UNL     1      -2.951   3.924  16.937  1.00  0.00     0.037 A 
BRANCH  69  83
ATOM     83  C   UNL     1      -1.567   1.028  21.628  1.00  0.00     0.057 A 
ATOM     84  C   UNL     1      -2.056   2.083  22.407  1.00  0.00     0.134 A 
ATOM     85  C   UNL     1      -0.594   0.196  22.183  1.00  0.00     0.134 A 
ATOM     86  F   UNL     1      -2.985   2.914  21.907  1.00  0.00    -0.206 F 
ATOM     87  C   UNL     1      -1.570   2.329  23.688  1.00  0.00     0.040 A 
ATOM     88  C   UNL     1      -0.102   0.428  23.469  1.00  0.00     0.040 A 
ATOM     89  F   UNL     1      -0.084  -0.824  21.477  1.00  0.00    -0.206 F 
ATOM     90  C   UNL     1      -0.581   1.505  24.219  1.00  0.00     0.006 A 
ENDBRANCH  69  83
BRANCH  70  91
ATOM     91  C   UNL     1      -8.811   2.391  16.477  1.00  0.00     0.057 A 
ATOM     92  C   UNL     1      -9.735   1.684  15.683  1.00  0.00     0.134 A 
ATOM     93  C   UNL     1      -9.329   2.953  17.651  1.00  0.00     0.134 A 
ATOM     94  F   UNL     1      -9.371   1.203  14.483  1.00  0.00    -0.206 F 
ATOM     95  C   UNL     1     -11.053   1.448  16.087  1.00  0.00     0.040 A 
ATOM     96  C   UNL     1     -10.639   2.704  18.082  1.00  0.00     0.040 A 
ATOM     97  F   UNL     1      -8.592   3.756  18.428  1.00  0.00    -0.206 F 
ATOM     98  C   UNL     1     -11.500   1.934  17.308  1.00  0.00     0.006 A 
ENDBRANCH  70  91
BRANCH  82  99
ATOM     99  C   UNL     1      -2.666   4.516  15.601  1.00  0.00     0.057 A 
ATOM    100  C   UNL     1      -2.998   5.850  15.340  1.00  0.00     0.134 A 
ATOM    101  C   UNL     1      -2.052   3.788  14.573  1.00  0.00     0.134 A 
ATOM    102  F   UNL     1      -3.580   6.605  16.286  1.00  0.00    -0.206 F 
ATOM    103  C   UNL     1      -2.720   6.443  14.108  1.00  0.00     0.040 A 
ATOM    104  C   UNL     1      -1.744   4.378  13.346  1.00  0.00     0.040 A 
ATOM    105  F   UNL     1      -1.728   2.495  14.737  1.00  0.00    -0.206 F 
ATOM    106  C   UNL     1      -2.080   5.709  13.111  1.00  0.00     0.006 A 
ENDBRANCH  82  99
ENDBRANCH  56  57
ENDBRANCH  49  51
ENDBRANCH  48  49
ENDBRANCH  47  48
ENDBRANCH  46  47
ENDBRANCH  45  46
ENDBRANCH  44  45
ENDBRANCH  43  44
ENDBRANCH  42  43
ENDBRANCH   1  42
TORSDOF 25
