REMARK SMILES COc1ccc(-c2[nH]nc3nc(-c4ccc(C(F)(F)F)cc4)cc(C(=O)OCCOCCOCCOCCOC(=O)c4ccc(-c5c6nc(c(-c7c(F)cccc7F)c7ccc([nH]7)c(-c7c(F)cccc7F)c7nc(c(-c8c(F)cccc8F)c8ccc5[nH]8)C=C7)C=C6)cc4)c23)cc1
REMARK SMILES IDX 33 1 32 2 31 3 30 4 29 5 28 6 27 7 25 8 26 9 24 10 7 11 8 12
REMARK SMILES IDX 96 13 9 14 10 16 11 17 23 18 12 19 6 20 3 21 4 22 98 23 5 24
REMARK SMILES IDX 97 25 2 26 1 27 13 28 14 29 22 30 15 31 21 32 16 33 17 34
REMARK SMILES IDX 18 35 19 36 20 37 34 38 35 39 36 40 37 41 38 42 39 43 40 44
REMARK SMILES IDX 41 45 42 46 43 47 95 48 44 49 94 50 45 51 46 52 47 53 88 54
REMARK SMILES IDX 48 55 93 56 87 57 89 58 49 59 92 60 86 61 85 62 50 64 76 65
REMARK SMILES IDX 59 66 75 67 60 68 63 69 74 70 90 71 61 72 62 73 73 75 91 76
REMARK SMILES IDX 64 77 51 78 52 79 57 80 53 81 54 82 56 83 58 84 55 85 77 86
REMARK SMILES IDX 78 87 83 88 79 89 80 90 82 91 84 92 81 93 65 94 66 95 71 96
REMARK SMILES IDX 67 97 68 98 70 99 72 100 69 101
REMARK H PARENT 8 15 89 63 63 74
REMARK Flexibility Score: inf
ROOT
ATOM      1  O   UNL     1       7.768   3.345  -3.086  1.00  0.00    -0.377 OA
ENDROOT
BRANCH   1   2
ATOM      2  C   UNL     1       6.535   4.040  -2.911  1.00  0.00     0.188 C 
BRANCH   2   3
ATOM      3  C   UNL     1       5.369   3.547  -3.761  1.00  0.00     0.188 C 
BRANCH   3   4
ATOM      4  O   UNL     1       5.040   2.182  -3.601  1.00  0.00    -0.376 OA
BRANCH   4   5
ATOM      5  C   UNL     1       4.185   1.527  -4.526  1.00  0.00     0.202 C 
BRANCH   5   6
ATOM      6  C   UNL     1       4.155   2.024  -5.979  1.00  0.00     0.261 C 
BRANCH   6   7
ATOM      7  O   UNL     1       3.968   3.445  -6.129  1.00  0.00    -0.460 OA
BRANCH   7   8
ATOM      8  C   UNL     1       2.883   4.010  -5.552  1.00  0.00     0.339 C 
ATOM      9  O   UNL     1       1.844   3.425  -5.290  1.00  0.00    -0.246 OA
BRANCH   8  10
ATOM     10  C   UNL     1       3.234   5.405  -5.195  1.00  0.00     0.075 A 
ATOM     11  C   UNL     1       1.961   5.771  -3.038  1.00  0.00     0.075 A 
ATOM     12  N   UNL     1       1.776   6.929  -2.318  1.00  0.00    -0.275 N 
ATOM     13  C   UNL     1       2.742   6.156  -4.117  1.00  0.00     0.061 A 
ATOM     14  N   UNL     1       2.520   7.968  -2.726  1.00  0.00    -0.154 NA
ATOM     15  H   UNL     1       1.146   6.991  -1.564  1.00  0.00     0.190 HD
ATOM     16  C   UNL     1       3.152   7.497  -3.800  1.00  0.00     0.182 A 
ATOM     17  N   UNL     1       4.110   8.159  -4.494  1.00  0.00    -0.226 NA
ATOM     18  C   UNL     1       4.253   6.119  -5.868  1.00  0.00     0.045 A 
ATOM     19  C   UNL     1       4.651   7.438  -5.513  1.00  0.00     0.074 A 
BRANCH  11  20
ATOM     20  C   UNL     1       1.505   4.498  -2.494  1.00  0.00     0.001 A 
ATOM     21  C   UNL     1       0.706   2.011  -1.437  1.00  0.00     0.118 A 
ATOM     22  C   UNL     1      -0.103   2.697  -2.348  1.00  0.00     0.047 A 
ATOM     23  C   UNL     1       1.907   2.587  -1.031  1.00  0.00     0.047 A 
ATOM     24  C   UNL     1       0.284   3.938  -2.866  1.00  0.00     0.014 A 
ATOM     25  C   UNL     1       2.300   3.826  -1.553  1.00  0.00     0.014 A 
BRANCH  21  26
ATOM     26  O   UNL     1       0.221   0.795  -1.042  1.00  0.00    -0.497 OA
ATOM     27  C   UNL     1       0.943   0.109  -0.026  1.00  0.00     0.278 C 
ENDBRANCH  21  26
ENDBRANCH  11  20
BRANCH  19  28
ATOM     28  C   UNL     1       5.704   8.146  -6.287  1.00  0.00     0.000 A 
ATOM     29  C   UNL     1       6.621   9.022  -5.676  1.00  0.00     0.011 A 
ATOM     30  C   UNL     1       5.799   7.991  -7.682  1.00  0.00     0.011 A 
ATOM     31  C   UNL     1       7.585   9.714  -6.429  1.00  0.00     0.014 A 
ATOM     32  C   UNL     1       6.756   8.678  -8.435  1.00  0.00     0.014 A 
ATOM     33  C   UNL     1       7.658   9.552  -7.819  1.00  0.00     0.056 A 
BRANCH  33  34
ATOM     34  C   UNL     1       8.671  10.317  -8.637  1.00  0.00     0.416 C 
ATOM     35  F   UNL     1       8.512  11.666  -8.544  1.00  0.00    -0.166 F 
ATOM     36  F   UNL     1       9.954  10.062  -8.255  1.00  0.00    -0.166 F 
ATOM     37  F   UNL     1       8.619  10.029  -9.969  1.00  0.00    -0.166 F 
ENDBRANCH  33  34
ENDBRANCH  19  28
ENDBRANCH   8  10
ENDBRANCH   7   8
ENDBRANCH   6   7
ENDBRANCH   5   6
ENDBRANCH   4   5
ENDBRANCH   3   4
ENDBRANCH   2   3
ENDBRANCH   1   2
BRANCH   1  38
ATOM     38  C   UNL     1       7.684   1.922  -3.170  1.00  0.00     0.188 C 
BRANCH  38  39
ATOM     39  C   UNL     1       7.078   1.140  -1.970  1.00  0.00     0.188 C 
BRANCH  39  40
ATOM     40  O   UNL     1       6.035   1.803  -1.270  1.00  0.00    -0.376 OA
BRANCH  40  41
ATOM     41  C   UNL     1       6.196   2.384   0.013  1.00  0.00     0.202 C 
BRANCH  41  42
ATOM     42  C   UNL     1       7.367   3.298   0.382  1.00  0.00     0.261 C 
BRANCH  42  43
ATOM     43  O   UNL     1       8.491   3.204  -0.458  1.00  0.00    -0.460 OA
BRANCH  43  44
ATOM     44  C   UNL     1       9.288   2.155  -0.208  1.00  0.00     0.338 C 
ATOM     45  O   UNL     1       9.086   1.244   0.577  1.00  0.00    -0.246 OA
BRANCH  44  46
ATOM     46  C   UNL     1      10.523   2.332  -0.971  1.00  0.00     0.060 A 
ATOM     47  C   UNL     1      11.424   1.271  -0.916  1.00  0.00     0.016 A 
ATOM     48  C   UNL     1      10.900   3.633  -1.335  1.00  0.00     0.016 A 
ATOM     49  C   UNL     1      12.758   1.581  -0.910  1.00  0.00     0.010 A 
ATOM     50  C   UNL     1      12.231   3.945  -1.300  1.00  0.00     0.010 A 
ATOM     51  C   UNL     1      13.125   2.930  -0.978  1.00  0.00    -0.014 A 
BRANCH  51  52
ATOM     52  C   UNL     1      14.520   3.252  -0.814  1.00  0.00     0.031 A 
ATOM     53  C   UNL     1      15.284   2.898  -2.023  1.00  0.00     0.074 A 
ATOM     54  C   UNL     1      14.988   3.865   0.289  1.00  0.00     0.049 A 
ATOM     55  N   UNL     1      16.108   1.916  -2.165  1.00  0.00    -0.248 NA
ATOM     56  C   UNL     1      14.903   3.554  -3.287  1.00  0.00     0.031 C 
ATOM     57  C   UNL     1      14.217   4.456   1.387  1.00  0.00     0.029 A 
ATOM     58  N   UNL     1      16.271   4.175   0.616  1.00  0.00    -0.354 N 
ATOM     59  C   UNL     1      16.546   2.008  -3.479  1.00  0.00     0.074 A 
ATOM     60  C   UNL     1      15.604   2.843  -4.169  1.00  0.00     0.031 C 
ATOM     61  C   UNL     1      15.029   5.245   2.129  1.00  0.00     0.029 A 
ATOM     62  C   UNL     1      16.390   5.110   1.641  1.00  0.00     0.049 A 
ATOM     63  H   UNL     1      17.049   3.774   0.167  1.00  0.00     0.167 HD
ATOM     64  C   UNL     1      17.833   1.696  -3.782  1.00  0.00     0.037 A 
ATOM     65  C   UNL     1      17.528   5.761   1.989  1.00  0.00     0.037 A 
ATOM     66  C   UNL     1      18.416   0.880  -2.744  1.00  0.00     0.049 A 
ATOM     67  C   UNL     1      18.662   4.988   1.428  1.00  0.00     0.074 A 
ATOM     68  C   UNL     1      18.166  -0.368  -2.212  1.00  0.00     0.029 A 
ATOM     69  N   UNL     1      19.183   1.552  -1.827  1.00  0.00    -0.354 N 
ATOM     70  N   UNL     1      19.021   3.811   1.857  1.00  0.00    -0.248 NA
ATOM     71  C   UNL     1      19.147   5.342   0.103  1.00  0.00     0.031 C 
ATOM     72  C   UNL     1      18.501  -0.267  -0.828  1.00  0.00     0.029 A 
ATOM     73  C   UNL     1      18.998   1.014  -0.584  1.00  0.00     0.049 A 
ATOM     74  H   UNL     1      19.778   2.308  -2.033  1.00  0.00     0.167 HD
ATOM     75  C   UNL     1      19.379   3.116   0.713  1.00  0.00     0.074 A 
ATOM     76  C   UNL     1      19.572   4.144  -0.306  1.00  0.00     0.031 C 
ATOM     77  C   UNL     1      19.182   1.766   0.639  1.00  0.00     0.037 A 
BRANCH  64  78
ATOM     78  C   UNL     1      18.683   2.539  -4.711  1.00  0.00     0.057 A 
ATOM     79  C   UNL     1      19.986   2.103  -5.004  1.00  0.00     0.134 A 
ATOM     80  C   UNL     1      18.411   3.879  -5.071  1.00  0.00     0.134 A 
ATOM     81  F   UNL     1      20.380   0.858  -4.694  1.00  0.00    -0.206 F 
ATOM     82  C   UNL     1      20.961   2.954  -5.539  1.00  0.00     0.040 A 
ATOM     83  C   UNL     1      19.361   4.720  -5.653  1.00  0.00     0.040 A 
ATOM     84  F   UNL     1      17.256   4.492  -4.792  1.00  0.00    -0.206 F 
ATOM     85  C   UNL     1      20.652   4.270  -5.859  1.00  0.00     0.006 A 
ENDBRANCH  64  78
BRANCH  65  86
ATOM     86  C   UNL     1      17.711   7.145   2.485  1.00  0.00     0.057 A 
ATOM     87  C   UNL     1      18.935   7.557   3.035  1.00  0.00     0.134 A 
ATOM     88  C   UNL     1      16.809   8.171   2.156  1.00  0.00     0.134 A 
ATOM     89  F   UNL     1      19.878   6.657   3.349  1.00  0.00    -0.206 F 
ATOM     90  C   UNL     1      19.260   8.909   3.209  1.00  0.00     0.040 A 
ATOM     91  C   UNL     1      17.118   9.524   2.330  1.00  0.00     0.040 A 
ATOM     92  F   UNL     1      15.637   7.899   1.564  1.00  0.00    -0.206 F 
ATOM     93  C   UNL     1      18.354   9.899   2.842  1.00  0.00     0.006 A 
ENDBRANCH  65  86
BRANCH  77  94
ATOM     94  C   UNL     1      18.954   1.034   1.933  1.00  0.00     0.057 A 
ATOM     95  C   UNL     1      17.847   1.219   2.776  1.00  0.00     0.134 A 
ATOM     96  C   UNL     1      19.853   0.021   2.283  1.00  0.00     0.134 A 
ATOM     97  F   UNL     1      16.886   2.104   2.477  1.00  0.00    -0.206 F 
ATOM     98  C   UNL     1      17.673   0.459   3.937  1.00  0.00     0.040 A 
ATOM     99  C   UNL     1      19.671  -0.769   3.418  1.00  0.00     0.040 A 
ATOM    100  F   UNL     1      20.910  -0.244   1.498  1.00  0.00    -0.206 F 
ATOM    101  C   UNL     1      18.584  -0.544   4.258  1.00  0.00     0.006 A 
ENDBRANCH  77  94
ENDBRANCH  51  52
ENDBRANCH  44  46
ENDBRANCH  43  44
ENDBRANCH  42  43
ENDBRANCH  41  42
ENDBRANCH  40  41
ENDBRANCH  39  40
ENDBRANCH  38  39
ENDBRANCH   1  38
TORSDOF 24
