REMARK SMILES Cc1cc(C)cc(Oc2nc3ccccn3c(=O)c2/C=C2\SC(=S)N(CCC(=O)OCCOCCOCCOCCOC(=O)c3ccc(-c4c5nc(c(-c6c(F)cccc6F)c6ccc([nH]6)c(-c6c(F)cccc6F)c6nc(c(-c7c(F)cccc7F)c7ccc4[nH]7)C=C6)C=C5)cc3)C2=O)c1
REMARK SMILES IDX 34 1 33 2 32 3 31 4 30 5 28 6 29 7 27 8 26 9 25 10 20 11
REMARK SMILES IDX 21 12 22 13 99 14 23 15 100 16 24 17 19 18 9 19 10 20 11 21
REMARK SMILES IDX 17 22 12 23 16 24 18 25 13 26 15 27 14 28 8 29 7 30 1 31
REMARK SMILES IDX 2 32 3 33 101 34 4 35 5 36 6 37 35 38 36 39 37 40 38 41
REMARK SMILES IDX 39 42 40 43 41 44 42 45 43 46 44 47 45 48 46 49 98 50 47 51
REMARK SMILES IDX 97 52 48 53 49 54 50 55 91 56 51 57 96 58 90 59 92 60 52 61
REMARK SMILES IDX 95 62 89 63 88 64 53 66 79 67 62 68 78 69 63 70 66 71 77 72
REMARK SMILES IDX 93 73 64 74 65 75 76 77 94 78 67 79 54 80 55 81 60 82 56 83
REMARK SMILES IDX 57 84 59 85 61 86 58 87 80 88 81 89 86 90 82 91 83 92 85 93
REMARK SMILES IDX 87 94 84 95 68 96 69 97 74 98 70 99 71 100 73 101 75 102
REMARK SMILES IDX 72 103
REMARK H PARENT 92 65 66 76
REMARK Flexibility Score: inf
ROOT
ATOM      1  C   UNL     1       0.761   0.669   6.590  1.00  0.00     0.188 C 
ENDROOT
BRANCH   1   2
ATOM      2  O   UNL     1      -0.337  -0.182   6.404  1.00  0.00    -0.376 OA
BRANCH   2   3
ATOM      3  C   UNL     1      -1.259  -0.049   5.339  1.00  0.00     0.202 C 
BRANCH   3   4
ATOM      4  C   UNL     1      -1.120   0.765   4.030  1.00  0.00     0.261 C 
BRANCH   4   5
ATOM      5  O   UNL     1       0.159   1.208   3.575  1.00  0.00    -0.463 OA
BRANCH   5   6
ATOM      6  C   UNL     1       0.542   2.472   3.825  1.00  0.00     0.307 C 
ATOM      7  O   UNL     1      -0.148   3.295   4.416  1.00  0.00    -0.252 OA
BRANCH   6   8
ATOM      8  C   UNL     1       1.895   2.812   3.229  1.00  0.00     0.144 C 
BRANCH   8   9
ATOM      9  C   UNL     1       3.159   2.019   3.599  1.00  0.00     0.139 C 
BRANCH   9  10
ATOM     10  N   UNL     1       3.487   0.775   2.873  1.00  0.00    -0.292 N 
ATOM     11  C   UNL     1       2.398  -2.544   2.010  1.00  0.00     0.041 C 
ATOM     12  C   UNL     1       3.185  -1.476   2.216  1.00  0.00     0.081 C 
ATOM     13  S   UNL     1       4.677  -1.066   1.485  1.00  0.00    -0.054 SA
ATOM     14  C   UNL     1       2.711  -0.353   3.041  1.00  0.00     0.266 C 
ATOM     15  C   UNL     1       4.657   0.559   2.165  1.00  0.00     0.148 C 
ATOM     16  O   UNL     1       1.738  -0.474   3.749  1.00  0.00    -0.268 OA
ATOM     17  S   UNL     1       5.937   1.603   1.917  1.00  0.00    -0.052 S 
BRANCH  11  18
ATOM     18  C   UNL     1       2.664  -3.504   0.961  1.00  0.00     0.104 A 
ATOM     19  C   UNL     1       1.971  -3.544  -0.196  1.00  0.00     0.234 A 
ATOM     20  N   UNL     1       2.407  -4.236  -1.292  1.00  0.00    -0.194 NA
ATOM     21  C   UNL     1       3.416  -5.038  -1.159  1.00  0.00     0.143 A 
ATOM     22  C   UNL     1       3.829  -4.424   1.107  1.00  0.00     0.269 A 
ATOM     23  C   UNL     1       3.901  -5.807  -2.341  1.00  0.00     0.048 A 
ATOM     24  N   UNL     1       4.104  -5.234   0.024  1.00  0.00    -0.267 N 
ATOM     25  O   UNL     1       4.476  -4.436   2.156  1.00  0.00    -0.268 OA
ATOM     26  C   UNL     1       4.821  -6.765  -2.189  1.00  0.00     0.005 A 
ATOM     27  C   UNL     1       5.074  -6.223   0.136  1.00  0.00     0.096 A 
ATOM     28  C   UNL     1       5.413  -6.999  -0.900  1.00  0.00     0.019 A 
BRANCH  19  29
ATOM     29  O   UNL     1       0.701  -2.964  -0.332  1.00  0.00    -0.438 OA
BRANCH  29  30
ATOM     30  C   UNL     1       0.526  -1.599  -0.336  1.00  0.00     0.130 A 
ATOM     31  C   UNL     1       2.471   1.643  -0.558  1.00  0.00     0.044 C 
ATOM     32  C   UNL     1       1.330   0.682  -0.429  1.00  0.00    -0.047 A 
ATOM     33  C   UNL     1       0.031   1.144  -0.182  1.00  0.00     0.007 A 
ATOM     34  C   UNL     1       1.555  -0.691  -0.557  1.00  0.00     0.050 A 
ATOM     35  C   UNL     1      -1.038   0.246  -0.061  1.00  0.00    -0.047 A 
ATOM     36  C   UNL     1      -2.433   0.776   0.107  1.00  0.00     0.044 C 
ATOM     37  C   UNL     1      -0.776  -1.131  -0.117  1.00  0.00     0.050 A 
ENDBRANCH  29  30
ENDBRANCH  19  29
ENDBRANCH  11  18
ENDBRANCH   9  10
ENDBRANCH   8   9
ENDBRANCH   6   8
ENDBRANCH   5   6
ENDBRANCH   4   5
ENDBRANCH   3   4
ENDBRANCH   2   3
ENDBRANCH   1   2
BRANCH   1  38
ATOM     38  C   UNL     1       2.144  -0.016   6.679  1.00  0.00     0.188 C 
BRANCH  38  39
ATOM     39  O   UNL     1       2.435  -1.281   6.094  1.00  0.00    -0.377 OA
BRANCH  39  40
ATOM     40  C   UNL     1       1.401  -2.256   6.022  1.00  0.00     0.188 C 
BRANCH  40  41
ATOM     41  C   UNL     1       0.787  -2.700   7.355  1.00  0.00     0.188 C 
BRANCH  41  42
ATOM     42  O   UNL     1       1.224  -1.927   8.456  1.00  0.00    -0.376 OA
BRANCH  42  43
ATOM     43  C   UNL     1       2.405  -2.334   9.134  1.00  0.00     0.202 C 
BRANCH  43  44
ATOM     44  C   UNL     1       3.669  -2.844   8.402  1.00  0.00     0.261 C 
BRANCH  44  45
ATOM     45  O   UNL     1       3.514  -3.731   7.283  1.00  0.00    -0.460 OA
BRANCH  45  46
ATOM     46  C   UNL     1       3.104  -4.993   7.514  1.00  0.00     0.338 C 
ATOM     47  O   UNL     1       2.831  -5.491   8.591  1.00  0.00    -0.246 OA
BRANCH  46  48
ATOM     48  C   UNL     1       2.872  -5.645   6.202  1.00  0.00     0.060 A 
ATOM     49  C   UNL     1       1.577  -6.065   5.871  1.00  0.00     0.016 A 
ATOM     50  C   UNL     1       3.925  -5.872   5.316  1.00  0.00     0.016 A 
ATOM     51  C   UNL     1       1.340  -6.757   4.678  1.00  0.00     0.010 A 
ATOM     52  C   UNL     1       3.689  -6.588   4.134  1.00  0.00     0.010 A 
ATOM     53  C   UNL     1       2.402  -7.067   3.821  1.00  0.00    -0.014 A 
BRANCH  53  54
ATOM     54  C   UNL     1       2.224  -8.096   2.755  1.00  0.00     0.031 A 
ATOM     55  C   UNL     1       2.754  -9.482   3.040  1.00  0.00     0.074 A 
ATOM     56  C   UNL     1       1.538  -7.860   1.617  1.00  0.00     0.049 A 
ATOM     57  N   UNL     1       2.785 -10.541   2.273  1.00  0.00    -0.248 NA
ATOM     58  C   UNL     1       3.302  -9.709   4.391  1.00  0.00     0.031 C 
ATOM     59  C   UNL     1       0.840  -6.619   1.289  1.00  0.00     0.029 A 
ATOM     60  N   UNL     1       1.304  -8.663   0.523  1.00  0.00    -0.354 N 
ATOM     61  C   UNL     1       3.324 -11.557   3.055  1.00  0.00     0.074 A 
ATOM     62  C   UNL     1       3.672 -10.978   4.332  1.00  0.00     0.031 C 
ATOM     63  C   UNL     1       0.270  -6.737   0.074  1.00  0.00     0.029 A 
ATOM     64  C   UNL     1       0.589  -8.047  -0.485  1.00  0.00     0.049 A 
ATOM     65  H   UNL     1       1.618  -9.594   0.465  1.00  0.00     0.167 HD
ATOM     66  C   UNL     1       3.480 -12.867   2.752  1.00  0.00     0.037 A 
ATOM     67  C   UNL     1       0.264  -8.489  -1.722  1.00  0.00     0.037 A 
ATOM     68  C   UNL     1       3.129 -13.439   1.481  1.00  0.00     0.049 A 
ATOM     69  C   UNL     1       0.738  -9.865  -2.125  1.00  0.00     0.074 A 
ATOM     70  C   UNL     1       3.253 -14.751   1.059  1.00  0.00     0.029 A 
ATOM     71  N   UNL     1       2.583 -12.726   0.425  1.00  0.00    -0.354 N 
ATOM     72  N   UNL     1       1.276 -10.809  -1.390  1.00  0.00    -0.248 NA
ATOM     73  C   UNL     1       0.578 -10.232  -3.540  1.00  0.00     0.031 C 
ATOM     74  C   UNL     1       2.836 -14.819  -0.273  1.00  0.00     0.029 A 
ATOM     75  C   UNL     1       2.396 -13.564  -0.660  1.00  0.00     0.049 A 
ATOM     76  H   UNL     1       2.362 -11.767   0.444  1.00  0.00     0.167 HD
ATOM     77  C   UNL     1       1.415 -11.910  -2.227  1.00  0.00     0.074 A 
ATOM     78  C   UNL     1       0.947 -11.503  -3.534  1.00  0.00     0.031 C 
ATOM     79  C   UNL     1       1.864 -13.155  -1.934  1.00  0.00     0.037 A 
BRANCH  66  80
ATOM     80  C   UNL     1       4.057 -13.767   3.806  1.00  0.00     0.057 A 
ATOM     81  C   UNL     1       3.331 -14.125   4.950  1.00  0.00     0.134 A 
ATOM     82  C   UNL     1       5.335 -14.321   3.655  1.00  0.00     0.134 A 
ATOM     83  F   UNL     1       2.107 -13.618   5.165  1.00  0.00    -0.206 F 
ATOM     84  C   UNL     1       3.860 -14.987   5.913  1.00  0.00     0.040 A 
ATOM     85  C   UNL     1       5.864 -15.206   4.597  1.00  0.00     0.040 A 
ATOM     86  F   UNL     1       6.083 -14.024   2.583  1.00  0.00    -0.206 F 
ATOM     87  C   UNL     1       5.127 -15.538   5.732  1.00  0.00     0.006 A 
ENDBRANCH  66  80
BRANCH  67  88
ATOM     88  C   UNL     1      -0.449  -7.639  -2.730  1.00  0.00     0.057 A 
ATOM     89  C   UNL     1      -1.637  -8.022  -3.359  1.00  0.00     0.134 A 
ATOM     90  C   UNL     1       0.151  -6.480  -3.224  1.00  0.00     0.134 A 
ATOM     91  F   UNL     1      -2.259  -9.152  -2.993  1.00  0.00    -0.206 F 
ATOM     92  C   UNL     1      -2.165  -7.305  -4.444  1.00  0.00     0.040 A 
ATOM     93  C   UNL     1      -0.372  -5.726  -4.274  1.00  0.00     0.040 A 
ATOM     94  F   UNL     1       1.317  -6.095  -2.721  1.00  0.00    -0.206 F 
ATOM     95  C   UNL     1      -1.531  -6.152  -4.904  1.00  0.00     0.006 A 
ENDBRANCH  67  88
BRANCH  79  96
ATOM     96  C   UNL     1       1.720 -14.203  -2.998  1.00  0.00     0.057 A 
ATOM     97  C   UNL     1       2.516 -14.229  -4.148  1.00  0.00     0.134 A 
ATOM     98  C   UNL     1       0.769 -15.222  -2.844  1.00  0.00     0.134 A 
ATOM     99  F   UNL     1       3.433 -13.273  -4.363  1.00  0.00    -0.206 F 
ATOM    100  C   UNL     1       2.350 -15.213  -5.123  1.00  0.00     0.040 A 
ATOM    101  C   UNL     1       0.618 -16.230  -3.795  1.00  0.00     0.040 A 
ATOM    102  F   UNL     1      -0.019 -15.261  -1.759  1.00  0.00    -0.206 F 
ATOM    103  C   UNL     1       1.404 -16.222  -4.944  1.00  0.00     0.006 A 
ENDBRANCH  79  96
ENDBRANCH  53  54
ENDBRANCH  46  48
ENDBRANCH  45  46
ENDBRANCH  44  45
ENDBRANCH  43  44
ENDBRANCH  42  43
ENDBRANCH  41  42
ENDBRANCH  40  41
ENDBRANCH  39  40
ENDBRANCH  38  39
ENDBRANCH   1  38
TORSDOF 25
