REMARK SMILES COc1ccc(-c2nc(SCC(=O)OCCOCCOCCOCCOC(=O)c3ccc(-c4c5nc(c(-c6c(F)cccc6F)c6ccc([nH]6)c(-c6c(F)cccc6F)c6nc(c(-c7c(F)cccc7F)c7ccc4[nH]7)C=C6)C=C5)cc3)cc(-c3ccncc3)n2)cc1
REMARK SMILES IDX 19 1 18 2 17 3 16 4 15 5 14 6 12 7 13 8 11 9 10 10 9 11 7 12
REMARK SMILES IDX 8 13 91 14 84 15 83 16 6 17 3 18 4 19 93 20 5 21 92 22 2 23
REMARK SMILES IDX 1 24 85 25 86 26 90 27 87 28 89 29 88 30 20 31 21 32 22 33
REMARK SMILES IDX 23 34 24 35 25 36 26 37 27 38 28 39 29 40 30 41 82 42 31 43
REMARK SMILES IDX 81 44 32 45 33 46 34 47 75 48 35 49 80 50 74 51 76 52 36 53
REMARK SMILES IDX 79 54 73 55 72 56 37 58 63 59 46 60 62 61 47 62 50 63 61 64
REMARK SMILES IDX 77 65 48 66 49 67 60 69 78 70 51 71 38 72 39 73 44 74 40 75
REMARK SMILES IDX 41 76 43 77 45 78 42 79 64 80 65 81 70 82 66 83 67 84 69 85
REMARK SMILES IDX 71 86 68 87 52 88 53 89 58 90 54 91 55 92 57 93 59 94 56 95
REMARK H PARENT 76 57 50 68
REMARK Flexibility Score: inf
ROOT
ATOM      1  C   UNL     1       4.011   4.295   7.385  1.00  0.00     0.188 C 
ENDROOT
BRANCH   1   2
ATOM      2  C   UNL     1       4.855   5.529   7.755  1.00  0.00     0.188 C 
BRANCH   2   3
ATOM      3  O   UNL     1       6.015   5.375   8.535  1.00  0.00    -0.376 OA
BRANCH   3   4
ATOM      4  C   UNL     1       5.956   4.944   9.877  1.00  0.00     0.202 C 
BRANCH   4   5
ATOM      5  C   UNL     1       4.639   4.793  10.668  1.00  0.00     0.261 C 
BRANCH   5   6
ATOM      6  O   UNL     1       3.410   5.109   9.970  1.00  0.00    -0.463 OA
BRANCH   6   7
ATOM      7  C   UNL     1       2.807   6.290  10.234  1.00  0.00     0.316 C 
ATOM      8  O   UNL     1       3.182   7.029  11.142  1.00  0.00    -0.251 OA
BRANCH   7   9
ATOM      9  C   UNL     1       1.682   6.734   9.290  1.00  0.00     0.199 C 
BRANCH   9  10
ATOM     10  S   UNL     1       0.988   5.613   8.020  1.00  0.00    -0.094 SA
BRANCH  10  11
ATOM     11  C   UNL     1       1.451   6.192   6.349  1.00  0.00     0.101 A 
ATOM     12  C   UNL     1       1.493   5.525   4.112  1.00  0.00     0.161 A 
ATOM     13  N   UNL     1       0.985   5.385   5.358  1.00  0.00    -0.222 NA
ATOM     14  N   UNL     1       2.434   6.441   3.792  1.00  0.00    -0.228 NA
ATOM     15  C   UNL     1       2.858   7.278   4.779  1.00  0.00     0.076 A 
ATOM     16  C   UNL     1       2.367   7.194   6.081  1.00  0.00     0.064 A 
BRANCH  12  17
ATOM     17  C   UNL     1       1.096   4.506   3.087  1.00  0.00     0.019 A 
ATOM     18  C   UNL     1       0.364   2.391   1.266  1.00  0.00     0.118 A 
ATOM     19  C   UNL     1      -0.599   3.217   1.853  1.00  0.00     0.047 A 
ATOM     20  C   UNL     1       1.695   2.649   1.544  1.00  0.00     0.047 A 
ATOM     21  C   UNL     1      -0.243   4.237   2.767  1.00  0.00     0.016 A 
ATOM     22  C   UNL     1       2.039   3.711   2.406  1.00  0.00     0.016 A 
BRANCH  18  23
ATOM     23  O   UNL     1      -0.104   1.433   0.410  1.00  0.00    -0.497 OA
ATOM     24  C   UNL     1       0.720   0.290   0.184  1.00  0.00     0.278 C 
ENDBRANCH  18  23
ENDBRANCH  12  17
BRANCH  15  25
ATOM     25  C   UNL     1       3.962   8.211   4.407  1.00  0.00     0.003 A 
ATOM     26  C   UNL     1       5.175   8.268   5.114  1.00  0.00     0.030 A 
ATOM     27  C   UNL     1       3.867   9.055   3.296  1.00  0.00     0.030 A 
ATOM     28  C   UNL     1       6.226   9.057   4.665  1.00  0.00     0.111 A 
ATOM     29  C   UNL     1       4.950   9.863   2.952  1.00  0.00     0.111 A 
ATOM     30  N   UNL     1       6.132   9.869   3.602  1.00  0.00    -0.265 NA
ENDBRANCH  15  25
ENDBRANCH  10  11
ENDBRANCH   9  10
ENDBRANCH   7   9
ENDBRANCH   6   7
ENDBRANCH   5   6
ENDBRANCH   4   5
ENDBRANCH   3   4
ENDBRANCH   2   3
ENDBRANCH   1   2
BRANCH   1  31
ATOM     31  O   UNL     1       4.567   3.238   6.640  1.00  0.00    -0.377 OA
BRANCH  31  32
ATOM     32  C   UNL     1       5.775   2.716   7.130  1.00  0.00     0.188 C 
BRANCH  32  33
ATOM     33  C   UNL     1       6.963   3.239   6.318  1.00  0.00     0.188 C 
BRANCH  33  34
ATOM     34  O   UNL     1       6.808   4.569   5.859  1.00  0.00    -0.376 OA
BRANCH  34  35
ATOM     35  C   UNL     1       6.213   4.823   4.593  1.00  0.00     0.202 C 
BRANCH  35  36
ATOM     36  C   UNL     1       5.115   3.993   3.926  1.00  0.00     0.261 C 
BRANCH  36  37
ATOM     37  O   UNL     1       5.024   2.607   4.210  1.00  0.00    -0.460 OA
BRANCH  37  38
ATOM     38  C   UNL     1       5.733   1.746   3.477  1.00  0.00     0.338 C 
ATOM     39  O   UNL     1       6.472   1.978   2.534  1.00  0.00    -0.246 OA
BRANCH  38  40
ATOM     40  C   UNL     1       5.616   0.478   4.202  1.00  0.00     0.060 A 
ATOM     41  C   UNL     1       6.754   0.023   4.872  1.00  0.00     0.016 A 
ATOM     42  C   UNL     1       4.388  -0.188   4.311  1.00  0.00     0.016 A 
ATOM     43  C   UNL     1       6.679  -1.123   5.642  1.00  0.00     0.010 A 
ATOM     44  C   UNL     1       4.324  -1.369   5.048  1.00  0.00     0.010 A 
ATOM     45  C   UNL     1       5.482  -1.850   5.678  1.00  0.00    -0.014 A 
BRANCH  45  46
ATOM     46  C   UNL     1       5.573  -3.242   6.148  1.00  0.00     0.031 A 
ATOM     47  C   UNL     1       5.849  -4.294   5.113  1.00  0.00     0.074 A 
ATOM     48  C   UNL     1       5.564  -3.518   7.461  1.00  0.00     0.049 A 
ATOM     49  N   UNL     1       6.076  -5.569   5.267  1.00  0.00    -0.248 NA
ATOM     50  C   UNL     1       5.894  -3.838   3.711  1.00  0.00     0.031 C 
ATOM     51  C   UNL     1       5.371  -2.538   8.530  1.00  0.00     0.029 A 
ATOM     52  N   UNL     1       5.745  -4.705   8.116  1.00  0.00    -0.354 N 
ATOM     53  C   UNL     1       6.298  -6.063   3.987  1.00  0.00     0.074 A 
ATOM     54  C   UNL     1       6.142  -4.965   3.064  1.00  0.00     0.031 C 
ATOM     55  C   UNL     1       5.442  -3.169   9.715  1.00  0.00     0.029 A 
ATOM     56  C   UNL     1       5.659  -4.595   9.481  1.00  0.00     0.049 A 
ATOM     57  H   UNL     1       5.921  -5.556   7.654  1.00  0.00     0.167 HD
ATOM     58  C   UNL     1       6.619  -7.325   3.624  1.00  0.00     0.037 A 
ATOM     59  C   UNL     1       5.730  -5.554  10.422  1.00  0.00     0.037 A 
ATOM     60  C   UNL     1       6.756  -8.403   4.563  1.00  0.00     0.049 A 
ATOM     61  C   UNL     1       5.998  -6.969   9.979  1.00  0.00     0.074 A 
ATOM     62  C   UNL     1       7.051  -9.730   4.317  1.00  0.00     0.029 A 
ATOM     63  N   UNL     1       6.599  -8.271   5.936  1.00  0.00    -0.354 N 
ATOM     64  N   UNL     1       6.208  -7.433   8.769  1.00  0.00    -0.248 NA
ATOM     65  C   UNL     1       6.049  -7.991  11.031  1.00  0.00     0.031 C 
ATOM     66  C   UNL     1       7.017 -10.412   5.537  1.00  0.00     0.029 A 
ATOM     67  C   UNL     1       6.770  -9.498   6.550  1.00  0.00     0.049 A 
ATOM     68  H   UNL     1       6.395  -7.428   6.403  1.00  0.00     0.167 HD
ATOM     69  C   UNL     1       6.447  -8.793   8.916  1.00  0.00     0.074 A 
ATOM     70  C   UNL     1       6.377  -9.071  10.337  1.00  0.00     0.031 C 
ATOM     71  C   UNL     1       6.701  -9.732   7.971  1.00  0.00     0.037 A 
BRANCH  58  72
ATOM     72  C   UNL     1       6.800  -7.601   2.161  1.00  0.00     0.057 A 
ATOM     73  C   UNL     1       7.899  -7.111   1.441  1.00  0.00     0.134 A 
ATOM     74  C   UNL     1       5.872  -8.386   1.466  1.00  0.00     0.134 A 
ATOM     75  F   UNL     1       8.811  -6.330   2.039  1.00  0.00    -0.206 F 
ATOM     76  C   UNL     1       8.059  -7.381   0.080  1.00  0.00     0.040 A 
ATOM     77  C   UNL     1       6.037  -8.686   0.113  1.00  0.00     0.040 A 
ATOM     78  F   UNL     1       4.793  -8.879   2.092  1.00  0.00    -0.206 F 
ATOM     79  C   UNL     1       7.131  -8.180  -0.585  1.00  0.00     0.006 A 
ENDBRANCH  58  72
BRANCH  59  80
ATOM     80  C   UNL     1       5.520  -5.221  11.855  1.00  0.00     0.057 A 
ATOM     81  C   UNL     1       6.536  -5.378  12.805  1.00  0.00     0.134 A 
ATOM     82  C   UNL     1       4.276  -4.772  12.317  1.00  0.00     0.134 A 
ATOM     83  F   UNL     1       7.747  -5.819  12.432  1.00  0.00    -0.206 F 
ATOM     84  C   UNL     1       6.315  -5.132  14.162  1.00  0.00     0.040 A 
ATOM     85  C   UNL     1       4.050  -4.492  13.665  1.00  0.00     0.040 A 
ATOM     86  F   UNL     1       3.259  -4.593  11.461  1.00  0.00    -0.206 F 
ATOM     87  C   UNL     1       5.068  -4.685  14.595  1.00  0.00     0.006 A 
ENDBRANCH  59  80
BRANCH  71  88
ATOM     88  C   UNL     1       6.969 -11.128   8.454  1.00  0.00     0.057 A 
ATOM     89  C   UNL     1       5.964 -11.928   9.012  1.00  0.00     0.134 A 
ATOM     90  C   UNL     1       8.249 -11.685   8.331  1.00  0.00     0.134 A 
ATOM     91  F   UNL     1       4.720 -11.450   9.165  1.00  0.00    -0.206 F 
ATOM     92  C   UNL     1       6.233 -13.219   9.468  1.00  0.00     0.040 A 
ATOM     93  C   UNL     1       8.520 -12.987   8.750  1.00  0.00     0.040 A 
ATOM     94  F   UNL     1       9.252 -10.978   7.790  1.00  0.00    -0.206 F 
ATOM     95  C   UNL     1       7.513 -13.753   9.331  1.00  0.00     0.006 A 
ENDBRANCH  71  88
ENDBRANCH  45  46
ENDBRANCH  38  40
ENDBRANCH  37  38
ENDBRANCH  36  37
ENDBRANCH  35  36
ENDBRANCH  34  35
ENDBRANCH  33  34
ENDBRANCH  32  33
ENDBRANCH  31  32
ENDBRANCH   1  31
TORSDOF 25
