REMARK SMILES CC1=C(C)C[C@@H](C(=O)OCCOCCOCCOCCOC(=O)c2ccc(-c3c4nc(c(-c5c(F)cccc5F)c5ccc([nH]5)c(-c5c(F)cccc5F)c5nc(c(-c6c(F)cccc6F)c6ccc3[nH]6)C=C5)C=C4)cc2)[C@@H](C(=O)NCC[NH+]2CCOCC2)C1
REMARK SMILES IDX 14 1 13 2 12 3 11 4 10 5 9 6 7 7 8 8 6 9 1 10 2 11 3 12
REMARK SMILES IDX 90 13 4 14 5 15 78 16 79 17 80 18 81 19 82 21 83 22 84 23
REMARK SMILES IDX 85 24 89 25 86 27 88 28 87 29 15 30 16 31 17 32 18 33 19 34
REMARK SMILES IDX 20 35 21 36 22 37 23 38 24 39 25 40 77 41 26 42 76 43 27 44
REMARK SMILES IDX 28 45 29 46 70 47 30 48 75 49 69 50 71 51 31 52 74 53 68 54
REMARK SMILES IDX 67 55 32 57 58 58 41 59 57 60 42 61 45 62 56 63 72 64 43 65
REMARK SMILES IDX 44 66 55 68 73 69 46 70 33 71 34 72 39 73 35 74 36 75 38 76
REMARK SMILES IDX 40 77 37 78 59 79 60 80 65 81 61 82 62 83 64 84 66 85 63 86
REMARK SMILES IDX 47 87 48 88 53 89 49 90 50 91 52 92 54 93 51 94
REMARK H PARENT 81 20 84 26 71 56 45 67
REMARK Flexibility Score: inf
ROOT
ATOM      1  C   UNL     1      -3.855  -2.347  -4.423  1.00  0.00     0.188 C 
ENDROOT
BRANCH   1   2
ATOM      2  C   UNL     1      -3.261  -3.716  -4.773  1.00  0.00     0.188 C 
BRANCH   2   3
ATOM      3  O   UNL     1      -3.587  -4.795  -3.891  1.00  0.00    -0.376 OA
BRANCH   3   4
ATOM      4  C   UNL     1      -3.805  -4.489  -2.521  1.00  0.00     0.202 C 
BRANCH   4   5
ATOM      5  C   UNL     1      -2.562  -4.376  -1.635  1.00  0.00     0.261 C 
BRANCH   5   6
ATOM      6  O   UNL     1      -1.601  -3.364  -2.002  1.00  0.00    -0.463 OA
BRANCH   6   7
ATOM      7  C   UNL     1      -0.541  -3.825  -2.714  1.00  0.00     0.310 C 
ATOM      8  O   UNL     1      -0.485  -4.949  -3.207  1.00  0.00    -0.252 OA
BRANCH   7   9
ATOM      9  C   UNL     1       0.696  -2.934  -2.671  1.00  0.00     0.116 C 
ATOM     10  C   UNL     1       1.719   0.167   0.357  1.00  0.00     0.039 C 
ATOM     11  C   UNL     1       1.593  -0.946  -0.652  1.00  0.00    -0.074 C 
ATOM     12  C   UNL     1       1.591  -2.259  -0.343  1.00  0.00    -0.073 C 
ATOM     13  C   UNL     1       1.437  -0.495  -2.084  1.00  0.00     0.045 C 
ATOM     14  C   UNL     1       1.762  -2.822   1.042  1.00  0.00     0.039 C 
ATOM     15  C   UNL     1       1.501  -3.310  -1.421  1.00  0.00     0.046 C 
ATOM     16  C   UNL     1       0.623  -1.432  -2.985  1.00  0.00     0.097 C 
BRANCH  16  17
ATOM     17  C   UNL     1      -0.749  -0.912  -3.355  1.00  0.00     0.224 C 
ATOM     18  O   UNL     1      -1.104  -0.956  -4.539  1.00  0.00    -0.275 OA
ATOM     19  N   UNL     1      -1.648  -0.430  -2.474  1.00  0.00    -0.350 N 
ATOM     20  H   UNL     1      -2.488  -0.156  -2.906  1.00  0.00     0.163 HD
BRANCH  19  21
ATOM     21  C   UNL     1      -1.669  -0.219  -1.038  1.00  0.00     0.177 C 
BRANCH  21  22
ATOM     22  C   UNL     1      -1.945   1.251  -0.640  1.00  0.00     0.283 C 
BRANCH  22  23
ATOM     23  N   UNL     1      -3.303   1.817  -0.672  1.00  0.00    -0.330 N 
ATOM     24  C   UNL     1      -4.412   0.881  -0.474  1.00  0.00     0.291 C 
ATOM     25  C   UNL     1      -3.601   2.650  -1.843  1.00  0.00     0.291 C 
ATOM     26  H   UNL     1      -3.255   2.408   0.158  1.00  0.00     0.348 HD
ATOM     27  C   UNL     1      -4.785   0.063  -1.717  1.00  0.00     0.221 C 
ATOM     28  C   UNL     1      -3.848   1.842  -3.109  1.00  0.00     0.221 C 
ATOM     29  O   UNL     1      -4.802   0.798  -2.937  1.00  0.00    -0.370 OA
ENDBRANCH  22  23
ENDBRANCH  21  22
ENDBRANCH  19  21
ENDBRANCH  16  17
ENDBRANCH   7   9
ENDBRANCH   6   7
ENDBRANCH   5   6
ENDBRANCH   4   5
ENDBRANCH   3   4
ENDBRANCH   2   3
ENDBRANCH   1   2
BRANCH   1  30
ATOM     30  O   UNL     1      -5.254  -2.297  -4.113  1.00  0.00    -0.377 OA
BRANCH  30  31
ATOM     31  C   UNL     1      -6.128  -2.948  -5.034  1.00  0.00     0.188 C 
BRANCH  31  32
ATOM     32  C   UNL     1      -6.265  -2.216  -6.369  1.00  0.00     0.188 C 
BRANCH  32  33
ATOM     33  O   UNL     1      -4.974  -2.065  -6.935  1.00  0.00    -0.376 OA
BRANCH  33  34
ATOM     34  C   UNL     1      -4.714  -0.881  -7.667  1.00  0.00     0.202 C 
BRANCH  34  35
ATOM     35  C   UNL     1      -4.806   0.503  -6.982  1.00  0.00     0.261 C 
BRANCH  35  36
ATOM     36  O   UNL     1      -5.530   0.589  -5.745  1.00  0.00    -0.460 OA
BRANCH  36  37
ATOM     37  C   UNL     1      -6.747   1.188  -5.781  1.00  0.00     0.338 C 
ATOM     38  O   UNL     1      -7.355   1.552  -6.765  1.00  0.00    -0.246 OA
BRANCH  37  39
ATOM     39  C   UNL     1      -7.252   1.384  -4.402  1.00  0.00     0.060 A 
ATOM     40  C   UNL     1      -7.980   0.384  -3.750  1.00  0.00     0.016 A 
ATOM     41  C   UNL     1      -7.018   2.604  -3.762  1.00  0.00     0.016 A 
ATOM     42  C   UNL     1      -8.501   0.616  -2.466  1.00  0.00     0.010 A 
ATOM     43  C   UNL     1      -7.472   2.804  -2.452  1.00  0.00     0.010 A 
ATOM     44  C   UNL     1      -8.268   1.835  -1.810  1.00  0.00    -0.014 A 
BRANCH  44  45
ATOM     45  C   UNL     1      -9.016   2.203  -0.568  1.00  0.00     0.031 A 
ATOM     46  C   UNL     1     -10.062   3.291  -0.669  1.00  0.00     0.074 A 
ATOM     47  C   UNL     1      -8.814   1.606   0.625  1.00  0.00     0.049 A 
ATOM     48  N   UNL     1     -10.816   3.816   0.265  1.00  0.00    -0.248 NA
ATOM     49  C   UNL     1     -10.279   3.871  -2.006  1.00  0.00     0.031 C 
ATOM     50  C   UNL     1      -7.873   0.522   0.892  1.00  0.00     0.029 A 
ATOM     51  N   UNL     1      -9.394   1.844   1.852  1.00  0.00    -0.354 N 
ATOM     52  C   UNL     1     -11.596   4.771  -0.377  1.00  0.00     0.074 A 
ATOM     53  C   UNL     1     -11.162   4.822  -1.753  1.00  0.00     0.031 C 
ATOM     54  C   UNL     1      -7.918   0.205   2.199  1.00  0.00     0.029 A 
ATOM     55  C   UNL     1      -8.897   1.060   2.868  1.00  0.00     0.049 A 
ATOM     56  H   UNL     1     -10.101   2.515   1.989  1.00  0.00     0.167 HD
ATOM     57  C   UNL     1     -12.621   5.508   0.110  1.00  0.00     0.037 A 
ATOM     58  C   UNL     1      -9.200   1.029   4.182  1.00  0.00     0.037 A 
ATOM     59  C   UNL     1     -13.087   5.463   1.468  1.00  0.00     0.049 A 
ATOM     60  C   UNL     1     -10.284   1.931   4.723  1.00  0.00     0.074 A 
ATOM     61  C   UNL     1     -14.129   6.168   2.044  1.00  0.00     0.029 A 
ATOM     62  N   UNL     1     -12.543   4.667   2.460  1.00  0.00    -0.354 N 
ATOM     63  N   UNL     1     -11.050   2.784   4.088  1.00  0.00    -0.248 NA
ATOM     64  C   UNL     1     -10.562   1.842   6.167  1.00  0.00     0.031 C 
ATOM     65  C   UNL     1     -14.190   5.827   3.398  1.00  0.00     0.029 A 
ATOM     66  C   UNL     1     -13.219   4.873   3.651  1.00  0.00     0.049 A 
ATOM     67  H   UNL     1     -11.788   4.046   2.338  1.00  0.00     0.167 HD
ATOM     68  C   UNL     1     -11.932   3.285   5.040  1.00  0.00     0.074 A 
ATOM     69  C   UNL     1     -11.613   2.638   6.293  1.00  0.00     0.031 C 
ATOM     70  C   UNL     1     -12.922   4.199   4.887  1.00  0.00     0.037 A 
BRANCH  57  71
ATOM     71  C   UNL     1     -13.330   6.411  -0.856  1.00  0.00     0.057 A 
ATOM     72  C   UNL     1     -14.145   5.895  -1.875  1.00  0.00     0.134 A 
ATOM     73  C   UNL     1     -13.219   7.802  -0.757  1.00  0.00     0.134 A 
ATOM     74  F   UNL     1     -14.277   4.569  -2.034  1.00  0.00    -0.206 F 
ATOM     75  C   UNL     1     -14.801   6.732  -2.777  1.00  0.00     0.040 A 
ATOM     76  C   UNL     1     -13.895   8.650  -1.635  1.00  0.00     0.040 A 
ATOM     77  F   UNL     1     -12.458   8.359   0.197  1.00  0.00    -0.206 F 
ATOM     78  C   UNL     1     -14.684   8.114  -2.652  1.00  0.00     0.006 A 
ENDBRANCH  57  71
BRANCH  58  79
ATOM     79  C   UNL     1      -8.498   0.098   5.109  1.00  0.00     0.057 A 
ATOM     80  C   UNL     1      -9.182  -0.954   5.734  1.00  0.00     0.134 A 
ATOM     81  C   UNL     1      -7.162   0.298   5.474  1.00  0.00     0.134 A 
ATOM     82  F   UNL     1     -10.473  -1.182   5.450  1.00  0.00    -0.206 F 
ATOM     83  C   UNL     1      -8.579  -1.742   6.717  1.00  0.00     0.040 A 
ATOM     84  C   UNL     1      -6.537  -0.500   6.436  1.00  0.00     0.040 A 
ATOM     85  F   UNL     1      -6.448   1.286   4.916  1.00  0.00    -0.206 F 
ATOM     86  C   UNL     1      -7.252  -1.513   7.072  1.00  0.00     0.006 A 
ENDBRANCH  58  79
BRANCH  70  87
ATOM     87  C   UNL     1     -13.782   4.506   6.080  1.00  0.00     0.057 A 
ATOM     88  C   UNL     1     -13.298   5.216   7.186  1.00  0.00     0.134 A 
ATOM     89  C   UNL     1     -15.129   4.119   6.102  1.00  0.00     0.134 A 
ATOM     90  F   UNL     1     -12.017   5.609   7.235  1.00  0.00    -0.206 F 
ATOM     91  C   UNL     1     -14.114   5.504   8.282  1.00  0.00     0.040 A 
ATOM     92  C   UNL     1     -15.962   4.428   7.178  1.00  0.00     0.040 A 
ATOM     93  F   UNL     1     -15.662   3.447   5.070  1.00  0.00    -0.206 F 
ATOM     94  C   UNL     1     -15.453   5.116   8.277  1.00  0.00     0.006 A 
ENDBRANCH  70  87
ENDBRANCH  44  45
ENDBRANCH  37  39
ENDBRANCH  36  37
ENDBRANCH  35  36
ENDBRANCH  34  35
ENDBRANCH  33  34
ENDBRANCH  32  33
ENDBRANCH  31  32
ENDBRANCH  30  31
ENDBRANCH   1  30
TORSDOF 24
