REMARK SMILES C=CCN(CC(=O)OCCOCCOCCOCCOC(=O)c1ccc(-c2c3nc(c(-c4c(F)cccc4F)c4ccc([nH]4)c(-c4c(F)cccc4F)c4nc(c(-c5c(F)cccc5F)c5ccc2[nH]5)C=C4)C=C3)cc1)C(=O)c1cn(C2C[NH2+]C2)nn1
REMARK SMILES IDX 13 1 12 2 11 3 10 4 9 5 8 6 6 7 7 8 5 9 4 10 3 11 2 12 1 13
REMARK SMILES IDX 77 14 78 15 79 16 80 17 87 18 81 19 86 20 82 21 83 22 85 23
REMARK SMILES IDX 84 24 14 27 15 28 16 29 17 30 18 31 19 32 20 33 21 34 22 35
REMARK SMILES IDX 23 36 24 37 76 38 25 39 75 40 26 41 27 42 28 43 69 44 29 45
REMARK SMILES IDX 74 46 68 47 70 48 30 49 73 50 67 51 66 52 31 54 57 55 40 56
REMARK SMILES IDX 56 57 41 58 44 59 55 60 71 61 42 62 43 63 54 65 72 66 45 67
REMARK SMILES IDX 32 68 33 69 38 70 34 71 35 72 37 73 39 74 36 75 58 76 59 77
REMARK SMILES IDX 64 78 60 79 61 80 63 81 65 82 62 83 46 84 47 85 52 86 48 87
REMARK SMILES IDX 49 88 51 89 53 90 50 91
REMARK H PARENT 84 25 84 26 70 53 44 64
REMARK Flexibility Score: inf
ROOT
ATOM      1  C   UNL     1      -3.406   0.046   2.700  1.00  0.00     0.188 C 
ENDROOT
BRANCH   1   2
ATOM      2  C   UNL     1      -4.178   0.999   1.798  1.00  0.00     0.188 C 
BRANCH   2   3
ATOM      3  O   UNL     1      -4.823   2.042   2.534  1.00  0.00    -0.376 OA
BRANCH   3   4
ATOM      4  C   UNL     1      -5.886   2.724   1.861  1.00  0.00     0.202 C 
BRANCH   4   5
ATOM      5  C   UNL     1      -5.709   2.917   0.347  1.00  0.00     0.261 C 
BRANCH   5   6
ATOM      6  O   UNL     1      -4.328   3.139  -0.008  1.00  0.00    -0.462 OA
BRANCH   6   7
ATOM      7  C   UNL     1      -3.796   4.329   0.360  1.00  0.00     0.325 C 
ATOM      8  O   UNL     1      -4.467   5.325   0.605  1.00  0.00    -0.250 OA
BRANCH   7   9
ATOM      9  C   UNL     1      -2.257   4.322   0.350  1.00  0.00     0.242 C 
BRANCH   9  10
ATOM     10  N   UNL     1      -1.548   3.100   0.783  1.00  0.00    -0.322 N 
BRANCH  10  11
ATOM     11  C   UNL     1      -1.305   2.056  -0.219  1.00  0.00     0.147 C 
BRANCH  11  12
ATOM     12  C   UNL     1       0.158   1.873  -0.498  1.00  0.00    -0.014 C 
ATOM     13  C   UNL     1       0.786   0.695  -0.352  1.00  0.00     0.006 C 
ENDBRANCH  11  12
ENDBRANCH  10  11
BRANCH  10  14
ATOM     14  C   UNL     1      -1.138   2.829   2.108  1.00  0.00     0.276 C 
ATOM     15  O   UNL     1      -0.435   1.848   2.354  1.00  0.00    -0.267 OA
BRANCH  14  16
ATOM     16  C   UNL     1      -1.577   3.663   3.232  1.00  0.00     0.170 A 
ATOM     17  C   UNL     1      -2.808   4.226   3.500  1.00  0.00     0.145 A 
ATOM     18  N   UNL     1      -0.791   3.818   4.356  1.00  0.00    -0.125 NA
ATOM     19  N   UNL     1      -2.743   4.606   4.813  1.00  0.00    -0.237 N 
ATOM     20  N   UNL     1      -1.499   4.436   5.293  1.00  0.00    -0.066 NA
BRANCH  19  21
ATOM     21  C   UNL     1      -3.801   5.084   5.653  1.00  0.00     0.218 C 
ATOM     22  C   UNL     1      -4.917   5.900   4.964  1.00  0.00     0.294 C 
ATOM     23  C   UNL     1      -4.931   4.041   5.841  1.00  0.00     0.294 C 
ATOM     24  N   UNL     1      -5.911   5.156   5.781  1.00  0.00    -0.342 N 
ATOM     25  H   UNL     1      -6.780   4.934   5.296  1.00  0.00     0.346 HD
ATOM     26  H   UNL     1      -6.319   5.558   6.626  1.00  0.00     0.346 HD
ENDBRANCH  19  21
ENDBRANCH  14  16
ENDBRANCH  10  14
ENDBRANCH   9  10
ENDBRANCH   7   9
ENDBRANCH   6   7
ENDBRANCH   5   6
ENDBRANCH   4   5
ENDBRANCH   3   4
ENDBRANCH   2   3
ENDBRANCH   1   2
BRANCH   1  27
ATOM     27  O   UNL     1      -4.247  -0.966   3.256  1.00  0.00    -0.377 OA
BRANCH  27  28
ATOM     28  C   UNL     1      -5.406  -0.478   3.923  1.00  0.00     0.188 C 
BRANCH  28  29
ATOM     29  C   UNL     1      -5.174   0.178   5.291  1.00  0.00     0.188 C 
BRANCH  29  30
ATOM     30  O   UNL     1      -4.009   0.998   5.366  1.00  0.00    -0.376 OA
BRANCH  30  31
ATOM     31  C   UNL     1      -3.135   0.684   6.455  1.00  0.00     0.202 C 
BRANCH  31  32
ATOM     32  C   UNL     1      -2.044  -0.346   6.111  1.00  0.00     0.261 C 
BRANCH  32  33
ATOM     33  O   UNL     1      -2.527  -1.567   5.532  1.00  0.00    -0.460 OA
BRANCH  33  34
ATOM     34  C   UNL     1      -3.326  -2.346   6.296  1.00  0.00     0.338 C 
ATOM     35  O   UNL     1      -3.602  -2.191   7.465  1.00  0.00    -0.246 OA
BRANCH  34  36
ATOM     36  C   UNL     1      -4.003  -3.307   5.393  1.00  0.00     0.060 A 
ATOM     37  C   UNL     1      -5.392  -3.462   5.512  1.00  0.00     0.016 A 
ATOM     38  C   UNL     1      -3.296  -3.996   4.403  1.00  0.00     0.016 A 
ATOM     39  C   UNL     1      -6.080  -4.292   4.629  1.00  0.00     0.010 A 
ATOM     40  C   UNL     1      -3.976  -4.866   3.551  1.00  0.00     0.010 A 
ATOM     41  C   UNL     1      -5.365  -5.035   3.679  1.00  0.00    -0.014 A 
BRANCH  41  42
ATOM     42  C   UNL     1      -6.002  -6.219   3.064  1.00  0.00     0.031 A 
ATOM     43  C   UNL     1      -5.984  -7.485   3.873  1.00  0.00     0.074 A 
ATOM     44  C   UNL     1      -6.550  -6.189   1.838  1.00  0.00     0.049 A 
ATOM     45  N   UNL     1      -6.415  -8.680   3.568  1.00  0.00    -0.248 NA
ATOM     46  C   UNL     1      -5.390  -7.384   5.219  1.00  0.00     0.031 C 
ATOM     47  C   UNL     1      -6.661  -5.010   0.983  1.00  0.00     0.029 A 
ATOM     48  N   UNL     1      -7.108  -7.200   1.096  1.00  0.00    -0.354 N 
ATOM     49  C   UNL     1      -6.147  -9.465   4.682  1.00  0.00     0.074 A 
ATOM     50  C   UNL     1      -5.499  -8.624   5.660  1.00  0.00     0.031 C 
ATOM     51  C   UNL     1      -7.242  -5.369  -0.177  1.00  0.00     0.029 A 
ATOM     52  C   UNL     1      -7.512  -6.806  -0.155  1.00  0.00     0.049 A 
ATOM     53  H   UNL     1      -7.210  -8.120   1.430  1.00  0.00     0.167 HD
ATOM     54  C   UNL     1      -6.410 -10.777   4.873  1.00  0.00     0.037 A 
ATOM     55  C   UNL     1      -8.021  -7.538  -1.167  1.00  0.00     0.037 A 
ATOM     56  C   UNL     1      -7.003 -11.620   3.876  1.00  0.00     0.049 A 
ATOM     57  C   UNL     1      -8.216  -9.021  -0.971  1.00  0.00     0.074 A 
ATOM     58  C   UNL     1      -7.299 -12.968   3.948  1.00  0.00     0.029 A 
ATOM     59  N   UNL     1      -7.367 -11.191   2.607  1.00  0.00    -0.354 N 
ATOM     60  N   UNL     1      -7.988  -9.753   0.094  1.00  0.00    -0.248 NA
ATOM     61  C   UNL     1      -8.734  -9.781  -2.118  1.00  0.00     0.031 C 
ATOM     62  C   UNL     1      -7.798 -13.365   2.703  1.00  0.00     0.029 A 
ATOM     63  C   UNL     1      -7.865 -12.253   1.877  1.00  0.00     0.049 A 
ATOM     64  H   UNL     1      -7.283 -10.267   2.277  1.00  0.00     0.167 HD
ATOM     65  C   UNL     1      -8.370 -11.047  -0.239  1.00  0.00     0.074 A 
ATOM     66  C   UNL     1      -8.839 -11.002  -1.609  1.00  0.00     0.031 C 
ATOM     67  C   UNL     1      -8.344 -12.171   0.520  1.00  0.00     0.037 A 
BRANCH  54  68
ATOM     68  C   UNL     1      -5.991 -11.362   6.188  1.00  0.00     0.057 A 
ATOM     69  C   UNL     1      -6.639 -11.029   7.386  1.00  0.00     0.134 A 
ATOM     70  C   UNL     1      -4.889 -12.221   6.266  1.00  0.00     0.134 A 
ATOM     71  F   UNL     1      -7.682 -10.184   7.383  1.00  0.00    -0.206 F 
ATOM     72  C   UNL     1      -6.183 -11.501   8.617  1.00  0.00     0.040 A 
ATOM     73  C   UNL     1      -4.441 -12.722   7.488  1.00  0.00     0.040 A 
ATOM     74  F   UNL     1      -4.219 -12.572   5.158  1.00  0.00    -0.206 F 
ATOM     75  C   UNL     1      -5.081 -12.353   8.670  1.00  0.00     0.006 A 
ENDBRANCH  54  68
BRANCH  55  76
ATOM     76  C   UNL     1      -8.384  -6.888  -2.452  1.00  0.00     0.057 A 
ATOM     77  C   UNL     1      -9.722  -6.750  -2.839  1.00  0.00     0.134 A 
ATOM     78  C   UNL     1      -7.409  -6.396  -3.328  1.00  0.00     0.134 A 
ATOM     79  F   UNL     1     -10.703  -7.224  -2.056  1.00  0.00    -0.206 F 
ATOM     80  C   UNL     1     -10.078  -6.154  -4.050  1.00  0.00     0.040 A 
ATOM     81  C   UNL     1      -7.750  -5.778  -4.533  1.00  0.00     0.040 A 
ATOM     82  F   UNL     1      -6.107  -6.500  -3.020  1.00  0.00    -0.206 F 
ATOM     83  C   UNL     1      -9.089  -5.659  -4.899  1.00  0.00     0.006 A 
ENDBRANCH  55  76
BRANCH  67  84
ATOM     84  C   UNL     1      -8.890 -13.431  -0.084  1.00  0.00     0.057 A 
ATOM     85  C   UNL     1      -8.183 -14.162  -1.043  1.00  0.00     0.134 A 
ATOM     86  C   UNL     1     -10.104 -13.960   0.374  1.00  0.00     0.134 A 
ATOM     87  F   UNL     1      -7.019 -13.704  -1.527  1.00  0.00    -0.206 F 
ATOM     88  C   UNL     1      -8.669 -15.375  -1.535  1.00  0.00     0.040 A 
ATOM     89  C   UNL     1     -10.588 -15.183  -0.091  1.00  0.00     0.040 A 
ATOM     90  F   UNL     1     -10.823 -13.312   1.303  1.00  0.00    -0.206 F 
ATOM     91  C   UNL     1      -9.870 -15.893  -1.051  1.00  0.00     0.006 A 
ENDBRANCH  67  84
ENDBRANCH  41  42
ENDBRANCH  34  36
ENDBRANCH  33  34
ENDBRANCH  32  33
ENDBRANCH  31  32
ENDBRANCH  30  31
ENDBRANCH  29  30
ENDBRANCH  28  29
ENDBRANCH  27  28
ENDBRANCH   1  27
TORSDOF 26
