REMARK SMILES CCCc1cc(S(F)(F)(F)(F)F)cc2c1O[C@@H](C(F)(F)F)C(C(=O)OCCOCCOCCOCCOC(=O)c1ccc(-c3c4nc(c(-c5c(F)cccc5F)c5ccc([nH]5)c(-c5c(F)cccc5F)c5nc(c(-c6c(F)cccc6F)c6ccc3[nH]6)C=C5)C=C4)cc1)=C2
REMARK SMILES IDX 31 1 30 2 29 3 28 4 27 5 26 6 25 7 23 8 24 9 22 10 4 11 5 12
REMARK SMILES IDX 15 13 6 14 14 15 16 16 13 17 94 18 17 19 3 20 2 21 1 22 7 23
REMARK SMILES IDX 8 24 9 25 10 26 11 27 12 28 18 29 19 30 20 31 21 32 32 33
REMARK SMILES IDX 33 34 34 35 35 36 36 37 37 38 38 39 39 40 40 41 41 42 93 43
REMARK SMILES IDX 42 44 92 45 43 46 44 47 45 48 86 49 46 50 91 51 85 52 87 53
REMARK SMILES IDX 47 54 90 55 84 56 83 57 48 59 74 60 57 61 73 62 58 63 61 64
REMARK SMILES IDX 72 65 88 66 59 67 60 68 71 70 89 71 62 72 49 73 50 74 55 75
REMARK SMILES IDX 51 76 52 77 54 78 56 79 53 80 75 81 76 82 81 83 77 84 78 85
REMARK SMILES IDX 80 86 82 87 79 88 63 89 64 90 69 91 65 92 66 93 68 94 70 95
REMARK SMILES IDX 67 96
REMARK H PARENT 87 58 61 69
REMARK Flexibility Score: inf
ROOT
ATOM      1  O   UNL     1      -3.570  -5.378   6.747  1.00  0.00    -0.377 OA
ENDROOT
BRANCH   1   2
ATOM      2  C   UNL     1      -3.526  -5.887   5.421  1.00  0.00     0.188 C 
BRANCH   2   3
ATOM      3  C   UNL     1      -2.436  -6.942   5.320  1.00  0.00     0.188 C 
BRANCH   3   4
ATOM      4  O   UNL     1      -2.716  -8.000   6.223  1.00  0.00    -0.376 OA
BRANCH   4   5
ATOM      5  C   UNL     1      -2.761  -7.492   7.549  1.00  0.00     0.202 C 
BRANCH   5   6
ATOM      6  C   UNL     1      -1.419  -6.870   7.898  1.00  0.00     0.261 C 
BRANCH   6   7
ATOM      7  O   UNL     1      -1.138  -5.811   6.994  1.00  0.00    -0.460 OA
BRANCH   7   8
ATOM      8  C   UNL     1      -1.043  -6.073   5.601  1.00  0.00     0.338 C 
ATOM      9  O   UNL     1      -1.209  -7.254   5.164  1.00  0.00    -0.246 OA
BRANCH   8  10
ATOM     10  C   UNL     1      -0.744  -4.939   4.634  1.00  0.00     0.087 C 
ATOM     11  C   UNL     1       0.566  -1.989   1.982  1.00  0.00    -0.004 A 
ATOM     12  C   UNL     1       0.567  -0.662   2.372  1.00  0.00     0.032 A 
ATOM     13  C   UNL     1       0.181  -2.944   2.892  1.00  0.00     0.131 A 
ATOM     14  C   UNL     1       0.197  -0.300   3.640  1.00  0.00     0.108 A 
ATOM     15  C   UNL     1      -0.216  -2.614   4.175  1.00  0.00     0.019 A 
ATOM     16  O   UNL     1       0.292  -4.263   2.527  1.00  0.00    -0.475 OA
ATOM     17  C   UNL     1      -0.199  -1.272   4.536  1.00  0.00     0.036 A 
ATOM     18  C   UNL     1      -0.568  -3.700   5.075  1.00  0.00     0.027 C 
ATOM     19  C   UNL     1      -0.638  -5.201   3.137  1.00  0.00     0.316 C 
BRANCH  11  20
ATOM     20  C   UNL     1       1.072  -2.376   0.602  1.00  0.00     0.039 C 
BRANCH  20  21
ATOM     21  C   UNL     1       0.566  -1.374  -0.423  1.00  0.00     0.001 C 
ATOM     22  C   UNL     1       1.072   0.014  -0.068  1.00  0.00     0.004 C 
ENDBRANCH  20  21
ENDBRANCH  11  20
BRANCH  14  23
ATOM     23  S   UNL     1       0.229   1.440   4.138  1.00  0.00     0.310 S 
ATOM     24  F   UNL     1      -0.497   1.114   5.510  1.00  0.00    -0.094 F 
ATOM     25  F   UNL     1      -1.203   1.597   3.498  1.00  0.00    -0.094 F 
ATOM     26  F   UNL     1       0.232   2.935   4.565  1.00  0.00    -0.094 F 
ATOM     27  F   UNL     1       1.598   1.228   4.895  1.00  0.00    -0.094 F 
ATOM     28  F   UNL     1       0.188  -0.106   3.809  1.00  0.00    -0.094 F 
ENDBRANCH  14  23
BRANCH  19  29
ATOM     29  C   UNL     1      -0.132  -6.617   2.916  1.00  0.00     0.430 C 
ATOM     30  F   UNL     1      -0.978  -7.482   3.467  1.00  0.00    -0.167 F 
ATOM     31  F   UNL     1      -0.040  -6.857   1.611  1.00  0.00    -0.167 F 
ATOM     32  F   UNL     1       1.067  -6.752   3.477  1.00  0.00    -0.167 F 
ENDBRANCH  19  29
ENDBRANCH   8  10
ENDBRANCH   7   8
ENDBRANCH   6   7
ENDBRANCH   5   6
ENDBRANCH   4   5
ENDBRANCH   3   4
ENDBRANCH   2   3
ENDBRANCH   1   2
BRANCH   1  33
ATOM     33  C   UNL     1      -3.850  -6.437   7.651  1.00  0.00     0.188 C 
BRANCH  33  34
ATOM     34  C   UNL     1      -5.192  -7.060   7.301  1.00  0.00     0.188 C 
BRANCH  34  35
ATOM     35  O   UNL     1      -5.148  -7.568   5.976  1.00  0.00    -0.376 OA
BRANCH  35  36
ATOM     36  C   UNL     1      -4.868  -6.509   5.072  1.00  0.00     0.202 C 
BRANCH  36  37
ATOM     37  C   UNL     1      -5.957  -5.454   5.174  1.00  0.00     0.261 C 
BRANCH  37  38
ATOM     38  O   UNL     1      -6.002  -4.946   6.500  1.00  0.00    -0.460 OA
BRANCH  38  39
ATOM     39  C   UNL     1      -6.268  -5.820   7.587  1.00  0.00     0.338 C 
ATOM     40  O   UNL     1      -6.466  -7.057   7.374  1.00  0.00    -0.246 OA
BRANCH  39  41
ATOM     41  C   UNL     1      -6.315  -5.276   9.005  1.00  0.00     0.060 A 
ATOM     42  C   UNL     1      -5.697  -5.956  10.041  1.00  0.00     0.016 A 
ATOM     43  C   UNL     1      -6.981  -4.148   9.223  1.00  0.00     0.016 A 
ATOM     44  C   UNL     1      -6.085  -5.516  11.329  1.00  0.00     0.010 A 
ATOM     45  C   UNL     1      -7.207  -3.705  10.503  1.00  0.00     0.010 A 
ATOM     46  C   UNL     1      -6.676  -4.362  11.579  1.00  0.00    -0.014 A 
BRANCH  46  47
ATOM     47  C   UNL     1      -6.761  -3.793  12.986  1.00  0.00     0.031 A 
ATOM     48  C   UNL     1      -8.027  -3.564  13.527  1.00  0.00     0.074 A 
ATOM     49  C   UNL     1      -5.577  -3.592  13.675  1.00  0.00     0.049 A 
ATOM     50  N   UNL     1      -8.323  -3.160  14.763  1.00  0.00    -0.248 NA
ATOM     51  C   UNL     1      -9.285  -3.744  12.786  1.00  0.00     0.031 C 
ATOM     52  C   UNL     1      -4.296  -3.830  13.139  1.00  0.00     0.029 A 
ATOM     53  N   UNL     1      -5.417  -3.139  14.965  1.00  0.00    -0.354 N 
ATOM     54  C   UNL     1      -9.646  -3.071  14.915  1.00  0.00     0.074 A 
ATOM     55  C   UNL     1     -10.283  -3.440  13.644  1.00  0.00     0.031 C 
ATOM     56  C   UNL     1      -3.377  -3.514  14.088  1.00  0.00     0.029 A 
ATOM     57  C   UNL     1      -4.067  -3.074  15.234  1.00  0.00     0.049 A 
ATOM     58  H   UNL     1      -6.141  -2.903  15.588  1.00  0.00     0.167 HD
ATOM     59  C   UNL     1     -10.345  -2.700  16.064  1.00  0.00     0.037 A 
ATOM     60  C   UNL     1      -3.454  -2.655  16.404  1.00  0.00     0.037 A 
ATOM     61  C   UNL     1      -9.733  -2.323  17.249  1.00  0.00     0.049 A 
ATOM     62  C   UNL     1      -4.153  -2.228  17.535  1.00  0.00     0.074 A 
ATOM     63  C   UNL     1     -10.423  -1.953  18.419  1.00  0.00     0.029 A 
ATOM     64  N   UNL     1      -8.383  -2.234  17.509  1.00  0.00    -0.354 N 
ATOM     65  N   UNL     1      -5.476  -2.178  17.700  1.00  0.00    -0.248 NA
ATOM     66  C   UNL     1      -3.514  -1.752  18.769  1.00  0.00     0.031 C 
ATOM     67  C   UNL     1      -9.503  -1.637  19.369  1.00  0.00     0.029 A 
ATOM     68  C   UNL     1      -8.223  -1.803  18.807  1.00  0.00     0.049 A 
ATOM     69  H   UNL     1      -7.658  -2.443  16.877  1.00  0.00     0.167 HD
ATOM     70  C   UNL     1      -5.770  -1.733  18.923  1.00  0.00     0.074 A 
ATOM     71  C   UNL     1      -4.512  -1.446  19.626  1.00  0.00     0.031 C 
ATOM     72  C   UNL     1      -7.037  -1.560  19.483  1.00  0.00     0.037 A 
BRANCH  59  73
ATOM     73  C   UNL     1     -11.864  -2.710  16.014  1.00  0.00     0.057 A 
ATOM     74  C   UNL     1     -12.527  -3.894  15.736  1.00  0.00     0.134 A 
ATOM     75  C   UNL     1     -12.531  -1.583  16.237  1.00  0.00     0.134 A 
ATOM     76  F   UNL     1     -11.930  -5.082  15.757  1.00  0.00    -0.206 F 
ATOM     77  C   UNL     1     -13.898  -3.725  15.429  1.00  0.00     0.040 A 
ATOM     78  C   UNL     1     -13.890  -1.526  16.048  1.00  0.00     0.040 A 
ATOM     79  F   UNL     1     -11.876  -0.501  16.648  1.00  0.00    -0.206 F 
ATOM     80  C   UNL     1     -14.602  -2.644  15.714  1.00  0.00     0.006 A 
ENDBRANCH  59  73
BRANCH  60  81
ATOM     81  C   UNL     1      -1.935  -2.662  16.459  1.00  0.00     0.057 A 
ATOM     82  C   UNL     1      -1.293  -3.438  17.410  1.00  0.00     0.134 A 
ATOM     83  C   UNL     1      -1.249  -1.923  15.595  1.00  0.00     0.134 A 
ATOM     84  F   UNL     1      -1.914  -4.375  18.121  1.00  0.00    -0.206 F 
ATOM     85  C   UNL     1       0.083  -3.142  17.558  1.00  0.00     0.040 A 
ATOM     86  C   UNL     1       0.113  -1.788  15.718  1.00  0.00     0.040 A 
ATOM     87  F   UNL     1      -1.885  -1.309  14.602  1.00  0.00    -0.206 F 
ATOM     88  C   UNL     1       0.805  -2.479  16.673  1.00  0.00     0.006 A 
ENDBRANCH  60  81
BRANCH  72  89
ATOM     89  C   UNL     1      -7.122  -1.075  20.921  1.00  0.00     0.057 A 
ATOM     90  C   UNL     1      -6.534   0.122  21.298  1.00  0.00     0.134 A 
ATOM     91  C   UNL     1      -7.729  -1.853  21.809  1.00  0.00     0.134 A 
ATOM     92  F   UNL     1      -6.143   1.045  20.424  1.00  0.00    -0.206 F 
ATOM     93  C   UNL     1      -6.388   0.274  22.697  1.00  0.00     0.040 A 
ATOM     94  C   UNL     1      -7.659  -1.569  23.152  1.00  0.00     0.040 A 
ATOM     95  F   UNL     1      -8.412  -2.917  21.395  1.00  0.00    -0.206 F 
ATOM     96  C   UNL     1      -7.043  -0.434  23.599  1.00  0.00     0.006 A 
ENDBRANCH  72  89
ENDBRANCH  46  47
ENDBRANCH  39  41
ENDBRANCH  38  39
ENDBRANCH  37  38
ENDBRANCH  36  37
ENDBRANCH  35  36
ENDBRANCH  34  35
ENDBRANCH  33  34
ENDBRANCH   1  33
TORSDOF 24
