REMARK SMILES C[C@H](CNS(=O)(=O)c1ccc(C(=O)OCCOCCOCCOCCOC(=O)c2ccc(-c3c4nc(c(-c5c(F)cccc5F)c5ccc([nH]5)c(-c5c(F)cccc5F)c5nc(c(-c6c(F)cccc6F)c6ccc3[nH]6)C=C5)C=C4)cc2)o1)c1ccccc1
REMARK SMILES IDX 18 1 17 2 16 3 15 4 14 5 12 6 13 7 11 8 8 9 9 10 83 11 10 12
REMARK SMILES IDX 5 13 6 14 7 15 4 16 3 18 2 19 1 20 84 21 85 22 89 23 86 24
REMARK SMILES IDX 88 25 87 26 19 27 20 28 21 29 22 30 23 31 24 32 25 33 26 34
REMARK SMILES IDX 27 35 28 36 29 37 30 38 82 39 31 40 81 41 32 42 33 43 34 44
REMARK SMILES IDX 75 45 35 46 80 47 74 48 76 49 36 50 79 51 73 52 72 53 37 55
REMARK SMILES IDX 63 56 46 57 62 58 47 59 50 60 61 61 77 62 48 63 49 64 60 66
REMARK SMILES IDX 78 67 51 68 38 69 39 70 44 71 40 72 41 73 43 74 45 75 42 76
REMARK SMILES IDX 64 77 65 78 70 79 66 80 67 81 69 82 71 83 68 84 52 85 53 86
REMARK SMILES IDX 58 87 54 88 55 89 57 90 59 91 56 92
REMARK H PARENT 4 17 76 54 50 65
REMARK Flexibility Score: inf
ROOT
ATOM      1  C   UNL     1       4.376   3.067   2.449  1.00  0.00     0.188 C 
ENDROOT
BRANCH   1   2
ATOM      2  O   UNL     1       4.765   4.045   3.410  1.00  0.00    -0.376 OA
BRANCH   2   3
ATOM      3  C   UNL     1       4.572   3.732   4.783  1.00  0.00     0.202 C 
BRANCH   3   4
ATOM      4  C   UNL     1       5.398   2.584   5.390  1.00  0.00     0.261 C 
BRANCH   4   5
ATOM      5  O   UNL     1       5.279   1.304   4.750  1.00  0.00    -0.457 OA
BRANCH   5   6
ATOM      6  C   UNL     1       4.059   0.711   4.719  1.00  0.00     0.374 C 
ATOM      7  O   UNL     1       3.068   1.130   5.306  1.00  0.00    -0.242 OA
BRANCH   6   8
ATOM      8  C   UNL     1       4.105  -0.379   3.767  1.00  0.00     0.213 A 
ATOM      9  C   UNL     1       3.261  -1.699   2.172  1.00  0.00     0.234 A 
ATOM     10  C   UNL     1       4.625  -1.953   2.256  1.00  0.00     0.065 A 
ATOM     11  O   UNL     1       2.957  -0.730   3.110  1.00  0.00    -0.436 OA
ATOM     12  C   UNL     1       5.158  -1.121   3.266  1.00  0.00     0.060 A 
BRANCH   9  13
ATOM     13  S   UNL     1       2.004  -2.416   1.112  1.00  0.00     0.274 S 
ATOM     14  O   UNL     1       0.790  -2.456   1.893  1.00  0.00    -0.204 OA
ATOM     15  O   UNL     1       2.601  -3.620   0.576  1.00  0.00    -0.204 OA
BRANCH  13  16
ATOM     16  N   UNL     1       1.725  -1.399  -0.216  1.00  0.00    -0.208 NA
ATOM     17  H   UNL     1       2.601  -1.319  -0.732  1.00  0.00     0.141 HD
BRANCH  16  18
ATOM     18  C   UNL     1       1.251  -0.025   0.077  1.00  0.00     0.107 C 
BRANCH  18  19
ATOM     19  C   UNL     1       0.611   0.676  -1.151  1.00  0.00     0.031 C 
ATOM     20  C   UNL     1       1.145   0.220  -2.514  1.00  0.00     0.014 C 
BRANCH  19  21
ATOM     21  C   UNL     1      -0.912   0.634  -1.127  1.00  0.00    -0.044 A 
ATOM     22  C   UNL     1      -1.633   1.841  -1.099  1.00  0.00     0.004 A 
ATOM     23  C   UNL     1      -1.630  -0.570  -1.133  1.00  0.00     0.004 A 
ATOM     24  C   UNL     1      -3.029   1.843  -1.062  1.00  0.00     0.000 A 
ATOM     25  C   UNL     1      -3.027  -0.566  -1.097  1.00  0.00     0.000 A 
ATOM     26  C   UNL     1      -3.726   0.638  -1.058  1.00  0.00     0.000 A 
ENDBRANCH  19  21
ENDBRANCH  18  19
ENDBRANCH  16  18
ENDBRANCH  13  16
ENDBRANCH   9  13
ENDBRANCH   6   8
ENDBRANCH   5   6
ENDBRANCH   4   5
ENDBRANCH   3   4
ENDBRANCH   2   3
ENDBRANCH   1   2
BRANCH   1  27
ATOM     27  C   UNL     1       5.578   2.307   1.864  1.00  0.00     0.188 C 
BRANCH  27  28
ATOM     28  O   UNL     1       6.766   2.516   2.612  1.00  0.00    -0.377 OA
BRANCH  28  29
ATOM     29  C   UNL     1       7.550   3.663   2.282  1.00  0.00     0.188 C 
BRANCH  29  30
ATOM     30  C   UNL     1       6.906   4.932   1.677  1.00  0.00     0.188 C 
BRANCH  30  31
ATOM     31  O   UNL     1       6.065   4.677   0.552  1.00  0.00    -0.376 OA
BRANCH  31  32
ATOM     32  C   UNL     1       6.569   5.064  -0.721  1.00  0.00     0.202 C 
BRANCH  32  33
ATOM     33  C   UNL     1       7.593   4.080  -1.299  1.00  0.00     0.261 C 
BRANCH  33  34
ATOM     34  O   UNL     1       8.817   3.981  -0.554  1.00  0.00    -0.460 OA
BRANCH  34  35
ATOM     35  C   UNL     1       9.545   5.111  -0.419  1.00  0.00     0.338 C 
ATOM     36  O   UNL     1       9.322   6.199  -0.916  1.00  0.00    -0.246 OA
BRANCH  35  37
ATOM     37  C   UNL     1      10.585   4.858   0.595  1.00  0.00     0.060 A 
ATOM     38  C   UNL     1      10.672   5.714   1.700  1.00  0.00     0.016 A 
ATOM     39  C   UNL     1      11.475   3.792   0.447  1.00  0.00     0.016 A 
ATOM     40  C   UNL     1      11.685   5.530   2.642  1.00  0.00     0.010 A 
ATOM     41  C   UNL     1      12.495   3.617   1.382  1.00  0.00     0.010 A 
ATOM     42  C   UNL     1      12.626   4.506   2.462  1.00  0.00    -0.014 A 
BRANCH  42  43
ATOM     43  C   UNL     1      13.857   4.480   3.285  1.00  0.00     0.031 A 
ATOM     44  C   UNL     1      15.098   5.122   2.730  1.00  0.00     0.074 A 
ATOM     45  C   UNL     1      13.878   3.898   4.495  1.00  0.00     0.049 A 
ATOM     46  N   UNL     1      16.303   5.179   3.236  1.00  0.00    -0.248 NA
ATOM     47  C   UNL     1      14.960   5.787   1.423  1.00  0.00     0.031 C 
ATOM     48  C   UNL     1      12.735   3.270   5.154  1.00  0.00     0.029 A 
ATOM     49  N   UNL     1      14.913   3.733   5.382  1.00  0.00    -0.354 N 
ATOM     50  C   UNL     1      17.064   5.883   2.312  1.00  0.00     0.074 A 
ATOM     51  C   UNL     1      16.197   6.205   1.200  1.00  0.00     0.031 C 
ATOM     52  C   UNL     1      13.135   2.775   6.339  1.00  0.00     0.029 A 
ATOM     53  C   UNL     1      14.566   3.028   6.507  1.00  0.00     0.049 A 
ATOM     54  H   UNL     1      15.818   4.088   5.225  1.00  0.00     0.167 HD
ATOM     55  C   UNL     1      18.368   6.239   2.387  1.00  0.00     0.037 A 
ATOM     56  C   UNL     1      15.325   2.618   7.542  1.00  0.00     0.037 A 
ATOM     57  C   UNL     1      19.235   5.910   3.486  1.00  0.00     0.049 A 
ATOM     58  C   UNL     1      16.793   2.959   7.566  1.00  0.00     0.074 A 
ATOM     59  C   UNL     1      20.568   6.235   3.660  1.00  0.00     0.029 A 
ATOM     60  N   UNL     1      18.853   5.170   4.595  1.00  0.00    -0.354 N 
ATOM     61  N   UNL     1      17.497   3.651   6.703  1.00  0.00    -0.248 NA
ATOM     62  C   UNL     1      17.570   2.460   8.710  1.00  0.00     0.031 C 
ATOM     63  C   UNL     1      21.006   5.653   4.855  1.00  0.00     0.029 A 
ATOM     64  C   UNL     1      19.932   5.007   5.447  1.00  0.00     0.049 A 
ATOM     65  H   UNL     1      17.949   4.814   4.753  1.00  0.00     0.167 HD
ATOM     66  C   UNL     1      18.790   3.697   7.214  1.00  0.00     0.074 A 
ATOM     67  C   UNL     1      18.770   2.970   8.466  1.00  0.00     0.031 C 
ATOM     68  C   UNL     1      19.893   4.289   6.695  1.00  0.00     0.037 A 
BRANCH  55  69
ATOM     69  C   UNL     1      18.937   7.005   1.230  1.00  0.00     0.057 A 
ATOM     70  C   UNL     1      18.598   8.343   0.993  1.00  0.00     0.134 A 
ATOM     71  C   UNL     1      19.845   6.402   0.352  1.00  0.00     0.134 A 
ATOM     72  F   UNL     1      17.718   8.973   1.787  1.00  0.00    -0.206 F 
ATOM     73  C   UNL     1      19.125   9.048  -0.090  1.00  0.00     0.040 A 
ATOM     74  C   UNL     1      20.397   7.103  -0.721  1.00  0.00     0.040 A 
ATOM     75  F   UNL     1      20.211   5.122   0.523  1.00  0.00    -0.206 F 
ATOM     76  C   UNL     1      20.033   8.429  -0.947  1.00  0.00     0.006 A 
ENDBRANCH  55  69
BRANCH  56  77
ATOM     77  C   UNL     1      14.720   1.828   8.643  1.00  0.00     0.057 A 
ATOM     78  C   UNL     1      14.575   2.368   9.927  1.00  0.00     0.134 A 
ATOM     79  C   UNL     1      14.301   0.507   8.448  1.00  0.00     0.134 A 
ATOM     80  F   UNL     1      14.982   3.620  10.182  1.00  0.00    -0.206 F 
ATOM     81  C   UNL     1      14.052   1.617  10.981  1.00  0.00     0.040 A 
ATOM     82  C   UNL     1      13.754  -0.248   9.487  1.00  0.00     0.040 A 
ATOM     83  F   UNL     1      14.415  -0.069   7.242  1.00  0.00    -0.206 F 
ATOM     84  C   UNL     1      13.635   0.306  10.761  1.00  0.00     0.006 A 
ENDBRANCH  56  77
BRANCH  68  85
ATOM     85  C   UNL     1      21.160   4.213   7.496  1.00  0.00     0.057 A 
ATOM     86  C   UNL     1      21.898   3.027   7.604  1.00  0.00     0.134 A 
ATOM     87  C   UNL     1      21.673   5.354   8.126  1.00  0.00     0.134 A 
ATOM     88  F   UNL     1      21.455   1.897   7.034  1.00  0.00    -0.206 F 
ATOM     89  C   UNL     1      23.091   2.975   8.328  1.00  0.00     0.040 A 
ATOM     90  C   UNL     1      22.878   5.321   8.830  1.00  0.00     0.040 A 
ATOM     91  F   UNL     1      21.021   6.524   8.052  1.00  0.00    -0.206 F 
ATOM     92  C   UNL     1      23.587   4.127   8.937  1.00  0.00     0.006 A 
ENDBRANCH  68  85
ENDBRANCH  42  43
ENDBRANCH  35  37
ENDBRANCH  34  35
ENDBRANCH  33  34
ENDBRANCH  32  33
ENDBRANCH  31  32
ENDBRANCH  30  31
ENDBRANCH  29  30
ENDBRANCH  28  29
ENDBRANCH  27  28
ENDBRANCH   1  27
TORSDOF 25
