REMARK SMILES C[C@H](NC(=O)c1cc(S(=O)(=O)N(C)C)cs1)C(=O)OCCOCCOCCOCCOC(=O)c1ccc(-c2c3nc(c(-c4c(F)cccc4F)c4ccc([nH]4)c(-c4c(F)cccc4F)c4nc(c(-c5c(F)cccc5F)c5ccc2[nH]5)C=C4)C=C3)cc1
REMARK SMILES IDX 24 1 23 2 22 3 21 4 20 5 19 6 17 7 18 8 2 9 1 10 3 11 4 12
REMARK SMILES IDX 5 14 6 15 7 16 16 17 8 18 15 19 9 20 10 21 11 22 12 23 13 24
REMARK SMILES IDX 14 25 25 26 26 27 27 28 28 29 29 30 30 31 31 32 32 33 33 34
REMARK SMILES IDX 34 35 35 36 87 37 36 38 86 39 37 40 38 41 39 42 80 43 40 44
REMARK SMILES IDX 85 45 79 46 81 47 41 48 84 49 78 50 77 51 42 53 68 54 51 55
REMARK SMILES IDX 67 56 52 57 55 58 66 59 82 60 53 61 54 62 65 64 83 65 56 66
REMARK SMILES IDX 43 67 44 68 49 69 45 70 46 71 48 72 50 73 47 74 69 75 70 76
REMARK SMILES IDX 75 77 71 78 72 79 74 80 76 81 73 82 57 83 58 84 63 85 59 86
REMARK SMILES IDX 60 87 62 88 64 89 61 90
REMARK H PARENT 3 13 81 52 55 63
REMARK Flexibility Score: inf
ROOT
ATOM      1  C   UNL     1      -1.778   0.061  -0.859  1.00  0.00     0.188 C 
ENDROOT
BRANCH   1   2
ATOM      2  C   UNL     1      -2.393  -1.353  -0.845  1.00  0.00     0.188 C 
BRANCH   2   3
ATOM      3  O   UNL     1      -3.615  -1.607  -0.170  1.00  0.00    -0.376 OA
BRANCH   3   4
ATOM      4  C   UNL     1      -3.850  -0.976   1.077  1.00  0.00     0.202 C 
BRANCH   4   5
ATOM      5  C   UNL     1      -2.780  -1.022   2.185  1.00  0.00     0.261 C 
BRANCH   5   6
ATOM      6  O   UNL     1      -1.403  -0.928   1.766  1.00  0.00    -0.462 OA
BRANCH   6   7
ATOM      7  C   UNL     1      -0.633  -2.035   1.952  1.00  0.00     0.328 C 
ATOM      8  O   UNL     1      -1.030  -3.068   2.480  1.00  0.00    -0.250 OA
BRANCH   7   9
ATOM      9  C   UNL     1       0.847  -1.839   1.544  1.00  0.00     0.189 C 
ATOM     10  C   UNL     1       1.629  -1.653   2.845  1.00  0.00     0.043 C 
BRANCH   9  11
ATOM     11  N   UNL     1       1.205  -0.724   0.656  1.00  0.00    -0.338 N 
ATOM     12  C   UNL     1       1.878  -0.750  -0.548  1.00  0.00     0.262 C 
ATOM     13  H   UNL     1       0.925   0.168   0.964  1.00  0.00     0.164 HD
ATOM     14  O   UNL     1       2.368   0.305  -0.948  1.00  0.00    -0.268 OA
BRANCH  12  15
ATOM     15  C   UNL     1       1.906  -1.976  -1.325  1.00  0.00     0.093 A 
ATOM     16  C   UNL     1       0.840  -2.711  -1.798  1.00  0.00     0.047 A 
ATOM     17  S   UNL     1       3.386  -2.615  -1.901  1.00  0.00    -0.137 S 
ATOM     18  C   UNL     1       1.225  -3.815  -2.602  1.00  0.00     0.094 A 
ATOM     19  C   UNL     1       2.594  -3.899  -2.728  1.00  0.00     0.087 A 
BRANCH  18  20
ATOM     20  S   UNL     1       0.095  -4.936  -3.296  1.00  0.00     0.243 S 
ATOM     21  O   UNL     1       0.470  -5.026  -4.678  1.00  0.00    -0.207 OA
ATOM     22  O   UNL     1       0.187  -6.069  -2.387  1.00  0.00    -0.207 OA
BRANCH  20  23
ATOM     23  N   UNL     1      -1.481  -4.278  -3.187  1.00  0.00    -0.204 NA
ATOM     24  C   UNL     1      -1.783  -3.215  -4.173  1.00  0.00     0.124 C 
ATOM     25  C   UNL     1      -2.558  -5.294  -3.147  1.00  0.00     0.124 C 
ENDBRANCH  20  23
ENDBRANCH  18  20
ENDBRANCH  12  15
ENDBRANCH   9  11
ENDBRANCH   7   9
ENDBRANCH   6   7
ENDBRANCH   5   6
ENDBRANCH   4   5
ENDBRANCH   3   4
ENDBRANCH   2   3
ENDBRANCH   1   2
BRANCH   1  26
ATOM     26  O   UNL     1      -2.631   1.052  -0.325  1.00  0.00    -0.377 OA
BRANCH  26  27
ATOM     27  C   UNL     1      -3.379   1.789  -1.277  1.00  0.00     0.188 C 
BRANCH  27  28
ATOM     28  C   UNL     1      -4.029   0.993  -2.422  1.00  0.00     0.188 C 
BRANCH  28  29
ATOM     29  O   UNL     1      -3.079   0.347  -3.276  1.00  0.00    -0.376 OA
BRANCH  29  30
ATOM     30  C   UNL     1      -2.777   0.995  -4.510  1.00  0.00     0.202 C 
BRANCH  30  31
ATOM     31  C   UNL     1      -1.779   2.160  -4.403  1.00  0.00     0.261 C 
BRANCH  31  32
ATOM     32  O   UNL     1      -2.245   3.307  -3.674  1.00  0.00    -0.460 OA
BRANCH  32  33
ATOM     33  C   UNL     1      -3.396   3.884  -4.082  1.00  0.00     0.338 C 
ATOM     34  O   UNL     1      -4.041   3.615  -5.078  1.00  0.00    -0.246 OA
BRANCH  33  35
ATOM     35  C   UNL     1      -3.881   4.753  -2.990  1.00  0.00     0.060 A 
ATOM     36  C   UNL     1      -5.186   4.558  -2.524  1.00  0.00     0.016 A 
ATOM     37  C   UNL     1      -3.062   5.733  -2.420  1.00  0.00     0.016 A 
ATOM     38  C   UNL     1      -5.693   5.374  -1.515  1.00  0.00     0.010 A 
ATOM     39  C   UNL     1      -3.579   6.566  -1.423  1.00  0.00     0.010 A 
ATOM     40  C   UNL     1      -4.909   6.412  -0.995  1.00  0.00    -0.014 A 
BRANCH  40  41
ATOM     41  C   UNL     1      -5.562   7.450  -0.164  1.00  0.00     0.031 A 
ATOM     42  C   UNL     1      -6.071   8.690  -0.847  1.00  0.00     0.074 A 
ATOM     43  C   UNL     1      -5.764   7.266   1.152  1.00  0.00     0.049 A 
ATOM     44  N   UNL     1      -6.726   9.706  -0.347  1.00  0.00    -0.248 NA
ATOM     45  C   UNL     1      -5.811   8.794  -2.293  1.00  0.00     0.031 C 
ATOM     46  C   UNL     1      -5.340   6.098   1.920  1.00  0.00     0.029 A 
ATOM     47  N   UNL     1      -6.388   8.069   2.074  1.00  0.00    -0.354 N 
ATOM     48  C   UNL     1      -6.973  10.557  -1.417  1.00  0.00     0.074 A 
ATOM     49  C   UNL     1      -6.358   9.964  -2.584  1.00  0.00     0.031 C 
ATOM     50  C   UNL     1      -5.710   6.263   3.203  1.00  0.00     0.029 A 
ATOM     51  C   UNL     1      -6.382   7.553   3.347  1.00  0.00     0.049 A 
ATOM     52  H   UNL     1      -6.800   8.933   1.845  1.00  0.00     0.167 HD
ATOM     53  C   UNL     1      -7.665  11.719  -1.431  1.00  0.00     0.037 A 
ATOM     54  C   UNL     1      -6.859   8.073   4.495  1.00  0.00     0.037 A 
ATOM     55  C   UNL     1      -8.259  12.320  -0.267  1.00  0.00     0.049 A 
ATOM     56  C   UNL     1      -7.567   9.403   4.464  1.00  0.00     0.074 A 
ATOM     57  C   UNL     1      -8.970  13.504  -0.174  1.00  0.00     0.029 A 
ATOM     58  N   UNL     1      -8.203  11.784   1.010  1.00  0.00    -0.354 N 
ATOM     59  N   UNL     1      -7.819  10.185   3.441  1.00  0.00    -0.248 NA
ATOM     60  C   UNL     1      -8.066   9.917   5.747  1.00  0.00     0.031 C 
ATOM     61  C   UNL     1      -9.309  13.704   1.168  1.00  0.00     0.029 A 
ATOM     62  C   UNL     1      -8.852  12.621   1.902  1.00  0.00     0.049 A 
ATOM     63  H   UNL     1      -7.766  10.935   1.248  1.00  0.00     0.167 HD
ATOM     64  C   UNL     1      -8.524  11.269   3.954  1.00  0.00     0.074 A 
ATOM     65  C   UNL     1      -8.681  11.030   5.373  1.00  0.00     0.031 C 
ATOM     66  C   UNL     1      -8.996  12.366   3.312  1.00  0.00     0.037 A 
BRANCH  53  67
ATOM     67  C   UNL     1      -7.806  12.420  -2.749  1.00  0.00     0.057 A 
ATOM     68  C   UNL     1      -8.648  11.928  -3.756  1.00  0.00     0.134 A 
ATOM     69  C   UNL     1      -7.120  13.612  -3.006  1.00  0.00     0.134 A 
ATOM     70  F   UNL     1      -9.318  10.778  -3.581  1.00  0.00    -0.206 F 
ATOM     71  C   UNL     1      -8.790  12.590  -4.976  1.00  0.00     0.040 A 
ATOM     72  C   UNL     1      -7.272  14.296  -4.213  1.00  0.00     0.040 A 
ATOM     73  F   UNL     1      -6.296  14.135  -2.085  1.00  0.00    -0.206 F 
ATOM     74  C   UNL     1      -8.107  13.783  -5.204  1.00  0.00     0.006 A 
ENDBRANCH  53  67
BRANCH  54  75
ATOM     75  C   UNL     1      -6.675   7.349   5.779  1.00  0.00     0.057 A 
ATOM     76  C   UNL     1      -7.762   6.815   6.481  1.00  0.00     0.134 A 
ATOM     77  C   UNL     1      -5.407   7.219   6.359  1.00  0.00     0.134 A 
ATOM     78  F   UNL     1      -9.005   6.929   5.990  1.00  0.00    -0.206 F 
ATOM     79  C   UNL     1      -7.599   6.202   7.725  1.00  0.00     0.040 A 
ATOM     80  C   UNL     1      -5.227   6.585   7.589  1.00  0.00     0.040 A 
ATOM     81  F   UNL     1      -4.324   7.710   5.739  1.00  0.00    -0.206 F 
ATOM     82  C   UNL     1      -6.327   6.083   8.281  1.00  0.00     0.006 A 
ENDBRANCH  54  75
BRANCH  66  83
ATOM     83  C   UNL     1      -9.744  13.372   4.138  1.00  0.00     0.057 A 
ATOM     84  C   UNL     1      -9.095  14.191   5.072  1.00  0.00     0.134 A 
ATOM     85  C   UNL     1     -11.127  13.535   3.987  1.00  0.00     0.134 A 
ATOM     86  F   UNL     1      -7.773  14.078   5.272  1.00  0.00    -0.206 F 
ATOM     87  C   UNL     1      -9.800  15.110   5.850  1.00  0.00     0.040 A 
ATOM     88  C   UNL     1     -11.838  14.471   4.739  1.00  0.00     0.040 A 
ATOM     89  F   UNL     1     -11.808  12.792   3.102  1.00  0.00    -0.206 F 
ATOM     90  C   UNL     1     -11.176  15.255   5.681  1.00  0.00     0.006 A 
ENDBRANCH  66  83
ENDBRANCH  40  41
ENDBRANCH  33  35
ENDBRANCH  32  33
ENDBRANCH  31  32
ENDBRANCH  30  31
ENDBRANCH  29  30
ENDBRANCH  28  29
ENDBRANCH  27  28
ENDBRANCH  26  27
ENDBRANCH   1  26
TORSDOF 24
