REMARK SMILES CC(C)(C)c1ccc(C(=O)Oc2ccc([C@H]3[NH2+][C@@H](C(=O)OCCOCCOCCOCCOC(=O)c4ccc(-c5c6nc(c(-c7c(F)cccc7F)c7ccc([nH]7)c(-c7c(F)cccc7F)c7nc(c(-c8c(F)cccc8F)c8ccc5[nH]8)C=C7)C=C6)cc4)CS3)cc2)cc1
REMARK SMILES IDX 25 1 24 2 23 3 22 4 21 5 19 6 20 7 18 8 16 9 17 10 91 11
REMARK SMILES IDX 90 14 15 15 12 16 13 17 93 18 14 19 92 20 11 21 9 22 10 23
REMARK SMILES IDX 8 24 5 25 6 26 95 27 7 28 94 29 2 30 1 31 3 32 4 33 26 34
REMARK SMILES IDX 27 35 28 36 29 37 30 38 31 39 32 40 33 41 34 42 35 43 36 44
REMARK SMILES IDX 37 45 89 46 38 47 88 48 39 49 40 50 41 51 82 52 42 53 87 54
REMARK SMILES IDX 81 55 83 56 43 57 86 58 80 59 79 60 44 62 70 63 53 64 69 65
REMARK SMILES IDX 54 66 57 67 68 68 84 69 55 70 56 71 67 73 85 74 58 75 45 76
REMARK SMILES IDX 46 77 51 78 47 79 48 80 50 81 52 82 49 83 71 84 72 85 77 86
REMARK SMILES IDX 73 87 74 88 76 89 78 90 75 91 59 92 60 93 65 94 61 95 62 96
REMARK SMILES IDX 64 97 66 98 63 99
REMARK H PARENT 17 12 17 13 83 61 57 72
REMARK Flexibility Score: inf
ROOT
ATOM      1  C   UNL     1       0.984   9.394 -13.466  1.00  0.00     0.188 C 
ENDROOT
BRANCH   1   2
ATOM      2  O   UNL     1       0.603   9.166 -14.814  1.00  0.00    -0.376 OA
BRANCH   2   3
ATOM      3  C   UNL     1       1.010   7.942 -15.397  1.00  0.00     0.202 C 
BRANCH   3   4
ATOM      4  C   UNL     1       0.520   6.652 -14.723  1.00  0.00     0.261 C 
BRANCH   4   5
ATOM      5  O   UNL     1       0.807   6.515 -13.317  1.00  0.00    -0.459 OA
BRANCH   5   6
ATOM      6  C   UNL     1       2.107   6.424 -12.925  1.00  0.00     0.365 C 
ATOM      7  O   UNL     1       3.058   6.382 -13.694  1.00  0.00    -0.245 OA
BRANCH   6   8
ATOM      8  C   UNL     1       2.213   6.507 -11.387  1.00  0.00     0.304 C 
ATOM      9  C   UNL     1       2.914   7.866  -9.562  1.00  0.00     0.274 C 
ATOM     10  N   UNL     1       2.446   7.918 -10.946  1.00  0.00    -0.319 N 
ATOM     11  S   UNL     1       4.162   6.557  -9.556  1.00  0.00    -0.087 SA
ATOM     12  H   UNL     1       3.151   8.358 -11.537  1.00  0.00     0.348 HD
ATOM     13  H   UNL     1       1.589   8.467 -11.018  1.00  0.00     0.348 HD
ATOM     14  C   UNL     1       3.349   5.619 -10.883  1.00  0.00     0.153 C 
BRANCH   9  15
ATOM     15  C   UNL     1       3.338   9.236  -9.044  1.00  0.00     0.020 A 
ATOM     16  C   UNL     1       4.018  11.785  -8.002  1.00  0.00     0.131 A 
ATOM     17  C   UNL     1       2.692  11.364  -7.987  1.00  0.00     0.048 A 
ATOM     18  C   UNL     1       5.005  10.954  -8.533  1.00  0.00     0.048 A 
ATOM     19  C   UNL     1       2.357  10.105  -8.516  1.00  0.00     0.015 A 
ATOM     20  C   UNL     1       4.663   9.703  -9.068  1.00  0.00     0.015 A 
BRANCH  16  21
ATOM     21  O   UNL     1       4.346  13.005  -7.370  1.00  0.00    -0.423 OA
BRANCH  21  22
ATOM     22  C   UNL     1       5.142  13.882  -8.093  1.00  0.00     0.343 C 
ATOM     23  O   UNL     1       5.428  13.787  -9.279  1.00  0.00    -0.246 OA
BRANCH  22  24
ATOM     24  C   UNL     1       5.684  14.980  -7.236  1.00  0.00     0.060 A 
ATOM     25  C   UNL     1       6.854  17.113  -5.734  1.00  0.00    -0.043 A 
ATOM     26  C   UNL     1       7.250  16.846  -7.052  1.00  0.00     0.005 A 
ATOM     27  C   UNL     1       5.849  16.285  -5.190  1.00  0.00     0.005 A 
ATOM     28  C   UNL     1       6.675  15.801  -7.790  1.00  0.00     0.016 A 
ATOM     29  C   UNL     1       5.272  15.230  -5.925  1.00  0.00     0.016 A 
BRANCH  25  30
ATOM     30  C   UNL     1       7.469  18.264  -4.908  1.00  0.00    -0.013 C 
ATOM     31  C   UNL     1       6.379  19.308  -4.584  1.00  0.00     0.016 C 
ATOM     32  C   UNL     1       8.616  19.012  -5.629  1.00  0.00     0.016 C 
ATOM     33  C   UNL     1       8.055  17.722  -3.586  1.00  0.00     0.016 C 
ENDBRANCH  25  30
ENDBRANCH  22  24
ENDBRANCH  21  22
ENDBRANCH  16  21
ENDBRANCH   9  15
ENDBRANCH   6   8
ENDBRANCH   5   6
ENDBRANCH   4   5
ENDBRANCH   3   4
ENDBRANCH   2   3
ENDBRANCH   1   2
BRANCH   1  34
ATOM     34  C   UNL     1      -0.161   9.184 -12.446  1.00  0.00     0.188 C 
BRANCH  34  35
ATOM     35  O   UNL     1      -1.486   8.940 -12.906  1.00  0.00    -0.377 OA
BRANCH  35  36
ATOM     36  C   UNL     1      -1.965   9.590 -14.074  1.00  0.00     0.188 C 
BRANCH  36  37
ATOM     37  C   UNL     1      -1.508  11.025 -14.424  1.00  0.00     0.188 C 
BRANCH  37  38
ATOM     38  O   UNL     1      -0.612  11.600 -13.493  1.00  0.00    -0.376 OA
BRANCH  38  39
ATOM     39  C   UNL     1      -1.063  12.642 -12.653  1.00  0.00     0.202 C 
BRANCH  39  40
ATOM     40  C   UNL     1      -2.167  12.306 -11.643  1.00  0.00     0.261 C 
BRANCH  40  41
ATOM     41  O   UNL     1      -3.309  11.614 -12.166  1.00  0.00    -0.460 OA
BRANCH  41  42
ATOM     42  C   UNL     1      -4.104  12.300 -13.011  1.00  0.00     0.338 C 
ATOM     43  O   UNL     1      -3.969  13.456 -13.381  1.00  0.00    -0.246 OA
BRANCH  42  44
ATOM     44  C   UNL     1      -5.077  11.348 -13.579  1.00  0.00     0.060 A 
ATOM     45  C   UNL     1      -5.104  11.152 -14.966  1.00  0.00     0.016 A 
ATOM     46  C   UNL     1      -5.942  10.636 -12.743  1.00  0.00     0.016 A 
ATOM     47  C   UNL     1      -6.023  10.269 -15.526  1.00  0.00     0.010 A 
ATOM     48  C   UNL     1      -6.885   9.774 -13.308  1.00  0.00     0.010 A 
ATOM     49  C   UNL     1      -6.953   9.620 -14.703  1.00  0.00    -0.014 A 
BRANCH  49  50
ATOM     50  C   UNL     1      -8.134   8.981 -15.327  1.00  0.00     0.031 A 
ATOM     51  C   UNL     1      -9.400   9.787 -15.424  1.00  0.00     0.074 A 
ATOM     52  C   UNL     1      -8.071   7.745 -15.850  1.00  0.00     0.049 A 
ATOM     53  N   UNL     1     -10.558   9.462 -15.938  1.00  0.00    -0.248 NA
ATOM     54  C   UNL     1      -9.350  11.148 -14.865  1.00  0.00     0.031 C 
ATOM     55  C   UNL     1      -6.887   6.889 -15.861  1.00  0.00     0.029 A 
ATOM     56  N   UNL     1      -9.035   7.000 -16.480  1.00  0.00    -0.354 N 
ATOM     57  C   UNL     1     -11.369  10.576 -15.766  1.00  0.00     0.074 A 
ATOM     58  C   UNL     1     -10.588  11.569 -15.062  1.00  0.00     0.031 C 
ATOM     59  C   UNL     1      -7.196   5.730 -16.470  1.00  0.00     0.029 A 
ATOM     60  C   UNL     1      -8.604   5.755 -16.865  1.00  0.00     0.049 A 
ATOM     61  H   UNL     1      -9.949   7.327 -16.641  1.00  0.00     0.167 HD
ATOM     62  C   UNL     1     -12.647  10.763 -16.172  1.00  0.00     0.037 A 
ATOM     63  C   UNL     1      -9.278   4.750 -17.457  1.00  0.00     0.037 A 
ATOM     64  C   UNL     1     -13.425   9.768 -16.859  1.00  0.00     0.049 A 
ATOM     65  C   UNL     1     -10.729   4.948 -17.816  1.00  0.00     0.074 A 
ATOM     66  C   UNL     1     -14.730   9.852 -17.310  1.00  0.00     0.029 A 
ATOM     67  N   UNL     1     -12.970   8.498 -17.184  1.00  0.00    -0.354 N 
ATOM     68  N   UNL     1     -11.485   6.010 -17.668  1.00  0.00    -0.248 NA
ATOM     69  C   UNL     1     -11.418   3.805 -18.432  1.00  0.00     0.031 C 
ATOM     70  C   UNL     1     -15.084   8.614 -17.856  1.00  0.00     0.029 A 
ATOM     71  C   UNL     1     -13.977   7.780 -17.808  1.00  0.00     0.049 A 
ATOM     72  H   UNL     1     -12.065   8.157 -16.999  1.00  0.00     0.167 HD
ATOM     73  C   UNL     1     -12.722   5.678 -18.208  1.00  0.00     0.074 A 
ATOM     74  C   UNL     1     -12.611   4.319 -18.696  1.00  0.00     0.031 C 
ATOM     75  C   UNL     1     -13.848   6.431 -18.298  1.00  0.00     0.037 A 
BRANCH  62  76
ATOM     76  C   UNL     1     -13.284  12.084 -15.849  1.00  0.00     0.057 A 
ATOM     77  C   UNL     1     -12.877  13.277 -16.465  1.00  0.00     0.134 A 
ATOM     78  C   UNL     1     -14.321  12.165 -14.912  1.00  0.00     0.134 A 
ATOM     79  F   UNL     1     -11.875  13.274 -17.357  1.00  0.00    -0.206 F 
ATOM     80  C   UNL     1     -13.457  14.503 -16.137  1.00  0.00     0.040 A 
ATOM     81  C   UNL     1     -14.931  13.381 -14.600  1.00  0.00     0.040 A 
ATOM     82  F   UNL     1     -14.761  11.064 -14.286  1.00  0.00    -0.206 F 
ATOM     83  C   UNL     1     -14.493  14.556 -15.207  1.00  0.00     0.006 A 
ENDBRANCH  62  76
BRANCH  63  84
ATOM     84  C   UNL     1      -8.596   3.464 -17.753  1.00  0.00     0.057 A 
ATOM     85  C   UNL     1      -8.370   3.048 -19.071  1.00  0.00     0.134 A 
ATOM     86  C   UNL     1      -8.183   2.604 -16.728  1.00  0.00     0.134 A 
ATOM     87  F   UNL     1      -8.764   3.816 -20.098  1.00  0.00    -0.206 F 
ATOM     88  C   UNL     1      -7.779   1.817 -19.359  1.00  0.00     0.040 A 
ATOM     89  C   UNL     1      -7.565   1.383 -17.001  1.00  0.00     0.040 A 
ATOM     90  F   UNL     1      -8.371   2.941 -15.444  1.00  0.00    -0.206 F 
ATOM     91  C   UNL     1      -7.370   0.982 -18.321  1.00  0.00     0.006 A 
ENDBRANCH  63  84
BRANCH  75  92
ATOM     92  C   UNL     1     -15.030   5.822 -18.998  1.00  0.00     0.057 A 
ATOM     93  C   UNL     1     -15.762   4.762 -18.448  1.00  0.00     0.134 A 
ATOM     94  C   UNL     1     -15.459   6.326 -20.234  1.00  0.00     0.134 A 
ATOM     95  F   UNL     1     -15.402   4.224 -17.272  1.00  0.00    -0.206 F 
ATOM     96  C   UNL     1     -16.853   4.202 -19.117  1.00  0.00     0.040 A 
ATOM     97  C   UNL     1     -16.568   5.798 -20.896  1.00  0.00     0.040 A 
ATOM     98  F   UNL     1     -14.813   7.350 -20.813  1.00  0.00    -0.206 F 
ATOM     99  C   UNL     1     -17.262   4.725 -20.342  1.00  0.00     0.006 A 
ENDBRANCH  75  92
ENDBRANCH  49  50
ENDBRANCH  42  44
ENDBRANCH  41  42
ENDBRANCH  40  41
ENDBRANCH  39  40
ENDBRANCH  38  39
ENDBRANCH  37  38
ENDBRANCH  36  37
ENDBRANCH  35  36
ENDBRANCH  34  35
ENDBRANCH   1  34
TORSDOF 25
