REMARK SMILES CCC(CC)(NC(=O)NCCc1nccs1)C(=O)OCCOCCOCCOCCOC(=O)c1ccc(-c2c3nc(c(-c4c(F)cccc4F)c4ccc([nH]4)c(-c4c(F)cccc4F)c4nc(c(-c5c(F)cccc5F)c5ccc2[nH]5)C=C4)C=C3)cc1
REMARK SMILES IDX 24 1 23 2 22 3 21 4 20 5 19 6 17 7 18 8 3 9 2 10 1 11 4 12
REMARK SMILES IDX 5 13 6 14 7 15 8 17 9 18 10 20 11 21 12 22 13 23 16 24 14 25
REMARK SMILES IDX 15 26 25 27 26 28 27 29 28 30 29 31 30 32 31 33 32 34 33 35
REMARK SMILES IDX 34 36 35 37 87 38 36 39 86 40 37 41 38 42 39 43 80 44 40 45
REMARK SMILES IDX 85 46 79 47 81 48 41 49 84 50 78 51 77 52 42 54 68 55 51 56
REMARK SMILES IDX 67 57 52 58 55 59 66 60 82 61 53 62 54 63 65 65 83 66 56 67
REMARK SMILES IDX 43 68 44 69 49 70 45 71 46 72 48 73 50 74 47 75 69 76 70 77
REMARK SMILES IDX 75 78 71 79 72 80 74 81 76 82 73 83 57 84 58 85 63 86 59 87
REMARK SMILES IDX 60 88 62 89 64 90 61 91
REMARK H PARENT 6 16 9 19 81 53 55 64
REMARK Flexibility Score: inf
ROOT
ATOM      1  C   UNL     1       2.952  -1.623   3.282  1.00  0.00     0.188 C 
ENDROOT
BRANCH   1   2
ATOM      2  C   UNL     1       3.893  -2.013   2.130  1.00  0.00     0.188 C 
BRANCH   2   3
ATOM      3  O   UNL     1       5.227  -1.508   2.124  1.00  0.00    -0.376 OA
BRANCH   3   4
ATOM      4  C   UNL     1       5.494  -0.120   1.929  1.00  0.00     0.202 C 
BRANCH   4   5
ATOM      5  C   UNL     1       4.534   0.695   1.070  1.00  0.00     0.261 C 
BRANCH   5   6
ATOM      6  O   UNL     1       3.279   0.806   1.756  1.00  0.00    -0.461 OA
BRANCH   6   7
ATOM      7  C   UNL     1       2.320   1.524   1.133  1.00  0.00     0.331 C 
ATOM      8  O   UNL     1       2.508   2.092   0.062  1.00  0.00    -0.249 OA
BRANCH   7   9
ATOM      9  C   UNL     1       0.930   1.393   1.828  1.00  0.00     0.139 C 
BRANCH   9  10
ATOM     10  C   UNL     1       0.253   0.156   1.130  1.00  0.00     0.037 C 
ATOM     11  C   UNL     1       0.201   0.133  -0.390  1.00  0.00     0.007 C 
ENDBRANCH   9  10
BRANCH   9  12
ATOM     12  C   UNL     1       0.165   2.717   1.581  1.00  0.00     0.037 C 
ATOM     13  C   UNL     1      -1.333   2.675   1.853  1.00  0.00     0.007 C 
ENDBRANCH   9  12
BRANCH   9  14
ATOM     14  N   UNL     1       0.858   1.033   3.285  1.00  0.00    -0.322 N 
ATOM     15  C   UNL     1       1.130   1.580   4.468  1.00  0.00     0.315 C 
ATOM     16  H   UNL     1       0.503   0.122   3.399  1.00  0.00     0.166 HD
ATOM     17  O   UNL     1       0.422   1.230   5.416  1.00  0.00    -0.249 OA
ATOM     18  N   UNL     1       2.114   2.438   4.725  1.00  0.00    -0.338 N 
ATOM     19  H   UNL     1       1.985   2.964   5.547  1.00  0.00     0.165 HD
BRANCH  18  20
ATOM     20  C   UNL     1       3.340   2.737   4.014  1.00  0.00     0.125 C 
BRANCH  20  21
ATOM     21  C   UNL     1       4.244   3.724   4.767  1.00  0.00     0.089 C 
BRANCH  21  22
ATOM     22  C   UNL     1       5.593   3.163   5.132  1.00  0.00     0.094 A 
ATOM     23  N   UNL     1       5.939   1.892   5.103  1.00  0.00    -0.250 NA
ATOM     24  S   UNL     1       6.836   4.242   5.653  1.00  0.00    -0.127 S 
ATOM     25  C   UNL     1       7.249   1.747   5.523  1.00  0.00     0.123 A 
ATOM     26  C   UNL     1       7.892   2.912   5.873  1.00  0.00     0.087 A 
ENDBRANCH  21  22
ENDBRANCH  20  21
ENDBRANCH  18  20
ENDBRANCH   9  14
ENDBRANCH   7   9
ENDBRANCH   6   7
ENDBRANCH   5   6
ENDBRANCH   4   5
ENDBRANCH   3   4
ENDBRANCH   2   3
ENDBRANCH   1   2
BRANCH   1  27
ATOM     27  O   UNL     1       3.341  -2.010   4.588  1.00  0.00    -0.377 OA
BRANCH  27  28
ATOM     28  C   UNL     1       4.470  -1.298   5.094  1.00  0.00     0.188 C 
BRANCH  28  29
ATOM     29  C   UNL     1       5.671  -2.239   5.144  1.00  0.00     0.188 C 
BRANCH  29  30
ATOM     30  O   UNL     1       5.608  -3.242   6.163  1.00  0.00    -0.376 OA
BRANCH  30  31
ATOM     31  C   UNL     1       4.426  -4.046   6.163  1.00  0.00     0.202 C 
BRANCH  31  32
ATOM     32  C   UNL     1       3.398  -3.631   7.238  1.00  0.00     0.261 C 
BRANCH  32  33
ATOM     33  O   UNL     1       3.671  -2.364   7.857  1.00  0.00    -0.460 OA
BRANCH  33  34
ATOM     34  C   UNL     1       4.731  -2.375   8.689  1.00  0.00     0.338 C 
ATOM     35  O   UNL     1       5.350  -3.354   9.098  1.00  0.00    -0.246 OA
BRANCH  34  36
ATOM     36  C   UNL     1       5.120  -0.999   9.035  1.00  0.00     0.060 A 
ATOM     37  C   UNL     1       6.419  -0.579   8.730  1.00  0.00     0.016 A 
ATOM     38  C   UNL     1       4.284  -0.214   9.834  1.00  0.00     0.016 A 
ATOM     39  C   UNL     1       6.928   0.575   9.324  1.00  0.00     0.010 A 
ATOM     40  C   UNL     1       4.798   0.940  10.434  1.00  0.00     0.010 A 
ATOM     41  C   UNL     1       6.145   1.293  10.240  1.00  0.00    -0.014 A 
BRANCH  41  42
ATOM     42  C   UNL     1       6.819   2.220  11.184  1.00  0.00     0.031 A 
ATOM     43  C   UNL     1       7.251   1.682  12.525  1.00  0.00     0.074 A 
ATOM     44  C   UNL     1       7.106   3.489  10.848  1.00  0.00     0.049 A 
ATOM     45  N   UNL     1       7.907   2.278  13.490  1.00  0.00    -0.248 NA
ATOM     46  C   UNL     1       6.894   0.284  12.817  1.00  0.00     0.031 C 
ATOM     47  C   UNL     1       6.765   4.122   9.579  1.00  0.00     0.029 A 
ATOM     48  N   UNL     1       7.761   4.468  11.552  1.00  0.00    -0.354 N 
ATOM     49  C   UNL     1       8.040   1.329  14.496  1.00  0.00     0.074 A 
ATOM     50  C   UNL     1       7.370   0.130  14.043  1.00  0.00     0.031 C 
ATOM     51  C   UNL     1       7.227   5.385   9.586  1.00  0.00     0.029 A 
ATOM     52  C   UNL     1       7.877   5.653  10.868  1.00  0.00     0.049 A 
ATOM     53  H   UNL     1       8.115   4.334  12.461  1.00  0.00     0.167 HD
ATOM     54  C   UNL     1       8.674   1.437  15.688  1.00  0.00     0.037 A 
ATOM     55  C   UNL     1       8.444   6.817  11.240  1.00  0.00     0.037 A 
ATOM     56  C   UNL     1       9.342   2.623  16.148  1.00  0.00     0.049 A 
ATOM     57  C   UNL     1       9.104   6.928  12.590  1.00  0.00     0.074 A 
ATOM     58  C   UNL     1      10.018   2.828  17.338  1.00  0.00     0.029 A 
ATOM     59  N   UNL     1       9.414   3.810  15.436  1.00  0.00    -0.354 N 
ATOM     60  N   UNL     1       9.254   6.013  13.517  1.00  0.00    -0.248 NA
ATOM     61  C   UNL     1       9.681   8.235  12.940  1.00  0.00     0.031 C 
ATOM     62  C   UNL     1      10.468   4.153  17.362  1.00  0.00     0.029 A 
ATOM     63  C   UNL     1      10.110   4.758  16.168  1.00  0.00     0.049 A 
ATOM     64  H   UNL     1       9.028   3.958  14.543  1.00  0.00     0.167 HD
ATOM     65  C   UNL     1       9.971   6.622  14.541  1.00  0.00     0.074 A 
ATOM     66  C   UNL     1      10.232   7.981  14.118  1.00  0.00     0.031 C 
ATOM     67  C   UNL     1      10.379   6.101  15.725  1.00  0.00     0.037 A 
BRANCH  54  68
ATOM     68  C   UNL     1       8.649   0.236  16.586  1.00  0.00     0.057 A 
ATOM     69  C   UNL     1       9.418  -0.904  16.316  1.00  0.00     0.134 A 
ATOM     70  C   UNL     1       7.855   0.224  17.739  1.00  0.00     0.134 A 
ATOM     71  F   UNL     1      10.188  -0.960  15.219  1.00  0.00    -0.206 F 
ATOM     72  C   UNL     1       9.378  -2.023  17.149  1.00  0.00     0.040 A 
ATOM     73  C   UNL     1       7.824  -0.881  18.591  1.00  0.00     0.040 A 
ATOM     74  F   UNL     1       7.097   1.284  18.055  1.00  0.00    -0.206 F 
ATOM     75  C   UNL     1       8.583  -2.011  18.293  1.00  0.00     0.006 A 
ENDBRANCH  54  68
BRANCH  55  76
ATOM     76  C   UNL     1       8.430   7.981  10.318  1.00  0.00     0.057 A 
ATOM     77  C   UNL     1       9.607   8.447   9.721  1.00  0.00     0.134 A 
ATOM     78  C   UNL     1       7.248   8.678  10.044  1.00  0.00     0.134 A 
ATOM     79  F   UNL     1      10.776   7.835   9.965  1.00  0.00    -0.206 F 
ATOM     80  C   UNL     1       9.614   9.576   8.901  1.00  0.00     0.040 A 
ATOM     81  C   UNL     1       7.236   9.795   9.207  1.00  0.00     0.040 A 
ATOM     82  F   UNL     1       6.087   8.283  10.586  1.00  0.00    -0.206 F 
ATOM     83  C   UNL     1       8.424  10.252   8.640  1.00  0.00     0.006 A 
ENDBRANCH  55  76
BRANCH  67  84
ATOM     84  C   UNL     1      11.195   6.984  16.623  1.00  0.00     0.057 A 
ATOM     85  C   UNL     1      10.626   8.048  17.334  1.00  0.00     0.134 A 
ATOM     86  C   UNL     1      12.563   6.742  16.805  1.00  0.00     0.134 A 
ATOM     87  F   UNL     1       9.324   8.340  17.196  1.00  0.00    -0.206 F 
ATOM     88  C   UNL     1      11.395   8.855  18.175  1.00  0.00     0.040 A 
ATOM     89  C   UNL     1      13.336   7.526  17.661  1.00  0.00     0.040 A 
ATOM     90  F   UNL     1      13.167   5.732  16.160  1.00  0.00    -0.206 F 
ATOM     91  C   UNL     1      12.753   8.591  18.345  1.00  0.00     0.006 A 
ENDBRANCH  67  84
ENDBRANCH  41  42
ENDBRANCH  34  36
ENDBRANCH  33  34
ENDBRANCH  32  33
ENDBRANCH  31  32
ENDBRANCH  30  31
ENDBRANCH  29  30
ENDBRANCH  28  29
ENDBRANCH  27  28
ENDBRANCH   1  27
TORSDOF 26
