REMARK SMILES Cc1nc(Oc2ccc(F)cc2)c(C(=O)OCCOCCOCCOCCOC(=O)c2ccc(-c3c4nc(c(-c5c(F)cccc5F)c5ccc([nH]5)c(-c5c(F)cccc5F)c5nc(c(-c6c(F)cccc6F)c6ccc3[nH]6)C=C5)C=C4)cc2)c(C)c1Cl
REMARK SMILES IDX 22 1 21 2 20 3 19 4 18 5 17 6 16 7 14 8 15 9 13 10 1 11 2 12
REMARK SMILES IDX 3 13 87 14 4 15 85 16 88 17 86 18 5 19 6 20 7 21 12 22 8 23
REMARK SMILES IDX 11 24 9 25 10 26 23 27 24 28 25 29 26 30 27 31 28 32 29 33
REMARK SMILES IDX 30 34 31 35 32 36 84 37 33 38 83 39 34 40 35 41 36 42 77 43
REMARK SMILES IDX 37 44 82 45 76 46 78 47 38 48 81 49 75 50 74 51 39 53 65 54
REMARK SMILES IDX 48 55 64 56 49 57 52 58 63 59 79 60 50 61 51 62 62 64 80 65
REMARK SMILES IDX 53 66 40 67 41 68 46 69 42 70 43 71 45 72 47 73 44 74 66 75
REMARK SMILES IDX 67 76 72 77 68 78 69 79 71 80 73 81 70 82 54 83 55 84 60 85
REMARK SMILES IDX 56 86 57 87 59 88 61 89 58 90
REMARK H PARENT 78 52 52 63
REMARK Flexibility Score: inf
ROOT
ATOM      1  O   UNL     1       0.345   6.854  -2.406  1.00  0.00    -0.377 OA
ENDROOT
BRANCH   1   2
ATOM      2  C   UNL     1      -0.431   5.687  -2.243  1.00  0.00     0.188 C 
BRANCH   2   3
ATOM      3  C   UNL     1      -1.677   5.834  -1.358  1.00  0.00     0.188 C 
BRANCH   3   4
ATOM      4  O   UNL     1      -2.028   7.170  -1.025  1.00  0.00    -0.376 OA
BRANCH   4   5
ATOM      5  C   UNL     1      -1.827   7.699   0.272  1.00  0.00     0.202 C 
BRANCH   5   6
ATOM      6  C   UNL     1      -0.505   7.438   0.982  1.00  0.00     0.261 C 
BRANCH   6   7
ATOM      7  O   UNL     1      -0.133   6.067   0.865  1.00  0.00    -0.459 OA
BRANCH   7   8
ATOM      8  C   UNL     1      -0.522   5.175   1.804  1.00  0.00     0.344 C 
ATOM      9  O   UNL     1      -0.980   5.404   2.891  1.00  0.00    -0.246 OA
BRANCH   8  10
ATOM     10  C   UNL     1      -0.265   3.843   1.203  1.00  0.00     0.127 A 
ATOM     11  C   UNL     1       0.523  -0.118  -0.107  1.00  0.00     0.068 C 
ATOM     12  C   UNL     1       0.299   1.322   0.261  1.00  0.00     0.060 A 
ATOM     13  N   UNL     1      -0.976   1.630   0.628  1.00  0.00    -0.216 NA
ATOM     14  C   UNL     1       1.321   2.271   0.234  1.00  0.00     0.066 A 
ATOM     15  C   UNL     1      -1.275   2.879   1.075  1.00  0.00     0.234 A 
ATOM     16  C   UNL     1       1.057   3.554   0.735  1.00  0.00    -0.011 A 
ATOM     17  Cl  UNL     1       2.881   1.862  -0.401  1.00  0.00    -0.082 Cl
ATOM     18  C   UNL     1       2.133   4.623   0.713  1.00  0.00     0.047 C 
BRANCH  15  19
ATOM     19  O   UNL     1      -2.594   2.943   1.470  1.00  0.00    -0.438 OA
BRANCH  19  20
ATOM     20  C   UNL     1      -3.390   4.037   1.228  1.00  0.00     0.129 A 
ATOM     21  C   UNL     1      -3.735   4.824   2.328  1.00  0.00     0.050 A 
ATOM     22  C   UNL     1      -4.008   4.282  -0.003  1.00  0.00     0.050 A 
ATOM     23  C   UNL     1      -4.555   5.943   2.177  1.00  0.00     0.043 A 
ATOM     24  C   UNL     1      -4.828   5.415  -0.162  1.00  0.00     0.043 A 
ATOM     25  C   UNL     1      -5.076   6.245   0.926  1.00  0.00     0.123 A 
ATOM     26  F   UNL     1      -5.793   7.365   0.765  1.00  0.00    -0.207 F 
ENDBRANCH  19  20
ENDBRANCH  15  19
ENDBRANCH   8  10
ENDBRANCH   7   8
ENDBRANCH   6   7
ENDBRANCH   5   6
ENDBRANCH   4   5
ENDBRANCH   3   4
ENDBRANCH   2   3
ENDBRANCH   1   2
BRANCH   1  27
ATOM     27  C   UNL     1      -0.292   8.032  -2.902  1.00  0.00     0.188 C 
BRANCH  27  28
ATOM     28  C   UNL     1      -1.714   8.058  -3.551  1.00  0.00     0.188 C 
BRANCH  28  29
ATOM     29  O   UNL     1      -2.308   6.788  -3.728  1.00  0.00    -0.376 OA
BRANCH  29  30
ATOM     30  C   UNL     1      -2.662   6.310  -5.003  1.00  0.00     0.202 C 
BRANCH  30  31
ATOM     31  C   UNL     1      -1.543   6.093  -6.026  1.00  0.00     0.261 C 
BRANCH  31  32
ATOM     32  O   UNL     1      -0.439   6.996  -5.941  1.00  0.00    -0.460 OA
BRANCH  32  33
ATOM     33  C   UNL     1      -0.590   8.200  -6.537  1.00  0.00     0.338 C 
ATOM     34  O   UNL     1      -1.568   8.617  -7.127  1.00  0.00    -0.246 OA
BRANCH  33  35
ATOM     35  C   UNL     1       0.578   9.013  -6.141  1.00  0.00     0.060 A 
ATOM     36  C   UNL     1       0.364  10.190  -5.408  1.00  0.00     0.016 A 
ATOM     37  C   UNL     1       1.873   8.555  -6.397  1.00  0.00     0.016 A 
ATOM     38  C   UNL     1       1.453  10.898  -4.905  1.00  0.00     0.010 A 
ATOM     39  C   UNL     1       2.963   9.303  -5.956  1.00  0.00     0.010 A 
ATOM     40  C   UNL     1       2.754  10.487  -5.229  1.00  0.00    -0.014 A 
BRANCH  40  41
ATOM     41  C   UNL     1       3.856  11.464  -5.101  1.00  0.00     0.031 A 
ATOM     42  C   UNL     1       3.994  12.466  -6.215  1.00  0.00     0.074 A 
ATOM     43  C   UNL     1       4.690  11.478  -4.049  1.00  0.00     0.049 A 
ATOM     44  N   UNL     1       4.875  13.416  -6.377  1.00  0.00    -0.248 NA
ATOM     45  C   UNL     1       2.989  12.385  -7.292  1.00  0.00     0.031 C 
ATOM     46  C   UNL     1       4.623  10.590  -2.890  1.00  0.00     0.029 A 
ATOM     47  N   UNL     1       5.774  12.281  -3.797  1.00  0.00    -0.354 N 
ATOM     48  C   UNL     1       4.510  14.062  -7.551  1.00  0.00     0.074 A 
ATOM     49  C   UNL     1       3.357  13.376  -8.085  1.00  0.00     0.031 C 
ATOM     50  C   UNL     1       5.640  10.885  -2.058  1.00  0.00     0.029 A 
ATOM     51  C   UNL     1       6.440  11.962  -2.640  1.00  0.00     0.049 A 
ATOM     52  H   UNL     1       6.048  13.017  -4.391  1.00  0.00     0.167 HD
ATOM     53  C   UNL     1       5.080  15.140  -8.133  1.00  0.00     0.037 A 
ATOM     54  C   UNL     1       7.580  12.474  -2.135  1.00  0.00     0.037 A 
ATOM     55  C   UNL     1       6.265  15.779  -7.640  1.00  0.00     0.049 A 
ATOM     56  C   UNL     1       8.281  13.581  -2.888  1.00  0.00     0.074 A 
ATOM     57  C   UNL     1       6.957  16.848  -8.178  1.00  0.00     0.029 A 
ATOM     58  N   UNL     1       6.947  15.389  -6.498  1.00  0.00    -0.354 N 
ATOM     59  N   UNL     1       7.918  14.205  -3.983  1.00  0.00    -0.248 NA
ATOM     60  C   UNL     1       9.558  14.052  -2.330  1.00  0.00     0.031 C 
ATOM     61  C   UNL     1       8.086  17.075  -7.385  1.00  0.00     0.029 A 
ATOM     62  C   UNL     1       8.065  16.183  -6.324  1.00  0.00     0.049 A 
ATOM     63  H   UNL     1       6.675  14.655  -5.900  1.00  0.00     0.167 HD
ATOM     64  C   UNL     1       8.897  15.164  -4.221  1.00  0.00     0.074 A 
ATOM     65  C   UNL     1       9.860  15.050  -3.146  1.00  0.00     0.031 C 
ATOM     66  C   UNL     1       8.999  16.059  -5.235  1.00  0.00     0.037 A 
BRANCH  53  67
ATOM     67  C   UNL     1       4.434  15.659  -9.381  1.00  0.00     0.057 A 
ATOM     68  C   UNL     1       5.045  15.493 -10.628  1.00  0.00     0.134 A 
ATOM     69  C   UNL     1       3.199  16.320  -9.345  1.00  0.00     0.134 A 
ATOM     70  F   UNL     1       6.222  14.857 -10.732  1.00  0.00    -0.206 F 
ATOM     71  C   UNL     1       4.456  15.976 -11.797  1.00  0.00     0.040 A 
ATOM     72  C   UNL     1       2.587  16.785 -10.510  1.00  0.00     0.040 A 
ATOM     73  F   UNL     1       2.547  16.482  -8.183  1.00  0.00    -0.206 F 
ATOM     74  C   UNL     1       3.221  16.620 -11.740  1.00  0.00     0.006 A 
ENDBRANCH  53  67
BRANCH  54  75
ATOM     75  C   UNL     1       8.173  11.943  -0.879  1.00  0.00     0.057 A 
ATOM     76  C   UNL     1       8.722  10.656  -0.818  1.00  0.00     0.134 A 
ATOM     77  C   UNL     1       8.302  12.750   0.259  1.00  0.00     0.134 A 
ATOM     78  F   UNL     1       8.638   9.832  -1.873  1.00  0.00    -0.206 F 
ATOM     79  C   UNL     1       9.387  10.197   0.321  1.00  0.00     0.040 A 
ATOM     80  C   UNL     1       8.992  12.314   1.393  1.00  0.00     0.040 A 
ATOM     81  F   UNL     1       7.824  14.003   0.256  1.00  0.00    -0.206 F 
ATOM     82  C   UNL     1       9.538  11.033   1.425  1.00  0.00     0.006 A 
ENDBRANCH  54  75
BRANCH  66  83
ATOM     83  C   UNL     1      10.158  17.012  -5.197  1.00  0.00     0.057 A 
ATOM     84  C   UNL     1       9.947  18.376  -4.952  1.00  0.00     0.134 A 
ATOM     85  C   UNL     1      11.474  16.593  -5.431  1.00  0.00     0.134 A 
ATOM     86  F   UNL     1       8.710  18.846  -4.736  1.00  0.00    -0.206 F 
ATOM     87  C   UNL     1      11.004  19.287  -4.938  1.00  0.00     0.040 A 
ATOM     88  C   UNL     1      12.542  17.489  -5.386  1.00  0.00     0.040 A 
ATOM     89  F   UNL     1      11.745  15.299  -5.661  1.00  0.00    -0.206 F 
ATOM     90  C   UNL     1      12.307  18.842  -5.146  1.00  0.00     0.006 A 
ENDBRANCH  66  83
ENDBRANCH  40  41
ENDBRANCH  33  35
ENDBRANCH  32  33
ENDBRANCH  31  32
ENDBRANCH  30  31
ENDBRANCH  29  30
ENDBRANCH  28  29
ENDBRANCH  27  28
ENDBRANCH   1  27
TORSDOF 22
