REMARK SMILES NC(=O)CC[C@H](NC(=O)N[C@H]1CCOC1)C(=O)OCCOCCOCCOCCOC(=O)c1ccc(-c2c3nc(c(-c4c(F)cccc4F)c4ccc([nH]4)c(-c4c(F)cccc4F)c4nc(c(-c5c(F)cccc5F)c5ccc2[nH]5)C=C4)C=C3)cc1
REMARK SMILES IDX 23 1 22 2 21 3 20 4 19 5 18 6 16 7 17 8 6 9 5 10 4 11 2 12
REMARK SMILES IDX 1 13 3 16 7 17 8 18 9 20 10 21 11 23 12 24 15 25 13 26 14 27
REMARK SMILES IDX 24 28 25 29 26 30 27 31 28 32 29 33 30 34 31 35 32 36 33 37
REMARK SMILES IDX 34 38 86 39 35 40 85 41 36 42 37 43 38 44 79 45 39 46 84 47
REMARK SMILES IDX 78 48 80 49 40 50 83 51 77 52 76 53 41 55 67 56 50 57 66 58
REMARK SMILES IDX 51 59 54 60 65 61 81 62 52 63 53 64 64 66 82 67 55 68 42 69
REMARK SMILES IDX 43 70 48 71 44 72 45 73 47 74 49 75 46 76 68 77 69 78 74 79
REMARK SMILES IDX 70 80 71 81 73 82 75 83 72 84 56 85 57 86 62 87 58 88 59 89
REMARK SMILES IDX 61 90 63 91 60 92
REMARK H PARENT 1 14 1 15 7 19 10 22 80 54 54 65
REMARK Flexibility Score: inf
ROOT
ATOM      1  C   UNL     1       8.726   2.834   3.739  1.00  0.00     0.188 C 
ENDROOT
BRANCH   1   2
ATOM      2  C   UNL     1       9.724   3.824   3.107  1.00  0.00     0.188 C 
BRANCH   2   3
ATOM      3  O   UNL     1       9.749   5.184   3.523  1.00  0.00    -0.376 OA
BRANCH   3   4
ATOM      4  C   UNL     1       8.540   5.933   3.584  1.00  0.00     0.202 C 
BRANCH   4   5
ATOM      5  C   UNL     1       7.558   5.878   2.409  1.00  0.00     0.261 C 
BRANCH   5   6
ATOM      6  O   UNL     1       7.092   4.551   2.107  1.00  0.00    -0.462 OA
BRANCH   6   7
ATOM      7  C   UNL     1       7.293   4.075   0.855  1.00  0.00     0.328 C 
ATOM      8  O   UNL     1       7.860   4.704  -0.032  1.00  0.00    -0.250 OA
BRANCH   7   9
ATOM      9  C   UNL     1       6.844   2.604   0.688  1.00  0.00     0.194 C 
BRANCH   9  10
ATOM     10  C   UNL     1       6.325   2.325  -0.724  1.00  0.00     0.047 C 
BRANCH  10  11
ATOM     11  C   UNL     1       6.294   0.861  -1.165  1.00  0.00     0.102 C 
BRANCH  11  12
ATOM     12  C   UNL     1       5.455  -0.044  -0.295  1.00  0.00     0.217 C 
ATOM     13  N   UNL     1       6.162  -0.842   0.558  1.00  0.00    -0.370 N 
ATOM     14  H   UNL     1       5.688  -1.461   1.159  1.00  0.00     0.159 HD
ATOM     15  H   UNL     1       7.145  -0.798   0.571  1.00  0.00     0.159 HD
ATOM     16  O   UNL     1       4.231  -0.057  -0.320  1.00  0.00    -0.275 OA
ENDBRANCH  11  12
ENDBRANCH  10  11
ENDBRANCH   9  10
BRANCH   9  17
ATOM     17  N   UNL     1       6.135   1.920   1.780  1.00  0.00    -0.325 N 
ATOM     18  C   UNL     1       4.954   1.698   2.319  1.00  0.00     0.315 C 
ATOM     19  H   UNL     1       6.805   1.440   2.319  1.00  0.00     0.166 HD
ATOM     20  O   UNL     1       4.934   0.781   3.154  1.00  0.00    -0.249 OA
ATOM     21  N   UNL     1       3.800   2.286   2.084  1.00  0.00    -0.333 N 
ATOM     22  H   UNL     1       3.075   1.756   2.487  1.00  0.00     0.165 HD
BRANCH  21  23
ATOM     23  C   UNL     1       3.234   3.452   1.431  1.00  0.00     0.112 C 
ATOM     24  C   UNL     1       3.939   4.758   1.667  1.00  0.00     0.056 C 
ATOM     25  C   UNL     1       2.964   3.365  -0.056  1.00  0.00     0.185 C 
ATOM     26  C   UNL     1       4.221   5.301   0.286  1.00  0.00     0.162 C 
ATOM     27  O   UNL     1       3.429   4.579  -0.657  1.00  0.00    -0.379 OA
ENDBRANCH  21  23
ENDBRANCH   9  17
ENDBRANCH   7   9
ENDBRANCH   6   7
ENDBRANCH   5   6
ENDBRANCH   4   5
ENDBRANCH   3   4
ENDBRANCH   2   3
ENDBRANCH   1   2
BRANCH   1  28
ATOM     28  O   UNL     1       7.652   3.430   4.439  1.00  0.00    -0.377 OA
BRANCH  28  29
ATOM     29  C   UNL     1       7.774   3.472   5.858  1.00  0.00     0.188 C 
BRANCH  29  30
ATOM     30  C   UNL     1       9.163   3.824   6.433  1.00  0.00     0.188 C 
BRANCH  30  31
ATOM     31  O   UNL     1      10.227   3.059   5.885  1.00  0.00    -0.376 OA
BRANCH  31  32
ATOM     32  C   UNL     1      10.681   1.891   6.552  1.00  0.00     0.202 C 
BRANCH  32  33
ATOM     33  C   UNL     1       9.701   0.727   6.785  1.00  0.00     0.261 C 
BRANCH  33  34
ATOM     34  O   UNL     1       8.482   1.040   7.471  1.00  0.00    -0.460 OA
BRANCH  34  35
ATOM     35  C   UNL     1       8.583   1.571   8.703  1.00  0.00     0.338 C 
ATOM     36  O   UNL     1       9.607   1.762   9.343  1.00  0.00    -0.246 OA
BRANCH  35  37
ATOM     37  C   UNL     1       7.255   2.081   9.091  1.00  0.00     0.060 A 
ATOM     38  C   UNL     1       7.131   3.432   9.439  1.00  0.00     0.016 A 
ATOM     39  C   UNL     1       6.151   1.226   9.151  1.00  0.00     0.016 A 
ATOM     40  C   UNL     1       5.922   3.916   9.927  1.00  0.00     0.010 A 
ATOM     41  C   UNL     1       4.945   1.705   9.666  1.00  0.00     0.010 A 
ATOM     42  C   UNL     1       4.850   3.036  10.113  1.00  0.00    -0.014 A 
BRANCH  42  43
ATOM     43  C   UNL     1       3.763   3.433  11.037  1.00  0.00     0.031 A 
ATOM     44  C   UNL     1       3.863   2.979  12.469  1.00  0.00     0.074 A 
ATOM     45  C   UNL     1       2.756   4.229  10.642  1.00  0.00     0.049 A 
ATOM     46  N   UNL     1       3.043   3.180  13.468  1.00  0.00    -0.248 NA
ATOM     47  C   UNL     1       5.055   2.187  12.820  1.00  0.00     0.031 C 
ATOM     48  C   UNL     1       2.586   4.779   9.300  1.00  0.00     0.029 A 
ATOM     49  N   UNL     1       1.682   4.711  11.346  1.00  0.00    -0.354 N 
ATOM     50  C   UNL     1       3.615   2.533  14.557  1.00  0.00     0.074 A 
ATOM     51  C   UNL     1       4.829   1.902  14.092  1.00  0.00     0.031 C 
ATOM     52  C   UNL     1       1.463   5.519   9.274  1.00  0.00     0.029 A 
ATOM     53  C   UNL     1       0.824   5.466  10.588  1.00  0.00     0.049 A 
ATOM     54  H   UNL     1       1.541   4.532  12.304  1.00  0.00     0.167 HD
ATOM     55  C   UNL     1       3.173   2.478  15.836  1.00  0.00     0.037 A 
ATOM     56  C   UNL     1      -0.353   6.031  10.919  1.00  0.00     0.037 A 
ATOM     57  C   UNL     1       1.963   3.105  16.293  1.00  0.00     0.049 A 
ATOM     58  C   UNL     1      -0.864   5.892  12.331  1.00  0.00     0.074 A 
ATOM     59  C   UNL     1       1.421   3.110  17.565  1.00  0.00     0.029 A 
ATOM     60  N   UNL     1       1.101   3.834  15.486  1.00  0.00    -0.354 N 
ATOM     61  N   UNL     1      -0.316   5.286  13.358  1.00  0.00    -0.248 NA
ATOM     62  C   UNL     1      -2.153   6.529  12.632  1.00  0.00     0.031 C 
ATOM     63  C   UNL     1       0.203   3.795  17.517  1.00  0.00     0.029 A 
ATOM     64  C   UNL     1       0.022   4.279  16.230  1.00  0.00     0.049 A 
ATOM     65  H   UNL     1       1.238   4.010  14.527  1.00  0.00     0.167 HD
ATOM     66  C   UNL     1      -1.169   5.508  14.434  1.00  0.00     0.074 A 
ATOM     67  C   UNL     1      -2.266   6.309  13.934  1.00  0.00     0.031 C 
ATOM     68  C   UNL     1      -1.053   5.093  15.720  1.00  0.00     0.037 A 
BRANCH  55  69
ATOM     69  C   UNL     1       3.989   1.681  16.814  1.00  0.00     0.057 A 
ATOM     70  C   UNL     1       5.256   2.098  17.243  1.00  0.00     0.134 A 
ATOM     71  C   UNL     1       3.492   0.483  17.342  1.00  0.00     0.134 A 
ATOM     72  F   UNL     1       5.801   3.225  16.761  1.00  0.00    -0.206 F 
ATOM     73  C   UNL     1       6.010   1.338  18.139  1.00  0.00     0.040 A 
ATOM     74  C   UNL     1       4.222  -0.269  18.263  1.00  0.00     0.040 A 
ATOM     75  F   UNL     1       2.286   0.025  16.974  1.00  0.00    -0.206 F 
ATOM     76  C   UNL     1       5.489   0.154  18.658  1.00  0.00     0.006 A 
ENDBRANCH  55  69
BRANCH  56  77
ATOM     77  C   UNL     1      -1.139   6.774   9.901  1.00  0.00     0.057 A 
ATOM     78  C   UNL     1      -1.341   8.156  10.002  1.00  0.00     0.134 A 
ATOM     79  C   UNL     1      -1.738   6.114   8.821  1.00  0.00     0.134 A 
ATOM     80  F   UNL     1      -0.812   8.842  11.026  1.00  0.00    -0.206 F 
ATOM     81  C   UNL     1      -2.131   8.850   9.084  1.00  0.00     0.040 A 
ATOM     82  C   UNL     1      -2.506   6.800   7.878  1.00  0.00     0.040 A 
ATOM     83  F   UNL     1      -1.583   4.792   8.664  1.00  0.00    -0.206 F 
ATOM     84  C   UNL     1      -2.712   8.171   8.015  1.00  0.00     0.006 A 
ENDBRANCH  56  77
BRANCH  68  85
ATOM     85  C   UNL     1      -2.098   5.561  16.694  1.00  0.00     0.057 A 
ATOM     86  C   UNL     1      -3.424   5.111  16.649  1.00  0.00     0.134 A 
ATOM     87  C   UNL     1      -1.759   6.464  17.711  1.00  0.00     0.134 A 
ATOM     88  F   UNL     1      -3.819   4.252  15.698  1.00  0.00    -0.206 F 
ATOM     89  C   UNL     1      -4.382   5.572  17.555  1.00  0.00     0.040 A 
ATOM     90  C   UNL     1      -2.699   6.905  18.643  1.00  0.00     0.040 A 
ATOM     91  F   UNL     1      -0.504   6.925  17.824  1.00  0.00    -0.206 F 
ATOM     92  C   UNL     1      -4.018   6.468  18.559  1.00  0.00     0.006 A 
ENDBRANCH  68  85
ENDBRANCH  42  43
ENDBRANCH  35  37
ENDBRANCH  34  35
ENDBRANCH  33  34
ENDBRANCH  32  33
ENDBRANCH  31  32
ENDBRANCH  30  31
ENDBRANCH  29  30
ENDBRANCH  28  29
ENDBRANCH   1  28
TORSDOF 25
