REMARK SMILES O=C(OCCOCCOCCOCCOC(=O)[C@H]1Cc2c([nH]c3ccccc23)[C@@H](c2ccc(OC(F)(F)F)cc2)[NH2+]1)c1ccc(-c2c3nc(c(-c4c(F)cccc4F)c4ccc([nH]4)c(-c4c(F)cccc4F)c4nc(c(-c5c(F)cccc5F)c5ccc2[nH]5)C=C4)C=C3)cc1
REMARK SMILES IDX 10 1 9 2 8 3 7 4 6 5 5 6 4 7 3 8 2 9 1 10 42 11 43 12 95 13
REMARK SMILES IDX 44 14 94 15 45 16 46 17 47 18 88 19 48 20 93 21 87 22 89 23
REMARK SMILES IDX 49 24 92 25 86 26 85 27 50 29 76 30 59 31 75 32 60 33 63 34
REMARK SMILES IDX 74 35 90 36 61 37 62 38 73 40 91 41 64 42 51 43 52 44 57 45
REMARK SMILES IDX 53 46 54 47 56 48 58 49 55 50 77 51 78 52 83 53 79 54 80 55
REMARK SMILES IDX 82 56 84 57 81 58 65 59 66 60 71 61 67 62 68 63 70 64 72 65
REMARK SMILES IDX 69 66 11 67 12 68 13 69 14 70 15 71 16 72 17 73 18 74 19 75
REMARK SMILES IDX 41 76 20 77 29 78 21 81 28 82 22 83 23 84 27 85 24 87 26 88
REMARK SMILES IDX 25 89 30 90 31 91 40 92 32 93 39 94 33 95 34 96 35 97 36 98
REMARK SMILES IDX 37 99 38 100
REMARK H PARENT 89 28 63 39 41 79 41 80 22 86
REMARK Flexibility Score: inf
ROOT
ATOM      1  C   UNL     1       5.000   2.118  -2.620  1.00  0.00     0.188 C 
ENDROOT
BRANCH   1   2
ATOM      2  O   UNL     1       3.708   1.840  -3.154  1.00  0.00    -0.377 OA
BRANCH   2   3
ATOM      3  C   UNL     1       2.597   1.508  -2.342  1.00  0.00     0.188 C 
BRANCH   3   4
ATOM      4  C   UNL     1       2.794   0.263  -1.508  1.00  0.00     0.188 C 
BRANCH   4   5
ATOM      5  O   UNL     1       4.043   0.372  -0.861  1.00  0.00    -0.376 OA
BRANCH   5   6
ATOM      6  C   UNL     1       4.769  -0.770  -0.479  1.00  0.00     0.202 C 
BRANCH   6   7
ATOM      7  C   UNL     1       3.975  -1.984  -0.042  1.00  0.00     0.261 C 
BRANCH   7   8
ATOM      8  O   UNL     1       2.617  -1.795   0.431  1.00  0.00    -0.460 OA
BRANCH   8   9
ATOM      9  C   UNL     1       1.997  -1.058   1.382  1.00  0.00     0.338 C 
ATOM     10  O   UNL     1       0.789  -1.145   1.518  1.00  0.00    -0.246 OA
BRANCH   9  11
ATOM     11  C   UNL     1       2.734  -0.192   2.326  1.00  0.00     0.060 A 
ATOM     12  C   UNL     1       3.626   0.788   1.930  1.00  0.00     0.016 A 
ATOM     13  C   UNL     1       2.397  -0.254   3.680  1.00  0.00     0.016 A 
ATOM     14  C   UNL     1       4.433   1.438   2.835  1.00  0.00     0.010 A 
ATOM     15  C   UNL     1       3.073   0.545   4.606  1.00  0.00     0.010 A 
ATOM     16  C   UNL     1       4.165   1.321   4.189  1.00  0.00    -0.014 A 
BRANCH  16  17
ATOM     17  C   UNL     1       5.150   1.876   5.133  1.00  0.00     0.031 A 
ATOM     18  C   UNL     1       5.890   0.904   6.003  1.00  0.00     0.074 A 
ATOM     19  C   UNL     1       5.486   3.178   5.083  1.00  0.00     0.049 A 
ATOM     20  N   UNL     1       6.702   1.129   6.997  1.00  0.00    -0.248 NA
ATOM     21  C   UNL     1       5.680  -0.528   5.713  1.00  0.00     0.031 C 
ATOM     22  C   UNL     1       4.941   4.164   4.141  1.00  0.00     0.029 A 
ATOM     23  N   UNL     1       6.407   3.889   5.802  1.00  0.00    -0.354 N 
ATOM     24  C   UNL     1       7.030  -0.125   7.498  1.00  0.00     0.074 A 
ATOM     25  C   UNL     1       6.339  -1.108   6.700  1.00  0.00     0.031 C 
ATOM     26  C   UNL     1       5.583   5.330   4.300  1.00  0.00     0.029 A 
ATOM     27  C   UNL     1       6.489   5.210   5.432  1.00  0.00     0.049 A 
ATOM     28  H   UNL     1       6.957   3.493   6.515  1.00  0.00     0.167 HD
ATOM     29  C   UNL     1       7.831  -0.413   8.547  1.00  0.00     0.037 A 
ATOM     30  C   UNL     1       7.184   6.215   5.992  1.00  0.00     0.037 A 
ATOM     31  C   UNL     1       8.534   0.602   9.280  1.00  0.00     0.049 A 
ATOM     32  C   UNL     1       7.997   5.887   7.213  1.00  0.00     0.074 A 
ATOM     33  C   UNL     1       9.332   0.473  10.399  1.00  0.00     0.029 A 
ATOM     34  N   UNL     1       8.524   1.951   8.940  1.00  0.00    -0.354 N 
ATOM     35  N   UNL     1       8.211   4.718   7.773  1.00  0.00    -0.248 NA
ATOM     36  C   UNL     1       8.637   7.013   7.900  1.00  0.00     0.031 C 
ATOM     37  C   UNL     1       9.765   1.754  10.765  1.00  0.00     0.029 A 
ATOM     38  C   UNL     1       9.287   2.671   9.838  1.00  0.00     0.049 A 
ATOM     39  H   UNL     1       8.043   2.336   8.172  1.00  0.00     0.167 HD
ATOM     40  C   UNL     1       9.027   4.962   8.867  1.00  0.00     0.074 A 
ATOM     41  C   UNL     1       9.283   6.391   8.876  1.00  0.00     0.031 C 
ATOM     42  C   UNL     1       9.519   4.094   9.787  1.00  0.00     0.037 A 
BRANCH  29  43
ATOM     43  C   UNL     1       7.879  -1.845   8.993  1.00  0.00     0.057 A 
ATOM     44  C   UNL     1       8.487  -2.858   8.238  1.00  0.00     0.134 A 
ATOM     45  C   UNL     1       7.225  -2.228  10.172  1.00  0.00     0.134 A 
ATOM     46  F   UNL     1       9.097  -2.569   7.078  1.00  0.00    -0.206 F 
ATOM     47  C   UNL     1       8.408  -4.201   8.618  1.00  0.00     0.040 A 
ATOM     48  C   UNL     1       7.165  -3.563  10.577  1.00  0.00     0.040 A 
ATOM     49  F   UNL     1       6.610  -1.314  10.937  1.00  0.00    -0.206 F 
ATOM     50  C   UNL     1       7.746  -4.556   9.793  1.00  0.00     0.006 A 
ENDBRANCH  29  43
BRANCH  30  51
ATOM     51  C   UNL     1       7.085   7.602   5.463  1.00  0.00     0.057 A 
ATOM     52  C   UNL     1       8.201   8.265   4.941  1.00  0.00     0.134 A 
ATOM     53  C   UNL     1       5.873   8.307   5.475  1.00  0.00     0.134 A 
ATOM     54  F   UNL     1       9.396   7.656   4.914  1.00  0.00    -0.206 F 
ATOM     55  C   UNL     1       8.121   9.577   4.467  1.00  0.00     0.040 A 
ATOM     56  C   UNL     1       5.771   9.608   4.976  1.00  0.00     0.040 A 
ATOM     57  F   UNL     1       4.760   7.737   5.959  1.00  0.00    -0.206 F 
ATOM     58  C   UNL     1       6.901  10.250   4.479  1.00  0.00     0.006 A 
ENDBRANCH  30  51
BRANCH  42  59
ATOM     59  C   UNL     1      10.422   4.673  10.831  1.00  0.00     0.057 A 
ATOM     60  C   UNL     1       9.935   5.470  11.873  1.00  0.00     0.134 A 
ATOM     61  C   UNL     1      11.793   4.391  10.807  1.00  0.00     0.134 A 
ATOM     62  F   UNL     1       8.633   5.786  11.937  1.00  0.00    -0.206 F 
ATOM     63  C   UNL     1      10.789   5.991  12.844  1.00  0.00     0.040 A 
ATOM     64  C   UNL     1      12.651   4.878  11.790  1.00  0.00     0.040 A 
ATOM     65  F   UNL     1      12.315   3.623   9.838  1.00  0.00    -0.206 F 
ATOM     66  C   UNL     1      12.150   5.687  12.808  1.00  0.00     0.006 A 
ENDBRANCH  42  59
ENDBRANCH  16  17
ENDBRANCH   9  11
ENDBRANCH   8   9
ENDBRANCH   7   8
ENDBRANCH   6   7
ENDBRANCH   5   6
ENDBRANCH   4   5
ENDBRANCH   3   4
ENDBRANCH   2   3
ENDBRANCH   1   2
BRANCH   1  67
ATOM     67  C   UNL     1       5.181   3.357  -1.740  1.00  0.00     0.188 C 
BRANCH  67  68
ATOM     68  O   UNL     1       4.035   3.695  -0.992  1.00  0.00    -0.376 OA
BRANCH  68  69
ATOM     69  C   UNL     1       3.192   4.727  -1.498  1.00  0.00     0.202 C 
BRANCH  69  70
ATOM     70  C   UNL     1       3.180   5.182  -2.982  1.00  0.00     0.261 C 
BRANCH  70  71
ATOM     71  O   UNL     1       3.353   4.176  -4.008  1.00  0.00    -0.459 OA
BRANCH  71  72
ATOM     72  C   UNL     1       4.421   4.343  -4.839  1.00  0.00     0.365 C 
ATOM     73  O   UNL     1       5.181   5.313  -4.759  1.00  0.00    -0.245 OA
BRANCH  72  74
ATOM     74  C   UNL     1       4.686   3.238  -5.907  1.00  0.00     0.298 C 
ATOM     75  C   UNL     1       3.971   1.871  -5.813  1.00  0.00     0.115 C 
ATOM     76  N   UNL     1       4.667   3.918  -7.229  1.00  0.00    -0.323 N 
ATOM     77  C   UNL     1       4.263   1.052  -7.014  1.00  0.00    -0.006 A 
ATOM     78  C   UNL     1       4.351   3.148  -8.439  1.00  0.00     0.262 C 
ATOM     79  H   UNL     1       5.593   4.320  -7.369  1.00  0.00     0.347 HD
ATOM     80  H   UNL     1       3.884   4.567  -7.151  1.00  0.00     0.347 HD
ATOM     81  C   UNL     1       4.467   1.680  -8.213  1.00  0.00     0.083 A 
ATOM     82  C   UNL     1       4.408  -0.347  -7.205  1.00  0.00     0.003 A 
ATOM     83  N   UNL     1       4.704   0.716  -9.155  1.00  0.00    -0.353 N 
ATOM     84  C   UNL     1       4.629  -0.535  -8.572  1.00  0.00     0.046 A 
ATOM     85  C   UNL     1       4.352  -1.477  -6.363  1.00  0.00     0.010 A 
ATOM     86  H   UNL     1       4.898   0.887 -10.105  1.00  0.00     0.166 HD
ATOM     87  C   UNL     1       4.734  -1.809  -9.145  1.00  0.00     0.026 A 
ATOM     88  C   UNL     1       4.478  -2.756  -6.920  1.00  0.00     0.001 A 
ATOM     89  C   UNL     1       4.648  -2.916  -8.294  1.00  0.00     0.002 A 
BRANCH  78  90
ATOM     90  C   UNL     1       2.975   3.589  -8.935  1.00  0.00     0.016 A 
ATOM     91  C   UNL     1       1.943   2.696  -9.259  1.00  0.00     0.014 A 
ATOM     92  C   UNL     1       2.719   4.964  -9.076  1.00  0.00     0.014 A 
ATOM     93  C   UNL     1       0.716   3.164  -9.732  1.00  0.00     0.047 A 
ATOM     94  C   UNL     1       1.485   5.433  -9.528  1.00  0.00     0.047 A 
ATOM     95  C   UNL     1       0.483   4.532  -9.879  1.00  0.00     0.129 A 
BRANCH  95  96
ATOM     96  O   UNL     1      -0.750   4.847 -10.371  1.00  0.00    -0.406 OA
BRANCH  96  97
ATOM     97  C   UNL     1      -1.032   6.220 -10.574  1.00  0.00     0.573 C 
ATOM     98  F   UNL     1      -1.054   6.888  -9.400  1.00  0.00    -0.132 F 
ATOM     99  F   UNL     1      -0.134   6.793 -11.404  1.00  0.00    -0.132 F 
ATOM    100  F   UNL     1      -2.253   6.330 -11.143  1.00  0.00    -0.132 F 
ENDBRANCH  96  97
ENDBRANCH  95  96
ENDBRANCH  78  90
ENDBRANCH  72  74
ENDBRANCH  71  72
ENDBRANCH  70  71
ENDBRANCH  69  70
ENDBRANCH  68  69
ENDBRANCH  67  68
ENDBRANCH   1  67
TORSDOF 23
