REMARK SMILES O=C(OCCOCCOCCOCCOC(=O)[C@H]1CCC(=O)N(C2CCCCC2)[C@H]1c1ccccc1)c1ccc(-c2c3nc(c(-c4c(F)cccc4F)c4ccc([nH]4)c(-c4c(F)cccc4F)c4nc(c(-c5c(F)cccc5F)c5ccc2[nH]5)C=C4)C=C3)cc1
REMARK SMILES IDX 8 1 7 2 6 3 5 4 4 5 3 6 2 7 1 8 37 9 38 10 90 11 39 12 89 13
REMARK SMILES IDX 40 14 41 15 42 16 83 17 43 18 88 19 82 20 84 21 44 22 87 23
REMARK SMILES IDX 81 24 80 25 45 27 71 28 54 29 70 30 55 31 58 32 69 33 85 34
REMARK SMILES IDX 56 35 57 36 68 38 86 39 59 40 46 41 47 42 52 43 48 44 49 45
REMARK SMILES IDX 51 46 53 47 50 48 72 49 73 50 78 51 74 52 75 53 77 54 79 55
REMARK SMILES IDX 76 56 60 57 61 58 66 59 62 60 63 61 65 62 67 63 64 64 9 65
REMARK SMILES IDX 10 66 11 67 12 68 13 69 14 70 15 71 16 72 17 73 18 74 19 75
REMARK SMILES IDX 30 76 20 77 23 78 21 79 22 80 31 81 32 82 36 83 33 84 35 85
REMARK SMILES IDX 34 86 24 87 25 88 29 89 26 90 28 91 27 92
REMARK H PARENT 84 26 58 37
REMARK Flexibility Score: inf
ROOT
ATOM      1  C   UNL     1       7.456  -2.552   2.249  1.00  0.00     0.188 C 
ENDROOT
BRANCH   1   2
ATOM      2  C   UNL     1       6.597  -3.085   1.096  1.00  0.00     0.188 C 
BRANCH   2   3
ATOM      3  O   UNL     1       5.536  -2.188   0.782  1.00  0.00    -0.376 OA
BRANCH   3   4
ATOM      4  C   UNL     1       4.248  -2.749   0.555  1.00  0.00     0.202 C 
BRANCH   4   5
ATOM      5  C   UNL     1       4.069  -3.391  -0.813  1.00  0.00     0.261 C 
BRANCH   5   6
ATOM      6  O   UNL     1       5.300  -3.681  -1.487  1.00  0.00    -0.460 OA
BRANCH   6   7
ATOM      7  C   UNL     1       6.171  -2.842  -2.094  1.00  0.00     0.338 C 
ATOM      8  O   UNL     1       7.246  -3.304  -2.477  1.00  0.00    -0.246 OA
BRANCH   7   9
ATOM      9  C   UNL     1       5.906  -1.404  -2.395  1.00  0.00     0.060 A 
ATOM     10  C   UNL     1       5.213  -0.504  -1.585  1.00  0.00     0.016 A 
ATOM     11  C   UNL     1       6.528  -0.899  -3.550  1.00  0.00     0.016 A 
ATOM     12  C   UNL     1       5.099   0.838  -1.916  1.00  0.00     0.010 A 
ATOM     13  C   UNL     1       6.439   0.454  -3.885  1.00  0.00     0.010 A 
ATOM     14  C   UNL     1       5.705   1.319  -3.069  1.00  0.00    -0.014 A 
BRANCH  14  15
ATOM     15  C   UNL     1       5.411   2.701  -3.473  1.00  0.00     0.031 A 
ATOM     16  C   UNL     1       4.424   2.896  -4.579  1.00  0.00     0.074 A 
ATOM     17  C   UNL     1       5.919   3.729  -2.772  1.00  0.00     0.049 A 
ATOM     18  N   UNL     1       4.080   3.990  -5.197  1.00  0.00    -0.248 NA
ATOM     19  C   UNL     1       3.714   1.689  -5.045  1.00  0.00     0.031 C 
ATOM     20  C   UNL     1       6.762   3.605  -1.578  1.00  0.00     0.029 A 
ATOM     21  N   UNL     1       5.788   5.079  -2.948  1.00  0.00    -0.354 N 
ATOM     22  C   UNL     1       3.153   3.597  -6.153  1.00  0.00     0.074 A 
ATOM     23  C   UNL     1       2.969   2.172  -6.026  1.00  0.00     0.031 C 
ATOM     24  C   UNL     1       7.073   4.833  -1.132  1.00  0.00     0.029 A 
ATOM     25  C   UNL     1       6.526   5.819  -2.055  1.00  0.00     0.049 A 
ATOM     26  H   UNL     1       5.220   5.481  -3.645  1.00  0.00     0.167 HD
ATOM     27  C   UNL     1       2.535   4.375  -7.067  1.00  0.00     0.037 A 
ATOM     28  C   UNL     1       6.775   7.141  -2.045  1.00  0.00     0.037 A 
ATOM     29  C   UNL     1       2.743   5.793  -7.146  1.00  0.00     0.049 A 
ATOM     30  C   UNL     1       6.163   7.968  -3.146  1.00  0.00     0.074 A 
ATOM     31  C   UNL     1       2.219   6.698  -8.047  1.00  0.00     0.029 A 
ATOM     32  N   UNL     1       3.555   6.508  -6.274  1.00  0.00    -0.354 N 
ATOM     33  N   UNL     1       5.335   7.595  -4.096  1.00  0.00    -0.248 NA
ATOM     34  C   UNL     1       6.537   9.385  -3.198  1.00  0.00     0.031 C 
ATOM     35  C   UNL     1       2.760   7.954  -7.753  1.00  0.00     0.029 A 
ATOM     36  C   UNL     1       3.576   7.840  -6.636  1.00  0.00     0.049 A 
ATOM     37  H   UNL     1       4.043   6.122  -5.511  1.00  0.00     0.167 HD
ATOM     38  C   UNL     1       5.082   8.730  -4.852  1.00  0.00     0.074 A 
ATOM     39  C   UNL     1       5.821   9.811  -4.229  1.00  0.00     0.031 C 
ATOM     40  C   UNL     1       4.324   8.875  -5.967  1.00  0.00     0.037 A 
BRANCH  27  41
ATOM     41  C   UNL     1       1.674   3.695  -8.086  1.00  0.00     0.057 A 
ATOM     42  C   UNL     1       0.414   3.167  -7.780  1.00  0.00     0.134 A 
ATOM     43  C   UNL     1       2.131   3.555  -9.403  1.00  0.00     0.134 A 
ATOM     44  F   UNL     1      -0.066   3.234  -6.529  1.00  0.00    -0.206 F 
ATOM     45  C   UNL     1      -0.358   2.517  -8.746  1.00  0.00     0.040 A 
ATOM     46  C   UNL     1       1.361   2.927 -10.382  1.00  0.00     0.040 A 
ATOM     47  F   UNL     1       3.337   4.023  -9.758  1.00  0.00    -0.206 F 
ATOM     48  C   UNL     1       0.113   2.403 -10.054  1.00  0.00     0.006 A 
ENDBRANCH  27  41
BRANCH  28  49
ATOM     49  C   UNL     1       7.710   7.740  -1.054  1.00  0.00     0.057 A 
ATOM     50  C   UNL     1       7.293   8.727  -0.153  1.00  0.00     0.134 A 
ATOM     51  C   UNL     1       9.065   7.382  -1.023  1.00  0.00     0.134 A 
ATOM     52  F   UNL     1       6.015   9.133  -0.139  1.00  0.00    -0.206 F 
ATOM     53  C   UNL     1       8.191   9.355   0.716  1.00  0.00     0.040 A 
ATOM     54  C   UNL     1       9.966   7.976  -0.138  1.00  0.00     0.040 A 
ATOM     55  F   UNL     1       9.539   6.445  -1.858  1.00  0.00    -0.206 F 
ATOM     56  C   UNL     1       9.532   8.978   0.726  1.00  0.00     0.006 A 
ENDBRANCH  28  49
BRANCH  40  57
ATOM     57  C   UNL     1       4.249  10.250  -6.553  1.00  0.00     0.057 A 
ATOM     58  C   UNL     1       5.325  10.810  -7.249  1.00  0.00     0.134 A 
ATOM     59  C   UNL     1       3.064  10.991  -6.471  1.00  0.00     0.134 A 
ATOM     60  F   UNL     1       6.490  10.151  -7.347  1.00  0.00    -0.206 F 
ATOM     61  C   UNL     1       5.232  12.072  -7.832  1.00  0.00     0.040 A 
ATOM     62  C   UNL     1       2.948  12.240  -7.076  1.00  0.00     0.040 A 
ATOM     63  F   UNL     1       1.995  10.500  -5.825  1.00  0.00    -0.206 F 
ATOM     64  C   UNL     1       4.036  12.786  -7.755  1.00  0.00     0.006 A 
ENDBRANCH  40  57
ENDBRANCH  14  15
ENDBRANCH   7   9
ENDBRANCH   6   7
ENDBRANCH   5   6
ENDBRANCH   4   5
ENDBRANCH   3   4
ENDBRANCH   2   3
ENDBRANCH   1   2
BRANCH   1  65
ATOM     65  O   UNL     1       6.812  -2.414   3.515  1.00  0.00    -0.377 OA
BRANCH  65  66
ATOM     66  C   UNL     1       5.518  -1.825   3.518  1.00  0.00     0.188 C 
BRANCH  66  67
ATOM     67  C   UNL     1       5.325  -0.419   2.898  1.00  0.00     0.188 C 
BRANCH  67  68
ATOM     68  O   UNL     1       6.449   0.084   2.190  1.00  0.00    -0.376 OA
BRANCH  68  69
ATOM     69  C   UNL     1       7.124   1.196   2.762  1.00  0.00     0.202 C 
BRANCH  69  70
ATOM     70  C   UNL     1       7.929   0.887   4.043  1.00  0.00     0.261 C 
BRANCH  70  71
ATOM     71  O   UNL     1       7.179   0.319   5.138  1.00  0.00    -0.463 OA
BRANCH  71  72
ATOM     72  C   UNL     1       6.117   1.062   5.537  1.00  0.00     0.311 C 
ATOM     73  O   UNL     1       5.843   2.130   5.018  1.00  0.00    -0.252 OA
BRANCH  72  74
ATOM     74  C   UNL     1       5.176   0.294   6.448  1.00  0.00     0.127 C 
ATOM     75  C   UNL     1       5.844  -0.558   7.512  1.00  0.00     0.028 C 
ATOM     76  C   UNL     1       4.062   1.173   7.038  1.00  0.00     0.130 C 
ATOM     77  C   UNL     1       4.800  -1.455   8.150  1.00  0.00     0.101 C 
ATOM     78  N   UNL     1       3.110   0.358   7.825  1.00  0.00    -0.332 N 
ATOM     79  C   UNL     1       3.485  -0.790   8.517  1.00  0.00     0.223 C 
ATOM     80  O   UNL     1       2.748  -1.361   9.323  1.00  0.00    -0.275 OA
BRANCH  76  81
ATOM     81  C   UNL     1       4.568   2.416   7.769  1.00  0.00    -0.025 A 
ATOM     82  C   UNL     1       4.861   2.440   9.135  1.00  0.00     0.006 A 
ATOM     83  C   UNL     1       4.844   3.581   7.025  1.00  0.00     0.006 A 
ATOM     84  C   UNL     1       5.481   3.557   9.707  1.00  0.00     0.000 A 
ATOM     85  C   UNL     1       5.552   4.649   7.567  1.00  0.00     0.000 A 
ATOM     86  C   UNL     1       5.871   4.637   8.915  1.00  0.00     0.000 A 
ENDBRANCH  76  81
BRANCH  78  87
ATOM     87  C   UNL     1       1.727   0.869   7.933  1.00  0.00     0.085 C 
ATOM     88  C   UNL     1       0.683  -0.148   7.427  1.00  0.00     0.025 C 
ATOM     89  C   UNL     1       1.392   1.392   9.336  1.00  0.00     0.025 C 
ATOM     90  C   UNL     1      -0.740   0.396   7.536  1.00  0.00     0.002 C 
ATOM     91  C   UNL     1      -0.030   1.939   9.397  1.00  0.00     0.002 C 
ATOM     92  C   UNL     1      -1.045   0.895   8.946  1.00  0.00     0.000 C 
ENDBRANCH  78  87
ENDBRANCH  72  74
ENDBRANCH  71  72
ENDBRANCH  70  71
ENDBRANCH  69  70
ENDBRANCH  68  69
ENDBRANCH  67  68
ENDBRANCH  66  67
ENDBRANCH  65  66
ENDBRANCH   1  65
TORSDOF 22
