REMARK SMILES CC(C)=CC[C@@]1(C(=O)OCCOCCOCCOCCOC(=O)c2ccc(-c3c4nc(c(-c5c(F)cccc5F)c5ccc([nH]5)c(-c5c(F)cccc5F)c5nc(c(-c6c(F)cccc6F)c6ccc3[nH]6)C=C5)C=C4)cc2)CCC[C@H](C)C1
REMARK SMILES IDX 15 1 14 2 13 3 12 4 11 5 10 6 9 7 7 8 8 9 6 10 78 11 83 12
REMARK SMILES IDX 79 13 81 14 80 15 82 16 5 17 4 18 1 19 2 20 3 21 16 22 17 23
REMARK SMILES IDX 18 24 19 25 20 26 21 27 22 28 23 29 24 30 25 31 77 32 26 33
REMARK SMILES IDX 76 34 27 35 28 36 29 37 70 38 30 39 75 40 69 41 71 42 31 43
REMARK SMILES IDX 74 44 68 45 67 46 32 48 58 49 41 50 57 51 42 52 45 53 56 54
REMARK SMILES IDX 72 55 43 56 44 57 55 59 73 60 46 61 33 62 34 63 39 64 35 65
REMARK SMILES IDX 36 66 38 67 40 68 37 69 59 70 60 71 65 72 61 73 62 74 64 75
REMARK SMILES IDX 66 76 63 77 47 78 48 79 53 80 49 81 50 82 52 83 54 84 51 85
REMARK H PARENT 71 47 45 58
REMARK Flexibility Score: inf
ROOT
ATOM      1  O   UNL     1       5.423   2.514  -2.289  1.00  0.00    -0.377 OA
ENDROOT
BRANCH   1   2
ATOM      2  C   UNL     1       4.250   2.119  -1.588  1.00  0.00     0.188 C 
BRANCH   2   3
ATOM      3  C   UNL     1       2.928   1.787  -2.328  1.00  0.00     0.188 C 
BRANCH   3   4
ATOM      4  O   UNL     1       2.561   2.652  -3.395  1.00  0.00    -0.376 OA
BRANCH   4   5
ATOM      5  C   UNL     1       1.706   3.759  -3.131  1.00  0.00     0.202 C 
BRANCH   5   6
ATOM      6  C   UNL     1       2.006   4.589  -1.881  1.00  0.00     0.261 C 
BRANCH   6   7
ATOM      7  O   UNL     1       2.000   3.792  -0.680  1.00  0.00    -0.463 OA
BRANCH   7   8
ATOM      8  C   UNL     1       0.789   3.439  -0.184  1.00  0.00     0.312 C 
ATOM      9  O   UNL     1      -0.255   3.936  -0.588  1.00  0.00    -0.252 OA
BRANCH   8  10
ATOM     10  C   UNL     1       0.908   2.437   0.994  1.00  0.00     0.072 C 
ATOM     11  C   UNL     1       1.578   3.306   2.104  1.00  0.00     0.019 C 
ATOM     12  C   UNL     1       1.792   1.164   0.835  1.00  0.00     0.022 C 
ATOM     13  C   UNL     1       1.955   2.585   3.395  1.00  0.00     0.001 C 
ATOM     14  C   UNL     1       2.036   0.400   2.158  1.00  0.00    -0.013 C 
ATOM     15  C   UNL     1       2.759   1.316   3.145  1.00  0.00     0.003 C 
ATOM     16  C   UNL     1       2.817  -0.904   1.951  1.00  0.00     0.007 C 
BRANCH  10  17
ATOM     17  C   UNL     1      -0.550   2.001   1.320  1.00  0.00     0.046 C 
BRANCH  17  18
ATOM     18  C   UNL     1      -1.403   1.125   0.391  1.00  0.00    -0.027 C 
ATOM     19  C   UNL     1      -0.319   0.873  -1.933  1.00  0.00     0.039 C 
ATOM     20  C   UNL     1      -1.354   0.649  -0.878  1.00  0.00    -0.080 C 
ATOM     21  C   UNL     1      -2.508  -0.183  -1.394  1.00  0.00     0.039 C 
ENDBRANCH  17  18
ENDBRANCH  10  17
ENDBRANCH   8  10
ENDBRANCH   7   8
ENDBRANCH   6   7
ENDBRANCH   5   6
ENDBRANCH   4   5
ENDBRANCH   3   4
ENDBRANCH   2   3
ENDBRANCH   1   2
BRANCH   1  22
ATOM     22  C   UNL     1       5.249   2.965  -3.618  1.00  0.00     0.188 C 
BRANCH  22  23
ATOM     23  C   UNL     1       5.171   1.815  -4.640  1.00  0.00     0.188 C 
BRANCH  23  24
ATOM     24  O   UNL     1       4.613   0.637  -4.088  1.00  0.00    -0.376 OA
BRANCH  24  25
ATOM     25  C   UNL     1       5.412  -0.500  -3.819  1.00  0.00     0.202 C 
BRANCH  25  26
ATOM     26  C   UNL     1       6.689  -0.450  -2.960  1.00  0.00     0.261 C 
BRANCH  26  27
ATOM     27  O   UNL     1       7.408   0.777  -2.903  1.00  0.00    -0.460 OA
BRANCH  27  28
ATOM     28  C   UNL     1       8.215   1.085  -3.935  1.00  0.00     0.338 C 
ATOM     29  O   UNL     1       8.425   0.423  -4.936  1.00  0.00    -0.246 OA
BRANCH  28  30
ATOM     30  C   UNL     1       8.637   2.486  -3.735  1.00  0.00     0.060 A 
ATOM     31  C   UNL     1       8.373   3.420  -4.748  1.00  0.00     0.016 A 
ATOM     32  C   UNL     1       9.211   2.888  -2.526  1.00  0.00     0.016 A 
ATOM     33  C   UNL     1       8.661   4.768  -4.544  1.00  0.00     0.010 A 
ATOM     34  C   UNL     1       9.566   4.223  -2.349  1.00  0.00     0.010 A 
ATOM     35  C   UNL     1       9.314   5.158  -3.368  1.00  0.00    -0.014 A 
BRANCH  35  36
ATOM     36  C   UNL     1      10.048   6.440  -3.343  1.00  0.00     0.031 A 
ATOM     37  C   UNL     1      11.436   6.422  -3.916  1.00  0.00     0.074 A 
ATOM     38  C   UNL     1       9.535   7.553  -2.795  1.00  0.00     0.049 A 
ATOM     39  N   UNL     1      12.360   7.343  -3.892  1.00  0.00    -0.248 NA
ATOM     40  C   UNL     1      11.839   5.180  -4.601  1.00  0.00     0.031 C 
ATOM     41  C   UNL     1       8.184   7.692  -2.256  1.00  0.00     0.029 A 
ATOM     42  N   UNL     1      10.116   8.776  -2.580  1.00  0.00    -0.354 N 
ATOM     43  C   UNL     1      13.448   6.790  -4.553  1.00  0.00     0.074 A 
ATOM     44  C   UNL     1      13.085   5.450  -4.947  1.00  0.00     0.031 C 
ATOM     45  C   UNL     1       8.052   8.926  -1.735  1.00  0.00     0.029 A 
ATOM     46  C   UNL     1       9.320   9.642  -1.870  1.00  0.00     0.049 A 
ATOM     47  H   UNL     1      11.016   9.011  -2.902  1.00  0.00     0.167 HD
ATOM     48  C   UNL     1      14.652   7.349  -4.806  1.00  0.00     0.037 A 
ATOM     49  C   UNL     1       9.611  10.854  -1.357  1.00  0.00     0.037 A 
ATOM     50  C   UNL     1      15.020   8.664  -4.368  1.00  0.00     0.049 A 
ATOM     51  C   UNL     1      10.992  11.426  -1.566  1.00  0.00     0.074 A 
ATOM     52  C   UNL     1      16.220   9.326  -4.541  1.00  0.00     0.029 A 
ATOM     53  N   UNL     1      14.187   9.509  -3.650  1.00  0.00    -0.354 N 
ATOM     54  N   UNL     1      12.016  10.906  -2.200  1.00  0.00    -0.248 NA
ATOM     55  C   UNL     1      11.261  12.750  -0.984  1.00  0.00     0.031 C 
ATOM     56  C   UNL     1      16.129  10.557  -3.886  1.00  0.00     0.029 A 
ATOM     57  C   UNL     1      14.853  10.685  -3.358  1.00  0.00     0.049 A 
ATOM     58  H   UNL     1      13.261   9.303  -3.388  1.00  0.00     0.167 HD
ATOM     59  C   UNL     1      13.033  11.851  -2.129  1.00  0.00     0.074 A 
ATOM     60  C   UNL     1      12.505  12.975  -1.385  1.00  0.00     0.031 C 
ATOM     61  C   UNL     1      14.289  11.799  -2.639  1.00  0.00     0.037 A 
BRANCH  48  62
ATOM     62  C   UNL     1      15.650   6.509  -5.543  1.00  0.00     0.057 A 
ATOM     63  C   UNL     1      15.484   6.181  -6.896  1.00  0.00     0.134 A 
ATOM     64  C   UNL     1      16.775   5.998  -4.886  1.00  0.00     0.134 A 
ATOM     65  F   UNL     1      14.410   6.614  -7.574  1.00  0.00    -0.206 F 
ATOM     66  C   UNL     1      16.387   5.351  -7.560  1.00  0.00     0.040 A 
ATOM     67  C   UNL     1      17.701   5.191  -5.548  1.00  0.00     0.040 A 
ATOM     68  F   UNL     1      16.988   6.266  -3.589  1.00  0.00    -0.206 F 
ATOM     69  C   UNL     1      17.503   4.858  -6.887  1.00  0.00     0.006 A 
ENDBRANCH  48  62
BRANCH  49  70
ATOM     70  C   UNL     1       8.591  11.595  -0.571  1.00  0.00     0.057 A 
ATOM     71  C   UNL     1       8.015  12.774  -1.056  1.00  0.00     0.134 A 
ATOM     72  C   UNL     1       8.178  11.150   0.691  1.00  0.00     0.134 A 
ATOM     73  F   UNL     1       8.386  13.266  -2.247  1.00  0.00    -0.206 F 
ATOM     74  C   UNL     1       7.077  13.492  -0.310  1.00  0.00     0.040 A 
ATOM     75  C   UNL     1       7.223  11.844   1.437  1.00  0.00     0.040 A 
ATOM     76  F   UNL     1       8.691  10.027   1.215  1.00  0.00    -0.206 F 
ATOM     77  C   UNL     1       6.675  13.023   0.939  1.00  0.00     0.006 A 
ENDBRANCH  49  70
BRANCH  61  78
ATOM     78  C   UNL     1      15.162  13.007  -2.477  1.00  0.00     0.057 A 
ATOM     79  C   UNL     1      15.770  13.328  -1.259  1.00  0.00     0.134 A 
ATOM     80  C   UNL     1      15.485  13.793  -3.592  1.00  0.00     0.134 A 
ATOM     81  F   UNL     1      15.497  12.617  -0.154  1.00  0.00    -0.206 F 
ATOM     82  C   UNL     1      16.666  14.393  -1.153  1.00  0.00     0.040 A 
ATOM     83  C   UNL     1      16.398  14.843  -3.504  1.00  0.00     0.040 A 
ATOM     84  F   UNL     1      14.945  13.527  -4.792  1.00  0.00    -0.206 F 
ATOM     85  C   UNL     1      16.991  15.146  -2.281  1.00  0.00     0.006 A 
ENDBRANCH  61  78
ENDBRANCH  35  36
ENDBRANCH  28  30
ENDBRANCH  27  28
ENDBRANCH  26  27
ENDBRANCH  25  26
ENDBRANCH  24  25
ENDBRANCH  23  24
ENDBRANCH  22  23
ENDBRANCH   1  22
TORSDOF 22
