REMARK SMILES CC1(C)CCC[C@@](C)(CCC(=O)OCCOCCOCCOCCOC(=O)c2ccc(-c3c4nc(c(-c5c(F)cccc5F)c5ccc([nH]5)c(-c5c(F)cccc5F)c5nc(c(-c6c(F)cccc6F)c6ccc3[nH]6)C=C5)C=C4)cc2)C1=O
REMARK SMILES IDX 19 1 18 2 17 3 16 4 15 5 14 6 13 7 11 8 12 9 10 10 9 11 7 12
REMARK SMILES IDX 1 13 2 14 3 15 4 16 82 17 5 18 83 19 6 20 8 21 20 22 21 23
REMARK SMILES IDX 22 24 23 25 24 26 25 27 26 28 27 29 28 30 29 31 81 32 30 33
REMARK SMILES IDX 80 34 31 35 32 36 33 37 74 38 34 39 79 40 73 41 75 42 35 43
REMARK SMILES IDX 78 44 72 45 71 46 36 48 62 49 45 50 61 51 46 52 49 53 60 54
REMARK SMILES IDX 76 55 47 56 48 57 59 59 77 60 50 61 37 62 38 63 43 64 39 65
REMARK SMILES IDX 40 66 42 67 44 68 41 69 63 70 64 71 69 72 65 73 66 74 68 75
REMARK SMILES IDX 70 76 67 77 51 78 52 79 57 80 53 81 54 82 56 83 58 84 55 85
REMARK H PARENT 75 47 49 58
REMARK Flexibility Score: inf
ROOT
ATOM      1  O   UNL     1       1.031   4.356   1.819  1.00  0.00    -0.377 OA
ENDROOT
BRANCH   1   2
ATOM      2  C   UNL     1       1.573   3.905   3.050  1.00  0.00     0.188 C 
BRANCH   2   3
ATOM      3  C   UNL     1       2.830   4.647   3.518  1.00  0.00     0.188 C 
BRANCH   3   4
ATOM      4  O   UNL     1       2.793   6.065   3.534  1.00  0.00    -0.376 OA
BRANCH   4   5
ATOM      5  C   UNL     1       2.529   6.742   2.310  1.00  0.00     0.202 C 
BRANCH   5   6
ATOM      6  C   UNL     1       3.354   6.398   1.054  1.00  0.00     0.261 C 
BRANCH   6   7
ATOM      7  O   UNL     1       3.316   5.015   0.628  1.00  0.00    -0.463 OA
BRANCH   7   8
ATOM      8  C   UNL     1       4.503   4.367   0.612  1.00  0.00     0.305 C 
ATOM      9  O   UNL     1       5.569   4.879   0.945  1.00  0.00    -0.252 OA
BRANCH   8  10
ATOM     10  C   UNL     1       4.453   2.901   0.223  1.00  0.00     0.124 C 
BRANCH  10  11
ATOM     11  C   UNL     1       3.182   2.152  -0.205  1.00  0.00     0.026 C 
BRANCH  11  12
ATOM     12  C   UNL     1       2.489   2.438  -1.573  1.00  0.00     0.027 C 
ATOM     13  C   UNL     1       1.182  -0.414  -0.395  1.00  0.00     0.019 C 
ATOM     14  C   UNL     1       0.820   0.337  -1.687  1.00  0.00     0.024 C 
ATOM     15  C   UNL     1       0.339  -0.709  -2.715  1.00  0.00     0.019 C 
ATOM     16  C   UNL     1      -0.344   1.311  -1.475  1.00  0.00     0.014 C 
ATOM     17  C   UNL     1       2.061   1.089  -2.235  1.00  0.00     0.144 C 
ATOM     18  C   UNL     1       0.061   2.578  -0.753  1.00  0.00     0.002 C 
ATOM     19  O   UNL     1       2.742   0.587  -3.134  1.00  0.00    -0.298 OA
ATOM     20  C   UNL     1       1.219   3.297  -1.433  1.00  0.00     0.014 C 
ATOM     21  C   UNL     1       3.444   3.170  -2.538  1.00  0.00     0.020 C 
ENDBRANCH  11  12
ENDBRANCH  10  11
ENDBRANCH   8  10
ENDBRANCH   7   8
ENDBRANCH   6   7
ENDBRANCH   5   6
ENDBRANCH   4   5
ENDBRANCH   3   4
ENDBRANCH   2   3
ENDBRANCH   1   2
BRANCH   1  22
ATOM     22  C   UNL     1      -0.299   4.867   1.754  1.00  0.00     0.188 C 
BRANCH  22  23
ATOM     23  C   UNL     1      -1.188   4.903   2.994  1.00  0.00     0.188 C 
BRANCH  23  24
ATOM     24  O   UNL     1      -1.423   3.690   3.709  1.00  0.00    -0.376 OA
BRANCH  24  25
ATOM     25  C   UNL     1      -1.313   2.435   3.045  1.00  0.00     0.202 C 
BRANCH  25  26
ATOM     26  C   UNL     1      -2.612   1.920   2.440  1.00  0.00     0.261 C 
BRANCH  26  27
ATOM     27  O   UNL     1      -2.856   2.547   1.172  1.00  0.00    -0.460 OA
BRANCH  27  28
ATOM     28  C   UNL     1      -3.723   3.577   1.208  1.00  0.00     0.338 C 
ATOM     29  O   UNL     1      -4.354   3.988   2.173  1.00  0.00    -0.246 OA
BRANCH  28  30
ATOM     30  C   UNL     1      -3.722   4.266  -0.089  1.00  0.00     0.060 A 
ATOM     31  C   UNL     1      -3.682   5.665  -0.076  1.00  0.00     0.016 A 
ATOM     32  C   UNL     1      -3.860   3.562  -1.289  1.00  0.00     0.016 A 
ATOM     33  C   UNL     1      -3.878   6.370  -1.256  1.00  0.00     0.010 A 
ATOM     34  C   UNL     1      -4.054   4.272  -2.475  1.00  0.00     0.010 A 
ATOM     35  C   UNL     1      -4.129   5.676  -2.446  1.00  0.00    -0.014 A 
BRANCH  35  36
ATOM     36  C   UNL     1      -4.710   6.415  -3.588  1.00  0.00     0.031 A 
ATOM     37  C   UNL     1      -6.197   6.338  -3.806  1.00  0.00     0.074 A 
ATOM     38  C   UNL     1      -3.943   7.188  -4.373  1.00  0.00     0.049 A 
ATOM     39  N   UNL     1      -6.932   6.895  -4.733  1.00  0.00    -0.248 NA
ATOM     40  C   UNL     1      -6.956   5.517  -2.848  1.00  0.00     0.031 C 
ATOM     41  C   UNL     1      -2.502   7.375  -4.225  1.00  0.00     0.029 A 
ATOM     42  N   UNL     1      -4.279   7.960  -5.454  1.00  0.00    -0.354 N 
ATOM     43  C   UNL     1      -8.235   6.482  -4.477  1.00  0.00     0.074 A 
ATOM     44  C   UNL     1      -8.184   5.598  -3.334  1.00  0.00     0.031 C 
ATOM     45  C   UNL     1      -2.073   8.207  -5.188  1.00  0.00     0.029 A 
ATOM     46  C   UNL     1      -3.204   8.581  -6.036  1.00  0.00     0.049 A 
ATOM     47  H   UNL     1      -5.202   8.059  -5.781  1.00  0.00     0.167 HD
ATOM     48  C   UNL     1      -9.372   6.819  -5.130  1.00  0.00     0.037 A 
ATOM     49  C   UNL     1      -3.142   9.348  -7.141  1.00  0.00     0.037 A 
ATOM     50  C   UNL     1      -9.412   7.699  -6.267  1.00  0.00     0.049 A 
ATOM     51  C   UNL     1      -4.409   9.657  -7.892  1.00  0.00     0.074 A 
ATOM     52  C   UNL     1     -10.510   8.122  -6.994  1.00  0.00     0.029 A 
ATOM     53  N   UNL     1      -8.296   8.284  -6.851  1.00  0.00    -0.354 N 
ATOM     54  N   UNL     1      -5.640   9.283  -7.633  1.00  0.00    -0.248 NA
ATOM     55  C   UNL     1      -4.280  10.505  -9.085  1.00  0.00     0.031 C 
ATOM     56  C   UNL     1     -10.053   8.909  -8.056  1.00  0.00     0.029 A 
ATOM     57  C   UNL     1      -8.677   9.039  -7.947  1.00  0.00     0.049 A 
ATOM     58  H   UNL     1      -7.371   8.178  -6.532  1.00  0.00     0.167 HD
ATOM     59  C   UNL     1      -6.434   9.875  -8.608  1.00  0.00     0.074 A 
ATOM     60  C   UNL     1      -5.545  10.641  -9.457  1.00  0.00     0.031 C 
ATOM     61  C   UNL     1      -7.778   9.798  -8.781  1.00  0.00     0.037 A 
BRANCH  48  62
ATOM     62  C   UNL     1     -10.652   6.192  -4.652  1.00  0.00     0.057 A 
ATOM     63  C   UNL     1     -11.222   6.504  -3.410  1.00  0.00     0.134 A 
ATOM     64  C   UNL     1     -11.321   5.254  -5.449  1.00  0.00     0.134 A 
ATOM     65  F   UNL     1     -10.625   7.381  -2.588  1.00  0.00    -0.206 F 
ATOM     66  C   UNL     1     -12.388   5.879  -2.963  1.00  0.00     0.040 A 
ATOM     67  C   UNL     1     -12.506   4.648  -5.027  1.00  0.00     0.040 A 
ATOM     68  F   UNL     1     -10.835   4.909  -6.650  1.00  0.00    -0.206 F 
ATOM     69  C   UNL     1     -13.037   4.952  -3.776  1.00  0.00     0.006 A 
ENDBRANCH  48  62
BRANCH  49  70
ATOM     70  C   UNL     1      -1.831   9.870  -7.601  1.00  0.00     0.057 A 
ATOM     71  C   UNL     1      -1.528  11.235  -7.542  1.00  0.00     0.134 A 
ATOM     72  C   UNL     1      -0.847   9.012  -8.108  1.00  0.00     0.134 A 
ATOM     73  F   UNL     1      -2.436  12.109  -7.084  1.00  0.00    -0.206 F 
ATOM     74  C   UNL     1      -0.299  11.730  -7.982  1.00  0.00     0.040 A 
ATOM     75  C   UNL     1       0.396   9.490  -8.526  1.00  0.00     0.040 A 
ATOM     76  F   UNL     1      -1.073   7.693  -8.186  1.00  0.00    -0.206 F 
ATOM     77  C   UNL     1       0.669  10.855  -8.470  1.00  0.00     0.006 A 
ENDBRANCH  49  70
BRANCH  61  78
ATOM     78  C   UNL     1      -8.376  10.602  -9.902  1.00  0.00     0.057 A 
ATOM     79  C   UNL     1      -8.171  10.276 -11.249  1.00  0.00     0.134 A 
ATOM     80  C   UNL     1      -9.200  11.701  -9.623  1.00  0.00     0.134 A 
ATOM     81  F   UNL     1      -7.386   9.242 -11.587  1.00  0.00    -0.206 F 
ATOM     82  C   UNL     1      -8.737  11.033 -12.277  1.00  0.00     0.040 A 
ATOM     83  C   UNL     1      -9.799  12.444 -10.641  1.00  0.00     0.040 A 
ATOM     84  F   UNL     1      -9.450  12.062  -8.355  1.00  0.00    -0.206 F 
ATOM     85  C   UNL     1      -9.559  12.117 -11.973  1.00  0.00     0.006 A 
ENDBRANCH  61  78
ENDBRANCH  35  36
ENDBRANCH  28  30
ENDBRANCH  27  28
ENDBRANCH  26  27
ENDBRANCH  25  26
ENDBRANCH  24  25
ENDBRANCH  23  24
ENDBRANCH  22  23
ENDBRANCH   1  22
TORSDOF 22
