REMARK SMILES Cc1ccc(O)c(C(=O)NCc2ccc(C(=O)OCCOCCOCCOCCOC(=O)c3ccc(-c4c5nc(c(-c6c(F)cccc6F)c6ccc([nH]6)c(-c6c(F)cccc6F)c6nc(c(-c7c(F)cccc7F)c7ccc4[nH]7)C=C6)C=C5)cc3)o2)c1
REMARK SMILES IDX 23 1 22 2 21 3 20 4 19 5 18 6 16 7 17 8 15 9 12 10 13 11
REMARK SMILES IDX 87 12 14 13 11 14 10 15 8 16 9 17 7 19 1 20 2 21 3 22 88 23
REMARK SMILES IDX 4 24 5 25 6 26 24 28 25 29 26 30 27 31 28 32 29 33 30 34
REMARK SMILES IDX 31 35 32 36 33 37 34 38 86 39 35 40 85 41 36 42 37 43 38 44
REMARK SMILES IDX 79 45 39 46 84 47 78 48 80 49 40 50 83 51 77 52 76 53 41 55
REMARK SMILES IDX 67 56 50 57 66 58 51 59 54 60 65 61 81 62 52 63 53 64 64 66
REMARK SMILES IDX 82 67 55 68 42 69 43 70 48 71 44 72 45 73 47 74 49 75 46 76
REMARK SMILES IDX 68 77 69 78 74 79 70 80 71 81 73 82 75 83 72 84 56 85 57 86
REMARK SMILES IDX 62 87 58 88 59 89 61 90 63 91 60 92
REMARK H PARENT 10 18 6 27 80 54 54 65
REMARK Flexibility Score: inf
ROOT
ATOM      1  C   UNL     1       0.036  -7.429   3.874  1.00  0.00     0.188 C 
ENDROOT
BRANCH   1   2
ATOM      2  C   UNL     1       0.227  -8.622   2.924  1.00  0.00     0.188 C 
BRANCH   2   3
ATOM      3  O   UNL     1       0.798  -9.765   3.565  1.00  0.00    -0.376 OA
BRANCH   3   4
ATOM      4  C   UNL     1       2.192  -9.973   3.348  1.00  0.00     0.202 C 
BRANCH   4   5
ATOM      5  C   UNL     1       3.128  -9.035   4.127  1.00  0.00     0.261 C 
BRANCH   5   6
ATOM      6  O   UNL     1       3.090  -7.661   3.710  1.00  0.00    -0.457 OA
BRANCH   6   7
ATOM      7  C   UNL     1       3.410  -7.382   2.418  1.00  0.00     0.374 C 
ATOM      8  O   UNL     1       3.897  -8.183   1.630  1.00  0.00    -0.242 OA
BRANCH   7   9
ATOM      9  C   UNL     1       2.930  -6.056   2.114  1.00  0.00     0.211 A 
ATOM     10  C   UNL     1       1.805  -4.590   0.905  1.00  0.00     0.124 A 
ATOM     11  C   UNL     1       2.030  -4.000   2.134  1.00  0.00     0.048 A 
ATOM     12  O   UNL     1       2.390  -5.824   0.876  1.00  0.00    -0.452 OA
ATOM     13  C   UNL     1       2.756  -4.935   2.905  1.00  0.00     0.058 A 
BRANCH  10  14
ATOM     14  C   UNL     1       1.037  -4.194  -0.307  1.00  0.00     0.191 C 
BRANCH  14  15
ATOM     15  N   UNL     1      -0.301  -3.809   0.101  1.00  0.00    -0.345 N 
ATOM     16  C   UNL     1      -0.943  -2.611   0.246  1.00  0.00     0.255 C 
ATOM     17  O   UNL     1      -2.149  -2.658   0.516  1.00  0.00    -0.269 OA
ATOM     18  H   UNL     1      -0.872  -4.580   0.321  1.00  0.00     0.164 HD
BRANCH  16  19
ATOM     19  C   UNL     1      -0.318  -1.265   0.087  1.00  0.00     0.081 A 
ATOM     20  C   UNL     1       3.072   0.498   0.177  1.00  0.00     0.044 C 
ATOM     21  C   UNL     1       1.593   0.268   0.056  1.00  0.00    -0.050 A 
ATOM     22  C   UNL     1       0.733   1.346  -0.157  1.00  0.00     0.007 A 
ATOM     23  C   UNL     1       1.057  -1.024   0.197  1.00  0.00     0.021 A 
ATOM     24  C   UNL     1      -0.641   1.136  -0.239  1.00  0.00     0.047 A 
ATOM     25  C   UNL     1      -1.159  -0.153  -0.114  1.00  0.00     0.128 A 
BRANCH  25  26
ATOM     26  O   UNL     1      -2.527  -0.240  -0.186  1.00  0.00    -0.507 OA
ATOM     27  H   UNL     1      -3.039   0.532  -0.322  1.00  0.00     0.293 HD
ENDBRANCH  25  26
ENDBRANCH  16  19
ENDBRANCH  14  15
ENDBRANCH  10  14
ENDBRANCH   7   9
ENDBRANCH   6   7
ENDBRANCH   5   6
ENDBRANCH   4   5
ENDBRANCH   3   4
ENDBRANCH   2   3
ENDBRANCH   1   2
BRANCH   1  28
ATOM     28  O   UNL     1       0.477  -7.719   5.195  1.00  0.00    -0.377 OA
BRANCH  28  29
ATOM     29  C   UNL     1      -0.542  -8.130   6.104  1.00  0.00     0.188 C 
BRANCH  29  30
ATOM     30  C   UNL     1      -1.541  -9.194   5.619  1.00  0.00     0.188 C 
BRANCH  30  31
ATOM     31  O   UNL     1      -2.419  -8.693   4.604  1.00  0.00    -0.376 OA
BRANCH  31  32
ATOM     32  C   UNL     1      -3.766  -8.459   5.013  1.00  0.00     0.202 C 
BRANCH  32  33
ATOM     33  C   UNL     1      -3.962  -7.101   5.701  1.00  0.00     0.261 C 
BRANCH  33  34
ATOM     34  O   UNL     1      -3.298  -6.983   6.971  1.00  0.00    -0.460 OA
BRANCH  34  35
ATOM     35  C   UNL     1      -3.689  -7.838   7.939  1.00  0.00     0.338 C 
ATOM     36  O   UNL     1      -4.603  -8.641   7.890  1.00  0.00    -0.246 OA
BRANCH  35  37
ATOM     37  C   UNL     1      -2.700  -7.777   9.033  1.00  0.00     0.060 A 
ATOM     38  C   UNL     1      -2.165  -8.978   9.512  1.00  0.00     0.016 A 
ATOM     39  C   UNL     1      -2.325  -6.554   9.597  1.00  0.00     0.016 A 
ATOM     40  C   UNL     1      -1.287  -8.963  10.596  1.00  0.00     0.010 A 
ATOM     41  C   UNL     1      -1.459  -6.541  10.691  1.00  0.00     0.010 A 
ATOM     42  C   UNL     1      -0.968  -7.747  11.217  1.00  0.00    -0.014 A 
BRANCH  42  43
ATOM     43  C   UNL     1      -0.290  -7.751  12.533  1.00  0.00     0.031 A 
ATOM     44  C   UNL     1      -1.141  -7.770  13.772  1.00  0.00     0.074 A 
ATOM     45  C   UNL     1       1.050  -7.732  12.629  1.00  0.00     0.049 A 
ATOM     46  N   UNL     1      -0.779  -7.750  15.029  1.00  0.00    -0.248 NA
ATOM     47  C   UNL     1      -2.598  -7.815  13.564  1.00  0.00     0.031 C 
ATOM     48  C   UNL     1       1.981  -7.730  11.504  1.00  0.00     0.029 A 
ATOM     49  N   UNL     1       1.856  -7.699  13.738  1.00  0.00    -0.354 N 
ATOM     50  C   UNL     1      -1.960  -7.788  15.759  1.00  0.00     0.074 A 
ATOM     51  C   UNL     1      -3.050  -7.803  14.808  1.00  0.00     0.031 C 
ATOM     52  C   UNL     1       3.238  -7.683  11.982  1.00  0.00     0.029 A 
ATOM     53  C   UNL     1       3.195  -7.633  13.442  1.00  0.00     0.049 A 
ATOM     54  H   UNL     1       1.508  -7.720  14.659  1.00  0.00     0.167 HD
ATOM     55  C   UNL     1      -2.123  -7.816  17.101  1.00  0.00     0.037 A 
ATOM     56  C   UNL     1       4.258  -7.530  14.262  1.00  0.00     0.037 A 
ATOM     57  C   UNL     1      -1.045  -7.785  18.050  1.00  0.00     0.049 A 
ATOM     58  C   UNL     1       4.048  -7.496  15.752  1.00  0.00     0.074 A 
ATOM     59  C   UNL     1      -1.109  -7.822  19.432  1.00  0.00     0.029 A 
ATOM     60  N   UNL     1       0.296  -7.697  17.711  1.00  0.00    -0.354 N 
ATOM     61  N   UNL     1       2.930  -7.571  16.433  1.00  0.00    -0.248 NA
ATOM     62  C   UNL     1       5.251  -7.362  16.588  1.00  0.00     0.031 C 
ATOM     63  C   UNL     1       0.195  -7.723  19.930  1.00  0.00     0.029 A 
ATOM     64  C   UNL     1       1.070  -7.657  18.857  1.00  0.00     0.049 A 
ATOM     65  H   UNL     1       0.645  -7.667  16.791  1.00  0.00     0.167 HD
ATOM     66  C   UNL     1       3.295  -7.518  17.772  1.00  0.00     0.074 A 
ATOM     67  C   UNL     1       4.738  -7.411  17.810  1.00  0.00     0.031 C 
ATOM     68  C   UNL     1       2.506  -7.558  18.873  1.00  0.00     0.037 A 
BRANCH  55  69
ATOM     69  C   UNL     1      -3.528  -7.867  17.614  1.00  0.00     0.057 A 
ATOM     70  C   UNL     1      -4.283  -9.046  17.564  1.00  0.00     0.134 A 
ATOM     71  C   UNL     1      -4.130  -6.732  18.170  1.00  0.00     0.134 A 
ATOM     72  F   UNL     1      -3.768 -10.161  17.024  1.00  0.00    -0.206 F 
ATOM     73  C   UNL     1      -5.597  -9.089  18.033  1.00  0.00     0.040 A 
ATOM     74  C   UNL     1      -5.436  -6.768  18.658  1.00  0.00     0.040 A 
ATOM     75  F   UNL     1      -3.459  -5.573  18.242  1.00  0.00    -0.206 F 
ATOM     76  C   UNL     1      -6.175  -7.947  18.587  1.00  0.00     0.006 A 
ENDBRANCH  55  69
BRANCH  56  77
ATOM     77  C   UNL     1       5.626  -7.445  13.696  1.00  0.00     0.057 A 
ATOM     78  C   UNL     1       6.519  -8.516  13.800  1.00  0.00     0.134 A 
ATOM     79  C   UNL     1       6.080  -6.281  13.065  1.00  0.00     0.134 A 
ATOM     80  F   UNL     1       6.147  -9.647  14.418  1.00  0.00    -0.206 F 
ATOM     81  C   UNL     1       7.822  -8.430  13.308  1.00  0.00     0.040 A 
ATOM     82  C   UNL     1       7.374  -6.187  12.552  1.00  0.00     0.040 A 
ATOM     83  F   UNL     1       5.270  -5.219  12.938  1.00  0.00    -0.206 F 
ATOM     84  C   UNL     1       8.252  -7.263  12.679  1.00  0.00     0.006 A 
ENDBRANCH  56  77
BRANCH  68  85
ATOM     85  C   UNL     1       3.185  -7.512  20.208  1.00  0.00     0.057 A 
ATOM     86  C   UNL     1       3.697  -6.319  20.732  1.00  0.00     0.134 A 
ATOM     87  C   UNL     1       3.283  -8.665  20.997  1.00  0.00     0.134 A 
ATOM     88  F   UNL     1       3.643  -5.185  20.018  1.00  0.00    -0.206 F 
ATOM     89  C   UNL     1       4.295  -6.277  21.992  1.00  0.00     0.040 A 
ATOM     90  C   UNL     1       3.862  -8.631  22.266  1.00  0.00     0.040 A 
ATOM     91  F   UNL     1       2.805  -9.837  20.554  1.00  0.00    -0.206 F 
ATOM     92  C   UNL     1       4.373  -7.434  22.765  1.00  0.00     0.006 A 
ENDBRANCH  68  85
ENDBRANCH  42  43
ENDBRANCH  35  37
ENDBRANCH  34  35
ENDBRANCH  33  34
ENDBRANCH  32  33
ENDBRANCH  31  32
ENDBRANCH  30  31
ENDBRANCH  29  30
ENDBRANCH  28  29
ENDBRANCH   1  28
TORSDOF 24
