REMARK SMILES CCC[NH2+][C@]1(C(=O)OCCOCCOCCOCCOC(=O)c2ccc(-c3c4nc(c(-c5c(F)cccc5F)c5ccc([nH]5)c(-c5c(F)cccc5F)c5nc(c(-c6c(F)cccc6F)c6ccc3[nH]6)C=C5)C=C4)cc2)CCC[C@H](OC(C)(C)C)C1
REMARK SMILES IDX 13 1 12 2 11 3 10 4 9 5 8 6 6 7 7 8 5 9 77 10 86 11 78 12
REMARK SMILES IDX 80 13 79 14 4 15 3 18 2 19 1 20 81 21 82 22 83 23 84 24
REMARK SMILES IDX 85 25 14 26 15 27 16 28 17 29 18 30 19 31 20 32 21 33 22 34
REMARK SMILES IDX 23 35 24 36 76 37 25 38 75 39 26 40 27 41 28 42 69 43 29 44
REMARK SMILES IDX 74 45 68 46 70 47 30 48 73 49 67 50 66 51 31 53 57 54 40 55
REMARK SMILES IDX 56 56 41 57 44 58 55 59 71 60 42 61 43 62 54 64 72 65 45 66
REMARK SMILES IDX 32 67 33 68 38 69 34 70 35 71 37 72 39 73 36 74 58 75 59 76
REMARK SMILES IDX 64 77 60 78 61 79 63 80 65 81 62 82 46 83 47 84 52 85 48 86
REMARK SMILES IDX 49 87 51 88 53 89 50 90
REMARK H PARENT 4 16 4 17 70 52 44 63
REMARK Flexibility Score: inf
ROOT
ATOM      1  C   UNL     1       0.982  -2.516  -1.645  1.00  0.00     0.188 C 
ENDROOT
BRANCH   1   2
ATOM      2  C   UNL     1       1.836  -1.358  -1.103  1.00  0.00     0.188 C 
BRANCH   2   3
ATOM      3  O   UNL     1       1.341  -0.500  -0.085  1.00  0.00    -0.376 OA
BRANCH   3   4
ATOM      4  C   UNL     1       0.007  -0.020  -0.112  1.00  0.00     0.202 C 
BRANCH   4   5
ATOM      5  C   UNL     1      -0.645   0.553  -1.382  1.00  0.00     0.261 C 
BRANCH   5   6
ATOM      6  O   UNL     1      -0.138   0.108  -2.641  1.00  0.00    -0.459 OA
BRANCH   6   7
ATOM      7  C   UNL     1       0.815   0.896  -3.227  1.00  0.00     0.368 C 
ATOM      8  O   UNL     1       1.302   1.892  -2.708  1.00  0.00    -0.245 OA
BRANCH   7   9
ATOM      9  C   UNL     1       1.132   0.386  -4.667  1.00  0.00     0.196 C 
ATOM     10  C   UNL     1       2.400   1.048  -5.217  1.00  0.00     0.081 C 
ATOM     11  C   UNL     1       1.429  -1.123  -4.588  1.00  0.00     0.113 C 
ATOM     12  C   UNL     1       2.842   0.431  -6.548  1.00  0.00     0.010 C 
ATOM     13  C   UNL     1       1.841  -1.852  -5.854  1.00  0.00     0.125 C 
ATOM     14  C   UNL     1       3.013  -1.093  -6.495  1.00  0.00     0.032 C 
BRANCH   9  15
ATOM     15  N   UNL     1      -0.035   0.573  -5.559  1.00  0.00    -0.332 N 
ATOM     16  H   UNL     1       0.297   0.510  -6.521  1.00  0.00     0.347 HD
ATOM     17  H   UNL     1      -0.698  -0.153  -5.289  1.00  0.00     0.347 HD
BRANCH  15  18
ATOM     18  C   UNL     1      -0.765   1.824  -5.427  1.00  0.00     0.261 C 
BRANCH  18  19
ATOM     19  C   UNL     1      -2.009   1.798  -6.324  1.00  0.00     0.058 C 
ATOM     20  C   UNL     1      -3.021   0.720  -5.942  1.00  0.00     0.010 C 
ENDBRANCH  18  19
ENDBRANCH  15  18
ENDBRANCH   9  15
BRANCH  13  21
ATOM     21  O   UNL     1       0.762  -1.998  -6.773  1.00  0.00    -0.372 OA
BRANCH  21  22
ATOM     22  C   UNL     1      -0.182  -3.080  -6.646  1.00  0.00     0.060 C 
ATOM     23  C   UNL     1       0.486  -4.461  -6.695  1.00  0.00     0.042 C 
ATOM     24  C   UNL     1      -1.094  -3.026  -5.409  1.00  0.00     0.042 C 
ATOM     25  C   UNL     1      -1.078  -2.916  -7.884  1.00  0.00     0.042 C 
ENDBRANCH  21  22
ENDBRANCH  13  21
ENDBRANCH   7   9
ENDBRANCH   6   7
ENDBRANCH   5   6
ENDBRANCH   4   5
ENDBRANCH   3   4
ENDBRANCH   2   3
ENDBRANCH   1   2
BRANCH   1  26
ATOM     26  O   UNL     1      -0.379  -2.457  -1.278  1.00  0.00    -0.377 OA
BRANCH  26  27
ATOM     27  C   UNL     1      -0.742  -3.406  -0.284  1.00  0.00     0.188 C 
BRANCH  27  28
ATOM     28  C   UNL     1       0.205  -3.542   0.935  1.00  0.00     0.188 C 
BRANCH  28  29
ATOM     29  O   UNL     1       1.584  -3.696   0.617  1.00  0.00    -0.376 OA
BRANCH  29  30
ATOM     30  C   UNL     1       2.173  -4.988   0.562  1.00  0.00     0.202 C 
BRANCH  30  31
ATOM     31  C   UNL     1       1.699  -5.989  -0.510  1.00  0.00     0.261 C 
BRANCH  31  32
ATOM     32  O   UNL     1       0.289  -6.234  -0.577  1.00  0.00    -0.460 OA
BRANCH  32  33
ATOM     33  C   UNL     1      -0.300  -6.755   0.519  1.00  0.00     0.338 C 
ATOM     34  O   UNL     1       0.246  -7.097   1.555  1.00  0.00    -0.246 OA
BRANCH  33  35
ATOM     35  C   UNL     1      -1.762  -6.639   0.339  1.00  0.00     0.060 A 
ATOM     36  C   UNL     1      -2.493  -5.883   1.266  1.00  0.00     0.016 A 
ATOM     37  C   UNL     1      -2.401  -7.240  -0.748  1.00  0.00     0.016 A 
ATOM     38  C   UNL     1      -3.872  -5.749   1.125  1.00  0.00     0.010 A 
ATOM     39  C   UNL     1      -3.789  -7.137  -0.867  1.00  0.00     0.010 A 
ATOM     40  C   UNL     1      -4.532  -6.420   0.089  1.00  0.00    -0.014 A 
BRANCH  40  41
ATOM     41  C   UNL     1      -6.004  -6.567   0.147  1.00  0.00     0.031 A 
ATOM     42  C   UNL     1      -6.559  -7.818   0.770  1.00  0.00     0.074 A 
ATOM     43  C   UNL     1      -6.828  -5.608  -0.306  1.00  0.00     0.049 A 
ATOM     44  N   UNL     1      -7.800  -8.209   0.890  1.00  0.00    -0.248 NA
ATOM     45  C   UNL     1      -5.574  -8.756   1.335  1.00  0.00     0.031 C 
ATOM     46  C   UNL     1      -6.410  -4.329  -0.874  1.00  0.00     0.029 A 
ATOM     47  N   UNL     1      -8.199  -5.574  -0.365  1.00  0.00    -0.354 N 
ATOM     48  C   UNL     1      -7.745  -9.438   1.535  1.00  0.00     0.074 A 
ATOM     49  C   UNL     1      -6.349  -9.743   1.754  1.00  0.00     0.031 C 
ATOM     50  C   UNL     1      -7.505  -3.639  -1.241  1.00  0.00     0.029 A 
ATOM     51  C   UNL     1      -8.694  -4.444  -0.967  1.00  0.00     0.049 A 
ATOM     52  H   UNL     1      -8.772  -6.291  -0.009  1.00  0.00     0.167 HD
ATOM     53  C   UNL     1      -8.767 -10.238   1.915  1.00  0.00     0.037 A 
ATOM     54  C   UNL     1      -9.962  -4.117  -1.285  1.00  0.00     0.037 A 
ATOM     55  C   UNL     1     -10.154  -9.933   1.687  1.00  0.00     0.049 A 
ATOM     56  C   UNL     1     -11.079  -5.070  -0.938  1.00  0.00     0.074 A 
ATOM     57  C   UNL     1     -11.268 -10.673   2.040  1.00  0.00     0.029 A 
ATOM     58  N   UNL     1     -10.615  -8.799   1.035  1.00  0.00    -0.354 N 
ATOM     59  N   UNL     1     -11.022  -6.222  -0.314  1.00  0.00    -0.248 NA
ATOM     60  C   UNL     1     -12.437  -4.675  -1.341  1.00  0.00     0.031 C 
ATOM     61  C   UNL     1     -12.400 -10.017   1.547  1.00  0.00     0.029 A 
ATOM     62  C   UNL     1     -11.996  -8.835   0.947  1.00  0.00     0.049 A 
ATOM     63  H   UNL     1     -10.044  -8.076   0.687  1.00  0.00     0.167 HD
ATOM     64  C   UNL     1     -12.335  -6.672  -0.219  1.00  0.00     0.074 A 
ATOM     65  C   UNL     1     -13.166  -5.663  -0.841  1.00  0.00     0.031 C 
ATOM     66  C   UNL     1     -12.810  -7.815   0.334  1.00  0.00     0.037 A 
BRANCH  53  67
ATOM     67  C   UNL     1      -8.417 -11.536   2.582  1.00  0.00     0.057 A 
ATOM     68  C   UNL     1      -7.880 -11.588   3.875  1.00  0.00     0.134 A 
ATOM     69  C   UNL     1      -8.641 -12.754   1.927  1.00  0.00     0.134 A 
ATOM     70  F   UNL     1      -7.623 -10.458   4.551  1.00  0.00    -0.206 F 
ATOM     71  C   UNL     1      -7.556 -12.803   4.482  1.00  0.00     0.040 A 
ATOM     72  C   UNL     1      -8.349 -13.975   2.535  1.00  0.00     0.040 A 
ATOM     73  F   UNL     1      -9.152 -12.776   0.687  1.00  0.00    -0.206 F 
ATOM     74  C   UNL     1      -7.798 -14.001   3.814  1.00  0.00     0.006 A 
ENDBRANCH  53  67
BRANCH  54  75
ATOM     75  C   UNL     1     -10.251  -2.842  -1.992  1.00  0.00     0.057 A 
ATOM     76  C   UNL     1     -10.976  -1.816  -1.375  1.00  0.00     0.134 A 
ATOM     77  C   UNL     1      -9.839  -2.633  -3.314  1.00  0.00     0.134 A 
ATOM     78  F   UNL     1     -11.421  -1.966  -0.118  1.00  0.00    -0.206 F 
ATOM     79  C   UNL     1     -11.298  -0.638  -2.051  1.00  0.00     0.040 A 
ATOM     80  C   UNL     1     -10.130  -1.448  -3.993  1.00  0.00     0.040 A 
ATOM     81  F   UNL     1      -9.143  -3.576  -3.965  1.00  0.00    -0.206 F 
ATOM     82  C   UNL     1     -10.870  -0.450  -3.364  1.00  0.00     0.006 A 
ENDBRANCH  54  75
BRANCH  66  83
ATOM     83  C   UNL     1     -14.299  -8.019   0.337  1.00  0.00     0.057 A 
ATOM     84  C   UNL     1     -15.014  -8.300  -0.834  1.00  0.00     0.134 A 
ATOM     85  C   UNL     1     -15.017  -7.987   1.540  1.00  0.00     0.134 A 
ATOM     86  F   UNL     1     -14.390  -8.337  -2.020  1.00  0.00    -0.206 F 
ATOM     87  C   UNL     1     -16.393  -8.518  -0.811  1.00  0.00     0.040 A 
ATOM     88  C   UNL     1     -16.390  -8.234   1.580  1.00  0.00     0.040 A 
ATOM     89  F   UNL     1     -14.392  -7.736   2.701  1.00  0.00    -0.206 F 
ATOM     90  C   UNL     1     -17.083  -8.494   0.400  1.00  0.00     0.006 A 
ENDBRANCH  66  83
ENDBRANCH  40  41
ENDBRANCH  33  35
ENDBRANCH  32  33
ENDBRANCH  31  32
ENDBRANCH  30  31
ENDBRANCH  29  30
ENDBRANCH  28  29
ENDBRANCH  27  28
ENDBRANCH  26  27
ENDBRANCH   1  26
TORSDOF 25
