REMARK SMILES CCn1ncc(NC(=O)[C@@H]2CCCC[C@@H]2C(=O)OCCOCCOCCOCCOC(=O)c2ccc(-c3c4nc(c(-c5c(F)cccc5F)c5ccc([nH]5)c(-c5c(F)cccc5F)c5nc(c(-c6c(F)cccc6F)c6ccc3[nH]6)C=C5)C=C4)cc2)c1C(=O)Nc1cnn(C)c1C
REMARK SMILES IDX 23 1 22 2 21 3 20 4 19 5 18 6 16 7 17 8 15 9 10 10 11 11
REMARK SMILES IDX 12 12 14 13 13 14 8 15 7 16 9 18 6 19 3 20 4 21 87 22 5 23
REMARK SMILES IDX 2 24 1 25 88 26 89 27 90 28 91 30 92 31 96 32 93 33 94 34
REMARK SMILES IDX 97 35 95 36 24 37 25 38 26 39 27 40 28 41 29 42 30 43 31 44
REMARK SMILES IDX 32 45 33 46 34 47 86 48 35 49 85 50 36 51 37 52 38 53 79 54
REMARK SMILES IDX 39 55 84 56 78 57 80 58 40 59 83 60 77 61 76 62 41 64 67 65
REMARK SMILES IDX 50 66 66 67 51 68 54 69 65 70 81 71 52 72 53 73 64 75 82 76
REMARK SMILES IDX 55 77 42 78 43 79 48 80 44 81 45 82 47 83 49 84 46 85 68 86
REMARK SMILES IDX 69 87 74 88 70 89 71 90 73 91 75 92 72 93 56 94 57 95 62 96
REMARK SMILES IDX 58 97 59 98 61 99 63 100 60 101
REMARK H PARENT 7 17 90 29 80 63 54 74
REMARK Flexibility Score: inf
ROOT
ATOM      1  C   UNL     1       3.083  -5.832  -5.012  1.00  0.00     0.188 C 
ENDROOT
BRANCH   1   2
ATOM      2  C   UNL     1       3.987  -4.632  -4.638  1.00  0.00     0.188 C 
BRANCH   2   3
ATOM      3  O   UNL     1       5.351  -4.967  -4.425  1.00  0.00    -0.376 OA
BRANCH   3   4
ATOM      4  C   UNL     1       5.792  -5.138  -3.090  1.00  0.00     0.202 C 
BRANCH   4   5
ATOM      5  C   UNL     1       5.071  -6.189  -2.221  1.00  0.00     0.261 C 
BRANCH   5   6
ATOM      6  O   UNL     1       3.632  -6.115  -2.237  1.00  0.00    -0.463 OA
BRANCH   6   7
ATOM      7  C   UNL     1       3.142  -4.962  -1.731  1.00  0.00     0.309 C 
ATOM      8  O   UNL     1       3.869  -4.163  -1.153  1.00  0.00    -0.252 OA
BRANCH   7   9
ATOM      9  C   UNL     1       1.611  -4.814  -1.936  1.00  0.00     0.111 C 
ATOM     10  C   UNL     1       1.099  -3.377  -2.327  1.00  0.00     0.093 C 
ATOM     11  C   UNL     1       1.852  -2.404  -1.448  1.00  0.00     0.014 C 
ATOM     12  C   UNL     1       1.602  -2.728   0.027  1.00  0.00     0.001 C 
ATOM     13  C   UNL     1       1.010  -5.155  -0.570  1.00  0.00     0.016 C 
ATOM     14  C   UNL     1       1.524  -4.186   0.492  1.00  0.00     0.001 C 
BRANCH  10  15
ATOM     15  C   UNL     1       0.975  -3.071  -3.834  1.00  0.00     0.228 C 
ATOM     16  N   UNL     1       0.903  -1.829  -4.395  1.00  0.00    -0.322 N 
ATOM     17  H   UNL     1       0.944  -1.853  -5.378  1.00  0.00     0.170 HD
ATOM     18  O   UNL     1       0.906  -4.003  -4.644  1.00  0.00    -0.274 OA
BRANCH  16  19
ATOM     19  C   UNL     1       0.785  -0.544  -3.895  1.00  0.00     0.092 A 
ATOM     20  N   UNL     1       0.762   1.192  -2.612  1.00  0.00    -0.258 N 
ATOM     21  N   UNL     1       1.250   1.669  -3.784  1.00  0.00    -0.178 NA
ATOM     22  C   UNL     1       0.114  -0.025  -2.777  1.00  0.00     0.150 A 
ATOM     23  C   UNL     1       1.317   0.587  -4.548  1.00  0.00     0.162 A 
BRANCH  20  24
ATOM     24  C   UNL     1       1.224   1.897  -1.431  1.00  0.00     0.142 C 
ATOM     25  C   UNL     1       2.196   1.109  -0.567  1.00  0.00     0.029 C 
ENDBRANCH  20  24
BRANCH  22  26
ATOM     26  C   UNL     1      -0.951  -0.718  -2.051  1.00  0.00     0.276 C 
ATOM     27  O   UNL     1      -1.676  -1.528  -2.638  1.00  0.00    -0.267 OA
ATOM     28  N   UNL     1      -1.028  -0.757  -0.678  1.00  0.00    -0.318 N 
ATOM     29  H   UNL     1      -1.087  -1.662  -0.294  1.00  0.00     0.170 HD
BRANCH  28  30
ATOM     30  C   UNL     1      -1.037   0.258   0.242  1.00  0.00     0.082 A 
ATOM     31  C   UNL     1      -1.621   1.534   0.151  1.00  0.00     0.161 A 
ATOM     32  C   UNL     1      -0.530   0.186   1.529  1.00  0.00     0.059 A 
ATOM     33  N   UNL     1      -1.332   2.289   1.211  1.00  0.00    -0.179 NA
ATOM     34  N   UNL     1      -0.586   1.481   1.988  1.00  0.00    -0.271 N 
ATOM     35  C   UNL     1       0.133  -0.892   2.308  1.00  0.00     0.068 C 
ATOM     36  C   UNL     1       0.182   2.068   3.063  1.00  0.00     0.174 C 
ENDBRANCH  28  30
ENDBRANCH  22  26
ENDBRANCH  16  19
ENDBRANCH  10  15
ENDBRANCH   7   9
ENDBRANCH   6   7
ENDBRANCH   5   6
ENDBRANCH   4   5
ENDBRANCH   3   4
ENDBRANCH   2   3
ENDBRANCH   1   2
BRANCH   1  37
ATOM     37  O   UNL     1       3.594  -7.153  -4.962  1.00  0.00    -0.377 OA
BRANCH  37  38
ATOM     38  C   UNL     1       4.850  -7.435  -5.551  1.00  0.00     0.188 C 
BRANCH  38  39
ATOM     39  C   UNL     1       5.433  -6.571  -6.700  1.00  0.00     0.188 C 
BRANCH  39  40
ATOM     40  O   UNL     1       4.692  -5.415  -7.068  1.00  0.00    -0.376 OA
BRANCH  40  41
ATOM     41  C   UNL     1       4.014  -5.316  -8.306  1.00  0.00     0.202 C 
BRANCH  41  42
ATOM     42  C   UNL     1       2.777  -6.189  -8.513  1.00  0.00     0.261 C 
BRANCH  42  43
ATOM     43  O   UNL     1       2.924  -7.489  -7.985  1.00  0.00    -0.460 OA
BRANCH  43  44
ATOM     44  C   UNL     1       3.860  -8.225  -8.611  1.00  0.00     0.338 C 
ATOM     45  O   UNL     1       4.598  -7.880  -9.511  1.00  0.00    -0.246 OA
BRANCH  44  46
ATOM     46  C   UNL     1       3.787  -9.588  -8.085  1.00  0.00     0.060 A 
ATOM     47  C   UNL     1       4.771 -10.450  -8.562  1.00  0.00     0.016 A 
ATOM     48  C   UNL     1       2.548 -10.022  -7.596  1.00  0.00     0.016 A 
ATOM     49  C   UNL     1       4.366 -11.708  -8.908  1.00  0.00     0.010 A 
ATOM     50  C   UNL     1       2.135 -11.265  -7.972  1.00  0.00     0.010 A 
ATOM     51  C   UNL     1       3.017 -12.031  -8.726  1.00  0.00    -0.014 A 
BRANCH  51  52
ATOM     52  C   UNL     1       2.542 -13.245  -9.329  1.00  0.00     0.031 A 
ATOM     53  C   UNL     1       2.934 -14.420  -8.542  1.00  0.00     0.074 A 
ATOM     54  C   UNL     1       1.789 -13.234 -10.442  1.00  0.00     0.049 A 
ATOM     55  N   UNL     1       3.853 -15.277  -8.829  1.00  0.00    -0.248 NA
ATOM     56  C   UNL     1       2.418 -14.512  -7.168  1.00  0.00     0.031 C 
ATOM     57  C   UNL     1       1.163 -12.085 -11.105  1.00  0.00     0.029 A 
ATOM     58  N   UNL     1       1.351 -14.290 -11.171  1.00  0.00    -0.354 N 
ATOM     59  C   UNL     1       3.856 -16.163  -7.760  1.00  0.00     0.074 A 
ATOM     60  C   UNL     1       3.155 -15.513  -6.688  1.00  0.00     0.031 C 
ATOM     61  C   UNL     1       0.254 -12.533 -12.002  1.00  0.00     0.029 A 
ATOM     62  C   UNL     1       0.337 -13.982 -12.066  1.00  0.00     0.049 A 
ATOM     63  H   UNL     1       1.720 -15.197 -11.074  1.00  0.00     0.167 HD
ATOM     64  C   UNL     1       4.136 -17.475  -7.967  1.00  0.00     0.037 A 
ATOM     65  C   UNL     1      -0.411 -14.882 -12.748  1.00  0.00     0.037 A 
ATOM     66  C   UNL     1       4.789 -17.663  -9.241  1.00  0.00     0.049 A 
ATOM     67  C   UNL     1       0.327 -16.168 -12.740  1.00  0.00     0.074 A 
ATOM     68  C   UNL     1       6.003 -17.312  -9.790  1.00  0.00     0.029 A 
ATOM     69  N   UNL     1       3.958 -17.989 -10.283  1.00  0.00    -0.354 N 
ATOM     70  N   UNL     1       1.439 -16.367 -13.391  1.00  0.00    -0.248 NA
ATOM     71  C   UNL     1       0.055 -17.127 -11.676  1.00  0.00     0.031 C 
ATOM     72  C   UNL     1       5.761 -17.143 -11.185  1.00  0.00     0.029 A 
ATOM     73  C   UNL     1       4.418 -17.426 -11.441  1.00  0.00     0.049 A 
ATOM     74  H   UNL     1       3.149 -18.545 -10.208  1.00  0.00     0.167 HD
ATOM     75  C   UNL     1       2.194 -17.183 -12.563  1.00  0.00     0.074 A 
ATOM     76  C   UNL     1       1.241 -17.740 -11.611  1.00  0.00     0.031 C 
ATOM     77  C   UNL     1       3.556 -17.084 -12.552  1.00  0.00     0.037 A 
BRANCH  64  78
ATOM     78  C   UNL     1       3.387 -18.601  -7.288  1.00  0.00     0.057 A 
ATOM     79  C   UNL     1       3.792 -19.920  -7.553  1.00  0.00     0.134 A 
ATOM     80  C   UNL     1       2.128 -18.480  -6.660  1.00  0.00     0.134 A 
ATOM     81  F   UNL     1       4.968 -20.173  -8.147  1.00  0.00    -0.206 F 
ATOM     82  C   UNL     1       2.966 -21.022  -7.306  1.00  0.00     0.040 A 
ATOM     83  C   UNL     1       1.319 -19.577  -6.363  1.00  0.00     0.040 A 
ATOM     84  F   UNL     1       1.555 -17.303  -6.388  1.00  0.00    -0.206 F 
ATOM     85  C   UNL     1       1.719 -20.852  -6.720  1.00  0.00     0.006 A 
ENDBRANCH  64  78
BRANCH  65  86
ATOM     86  C   UNL     1      -1.823 -14.780 -13.171  1.00  0.00     0.057 A 
ATOM     87  C   UNL     1      -2.343 -15.600 -14.180  1.00  0.00     0.134 A 
ATOM     88  C   UNL     1      -2.761 -14.061 -12.410  1.00  0.00     0.134 A 
ATOM     89  F   UNL     1      -1.528 -16.356 -14.930  1.00  0.00    -0.206 F 
ATOM     90  C   UNL     1      -3.721 -15.714 -14.408  1.00  0.00     0.040 A 
ATOM     91  C   UNL     1      -4.138 -14.162 -12.630  1.00  0.00     0.040 A 
ATOM     92  F   UNL     1      -2.376 -13.307 -11.370  1.00  0.00    -0.206 F 
ATOM     93  C   UNL     1      -4.623 -15.002 -13.625  1.00  0.00     0.006 A 
ENDBRANCH  65  86
BRANCH  77  94
ATOM     94  C   UNL     1       4.191 -16.365 -13.708  1.00  0.00     0.057 A 
ATOM     95  C   UNL     1       4.073 -14.987 -13.939  1.00  0.00     0.134 A 
ATOM     96  C   UNL     1       5.049 -17.080 -14.549  1.00  0.00     0.134 A 
ATOM     97  F   UNL     1       3.340 -14.210 -13.132  1.00  0.00    -0.206 F 
ATOM     98  C   UNL     1       4.750 -14.357 -14.988  1.00  0.00     0.040 A 
ATOM     99  C   UNL     1       5.757 -16.459 -15.579  1.00  0.00     0.040 A 
ATOM    100  F   UNL     1       5.247 -18.393 -14.352  1.00  0.00    -0.206 F 
ATOM    101  C   UNL     1       5.601 -15.094 -15.807  1.00  0.00     0.006 A 
ENDBRANCH  77  94
ENDBRANCH  51  52
ENDBRANCH  44  46
ENDBRANCH  43  44
ENDBRANCH  42  43
ENDBRANCH  41  42
ENDBRANCH  40  41
ENDBRANCH  39  40
ENDBRANCH  38  39
ENDBRANCH  37  38
ENDBRANCH   1  37
TORSDOF 25
