REMARK SMILES O=C(OCCOCCOCCOCCOC(=O)c1ccc(S(=O)(=O)N[C@@H]2CC[N@H+]3CCC[C@H]23)cc1)c1ccc(-c2c3nc(c(-c4c(F)cccc4F)c4ccc([nH]4)c(-c4c(F)cccc4F)c4nc(c(-c5c(F)cccc5F)c5ccc2[nH]5)C=C4)C=C3)cc1
REMARK SMILES IDX 10 1 9 2 8 3 7 4 6 5 5 6 4 7 3 8 2 9 1 10 36 11 37 12 89 13
REMARK SMILES IDX 38 14 88 15 39 16 40 17 41 18 82 19 42 20 87 21 81 22 83 23
REMARK SMILES IDX 43 24 86 25 80 26 79 27 44 29 70 30 53 31 69 32 54 33 57 34
REMARK SMILES IDX 68 35 84 36 55 37 56 38 67 40 85 41 58 42 45 43 46 44 51 45
REMARK SMILES IDX 47 46 48 47 50 48 52 49 49 50 71 51 72 52 77 53 73 54 74 55
REMARK SMILES IDX 76 56 78 57 75 58 59 59 60 60 65 61 61 62 62 63 64 64 66 65
REMARK SMILES IDX 63 66 11 67 12 68 13 69 14 70 15 71 16 72 17 73 18 74 19 75
REMARK SMILES IDX 35 76 20 77 34 78 21 79 22 80 23 81 24 82 25 83 26 85 27 86
REMARK SMILES IDX 33 87 28 88 29 89 32 90 30 91 31 93
REMARK H PARENT 83 28 57 39 25 84 29 92
REMARK Flexibility Score: inf
ROOT
ATOM      1  C   UNL     1       4.139   1.474  -3.385  1.00  0.00     0.188 C 
ENDROOT
BRANCH   1   2
ATOM      2  O   UNL     1       2.736   1.520  -3.620  1.00  0.00    -0.377 OA
BRANCH   2   3
ATOM      3  C   UNL     1       1.905   1.263  -2.485  1.00  0.00     0.188 C 
BRANCH   3   4
ATOM      4  C   UNL     1       2.264  -0.009  -1.715  1.00  0.00     0.188 C 
BRANCH   4   5
ATOM      5  O   UNL     1       3.502   0.184  -1.024  1.00  0.00    -0.376 OA
BRANCH   5   6
ATOM      6  C   UNL     1       4.310  -0.981  -0.881  1.00  0.00     0.202 C 
BRANCH   6   7
ATOM      7  C   UNL     1       3.903  -1.890   0.280  1.00  0.00     0.261 C 
BRANCH   7   8
ATOM      8  O   UNL     1       2.509  -1.778   0.611  1.00  0.00    -0.460 OA
BRANCH   8   9
ATOM      9  C   UNL     1       1.949  -0.978   1.554  1.00  0.00     0.338 C 
ATOM     10  O   UNL     1       0.743  -1.067   1.775  1.00  0.00    -0.246 OA
BRANCH   9  11
ATOM     11  C   UNL     1       2.746  -0.043   2.399  1.00  0.00     0.060 A 
ATOM     12  C   UNL     1       3.829   0.709   1.944  1.00  0.00     0.016 A 
ATOM     13  C   UNL     1       2.330   0.137   3.726  1.00  0.00     0.016 A 
ATOM     14  C   UNL     1       4.581   1.493   2.806  1.00  0.00     0.010 A 
ATOM     15  C   UNL     1       3.041   0.979   4.588  1.00  0.00     0.010 A 
ATOM     16  C   UNL     1       4.209   1.612   4.142  1.00  0.00    -0.014 A 
BRANCH  16  17
ATOM     17  C   UNL     1       5.168   2.228   5.081  1.00  0.00     0.031 A 
ATOM     18  C   UNL     1       5.880   1.324   6.045  1.00  0.00     0.074 A 
ATOM     19  C   UNL     1       5.505   3.526   4.970  1.00  0.00     0.049 A 
ATOM     20  N   UNL     1       6.698   1.621   7.017  1.00  0.00    -0.248 NA
ATOM     21  C   UNL     1       5.635  -0.121   5.887  1.00  0.00     0.031 C 
ATOM     22  C   UNL     1       4.971   4.456   3.972  1.00  0.00     0.029 A 
ATOM     23  N   UNL     1       6.410   4.275   5.673  1.00  0.00    -0.354 N 
ATOM     24  C   UNL     1       7.008   0.412   7.626  1.00  0.00     0.074 A 
ATOM     25  C   UNL     1       6.303  -0.626   6.911  1.00  0.00     0.031 C 
ATOM     26  C   UNL     1       5.599   5.638   4.096  1.00  0.00     0.029 A 
ATOM     27  C   UNL     1       6.516   5.571   5.228  1.00  0.00     0.049 A 
ATOM     28  H   UNL     1       6.935   3.919   6.426  1.00  0.00     0.167 HD
ATOM     29  C   UNL     1       7.807   0.194   8.695  1.00  0.00     0.037 A 
ATOM     30  C   UNL     1       7.257   6.587   5.707  1.00  0.00     0.037 A 
ATOM     31  C   UNL     1       8.536   1.238   9.358  1.00  0.00     0.049 A 
ATOM     32  C   UNL     1       8.105   6.333   6.924  1.00  0.00     0.074 A 
ATOM     33  C   UNL     1       9.330   1.165  10.486  1.00  0.00     0.029 A 
ATOM     34  N   UNL     1       8.571   2.556   8.922  1.00  0.00    -0.354 N 
ATOM     35  N   UNL     1       8.306   5.208   7.570  1.00  0.00    -0.248 NA
ATOM     36  C   UNL     1       8.804   7.489   7.496  1.00  0.00     0.031 C 
ATOM     37  C   UNL     1       9.826   2.448  10.747  1.00  0.00     0.029 A 
ATOM     38  C   UNL     1       9.370   3.310   9.760  1.00  0.00     0.049 A 
ATOM     39  H   UNL     1       8.096   2.902   8.132  1.00  0.00     0.167 HD
ATOM     40  C   UNL     1       9.159   5.517   8.620  1.00  0.00     0.074 A 
ATOM     41  C   UNL     1       9.457   6.933   8.507  1.00  0.00     0.031 C 
ATOM     42  C   UNL     1       9.647   4.715   9.598  1.00  0.00     0.037 A 
BRANCH  29  43
ATOM     43  C   UNL     1       7.848  -1.205   9.233  1.00  0.00     0.057 A 
ATOM     44  C   UNL     1       8.512  -2.246   8.571  1.00  0.00     0.134 A 
ATOM     45  C   UNL     1       7.146  -1.527  10.402  1.00  0.00     0.134 A 
ATOM     46  F   UNL     1       9.172  -2.012   7.427  1.00  0.00    -0.206 F 
ATOM     47  C   UNL     1       8.448  -3.562   9.035  1.00  0.00     0.040 A 
ATOM     48  C   UNL     1       7.094  -2.834  10.887  1.00  0.00     0.040 A 
ATOM     49  F   UNL     1       6.479  -0.579  11.078  1.00  0.00    -0.206 F 
ATOM     50  C   UNL     1       7.738  -3.859  10.197  1.00  0.00     0.006 A 
ENDBRANCH  29  43
BRANCH  30  51
ATOM     51  C   UNL     1       7.201   7.929   5.071  1.00  0.00     0.057 A 
ATOM     52  C   UNL     1       8.319   8.479   4.432  1.00  0.00     0.134 A 
ATOM     53  C   UNL     1       6.032   8.702   5.091  1.00  0.00     0.134 A 
ATOM     54  F   UNL     1       9.476   7.802   4.396  1.00  0.00    -0.206 F 
ATOM     55  C   UNL     1       8.280   9.747   3.846  1.00  0.00     0.040 A 
ATOM     56  C   UNL     1       5.971   9.959   4.486  1.00  0.00     0.040 A 
ATOM     57  F   UNL     1       4.924   8.239   5.689  1.00  0.00    -0.206 F 
ATOM     58  C   UNL     1       7.100  10.488   3.866  1.00  0.00     0.006 A 
ENDBRANCH  30  51
BRANCH  42  59
ATOM     59  C   UNL     1      10.569   5.349  10.591  1.00  0.00     0.057 A 
ATOM     60  C   UNL     1      10.088   6.177  11.613  1.00  0.00     0.134 A 
ATOM     61  C   UNL     1      11.944   5.093  10.547  1.00  0.00     0.134 A 
ATOM     62  F   UNL     1       8.781   6.467  11.695  1.00  0.00    -0.206 F 
ATOM     63  C   UNL     1      10.951   6.745  12.550  1.00  0.00     0.040 A 
ATOM     64  C   UNL     1      12.813   5.638  11.492  1.00  0.00     0.040 A 
ATOM     65  F   UNL     1      12.460   4.301   9.595  1.00  0.00    -0.206 F 
ATOM     66  C   UNL     1      12.316   6.470  12.494  1.00  0.00     0.006 A 
ENDBRANCH  42  59
ENDBRANCH  16  17
ENDBRANCH   9  11
ENDBRANCH   8   9
ENDBRANCH   7   8
ENDBRANCH   6   7
ENDBRANCH   5   6
ENDBRANCH   4   5
ENDBRANCH   3   4
ENDBRANCH   2   3
ENDBRANCH   1   2
BRANCH   1  67
ATOM     67  C   UNL     1       4.764   2.547  -2.472  1.00  0.00     0.188 C 
BRANCH  67  68
ATOM     68  O   UNL     1       3.832   3.364  -1.770  1.00  0.00    -0.376 OA
BRANCH  68  69
ATOM     69  C   UNL     1       3.874   4.750  -2.111  1.00  0.00     0.202 C 
BRANCH  69  70
ATOM     70  C   UNL     1       3.073   5.106  -3.371  1.00  0.00     0.261 C 
BRANCH  70  71
ATOM     71  O   UNL     1       3.458   4.360  -4.533  1.00  0.00    -0.460 OA
BRANCH  71  72
ATOM     72  C   UNL     1       4.660   4.641  -5.083  1.00  0.00     0.338 C 
ATOM     73  O   UNL     1       5.414   5.545  -4.773  1.00  0.00    -0.246 OA
BRANCH  72  74
ATOM     74  C   UNL     1       5.020   3.501  -5.960  1.00  0.00     0.060 A 
ATOM     75  C   UNL     1       6.341   3.026  -5.915  1.00  0.00     0.017 A 
ATOM     76  C   UNL     1       4.044   2.810  -6.695  1.00  0.00     0.017 A 
ATOM     77  C   UNL     1       6.688   1.867  -6.609  1.00  0.00     0.022 A 
ATOM     78  C   UNL     1       4.392   1.657  -7.397  1.00  0.00     0.022 A 
ATOM     79  C   UNL     1       5.718   1.212  -7.374  1.00  0.00     0.082 A 
BRANCH  79  80
ATOM     80  S   UNL     1       6.213  -0.077  -8.487  1.00  0.00     0.241 S 
ATOM     81  O   UNL     1       7.650  -0.055  -8.631  1.00  0.00    -0.207 OA
ATOM     82  O   UNL     1       5.510  -1.278  -8.088  1.00  0.00    -0.207 OA
BRANCH  80  83
ATOM     83  N   UNL     1       5.545   0.399  -9.931  1.00  0.00    -0.202 NA
ATOM     84  H   UNL     1       4.563   0.575  -9.719  1.00  0.00     0.141 HD
BRANCH  83  85
ATOM     85  C   UNL     1       5.957   1.533 -10.778  1.00  0.00     0.133 C 
ATOM     86  C   UNL     1       6.752   2.679 -10.106  1.00  0.00     0.087 C 
ATOM     87  C   UNL     1       4.738   2.310 -11.285  1.00  0.00     0.202 C 
ATOM     88  C   UNL     1       5.767   3.850  -9.896  1.00  0.00     0.264 C 
ATOM     89  N   UNL     1       4.495   3.224 -10.170  1.00  0.00    -0.331 N 
ATOM     90  C   UNL     1       3.351   1.730 -11.450  1.00  0.00     0.072 C 
ATOM     91  C   UNL     1       3.341   4.013 -10.534  1.00  0.00     0.262 C 
ATOM     92  H   UNL     1       4.223   2.835  -9.268  1.00  0.00     0.348 HD
ATOM     93  C   UNL     1       2.439   2.941 -11.165  1.00  0.00     0.068 C 
ENDBRANCH  83  85
ENDBRANCH  80  83
ENDBRANCH  79  80
ENDBRANCH  72  74
ENDBRANCH  71  72
ENDBRANCH  70  71
ENDBRANCH  69  70
ENDBRANCH  68  69
ENDBRANCH  67  68
ENDBRANCH   1  67
TORSDOF 23
