REMARK SMILES Cc1ccc(-c2ncccc2C(=O)OCCOCCOCCOCCOC(=O)c2ccc(-c3c4nc(c(-c5c(F)cccc5F)c5ccc([nH]5)c(-c5c(F)cccc5F)c5nc(c(-c6c(F)cccc6F)c6ccc3[nH]6)C=C5)C=C4)cc2)c(C)c1
REMARK SMILES IDX 21 1 20 2 19 3 18 4 17 5 16 6 15 7 14 8 12 9 13 10 11 11
REMARK SMILES IDX 6 12 7 13 8 14 10 15 9 16 5 17 1 18 2 19 3 20 85 21 4 22
REMARK SMILES IDX 83 23 84 24 22 25 23 26 24 27 25 28 26 29 27 30 28 31 29 32
REMARK SMILES IDX 30 33 82 34 31 35 81 36 32 37 33 38 34 39 75 40 35 41 80 42
REMARK SMILES IDX 74 43 76 44 36 45 79 46 73 47 72 48 37 50 63 51 46 52 62 53
REMARK SMILES IDX 47 54 50 55 61 56 77 57 48 58 49 59 60 61 78 62 51 63 38 64
REMARK SMILES IDX 39 65 44 66 40 67 41 68 43 69 45 70 42 71 64 72 65 73 70 74
REMARK SMILES IDX 66 75 67 76 69 77 71 78 68 79 52 80 53 81 58 82 54 83 55 84
REMARK SMILES IDX 57 85 59 86 56 87
REMARK H PARENT 76 49 50 60
REMARK Flexibility Score: inf
ROOT
ATOM      1  C   UNL     1       0.107  -6.169   2.889  1.00  0.00     0.188 C 
ENDROOT
BRANCH   1   2
ATOM      2  O   UNL     1      -0.860  -5.654   1.983  1.00  0.00    -0.377 OA
BRANCH   2   3
ATOM      3  C   UNL     1      -0.637  -4.380   1.389  1.00  0.00     0.188 C 
BRANCH   3   4
ATOM      4  C   UNL     1       0.154  -3.286   2.147  1.00  0.00     0.188 C 
BRANCH   4   5
ATOM      5  O   UNL     1       0.387  -3.595   3.511  1.00  0.00    -0.376 OA
BRANCH   5   6
ATOM      6  C   UNL     1      -0.267  -2.780   4.463  1.00  0.00     0.202 C 
BRANCH   6   7
ATOM      7  C   UNL     1      -1.798  -2.873   4.497  1.00  0.00     0.261 C 
BRANCH   7   8
ATOM      8  O   UNL     1      -2.461  -2.858   3.221  1.00  0.00    -0.460 OA
BRANCH   8   9
ATOM      9  C   UNL     1      -2.628  -1.674   2.580  1.00  0.00     0.340 C 
ATOM     10  O   UNL     1      -2.276  -0.583   2.986  1.00  0.00    -0.246 OA
BRANCH   9  11
ATOM     11  C   UNL     1      -3.276  -1.960   1.272  1.00  0.00     0.086 A 
ATOM     12  C   UNL     1      -2.782  -1.487   0.045  1.00  0.00     0.085 A 
ATOM     13  N   UNL     1      -3.380  -1.800  -1.140  1.00  0.00    -0.255 NA
ATOM     14  C   UNL     1      -4.471  -2.597  -1.111  1.00  0.00     0.112 A 
ATOM     15  C   UNL     1      -4.392  -2.811   1.256  1.00  0.00     0.019 A 
ATOM     16  C   UNL     1      -4.998  -3.135   0.048  1.00  0.00     0.021 A 
BRANCH  12  17
ATOM     17  C   UNL     1      -1.519  -0.744  -0.119  1.00  0.00     0.004 A 
ATOM     18  C   UNL     1       2.378   1.149  -0.110  1.00  0.00     0.044 C 
ATOM     19  C   UNL     1       1.029   0.497  -0.172  1.00  0.00    -0.051 A 
ATOM     20  C   UNL     1       0.896  -0.841  -0.534  1.00  0.00     0.004 A 
ATOM     21  C   UNL     1      -0.128   1.240   0.093  1.00  0.00     0.007 A 
ATOM     22  C   UNL     1      -0.365  -1.443  -0.526  1.00  0.00     0.011 A 
ATOM     23  C   UNL     1      -1.403   0.638   0.110  1.00  0.00    -0.041 A 
ATOM     24  C   UNL     1      -2.602   1.525   0.301  1.00  0.00     0.045 C 
ENDBRANCH  12  17
ENDBRANCH   9  11
ENDBRANCH   8   9
ENDBRANCH   7   8
ENDBRANCH   6   7
ENDBRANCH   5   6
ENDBRANCH   4   5
ENDBRANCH   3   4
ENDBRANCH   2   3
ENDBRANCH   1   2
BRANCH   1  25
ATOM     25  C   UNL     1       1.606  -5.996   2.554  1.00  0.00     0.188 C 
BRANCH  25  26
ATOM     26  O   UNL     1       1.859  -5.338   1.323  1.00  0.00    -0.376 OA
BRANCH  26  27
ATOM     27  C   UNL     1       2.255  -6.116   0.208  1.00  0.00     0.202 C 
BRANCH  27  28
ATOM     28  C   UNL     1       1.287  -7.192  -0.304  1.00  0.00     0.261 C 
BRANCH  28  29
ATOM     29  O   UNL     1       0.781  -8.110   0.675  1.00  0.00    -0.460 OA
BRANCH  29  30
ATOM     30  C   UNL     1       1.671  -8.930   1.268  1.00  0.00     0.338 C 
ATOM     31  O   UNL     1       2.870  -9.005   1.046  1.00  0.00    -0.246 OA
BRANCH  30  32
ATOM     32  C   UNL     1       0.988  -9.598   2.393  1.00  0.00     0.060 A 
ATOM     33  C   UNL     1       1.503  -9.437   3.686  1.00  0.00     0.016 A 
ATOM     34  C   UNL     1      -0.156 -10.371   2.175  1.00  0.00     0.016 A 
ATOM     35  C   UNL     1       0.913 -10.101   4.757  1.00  0.00     0.010 A 
ATOM     36  C   UNL     1      -0.730 -11.062   3.245  1.00  0.00     0.010 A 
ATOM     37  C   UNL     1      -0.160 -10.971   4.527  1.00  0.00    -0.014 A 
BRANCH  37  38
ATOM     38  C   UNL     1      -0.470 -11.987   5.560  1.00  0.00     0.031 A 
ATOM     39  C   UNL     1       0.165 -13.346   5.412  1.00  0.00     0.074 A 
ATOM     40  C   UNL     1      -1.207 -11.693   6.645  1.00  0.00     0.049 A 
ATOM     41  N   UNL     1       0.087 -14.393   6.191  1.00  0.00    -0.248 NA
ATOM     42  C   UNL     1       1.009 -13.546   4.220  1.00  0.00     0.031 C 
ATOM     43  C   UNL     1      -1.824 -10.399   6.928  1.00  0.00     0.029 A 
ATOM     44  N   UNL     1      -1.547 -12.473   7.721  1.00  0.00    -0.354 N 
ATOM     45  C   UNL     1       0.877 -15.366   5.590  1.00  0.00     0.074 A 
ATOM     46  C   UNL     1       1.381 -14.808   4.357  1.00  0.00     0.031 C 
ATOM     47  C   UNL     1      -2.470 -10.474   8.106  1.00  0.00     0.029 A 
ATOM     48  C   UNL     1      -2.330 -11.826   8.645  1.00  0.00     0.049 A 
ATOM     49  H   UNL     1      -1.258 -13.409   7.821  1.00  0.00     0.167 HD
ATOM     50  C   UNL     1       1.176 -16.608   6.035  1.00  0.00     0.037 A 
ATOM     51  C   UNL     1      -2.877 -12.286   9.787  1.00  0.00     0.037 A 
ATOM     52  C   UNL     1       0.669 -17.167   7.259  1.00  0.00     0.049 A 
ATOM     53  C   UNL     1      -2.610 -13.710  10.208  1.00  0.00     0.074 A 
ATOM     54  C   UNL     1       0.895 -18.422   7.793  1.00  0.00     0.029 A 
ATOM     55  N   UNL     1      -0.170 -16.500   8.139  1.00  0.00    -0.354 N 
ATOM     56  N   UNL     1      -1.851 -14.618   9.641  1.00  0.00    -0.248 NA
ATOM     57  C   UNL     1      -3.271 -14.169  11.438  1.00  0.00     0.031 C 
ATOM     58  C   UNL     1       0.153 -18.533   8.974  1.00  0.00     0.029 A 
ATOM     59  C   UNL     1      -0.486 -17.325   9.204  1.00  0.00     0.049 A 
ATOM     60  H   UNL     1      -0.492 -15.577   8.023  1.00  0.00     0.167 HD
ATOM     61  C   UNL     1      -1.914 -15.737  10.464  1.00  0.00     0.074 A 
ATOM     62  C   UNL     1      -2.766 -15.384  11.581  1.00  0.00     0.031 C 
ATOM     63  C   UNL     1      -1.325 -16.950  10.314  1.00  0.00     0.037 A 
BRANCH  50  64
ATOM     64  C   UNL     1       2.083 -17.447   5.183  1.00  0.00     0.057 A 
ATOM     65  C   UNL     1       3.446 -17.155   5.045  1.00  0.00     0.134 A 
ATOM     66  C   UNL     1       1.593 -18.574   4.511  1.00  0.00     0.134 A 
ATOM     67  F   UNL     1       3.975 -16.077   5.644  1.00  0.00    -0.206 F 
ATOM     68  C   UNL     1       4.286 -17.942   4.254  1.00  0.00     0.040 A 
ATOM     69  C   UNL     1       2.428 -19.385   3.742  1.00  0.00     0.040 A 
ATOM     70  F   UNL     1       0.297 -18.910   4.599  1.00  0.00    -0.206 F 
ATOM     71  C   UNL     1       3.778 -19.067   3.607  1.00  0.00     0.006 A 
ENDBRANCH  50  64
BRANCH  51  72
ATOM     72  C   UNL     1      -3.743 -11.411  10.622  1.00  0.00     0.057 A 
ATOM     73  C   UNL     1      -3.371 -11.045  11.922  1.00  0.00     0.134 A 
ATOM     74  C   UNL     1      -4.997 -10.983  10.170  1.00  0.00     0.134 A 
ATOM     75  F   UNL     1      -2.193 -11.443  12.424  1.00  0.00    -0.206 F 
ATOM     76  C   UNL     1      -4.228 -10.322  12.754  1.00  0.00     0.040 A 
ATOM     77  C   UNL     1      -5.851 -10.233  10.979  1.00  0.00     0.040 A 
ATOM     78  F   UNL     1      -5.417 -11.298   8.935  1.00  0.00    -0.206 F 
ATOM     79  C   UNL     1      -5.473  -9.912  12.281  1.00  0.00     0.006 A 
ENDBRANCH  51  72
BRANCH  63  80
ATOM     80  C   UNL     1      -1.542 -17.959  11.406  1.00  0.00     0.057 A 
ATOM     81  C   UNL     1      -2.789 -18.556  11.632  1.00  0.00     0.134 A 
ATOM     82  C   UNL     1      -0.481 -18.349  12.235  1.00  0.00     0.134 A 
ATOM     83  F   UNL     1      -3.849 -18.222  10.880  1.00  0.00    -0.206 F 
ATOM     84  C   UNL     1      -2.984 -19.470  12.669  1.00  0.00     0.040 A 
ATOM     85  C   UNL     1      -0.655 -19.289  13.252  1.00  0.00     0.040 A 
ATOM     86  F   UNL     1       0.744 -17.831  12.065  1.00  0.00    -0.206 F 
ATOM     87  C   UNL     1      -1.913 -19.842  13.480  1.00  0.00     0.006 A 
ENDBRANCH  63  80
ENDBRANCH  37  38
ENDBRANCH  30  32
ENDBRANCH  29  30
ENDBRANCH  28  29
ENDBRANCH  27  28
ENDBRANCH  26  27
ENDBRANCH  25  26
ENDBRANCH   1  25
TORSDOF 21
