REMARK SMILES Cc1ccc([C@@]23C[C@@H]4C[C@@H](C[C@@](C(=O)N5CCC(C(=O)OCCOCCOCCOCCOC(=O)c6ccc(-c7c8nc(c(-c9c(F)cccc9F)c9ccc([nH]9)c(-c9c(F)cccc9F)c9nc(c(-c%10c(F)cccc%10F)c%10ccc7[nH]%10)C=C9)C=C8)cc6)CC5)(C4)C2)C3)cc1
REMARK SMILES IDX 27 1 26 2 25 3 24 4 23 5 22 6 21 7 19 8 20 9 18 10 13 11
REMARK SMILES IDX 14 12 15 13 16 14 91 15 17 16 90 17 12 18 6 19 7 20 93 21
REMARK SMILES IDX 94 22 8 23 10 24 9 25 92 26 11 27 5 28 1 29 2 30 3 31 96 32
REMARK SMILES IDX 4 33 95 34 28 35 29 36 30 37 31 38 32 39 33 40 34 41 35 42
REMARK SMILES IDX 36 43 37 44 89 45 38 46 88 47 39 48 40 49 41 50 82 51 42 52
REMARK SMILES IDX 87 53 81 54 83 55 43 56 86 57 80 58 79 59 44 61 70 62 53 63
REMARK SMILES IDX 69 64 54 65 57 66 68 67 84 68 55 69 56 70 67 72 85 73 58 74
REMARK SMILES IDX 45 75 46 76 51 77 47 78 48 79 50 80 52 81 49 82 71 83 72 84
REMARK SMILES IDX 77 85 73 86 74 87 76 88 78 89 75 90 59 91 60 92 65 93 61 94
REMARK SMILES IDX 62 95 64 96 66 97 63 98
REMARK H PARENT 83 60 57 71
REMARK Flexibility Score: inf
ROOT
ATOM      1  O   UNL     1      -5.829  -2.110  -5.587  1.00  0.00    -0.377 OA
ENDROOT
BRANCH   1   2
ATOM      2  C   UNL     1      -4.651  -2.438  -6.317  1.00  0.00     0.188 C 
BRANCH   2   3
ATOM      3  C   UNL     1      -4.341  -3.917  -6.622  1.00  0.00     0.188 C 
BRANCH   3   4
ATOM      4  O   UNL     1      -5.300  -4.660  -7.352  1.00  0.00    -0.376 OA
BRANCH   4   5
ATOM      5  C   UNL     1      -6.391  -5.109  -6.570  1.00  0.00     0.202 C 
BRANCH   5   6
ATOM      6  C   UNL     1      -6.181  -6.338  -5.707  1.00  0.00     0.261 C 
BRANCH   6   7
ATOM      7  O   UNL     1      -5.988  -5.940  -4.352  1.00  0.00    -0.463 OA
BRANCH   7   8
ATOM      8  C   UNL     1      -4.746  -6.102  -3.863  1.00  0.00     0.309 C 
ATOM      9  O   UNL     1      -3.839  -6.700  -4.397  1.00  0.00    -0.252 OA
BRANCH   8  10
ATOM     10  C   UNL     1      -4.580  -5.244  -2.644  1.00  0.00     0.103 C 
ATOM     11  C   UNL     1      -5.787  -2.368   0.170  1.00  0.00     0.228 C 
ATOM     12  O   UNL     1      -6.634  -2.759   0.976  1.00  0.00    -0.274 OA
ATOM     13  N   UNL     1      -5.104  -3.267  -0.656  1.00  0.00    -0.342 N 
ATOM     14  C   UNL     1      -5.072  -4.686  -0.287  1.00  0.00     0.120 C 
ATOM     15  C   UNL     1      -4.329  -2.942  -1.859  1.00  0.00     0.120 C 
ATOM     16  C   UNL     1      -5.484  -5.577  -1.460  1.00  0.00     0.037 C 
ATOM     17  C   UNL     1      -4.790  -3.780  -3.016  1.00  0.00     0.037 C 
BRANCH  11  18
ATOM     18  C   UNL     1      -5.369  -0.880   0.143  1.00  0.00     0.051 C 
ATOM     19  C   UNL     1      -3.201   0.519   0.195  1.00  0.00    -0.003 C 
ATOM     20  C   UNL     1      -3.711   1.155  -1.132  1.00  0.00     0.015 C 
ATOM     21  C   UNL     1      -3.840  -0.866   0.305  1.00  0.00     0.028 C 
ATOM     22  C   UNL     1      -3.756   1.319   1.399  1.00  0.00     0.015 C 
ATOM     23  C   UNL     1      -5.249   1.273  -1.156  1.00  0.00    -0.009 C 
ATOM     24  C   UNL     1      -5.303   1.358   1.355  1.00  0.00    -0.009 C 
ATOM     25  C   UNL     1      -5.725   2.076   0.062  1.00  0.00     0.007 C 
ATOM     26  C   UNL     1      -5.889  -0.121  -1.096  1.00  0.00     0.020 C 
ATOM     27  C   UNL     1      -5.896  -0.077   1.366  1.00  0.00     0.020 C 
BRANCH  19  28
ATOM     28  C   UNL     1      -1.662   0.399   0.186  1.00  0.00    -0.042 A 
ATOM     29  C   UNL     1       2.668   0.073  -0.029  1.00  0.00     0.044 C 
ATOM     30  C   UNL     1       1.177   0.204   0.044  1.00  0.00    -0.051 A 
ATOM     31  C   UNL     1       0.397  -0.945   0.106  1.00  0.00     0.004 A 
ATOM     32  C   UNL     1       0.541   1.449   0.054  1.00  0.00     0.004 A 
ATOM     33  C   UNL     1      -0.993  -0.846   0.188  1.00  0.00     0.004 A 
ATOM     34  C   UNL     1      -0.858   1.545   0.122  1.00  0.00     0.004 A 
ENDBRANCH  19  28
ENDBRANCH  11  18
ENDBRANCH   8  10
ENDBRANCH   7   8
ENDBRANCH   6   7
ENDBRANCH   5   6
ENDBRANCH   4   5
ENDBRANCH   3   4
ENDBRANCH   2   3
ENDBRANCH   1   2
BRANCH   1  35
ATOM     35  C   UNL     1      -6.993  -1.734  -6.330  1.00  0.00     0.188 C 
BRANCH  35  36
ATOM     36  C   UNL     1      -6.773  -0.802  -7.513  1.00  0.00     0.188 C 
BRANCH  36  37
ATOM     37  O   UNL     1      -6.309  -1.593  -8.609  1.00  0.00    -0.376 OA
BRANCH  37  38
ATOM     38  C   UNL     1      -5.603  -0.881  -9.620  1.00  0.00     0.202 C 
BRANCH  38  39
ATOM     39  C   UNL     1      -6.450   0.208 -10.285  1.00  0.00     0.261 C 
BRANCH  39  40
ATOM     40  O   UNL     1      -7.544  -0.424 -10.984  1.00  0.00    -0.460 OA
BRANCH  40  41
ATOM     41  C   UNL     1      -8.776  -0.213 -10.450  1.00  0.00     0.338 C 
ATOM     42  O   UNL     1      -9.251   0.881 -10.191  1.00  0.00    -0.246 OA
BRANCH  41  43
ATOM     43  C   UNL     1      -9.359  -1.500  -9.961  1.00  0.00     0.060 A 
ATOM     44  C   UNL     1     -10.529  -1.489  -9.184  1.00  0.00     0.016 A 
ATOM     45  C   UNL     1      -8.581  -2.649  -9.996  1.00  0.00     0.016 A 
ATOM     46  C   UNL     1     -10.812  -2.555  -8.311  1.00  0.00     0.010 A 
ATOM     47  C   UNL     1      -8.803  -3.636  -9.053  1.00  0.00     0.010 A 
ATOM     48  C   UNL     1      -9.890  -3.590  -8.165  1.00  0.00    -0.014 A 
BRANCH  48  49
ATOM     49  C   UNL     1      -9.851  -4.556  -7.039  1.00  0.00     0.031 A 
ATOM     50  C   UNL     1      -9.649  -6.018  -7.326  1.00  0.00     0.074 A 
ATOM     51  C   UNL     1      -9.617  -4.064  -5.793  1.00  0.00     0.049 A 
ATOM     52  N   UNL     1      -9.490  -6.941  -6.437  1.00  0.00    -0.248 NA
ATOM     53  C   UNL     1      -9.579  -6.567  -8.682  1.00  0.00     0.031 C 
ATOM     54  C   UNL     1      -8.905  -4.706  -4.684  1.00  0.00     0.029 A 
ATOM     55  N   UNL     1      -9.882  -2.818  -5.258  1.00  0.00    -0.354 N 
ATOM     56  C   UNL     1      -8.950  -8.061  -7.054  1.00  0.00     0.074 A 
ATOM     57  C   UNL     1      -9.145  -7.814  -8.460  1.00  0.00     0.031 C 
ATOM     58  C   UNL     1      -8.810  -3.875  -3.633  1.00  0.00     0.029 A 
ATOM     59  C   UNL     1      -9.782  -2.844  -3.858  1.00  0.00     0.049 A 
ATOM     60  H   UNL     1     -10.110  -2.019  -5.787  1.00  0.00     0.167 HD
ATOM     61  C   UNL     1      -8.259  -8.984  -6.306  1.00  0.00     0.037 A 
ATOM     62  C   UNL     1     -10.932  -2.790  -3.109  1.00  0.00     0.037 A 
ATOM     63  C   UNL     1      -8.412  -8.742  -4.842  1.00  0.00     0.049 A 
ATOM     64  C   UNL     1     -11.397  -4.186  -2.616  1.00  0.00     0.074 A 
ATOM     65  C   UNL     1      -7.578  -8.727  -3.733  1.00  0.00     0.029 A 
ATOM     66  N   UNL     1      -9.634  -8.274  -4.361  1.00  0.00    -0.354 N 
ATOM     67  N   UNL     1     -10.677  -5.287  -2.708  1.00  0.00    -0.248 NA
ATOM     68  C   UNL     1     -12.697  -4.478  -2.019  1.00  0.00     0.031 C 
ATOM     69  C   UNL     1      -8.308  -8.193  -2.617  1.00  0.00     0.029 A 
ATOM     70  C   UNL     1      -9.606  -7.941  -3.024  1.00  0.00     0.049 A 
ATOM     71  H   UNL     1     -10.440  -8.191  -4.922  1.00  0.00     0.167 HD
ATOM     72  C   UNL     1     -11.374  -6.391  -2.302  1.00  0.00     0.074 A 
ATOM     73  C   UNL     1     -12.645  -5.819  -1.873  1.00  0.00     0.031 C 
ATOM     74  C   UNL     1     -10.888  -7.680  -2.370  1.00  0.00     0.037 A 
BRANCH  61  75
ATOM     75  C   UNL     1      -7.254 -10.007  -6.876  1.00  0.00     0.057 A 
ATOM     76  C   UNL     1      -6.729 -11.037  -6.063  1.00  0.00     0.134 A 
ATOM     77  C   UNL     1      -6.669  -9.969  -8.163  1.00  0.00     0.134 A 
ATOM     78  F   UNL     1      -7.181 -11.238  -4.818  1.00  0.00    -0.206 F 
ATOM     79  C   UNL     1      -5.707 -11.916  -6.475  1.00  0.00     0.040 A 
ATOM     80  C   UNL     1      -5.692 -10.883  -8.610  1.00  0.00     0.040 A 
ATOM     81  F   UNL     1      -6.958  -9.011  -9.051  1.00  0.00    -0.206 F 
ATOM     82  C   UNL     1      -5.191 -11.852  -7.759  1.00  0.00     0.006 A 
ENDBRANCH  61  75
BRANCH  62  83
ATOM     83  C   UNL     1     -11.682  -1.542  -3.513  1.00  0.00     0.057 A 
ATOM     84  C   UNL     1     -10.945  -0.351  -3.283  1.00  0.00     0.134 A 
ATOM     85  C   UNL     1     -12.476  -1.557  -4.668  1.00  0.00     0.134 A 
ATOM     86  F   UNL     1     -10.212  -0.224  -2.165  1.00  0.00    -0.206 F 
ATOM     87  C   UNL     1     -10.726   0.586  -4.301  1.00  0.00     0.040 A 
ATOM     88  C   UNL     1     -12.300  -0.588  -5.675  1.00  0.00     0.040 A 
ATOM     89  F   UNL     1     -13.245  -2.618  -4.949  1.00  0.00    -0.206 F 
ATOM     90  C   UNL     1     -11.357   0.430  -5.529  1.00  0.00     0.006 A 
ENDBRANCH  62  83
BRANCH  74  91
ATOM     91  C   UNL     1     -11.661  -8.912  -1.933  1.00  0.00     0.057 A 
ATOM     92  C   UNL     1     -12.574  -8.910  -0.878  1.00  0.00     0.134 A 
ATOM     93  C   UNL     1     -11.467 -10.179  -2.540  1.00  0.00     0.134 A 
ATOM     94  F   UNL     1     -12.678  -7.860  -0.052  1.00  0.00    -0.206 F 
ATOM     95  C   UNL     1     -13.392 -10.012  -0.598  1.00  0.00     0.040 A 
ATOM     96  C   UNL     1     -12.241 -11.299  -2.241  1.00  0.00     0.040 A 
ATOM     97  F   UNL     1     -10.514 -10.413  -3.451  1.00  0.00    -0.206 F 
ATOM     98  C   UNL     1     -13.248 -11.202  -1.302  1.00  0.00     0.006 A 
ENDBRANCH  74  91
ENDBRANCH  48  49
ENDBRANCH  41  43
ENDBRANCH  40  41
ENDBRANCH  39  40
ENDBRANCH  38  39
ENDBRANCH  37  38
ENDBRANCH  36  37
ENDBRANCH  35  36
ENDBRANCH   1  35
TORSDOF 22
