REMARK SMILES CCc1c(C(=O)OCCOCCOCCOCCOC(=O)c2ccc(-c3c4nc(c(-c5c(F)cccc5F)c5ccc([nH]5)c(-c5c(F)cccc5F)c5nc(c(-c6c(F)cccc6F)c6ccc3[nH]6)C=C5)C=C4)cc2)nnn1-c1ccc(OC)cc1
REMARK SMILES IDX 13 1 12 2 11 3 10 4 9 5 8 6 7 7 5 8 6 9 4 10 3 11 78 12
REMARK SMILES IDX 76 13 77 14 2 15 1 16 79 17 80 18 86 19 81 20 85 21 82 22
REMARK SMILES IDX 83 23 84 24 14 25 15 26 16 27 17 28 18 29 19 30 20 31 21 32
REMARK SMILES IDX 22 33 23 34 75 35 24 36 74 37 25 38 26 39 27 40 68 41 28 42
REMARK SMILES IDX 73 43 67 44 69 45 29 46 72 47 66 48 65 49 30 51 56 52 39 53
REMARK SMILES IDX 55 54 40 55 43 56 54 57 70 58 41 59 42 60 53 62 71 63 44 64
REMARK SMILES IDX 31 65 32 66 37 67 33 68 34 69 36 70 38 71 35 72 57 73 58 74
REMARK SMILES IDX 63 75 59 76 60 77 62 78 64 79 61 80 45 81 46 82 51 83 47 84
REMARK SMILES IDX 48 85 50 86 52 87 49 88
REMARK H PARENT 69 50 43 61
REMARK Flexibility Score: inf
ROOT
ATOM      1  O   UNL     1      -0.632   0.827   3.705  1.00  0.00    -0.377 OA
ENDROOT
BRANCH   1   2
ATOM      2  C   UNL     1       0.272  -0.234   4.015  1.00  0.00     0.188 C 
BRANCH   2   3
ATOM      3  C   UNL     1       1.585  -0.037   4.817  1.00  0.00     0.188 C 
BRANCH   3   4
ATOM      4  O   UNL     1       2.095   1.281   4.744  1.00  0.00    -0.376 OA
BRANCH   4   5
ATOM      5  C   UNL     1       3.352   1.542   4.169  1.00  0.00     0.202 C 
BRANCH   5   6
ATOM      6  C   UNL     1       3.491   1.282   2.667  1.00  0.00     0.261 C 
BRANCH   6   7
ATOM      7  O   UNL     1       2.719   0.181   2.182  1.00  0.00    -0.458 OA
BRANCH   7   8
ATOM      8  C   UNL     1       3.289  -1.046   2.190  1.00  0.00     0.360 C 
ATOM      9  O   UNL     1       4.440  -1.264   2.571  1.00  0.00    -0.244 OA
BRANCH   8  10
ATOM     10  C   UNL     1       2.347  -2.093   1.827  1.00  0.00     0.194 A 
ATOM     11  C   UNL     1       1.400  -2.165   0.807  1.00  0.00     0.079 A 
ATOM     12  N   UNL     1       0.909  -3.460   0.948  1.00  0.00    -0.217 N 
ATOM     13  N   UNL     1       2.200  -3.197   2.641  1.00  0.00    -0.122 NA
ATOM     14  N   UNL     1       1.224  -3.952   2.160  1.00  0.00    -0.061 NA
BRANCH  11  15
ATOM     15  C   UNL     1       0.864  -1.273  -0.275  1.00  0.00     0.055 C 
ATOM     16  C   UNL     1       1.091   0.216  -0.138  1.00  0.00     0.011 C 
ENDBRANCH  11  15
BRANCH  12  17
ATOM     17  C   UNL     1       0.341  -4.279  -0.049  1.00  0.00     0.067 A 
ATOM     18  C   UNL     1      -0.763  -5.086   0.222  1.00  0.00     0.032 A 
ATOM     19  C   UNL     1       0.938  -4.291  -1.315  1.00  0.00     0.032 A 
ATOM     20  C   UNL     1      -1.321  -5.834  -0.822  1.00  0.00     0.048 A 
ATOM     21  C   UNL     1       0.398  -5.067  -2.335  1.00  0.00     0.048 A 
ATOM     22  C   UNL     1      -0.753  -5.818  -2.104  1.00  0.00     0.119 A 
BRANCH  22  23
ATOM     23  O   UNL     1      -1.399  -6.573  -3.044  1.00  0.00    -0.497 OA
ATOM     24  C   UNL     1      -0.898  -6.484  -4.375  1.00  0.00     0.278 C 
ENDBRANCH  22  23
ENDBRANCH  12  17
ENDBRANCH   8  10
ENDBRANCH   7   8
ENDBRANCH   6   7
ENDBRANCH   5   6
ENDBRANCH   4   5
ENDBRANCH   3   4
ENDBRANCH   2   3
ENDBRANCH   1   2
BRANCH   1  25
ATOM     25  C   UNL     1      -0.218   2.173   3.876  1.00  0.00     0.188 C 
BRANCH  25  26
ATOM     26  C   UNL     1      -0.192   2.665   5.340  1.00  0.00     0.188 C 
BRANCH  26  27
ATOM     27  O   UNL     1      -0.063   1.654   6.324  1.00  0.00    -0.376 OA
BRANCH  27  28
ATOM     28  C   UNL     1      -1.153   0.936   6.875  1.00  0.00     0.202 C 
BRANCH  28  29
ATOM     29  C   UNL     1      -2.459   0.636   6.145  1.00  0.00     0.261 C 
BRANCH  29  30
ATOM     30  O   UNL     1      -2.828   1.540   5.132  1.00  0.00    -0.460 OA
BRANCH  30  31
ATOM     31  C   UNL     1      -3.248   2.736   5.544  1.00  0.00     0.338 C 
ATOM     32  O   UNL     1      -3.173   3.216   6.673  1.00  0.00    -0.246 OA
BRANCH  31  33
ATOM     33  C   UNL     1      -3.932   3.359   4.419  1.00  0.00     0.060 A 
ATOM     34  C   UNL     1      -4.224   4.718   4.525  1.00  0.00     0.016 A 
ATOM     35  C   UNL     1      -4.549   2.519   3.476  1.00  0.00     0.016 A 
ATOM     36  C   UNL     1      -5.325   5.185   3.852  1.00  0.00     0.010 A 
ATOM     37  C   UNL     1      -5.662   2.978   2.830  1.00  0.00     0.010 A 
ATOM     38  C   UNL     1      -6.083   4.275   3.108  1.00  0.00    -0.014 A 
BRANCH  38  39
ATOM     39  C   UNL     1      -7.350   4.719   2.589  1.00  0.00     0.031 A 
ATOM     40  C   UNL     1      -7.215   5.548   1.379  1.00  0.00     0.074 A 
ATOM     41  C   UNL     1      -8.510   4.298   3.124  1.00  0.00     0.049 A 
ATOM     42  N   UNL     1      -7.509   6.796   1.247  1.00  0.00    -0.248 NA
ATOM     43  C   UNL     1      -6.505   4.966   0.228  1.00  0.00     0.031 C 
ATOM     44  C   UNL     1      -8.714   3.258   4.137  1.00  0.00     0.029 A 
ATOM     45  N   UNL     1      -9.776   4.643   2.781  1.00  0.00    -0.354 N 
ATOM     46  C   UNL     1      -7.226   7.099  -0.078  1.00  0.00     0.074 A 
ATOM     47  C   UNL     1      -6.428   6.017  -0.588  1.00  0.00     0.031 C 
ATOM     48  C   UNL     1     -10.019   2.902   4.147  1.00  0.00     0.029 A 
ATOM     49  C   UNL     1     -10.749   3.762   3.231  1.00  0.00     0.049 A 
ATOM     50  H   UNL     1      -9.987   5.450   2.258  1.00  0.00     0.167 HD
ATOM     51  C   UNL     1      -7.920   8.070  -0.727  1.00  0.00     0.037 A 
ATOM     52  C   UNL     1     -12.030   3.705   2.789  1.00  0.00     0.037 A 
ATOM     53  C   UNL     1      -8.558   8.967   0.205  1.00  0.00     0.049 A 
ATOM     54  C   UNL     1     -12.323   4.993   2.103  1.00  0.00     0.074 A 
ATOM     55  C   UNL     1      -8.110   9.775   1.233  1.00  0.00     0.029 A 
ATOM     56  N   UNL     1      -9.912   8.834   0.399  1.00  0.00    -0.354 N 
ATOM     57  N   UNL     1     -12.445   6.135   2.720  1.00  0.00    -0.248 NA
ATOM     58  C   UNL     1     -12.028   5.087   0.680  1.00  0.00     0.031 C 
ATOM     59  C   UNL     1      -9.117   9.694   2.239  1.00  0.00     0.029 A 
ATOM     60  C   UNL     1     -10.146   8.890   1.749  1.00  0.00     0.049 A 
ATOM     61  H   UNL     1     -10.591   8.719  -0.304  1.00  0.00     0.167 HD
ATOM     62  C   UNL     1     -11.813   7.053   1.893  1.00  0.00     0.074 A 
ATOM     63  C   UNL     1     -11.666   6.371   0.609  1.00  0.00     0.031 C 
ATOM     64  C   UNL     1     -11.203   8.161   2.409  1.00  0.00     0.037 A 
BRANCH  51  65
ATOM     65  C   UNL     1      -8.351   7.949  -2.166  1.00  0.00     0.057 A 
ATOM     66  C   UNL     1      -8.956   9.054  -2.785  1.00  0.00     0.134 A 
ATOM     67  C   UNL     1      -8.471   6.729  -2.868  1.00  0.00     0.134 A 
ATOM     68  F   UNL     1      -8.921  10.267  -2.212  1.00  0.00    -0.206 F 
ATOM     69  C   UNL     1      -9.697   8.938  -3.966  1.00  0.00     0.040 A 
ATOM     70  C   UNL     1      -9.161   6.614  -4.076  1.00  0.00     0.040 A 
ATOM     71  F   UNL     1      -8.025   5.564  -2.383  1.00  0.00    -0.206 F 
ATOM     72  C   UNL     1      -9.808   7.713  -4.611  1.00  0.00     0.006 A 
ENDBRANCH  51  65
BRANCH  52  73
ATOM     73  C   UNL     1     -12.902   2.517   2.630  1.00  0.00     0.057 A 
ATOM     74  C   UNL     1     -14.273   2.662   2.372  1.00  0.00     0.134 A 
ATOM     75  C   UNL     1     -12.378   1.223   2.453  1.00  0.00     0.134 A 
ATOM     76  F   UNL     1     -14.862   3.862   2.477  1.00  0.00    -0.206 F 
ATOM     77  C   UNL     1     -15.067   1.595   1.929  1.00  0.00     0.040 A 
ATOM     78  C   UNL     1     -13.162   0.148   2.023  1.00  0.00     0.040 A 
ATOM     79  F   UNL     1     -11.069   0.973   2.599  1.00  0.00    -0.206 F 
ATOM     80  C   UNL     1     -14.508   0.335   1.742  1.00  0.00     0.006 A 
ENDBRANCH  52  73
BRANCH  64  81
ATOM     81  C   UNL     1     -11.473   8.497   3.850  1.00  0.00     0.057 A 
ATOM     82  C   UNL     1     -11.146   7.662   4.930  1.00  0.00     0.134 A 
ATOM     83  C   UNL     1     -11.973   9.765   4.162  1.00  0.00     0.134 A 
ATOM     84  F   UNL     1     -10.558   6.475   4.737  1.00  0.00    -0.206 F 
ATOM     85  C   UNL     1     -11.368   8.048   6.255  1.00  0.00     0.040 A 
ATOM     86  C   UNL     1     -12.164  10.178   5.483  1.00  0.00     0.040 A 
ATOM     87  F   UNL     1     -12.250  10.643   3.185  1.00  0.00    -0.206 F 
ATOM     88  C   UNL     1     -11.876   9.313   6.535  1.00  0.00     0.006 A 
ENDBRANCH  64  81
ENDBRANCH  38  39
ENDBRANCH  31  33
ENDBRANCH  30  31
ENDBRANCH  29  30
ENDBRANCH  28  29
ENDBRANCH  27  28
ENDBRANCH  26  27
ENDBRANCH  25  26
ENDBRANCH   1  25
TORSDOF 23
