REMARK SMILES CC(=O)N1CC2(CC[NH+](C(=O)COCc3ccccc3)CC2)C[C@H]1C(=O)OCCOCCOCCOCCOC(=O)c1ccc(-c2c3nc(c(-c4c(F)cccc4F)c4ccc([nH]4)c(-c4c(F)cccc4F)c4nc(c(-c5c(F)cccc5F)c5ccc2[nH]5)C=C4)C=C3)cc1
REMARK SMILES IDX 31 1 30 2 29 3 28 4 27 5 25 6 26 7 24 8 4 9 5 10 6 11 23 12
REMARK SMILES IDX 7 13 22 14 8 15 21 16 9 17 2 19 1 20 3 21 10 22 11 23 12 24
REMARK SMILES IDX 13 25 14 26 15 27 16 28 20 29 17 30 19 31 18 32 32 33 33 34
REMARK SMILES IDX 34 35 35 36 36 37 37 38 38 39 39 40 40 41 41 42 42 43 43 44
REMARK SMILES IDX 95 45 44 46 94 47 45 48 46 49 47 50 88 51 48 52 93 53 87 54
REMARK SMILES IDX 89 55 49 56 92 57 86 58 85 59 50 61 76 62 59 63 75 64 60 65
REMARK SMILES IDX 63 66 74 67 90 68 61 69 62 70 73 72 91 73 64 74 51 75 52 76
REMARK SMILES IDX 57 77 53 78 54 79 56 80 58 81 55 82 77 83 78 84 83 85 79 86
REMARK SMILES IDX 80 87 82 88 84 89 81 90 65 91 66 92 71 93 67 94 68 95 70 96
REMARK SMILES IDX 72 97 69 98
REMARK H PARENT 9 18 89 60 63 71
REMARK Flexibility Score: inf
ROOT
ATOM      1  C   UNL     1      -1.275  -3.775   3.414  1.00  0.00     0.188 C 
ENDROOT
BRANCH   1   2
ATOM      2  O   UNL     1      -1.446  -5.064   3.995  1.00  0.00    -0.376 OA
BRANCH   2   3
ATOM      3  C   UNL     1      -0.440  -6.058   3.896  1.00  0.00     0.202 C 
BRANCH   3   4
ATOM      4  C   UNL     1       0.242  -6.375   2.553  1.00  0.00     0.261 C 
BRANCH   4   5
ATOM      5  O   UNL     1       0.391  -5.283   1.631  1.00  0.00    -0.462 OA
BRANCH   5   6
ATOM      6  C   UNL     1      -0.544  -5.194   0.653  1.00  0.00     0.328 C 
ATOM      7  O   UNL     1      -1.414  -6.039   0.462  1.00  0.00    -0.250 OA
BRANCH   6   8
ATOM      8  C   UNL     1      -0.338  -3.995  -0.301  1.00  0.00     0.195 C 
ATOM      9  N   UNL     1       0.537  -2.846  -0.026  1.00  0.00    -0.329 N 
ATOM     10  C   UNL     1       1.916  -3.194  -0.261  1.00  0.00     0.128 C 
ATOM     11  C   UNL     1       1.844  -4.221  -1.404  1.00  0.00     0.001 C 
ATOM     12  C   UNL     1       0.331  -4.554  -1.555  1.00  0.00     0.046 C 
ATOM     13  C   UNL     1       2.677  -5.471  -1.046  1.00  0.00     0.071 C 
ATOM     14  C   UNL     1       2.344  -3.584  -2.722  1.00  0.00     0.071 C 
ATOM     15  C   UNL     1       4.176  -5.171  -1.082  1.00  0.00     0.270 C 
ATOM     16  C   UNL     1       3.852  -3.362  -2.718  1.00  0.00     0.270 C 
ATOM     17  N   UNL     1       4.513  -4.613  -2.389  1.00  0.00    -0.270 N 
ATOM     18  H   UNL     1       5.205  -5.011  -1.813  1.00  0.00     0.356 HD
BRANCH   9  19
ATOM     19  C   UNL     1       0.041  -1.575   0.182  1.00  0.00     0.220 C 
ATOM     20  C   UNL     1       0.999  -0.418  -0.005  1.00  0.00     0.114 C 
ATOM     21  O   UNL     1      -1.140  -1.371   0.454  1.00  0.00    -0.275 OA
ENDBRANCH   9  19
BRANCH  17  22
ATOM     22  C   UNL     1       5.187  -5.293  -3.393  1.00  0.00     0.337 C 
ATOM     23  O   UNL     1       5.267  -4.858  -4.544  1.00  0.00    -0.228 OA
BRANCH  22  24
ATOM     24  C   UNL     1       5.842  -6.627  -3.023  1.00  0.00     0.305 C 
BRANCH  24  25
ATOM     25  O   UNL     1       6.806  -6.603  -1.976  1.00  0.00    -0.363 OA
BRANCH  25  26
ATOM     26  C   UNL     1       7.861  -5.655  -2.180  1.00  0.00     0.196 C 
BRANCH  26  27
ATOM     27  C   UNL     1       8.755  -5.994  -3.345  1.00  0.00    -0.022 A 
ATOM     28  C   UNL     1       9.007  -7.327  -3.701  1.00  0.00     0.006 A 
ATOM     29  C   UNL     1       9.365  -4.970  -4.081  1.00  0.00     0.006 A 
ATOM     30  C   UNL     1       9.795  -7.629  -4.810  1.00  0.00     0.000 A 
ATOM     31  C   UNL     1      10.171  -5.274  -5.179  1.00  0.00     0.000 A 
ATOM     32  C   UNL     1      10.375  -6.601  -5.550  1.00  0.00     0.000 A 
ENDBRANCH  26  27
ENDBRANCH  25  26
ENDBRANCH  24  25
ENDBRANCH  22  24
ENDBRANCH  17  22
ENDBRANCH   6   8
ENDBRANCH   5   6
ENDBRANCH   4   5
ENDBRANCH   3   4
ENDBRANCH   2   3
ENDBRANCH   1   2
BRANCH   1  33
ATOM     33  C   UNL     1       0.117  -3.117   3.340  1.00  0.00     0.188 C 
BRANCH  33  34
ATOM     34  O   UNL     1       1.178  -3.886   3.875  1.00  0.00    -0.377 OA
BRANCH  34  35
ATOM     35  C   UNL     1       1.563  -3.587   5.205  1.00  0.00     0.188 C 
BRANCH  35  36
ATOM     36  C   UNL     1       0.453  -3.256   6.219  1.00  0.00     0.188 C 
BRANCH  36  37
ATOM     37  O   UNL     1      -0.470  -2.274   5.768  1.00  0.00    -0.376 OA
BRANCH  37  38
ATOM     38  C   UNL     1      -0.313  -0.924   6.177  1.00  0.00     0.202 C 
BRANCH  38  39
ATOM     39  C   UNL     1       0.891  -0.141   5.627  1.00  0.00     0.261 C 
BRANCH  39  40
ATOM     40  O   UNL     1       2.187  -0.707   5.868  1.00  0.00    -0.460 OA
BRANCH  40  41
ATOM     41  C   UNL     1       2.564  -0.888   7.151  1.00  0.00     0.338 C 
ATOM     42  O   UNL     1       1.946  -0.575   8.154  1.00  0.00    -0.246 OA
BRANCH  41  43
ATOM     43  C   UNL     1       3.784  -1.722   7.142  1.00  0.00     0.060 A 
ATOM     44  C   UNL     1       3.758  -2.963   7.791  1.00  0.00     0.016 A 
ATOM     45  C   UNL     1       4.936  -1.294   6.477  1.00  0.00     0.016 A 
ATOM     46  C   UNL     1       4.896  -3.768   7.805  1.00  0.00     0.010 A 
ATOM     47  C   UNL     1       6.084  -2.088   6.515  1.00  0.00     0.010 A 
ATOM     48  C   UNL     1       6.078  -3.312   7.208  1.00  0.00    -0.014 A 
BRANCH  48  49
ATOM     49  C   UNL     1       7.355  -4.005   7.499  1.00  0.00     0.031 A 
ATOM     50  C   UNL     1       8.222  -3.459   8.598  1.00  0.00     0.074 A 
ATOM     51  C   UNL     1       7.729  -5.104   6.823  1.00  0.00     0.049 A 
ATOM     52  N   UNL     1       9.397  -3.858   9.009  1.00  0.00    -0.248 NA
ATOM     53  C   UNL     1       7.688  -2.297   9.327  1.00  0.00     0.031 C 
ATOM     54  C   UNL     1       6.958  -5.750   5.765  1.00  0.00     0.029 A 
ATOM     55  N   UNL     1       8.869  -5.862   6.926  1.00  0.00    -0.354 N 
ATOM     56  C   UNL     1       9.743  -2.998  10.044  1.00  0.00     0.074 A 
ATOM     57  C   UNL     1       8.675  -2.030  10.166  1.00  0.00     0.031 C 
ATOM     58  C   UNL     1       7.659  -6.798   5.297  1.00  0.00     0.029 A 
ATOM     59  C   UNL     1       8.938  -6.875   6.002  1.00  0.00     0.049 A 
ATOM     60  H   UNL     1       9.569  -5.695   7.597  1.00  0.00     0.167 HD
ATOM     61  C   UNL     1      10.845  -3.019  10.830  1.00  0.00     0.037 A 
ATOM     62  C   UNL     1       9.933  -7.744   5.740  1.00  0.00     0.037 A 
ATOM     63  C   UNL     1      11.915  -3.970  10.689  1.00  0.00     0.049 A 
ATOM     64  C   UNL     1      11.190  -7.702   6.569  1.00  0.00     0.074 A 
ATOM     65  C   UNL     1      13.075  -4.082  11.434  1.00  0.00     0.029 A 
ATOM     66  N   UNL     1      11.963  -4.966   9.723  1.00  0.00    -0.354 N 
ATOM     67  N   UNL     1      11.501  -6.903   7.563  1.00  0.00    -0.248 NA
ATOM     68  C   UNL     1      12.233  -8.686   6.245  1.00  0.00     0.031 C 
ATOM     69  C   UNL     1      13.852  -5.106  10.882  1.00  0.00     0.029 A 
ATOM     70  C   UNL     1      13.146  -5.677   9.834  1.00  0.00     0.049 A 
ATOM     71  H   UNL     1      11.258  -5.141   9.058  1.00  0.00     0.167 HD
ATOM     72  C   UNL     1      12.760  -7.302   7.998  1.00  0.00     0.074 A 
ATOM     73  C   UNL     1      13.149  -8.424   7.168  1.00  0.00     0.031 C 
ATOM     74  C   UNL     1      13.523  -6.790   8.996  1.00  0.00     0.037 A 
BRANCH  61  75
ATOM     75  C   UNL     1      10.954  -1.949  11.880  1.00  0.00     0.057 A 
ATOM     76  C   UNL     1      10.096  -1.904  12.988  1.00  0.00     0.134 A 
ATOM     77  C   UNL     1      11.918  -0.939  11.771  1.00  0.00     0.134 A 
ATOM     78  F   UNL     1       9.138  -2.830  13.144  1.00  0.00    -0.206 F 
ATOM     79  C   UNL     1      10.166  -0.872  13.925  1.00  0.00     0.040 A 
ATOM     80  C   UNL     1      12.019   0.080  12.720  1.00  0.00     0.040 A 
ATOM     81  F   UNL     1      12.773  -0.921  10.738  1.00  0.00    -0.206 F 
ATOM     82  C   UNL     1      11.134   0.122  13.794  1.00  0.00     0.006 A 
ENDBRANCH  61  75
BRANCH  62  83
ATOM     83  C   UNL     1       9.784  -8.716   4.627  1.00  0.00     0.057 A 
ATOM     84  C   UNL     1       9.645 -10.087   4.866  1.00  0.00     0.134 A 
ATOM     85  C   UNL     1       9.768  -8.290   3.292  1.00  0.00     0.134 A 
ATOM     86  F   UNL     1       9.675 -10.560   6.121  1.00  0.00    -0.206 F 
ATOM     87  C   UNL     1       9.503 -11.001   3.820  1.00  0.00     0.040 A 
ATOM     88  C   UNL     1       9.600  -9.189   2.238  1.00  0.00     0.040 A 
ATOM     89  F   UNL     1       9.895  -6.988   2.995  1.00  0.00    -0.206 F 
ATOM     90  C   UNL     1       9.472 -10.551   2.501  1.00  0.00     0.006 A 
ENDBRANCH  62  83
BRANCH  74  91
ATOM     91  C   UNL     1      14.844  -7.454   9.268  1.00  0.00     0.057 A 
ATOM     92  C   UNL     1      15.927  -7.348   8.386  1.00  0.00     0.134 A 
ATOM     93  C   UNL     1      15.049  -8.171  10.455  1.00  0.00     0.134 A 
ATOM     94  F   UNL     1      15.797  -6.684   7.227  1.00  0.00    -0.206 F 
ATOM     95  C   UNL     1      17.155  -7.953   8.661  1.00  0.00     0.040 A 
ATOM     96  C   UNL     1      16.281  -8.754  10.755  1.00  0.00     0.040 A 
ATOM     97  F   UNL     1      14.059  -8.303  11.351  1.00  0.00    -0.206 F 
ATOM     98  C   UNL     1      17.337  -8.652   9.852  1.00  0.00     0.006 A 
ENDBRANCH  74  91
ENDBRANCH  48  49
ENDBRANCH  41  43
ENDBRANCH  40  41
ENDBRANCH  39  40
ENDBRANCH  38  39
ENDBRANCH  37  38
ENDBRANCH  36  37
ENDBRANCH  35  36
ENDBRANCH  34  35
ENDBRANCH  33  34
ENDBRANCH   1  33
TORSDOF 26
