REMARK SMILES CC[C@H](C)[C@H](NC(=O)[C@@H](C)Oc1ccc2c(C)c(C)c(=O)oc2c1C)C(=O)OCCOCCOCCOCCOC(=O)c1ccc(-c2c3nc(c(-c4c(F)cccc4F)c4ccc([nH]4)c(-c4c(F)cccc4F)c4nc(c(-c5c(F)cccc5F)c5ccc2[nH]5)C=C4)C=C3)cc1
REMARK SMILES IDX 33 1 32 2 31 3 30 4 29 5 28 6 26 7 27 8 5 9 3 10 4 11 2 12
REMARK SMILES IDX 1 13 6 14 7 15 8 17 9 18 10 19 11 20 12 21 13 22 24 23 14 24
REMARK SMILES IDX 23 25 25 26 15 27 22 28 16 29 20 30 17 31 18 32 21 33 19 34
REMARK SMILES IDX 34 35 35 36 36 37 37 38 38 39 39 40 40 41 41 42 42 43 43 44
REMARK SMILES IDX 44 45 96 46 45 47 95 48 46 49 47 50 48 51 89 52 49 53 94 54
REMARK SMILES IDX 88 55 90 56 50 57 93 58 87 59 86 60 51 62 77 63 60 64 76 65
REMARK SMILES IDX 61 66 64 67 75 68 91 69 62 70 63 71 74 73 92 74 65 75 52 76
REMARK SMILES IDX 53 77 58 78 54 79 55 80 57 81 59 82 56 83 78 84 79 85 84 86
REMARK SMILES IDX 80 87 81 88 83 89 85 90 82 91 66 92 67 93 72 94 68 95 69 96
REMARK SMILES IDX 71 97 73 98 70 99
REMARK H PARENT 6 16 90 61 64 72
REMARK Flexibility Score: inf
ROOT
ATOM      1  C   UNL     1       0.181  -0.207   2.361  1.00  0.00     0.188 C 
ENDROOT
BRANCH   1   2
ATOM      2  C   UNL     1       1.663  -0.527   3.204  1.00  0.00     0.188 C 
BRANCH   2   3
ATOM      3  O   UNL     1       2.154   0.044   4.468  1.00  0.00    -0.376 OA
BRANCH   3   4
ATOM      4  C   UNL     1       2.247  -0.387   5.858  1.00  0.00     0.202 C 
BRANCH   4   5
ATOM      5  C   UNL     1       2.634   0.788   6.814  1.00  0.00     0.261 C 
BRANCH   5   6
ATOM      6  O   UNL     1       2.372   2.024   6.168  1.00  0.00    -0.462 OA
BRANCH   6   7
ATOM      7  C   UNL     1       3.328   2.228   5.228  1.00  0.00     0.328 C 
ATOM      8  O   UNL     1       4.527   2.037   5.441  1.00  0.00    -0.250 OA
BRANCH   7   9
ATOM      9  C   UNL     1       2.724   2.549   3.857  1.00  0.00     0.195 C 
BRANCH   9  10
ATOM     10  C   UNL     1       3.631   3.693   3.252  1.00  0.00     0.019 C 
ATOM     11  C   UNL     1       4.907   3.043   2.630  1.00  0.00     0.010 C 
BRANCH  10  12
ATOM     12  C   UNL     1       3.078   4.682   2.212  1.00  0.00     0.002 C 
ATOM     13  C   UNL     1       2.257   4.090   1.081  1.00  0.00     0.004 C 
ENDBRANCH  10  12
ENDBRANCH   9  10
BRANCH   9  14
ATOM     14  N   UNL     1       1.233   2.696   3.921  1.00  0.00    -0.339 N 
ATOM     15  C   UNL     1       0.118   1.923   4.169  1.00  0.00     0.261 C 
ATOM     16  H   UNL     1       0.971   3.625   3.727  1.00  0.00     0.164 HD
ATOM     17  O   UNL     1      -0.891   2.523   3.722  1.00  0.00    -0.271 OA
BRANCH  15  18
ATOM     18  C   UNL     1      -0.263   0.382   5.028  1.00  0.00     0.258 C 
ATOM     19  C   UNL     1      -0.765   0.902   6.408  1.00  0.00     0.064 C 
BRANCH  18  20
ATOM     20  O   UNL     1      -0.401  -1.210   5.071  1.00  0.00    -0.480 OA
BRANCH  20  21
ATOM     21  C   UNL     1       0.176  -2.392   4.513  1.00  0.00     0.127 A 
ATOM     22  C   UNL     1       1.163  -3.014   5.294  1.00  0.00     0.047 A 
ATOM     23  C   UNL     1      -0.173  -3.208   3.367  1.00  0.00     0.035 A 
ATOM     24  C   UNL     1       2.054  -4.010   4.798  1.00  0.00     0.016 A 
ATOM     25  C   UNL     1       0.753  -4.192   2.885  1.00  0.00     0.145 A 
ATOM     26  C   UNL     1      -1.399  -3.290   2.471  1.00  0.00     0.052 C 
ATOM     27  C   UNL     1       1.915  -4.548   3.522  1.00  0.00     0.021 A 
ATOM     28  O   UNL     1       0.401  -4.849   1.672  1.00  0.00    -0.422 OA
ATOM     29  C   UNL     1       2.853  -5.450   2.820  1.00  0.00    -0.030 A 
ATOM     30  C   UNL     1       1.119  -5.881   1.118  1.00  0.00     0.339 A 
ATOM     31  C   UNL     1       4.249  -5.532   3.364  1.00  0.00     0.045 C 
ATOM     32  C   UNL     1       2.471  -6.085   1.685  1.00  0.00     0.038 A 
ATOM     33  O   UNL     1       0.675  -6.531   0.174  1.00  0.00    -0.246 OA
ATOM     34  C   UNL     1       3.344  -7.004   0.874  1.00  0.00     0.052 C 
ENDBRANCH  20  21
ENDBRANCH  18  20
ENDBRANCH  15  18
ENDBRANCH   9  14
ENDBRANCH   7   9
ENDBRANCH   6   7
ENDBRANCH   5   6
ENDBRANCH   4   5
ENDBRANCH   3   4
ENDBRANCH   2   3
ENDBRANCH   1   2
BRANCH   1  35
ATOM     35  O   UNL     1      -1.063  -0.870   2.646  1.00  0.00    -0.377 OA
BRANCH  35  36
ATOM     36  C   UNL     1      -2.417  -0.434   2.975  1.00  0.00     0.188 C 
BRANCH  36  37
ATOM     37  C   UNL     1      -2.939  -1.153   4.328  1.00  0.00     0.188 C 
BRANCH  37  38
ATOM     38  O   UNL     1      -4.251  -1.652   4.446  1.00  0.00    -0.376 OA
BRANCH  38  39
ATOM     39  C   UNL     1      -4.557  -2.939   3.908  1.00  0.00     0.202 C 
BRANCH  39  40
ATOM     40  C   UNL     1      -5.322  -2.722   2.599  1.00  0.00     0.261 C 
BRANCH  40  41
ATOM     41  O   UNL     1      -6.050  -1.472   2.645  1.00  0.00    -0.460 OA
BRANCH  41  42
ATOM     42  C   UNL     1      -6.758  -1.302   3.779  1.00  0.00     0.338 C 
ATOM     43  O   UNL     1      -7.338  -2.204   4.418  1.00  0.00    -0.246 OA
BRANCH  42  44
ATOM     44  C   UNL     1      -6.552   0.052   4.316  1.00  0.00     0.060 A 
ATOM     45  C   UNL     1      -6.255   0.207   5.683  1.00  0.00     0.016 A 
ATOM     46  C   UNL     1      -6.728   1.168   3.497  1.00  0.00     0.016 A 
ATOM     47  C   UNL     1      -6.293   1.468   6.267  1.00  0.00     0.010 A 
ATOM     48  C   UNL     1      -6.802   2.429   4.085  1.00  0.00     0.010 A 
ATOM     49  C   UNL     1      -6.688   2.558   5.481  1.00  0.00    -0.014 A 
BRANCH  49  50
ATOM     50  C   UNL     1      -7.419   3.668   6.136  1.00  0.00     0.031 A 
ATOM     51  C   UNL     1      -8.883   3.435   6.424  1.00  0.00     0.074 A 
ATOM     52  C   UNL     1      -6.832   4.836   6.433  1.00  0.00     0.049 A 
ATOM     53  N   UNL     1      -9.770   4.236   6.954  1.00  0.00    -0.248 NA
ATOM     54  C   UNL     1      -9.421   2.110   6.061  1.00  0.00     0.031 C 
ATOM     55  C   UNL     1      -5.424   5.160   6.223  1.00  0.00     0.029 A 
ATOM     56  N   UNL     1      -7.370   5.978   6.966  1.00  0.00    -0.354 N 
ATOM     57  C   UNL     1     -10.950   3.502   7.008  1.00  0.00     0.074 A 
ATOM     58  C   UNL     1     -10.685   2.208   6.429  1.00  0.00     0.031 C 
ATOM     59  C   UNL     1      -5.212   6.433   6.607  1.00  0.00     0.029 A 
ATOM     60  C   UNL     1      -6.474   7.011   7.066  1.00  0.00     0.049 A 
ATOM     61  H   UNL     1      -8.310   6.050   7.250  1.00  0.00     0.167 HD
ATOM     62  C   UNL     1     -12.156   3.869   7.499  1.00  0.00     0.037 A 
ATOM     63  C   UNL     1      -6.671   8.281   7.467  1.00  0.00     0.037 A 
ATOM     64  C   UNL     1     -12.439   5.179   8.007  1.00  0.00     0.049 A 
ATOM     65  C   UNL     1      -8.051   8.706   7.902  1.00  0.00     0.074 A 
ATOM     66  C   UNL     1     -13.628   5.679   8.502  1.00  0.00     0.029 A 
ATOM     67  N   UNL     1     -11.512   6.208   8.056  1.00  0.00    -0.354 N 
ATOM     68  N   UNL     1      -9.150   7.994   7.990  1.00  0.00    -0.248 NA
ATOM     69  C   UNL     1      -8.217  10.114   8.289  1.00  0.00     0.031 C 
ATOM     70  C   UNL     1     -13.430   7.029   8.812  1.00  0.00     0.029 A 
ATOM     71  C   UNL     1     -12.107   7.354   8.549  1.00  0.00     0.049 A 
ATOM     72  H   UNL     1     -10.569   6.134   7.781  1.00  0.00     0.167 HD
ATOM     73  C   UNL     1     -10.129   8.857   8.466  1.00  0.00     0.074 A 
ATOM     74  C   UNL     1      -9.490  10.144   8.657  1.00  0.00     0.031 C 
ATOM     75  C   UNL     1     -11.438   8.616   8.726  1.00  0.00     0.037 A 
BRANCH  62  76
ATOM     76  C   UNL     1     -13.243   2.838   7.458  1.00  0.00     0.057 A 
ATOM     77  C   UNL     1     -14.278   2.921   6.520  1.00  0.00     0.134 A 
ATOM     78  C   UNL     1     -13.238   1.734   8.322  1.00  0.00     0.134 A 
ATOM     79  F   UNL     1     -14.333   3.945   5.656  1.00  0.00    -0.206 F 
ATOM     80  C   UNL     1     -15.268   1.940   6.439  1.00  0.00     0.040 A 
ATOM     81  C   UNL     1     -14.210   0.736   8.237  1.00  0.00     0.040 A 
ATOM     82  F   UNL     1     -12.257   1.582   9.225  1.00  0.00    -0.206 F 
ATOM     83  C   UNL     1     -15.231   0.840   7.294  1.00  0.00     0.006 A 
ENDBRANCH  62  76
BRANCH  63  84
ATOM     84  C   UNL     1      -5.547   9.251   7.470  1.00  0.00     0.057 A 
ATOM     85  C   UNL     1      -5.000   9.741   6.279  1.00  0.00     0.134 A 
ATOM     86  C   UNL     1      -5.016   9.737   8.671  1.00  0.00     0.134 A 
ATOM     87  F   UNL     1      -5.468   9.320   5.095  1.00  0.00    -0.206 F 
ATOM     88  C   UNL     1      -3.964  10.677   6.280  1.00  0.00     0.040 A 
ATOM     89  C   UNL     1      -3.994  10.688   8.687  1.00  0.00     0.040 A 
ATOM     90  F   UNL     1      -5.515   9.325   9.845  1.00  0.00    -0.206 F 
ATOM     91  C   UNL     1      -3.463  11.158   7.488  1.00  0.00     0.006 A 
ENDBRANCH  63  84
BRANCH  75  92
ATOM     92  C   UNL     1     -12.246   9.755   9.267  1.00  0.00     0.057 A 
ATOM     93  C   UNL     1     -12.641   9.771  10.610  1.00  0.00     0.134 A 
ATOM     94  C   UNL     1     -12.668  10.811   8.450  1.00  0.00     0.134 A 
ATOM     95  F   UNL     1     -12.278   8.781  11.440  1.00  0.00    -0.206 F 
ATOM     96  C   UNL     1     -13.430  10.800  11.123  1.00  0.00     0.040 A 
ATOM     97  C   UNL     1     -13.438  11.857   8.958  1.00  0.00     0.040 A 
ATOM     98  F   UNL     1     -12.312  10.855   7.158  1.00  0.00    -0.206 F 
ATOM     99  C   UNL     1     -13.826  11.850  10.297  1.00  0.00     0.006 A 
ENDBRANCH  75  92
ENDBRANCH  49  50
ENDBRANCH  42  44
ENDBRANCH  41  42
ENDBRANCH  40  41
ENDBRANCH  39  40
ENDBRANCH  38  39
ENDBRANCH  37  38
ENDBRANCH  36  37
ENDBRANCH  35  36
ENDBRANCH   1  35
TORSDOF 26
