REMARK SMILES Cc1ccc(C(=O)OCCOCCOCCOCCOC(=O)c2ccc(-c3c4nc(c(-c5c(F)cccc5F)c5ccc([nH]5)c(-c5c(F)cccc5F)c5nc(c(-c6c(F)cccc6F)c6ccc3[nH]6)C=C5)C=C4)cc2)cc1N1CC(C)C1
REMARK SMILES IDX 15 1 14 2 13 3 12 4 11 5 10 6 9 7 8 8 6 9 7 10 5 11 1 12
REMARK SMILES IDX 2 13 3 14 78 15 4 16 77 17 79 18 80 19 83 20 81 21 82 22
REMARK SMILES IDX 16 23 17 24 18 25 19 26 20 27 21 28 22 29 23 30 24 31 76 32
REMARK SMILES IDX 25 33 75 34 26 35 27 36 28 37 69 38 29 39 74 40 68 41 70 42
REMARK SMILES IDX 30 43 73 44 67 45 66 46 31 48 57 49 40 50 56 51 41 52 44 53
REMARK SMILES IDX 55 54 71 55 42 56 43 57 54 59 72 60 45 61 32 62 33 63 38 64
REMARK SMILES IDX 34 65 35 66 37 67 39 68 36 69 58 70 59 71 64 72 60 73 61 74
REMARK SMILES IDX 63 75 65 76 62 77 46 78 47 79 52 80 48 81 49 82 51 83 53 84
REMARK SMILES IDX 50 85
REMARK H PARENT 70 47 44 58
REMARK Flexibility Score: inf
ROOT
ATOM      1  C   UNL     1      -3.420   2.921  -5.276  1.00  0.00     0.188 C 
ENDROOT
BRANCH   1   2
ATOM      2  O   UNL     1      -2.352   2.092  -4.859  1.00  0.00    -0.377 OA
BRANCH   2   3
ATOM      3  C   UNL     1      -2.490   1.702  -3.494  1.00  0.00     0.188 C 
BRANCH   3   4
ATOM      4  C   UNL     1      -3.894   1.147  -3.046  1.00  0.00     0.188 C 
BRANCH   4   5
ATOM      5  O   UNL     1      -4.941   1.997  -2.313  1.00  0.00    -0.376 OA
BRANCH   5   6
ATOM      6  C   UNL     1      -5.820   1.725  -0.966  1.00  0.00     0.202 C 
BRANCH   6   7
ATOM      7  C   UNL     1      -5.695   0.874   0.686  1.00  0.00     0.261 C 
BRANCH   7   8
ATOM      8  O   UNL     1      -4.475  -0.279   1.436  1.00  0.00    -0.460 OA
BRANCH   8   9
ATOM      9  C   UNL     1      -3.215  -1.260   1.203  1.00  0.00     0.338 C 
ATOM     10  O   UNL     1      -3.374  -2.452   1.511  1.00  0.00    -0.246 OA
BRANCH   9  11
ATOM     11  C   UNL     1      -1.605  -1.019   0.700  1.00  0.00     0.062 A 
ATOM     12  C   UNL     1       2.779  -0.634   0.148  1.00  0.00     0.046 C 
ATOM     13  C   UNL     1       1.294  -0.730   0.313  1.00  0.00    -0.028 A 
ATOM     14  C   UNL     1       0.685  -1.940   0.724  1.00  0.00     0.006 A 
ATOM     15  C   UNL     1       0.470   0.339   0.036  1.00  0.00     0.040 A 
ATOM     16  C   UNL     1      -0.715  -2.064   0.956  1.00  0.00     0.016 A 
ATOM     17  C   UNL     1      -0.921   0.093   0.109  1.00  0.00     0.041 A 
BRANCH  15  18
ATOM     18  N   UNL     1       0.874   1.662  -0.252  1.00  0.00    -0.371 N 
ATOM     19  C   UNL     1       0.887   2.798   0.632  1.00  0.00     0.121 C 
ATOM     20  C   UNL     1       1.758   2.277  -1.188  1.00  0.00     0.121 C 
ATOM     21  C   UNL     1       1.352   3.638  -0.568  1.00  0.00     0.025 C 
ATOM     22  C   UNL     1       2.403   4.705  -0.319  1.00  0.00     0.011 C 
ENDBRANCH  15  18
ENDBRANCH   9  11
ENDBRANCH   8   9
ENDBRANCH   7   8
ENDBRANCH   6   7
ENDBRANCH   5   6
ENDBRANCH   4   5
ENDBRANCH   3   4
ENDBRANCH   2   3
ENDBRANCH   1   2
BRANCH   1  23
ATOM     23  C   UNL     1      -4.386   2.160  -6.188  1.00  0.00     0.188 C 
BRANCH  23  24
ATOM     24  O   UNL     1      -4.468   0.784  -5.853  1.00  0.00    -0.376 OA
BRANCH  24  25
ATOM     25  C   UNL     1      -3.875  -0.143  -6.748  1.00  0.00     0.202 C 
BRANCH  25  26
ATOM     26  C   UNL     1      -4.963  -0.633  -7.707  1.00  0.00     0.261 C 
BRANCH  26  27
ATOM     27  O   UNL     1      -5.936  -1.428  -6.984  1.00  0.00    -0.460 OA
BRANCH  27  28
ATOM     28  C   UNL     1      -6.795  -0.728  -6.205  1.00  0.00     0.338 C 
ATOM     29  O   UNL     1      -7.508   0.207  -6.596  1.00  0.00    -0.246 OA
BRANCH  28  30
ATOM     30  C   UNL     1      -6.583  -1.086  -4.772  1.00  0.00     0.060 A 
ATOM     31  C   UNL     1      -7.254  -0.394  -3.774  1.00  0.00     0.016 A 
ATOM     32  C   UNL     1      -5.519  -1.919  -4.395  1.00  0.00     0.016 A 
ATOM     33  C   UNL     1      -6.725  -0.406  -2.476  1.00  0.00     0.010 A 
ATOM     34  C   UNL     1      -4.890  -1.747  -3.153  1.00  0.00     0.010 A 
ATOM     35  C   UNL     1      -5.397  -0.839  -2.217  1.00  0.00    -0.014 A 
BRANCH  35  36
ATOM     36  C   UNL     1      -4.560  -0.502  -0.862  1.00  0.00     0.031 A 
ATOM     37  C   UNL     1      -5.471  -1.764   0.026  1.00  0.00     0.074 A 
ATOM     38  C   UNL     1      -3.639   0.786  -0.327  1.00  0.00     0.049 A 
ATOM     39  N   UNL     1      -6.231  -1.594   1.095  1.00  0.00    -0.248 NA
ATOM     40  C   UNL     1      -5.678  -3.146  -0.462  1.00  0.00     0.031 C 
ATOM     41  C   UNL     1      -2.965   1.230   1.171  1.00  0.00     0.029 A 
ATOM     42  N   UNL     1      -3.355   2.217  -0.759  1.00  0.00    -0.354 N 
ATOM     43  C   UNL     1      -6.334  -2.806   1.708  1.00  0.00     0.074 A 
ATOM     44  C   UNL     1      -6.324  -3.705   0.574  1.00  0.00     0.031 C 
ATOM     45  C   UNL     1      -2.586   2.493   1.319  1.00  0.00     0.029 A 
ATOM     46  C   UNL     1      -3.252   3.175   0.294  1.00  0.00     0.049 A 
ATOM     47  H   UNL     1      -3.250   2.466  -1.706  1.00  0.00     0.167 HD
ATOM     48  C   UNL     1      -6.007  -2.986   3.039  1.00  0.00     0.037 A 
ATOM     49  C   UNL     1      -4.067   4.231   0.628  1.00  0.00     0.037 A 
ATOM     50  C   UNL     1      -5.452  -1.766   3.728  1.00  0.00     0.049 A 
ATOM     51  C   UNL     1      -4.636   4.030   2.075  1.00  0.00     0.074 A 
ATOM     52  C   UNL     1      -4.155  -1.491   4.163  1.00  0.00     0.029 A 
ATOM     53  N   UNL     1      -6.113  -0.523   3.826  1.00  0.00    -0.354 N 
ATOM     54  N   UNL     1      -4.805   2.851   2.630  1.00  0.00    -0.248 NA
ATOM     55  C   UNL     1      -4.996   5.092   3.007  1.00  0.00     0.031 C 
ATOM     56  C   UNL     1      -4.016  -0.112   4.449  1.00  0.00     0.029 A 
ATOM     57  C   UNL     1      -5.243   0.499   4.261  1.00  0.00     0.049 A 
ATOM     58  H   UNL     1      -7.065  -0.386   3.618  1.00  0.00     0.167 HD
ATOM     59  C   UNL     1      -5.322   2.942   3.892  1.00  0.00     0.074 A 
ATOM     60  C   UNL     1      -5.369   4.387   4.098  1.00  0.00     0.031 C 
ATOM     61  C   UNL     1      -5.672   1.853   4.663  1.00  0.00     0.037 A 
BRANCH  48  62
ATOM     62  C   UNL     1      -5.702  -4.427   3.496  1.00  0.00     0.057 A 
ATOM     63  C   UNL     1      -4.682  -4.761   4.406  1.00  0.00     0.134 A 
ATOM     64  C   UNL     1      -6.360  -5.553   2.964  1.00  0.00     0.134 A 
ATOM     65  F   UNL     1      -4.136  -3.859   5.228  1.00  0.00    -0.206 F 
ATOM     66  C   UNL     1      -4.195  -6.069   4.568  1.00  0.00     0.040 A 
ATOM     67  C   UNL     1      -5.864  -6.863   3.079  1.00  0.00     0.040 A 
ATOM     68  F   UNL     1      -7.533  -5.425   2.324  1.00  0.00    -0.206 F 
ATOM     69  C   UNL     1      -4.746  -7.120   3.855  1.00  0.00     0.006 A 
ENDBRANCH  48  62
BRANCH  49  70
ATOM     70  C   UNL     1      -4.758   4.961  -0.478  1.00  0.00     0.057 A 
ATOM     71  C   UNL     1      -4.012   5.357  -1.605  1.00  0.00     0.134 A 
ATOM     72  C   UNL     1      -6.150   5.053  -0.596  1.00  0.00     0.134 A 
ATOM     73  F   UNL     1      -2.670   5.363  -1.560  1.00  0.00    -0.206 F 
ATOM     74  C   UNL     1      -4.613   5.665  -2.830  1.00  0.00     0.040 A 
ATOM     75  C   UNL     1      -6.765   5.331  -1.826  1.00  0.00     0.040 A 
ATOM     76  F   UNL     1      -6.942   4.699   0.426  1.00  0.00    -0.206 F 
ATOM     77  C   UNL     1      -5.995   5.602  -2.955  1.00  0.00     0.006 A 
ENDBRANCH  49  70
BRANCH  61  78
ATOM     78  C   UNL     1      -6.319   1.961   6.028  1.00  0.00     0.057 A 
ATOM     79  C   UNL     1      -7.277   2.927   6.355  1.00  0.00     0.134 A 
ATOM     80  C   UNL     1      -6.085   0.985   7.028  1.00  0.00     0.134 A 
ATOM     81  F   UNL     1      -7.657   3.857   5.468  1.00  0.00    -0.206 F 
ATOM     82  C   UNL     1      -7.925   2.948   7.597  1.00  0.00     0.040 A 
ATOM     83  C   UNL     1      -6.768   0.962   8.246  1.00  0.00     0.040 A 
ATOM     84  F   UNL     1      -5.189   0.002   6.872  1.00  0.00    -0.206 F 
ATOM     85  C   UNL     1      -7.685   1.955   8.540  1.00  0.00     0.006 A 
ENDBRANCH  61  78
ENDBRANCH  35  36
ENDBRANCH  28  30
ENDBRANCH  27  28
ENDBRANCH  26  27
ENDBRANCH  25  26
ENDBRANCH  24  25
ENDBRANCH  23  24
ENDBRANCH   1  23
TORSDOF 21
