REMARK SMILES O=C(OCCOCCOCCOCCOC(=O)[C@H](c1cnn(Cc2ccccc2)c1)[NH+]1CCOCC1)c1ccc(-c2c3nc(c(-c4c(F)cccc4F)c4ccc([nH]4)c(-c4c(F)cccc4F)c4nc(c(-c5c(F)cccc5F)c5ccc2[nH]5)C=C4)C=C3)cc1
REMARK SMILES IDX 10 1 9 2 8 3 7 4 6 5 5 6 4 7 3 8 2 9 1 10 37 11 38 12 90 13
REMARK SMILES IDX 39 14 89 15 40 16 41 17 42 18 83 19 43 20 88 21 82 22 84 23
REMARK SMILES IDX 44 24 87 25 81 26 80 27 45 29 71 30 54 31 70 32 55 33 58 34
REMARK SMILES IDX 69 35 85 36 56 37 57 38 68 40 86 41 59 42 46 43 47 44 52 45
REMARK SMILES IDX 48 46 49 47 51 48 53 49 50 50 72 51 73 52 78 53 74 54 75 55
REMARK SMILES IDX 77 56 79 57 76 58 60 59 61 60 66 61 62 62 63 63 65 64 67 65
REMARK SMILES IDX 64 66 11 67 12 68 13 69 14 70 15 71 16 72 17 73 18 74 31 75
REMARK SMILES IDX 32 76 36 77 33 79 35 80 34 81 19 82 20 83 30 84 21 85 22 86
REMARK SMILES IDX 23 87 24 88 25 89 29 90 26 91 28 92 27 93
REMARK H PARENT 84 28 58 39 31 78
REMARK Flexibility Score: inf
ROOT
ATOM      1  C   UNL     1       5.920  -3.776   0.297  1.00  0.00     0.188 C 
ENDROOT
BRANCH   1   2
ATOM      2  O   UNL     1       6.165  -4.587   1.420  1.00  0.00    -0.377 OA
BRANCH   2   3
ATOM      3  C   UNL     1       7.153  -4.068   2.292  1.00  0.00     0.188 C 
BRANCH   3   4
ATOM      4  C   UNL     1       6.923  -2.667   2.896  1.00  0.00     0.188 C 
BRANCH   4   5
ATOM      5  O   UNL     1       6.810  -1.438   2.195  1.00  0.00    -0.376 OA
BRANCH   5   6
ATOM      6  C   UNL     1       7.379  -1.005   0.981  1.00  0.00     0.202 C 
BRANCH   6   7
ATOM      7  C   UNL     1       8.817  -1.293   0.543  1.00  0.00     0.261 C 
BRANCH   7   8
ATOM      8  O   UNL     1       9.435  -2.436   1.113  1.00  0.00    -0.460 OA
BRANCH   8   9
ATOM      9  C   UNL     1      10.049  -2.539   2.308  1.00  0.00     0.338 C 
ATOM     10  O   UNL     1      10.639  -3.587   2.569  1.00  0.00    -0.246 OA
BRANCH   9  11
ATOM     11  C   UNL     1       9.955  -1.510   3.381  1.00  0.00     0.060 A 
ATOM     12  C   UNL     1       9.608  -0.167   3.215  1.00  0.00     0.016 A 
ATOM     13  C   UNL     1      10.268  -1.977   4.673  1.00  0.00     0.016 A 
ATOM     14  C   UNL     1       9.734   0.721   4.260  1.00  0.00     0.010 A 
ATOM     15  C   UNL     1      10.387  -1.097   5.731  1.00  0.00     0.010 A 
ATOM     16  C   UNL     1      10.212   0.255   5.477  1.00  0.00    -0.014 A 
BRANCH  16  17
ATOM     17  C   UNL     1      10.652   1.265   6.411  1.00  0.00     0.031 A 
ATOM     18  C   UNL     1       9.580   2.067   7.040  1.00  0.00     0.074 A 
ATOM     19  C   UNL     1      11.972   1.423   6.622  1.00  0.00     0.049 A 
ATOM     20  N   UNL     1       9.366   3.337   6.929  1.00  0.00    -0.248 NA
ATOM     21  C   UNL     1       8.541   1.341   7.786  1.00  0.00     0.031 C 
ATOM     22  C   UNL     1      13.066   0.537   6.205  1.00  0.00     0.029 A 
ATOM     23  N   UNL     1      12.610   2.370   7.351  1.00  0.00    -0.354 N 
ATOM     24  C   UNL     1       8.281   3.607   7.758  1.00  0.00     0.074 A 
ATOM     25  C   UNL     1       7.723   2.334   8.135  1.00  0.00     0.031 C 
ATOM     26  C   UNL     1      14.179   0.852   6.901  1.00  0.00     0.029 A 
ATOM     27  C   UNL     1      13.909   2.033   7.698  1.00  0.00     0.049 A 
ATOM     28  H   UNL     1      12.189   3.222   7.611  1.00  0.00     0.167 HD
ATOM     29  C   UNL     1       8.070   4.851   8.267  1.00  0.00     0.037 A 
ATOM     30  C   UNL     1      14.650   2.633   8.659  1.00  0.00     0.037 A 
ATOM     31  C   UNL     1       8.753   5.862   7.507  1.00  0.00     0.049 A 
ATOM     32  C   UNL     1      14.043   3.963   8.924  1.00  0.00     0.074 A 
ATOM     33  C   UNL     1       8.684   6.306   6.201  1.00  0.00     0.029 A 
ATOM     34  N   UNL     1       9.926   6.366   8.012  1.00  0.00    -0.354 N 
ATOM     35  N   UNL     1      14.062   4.952   8.072  1.00  0.00    -0.248 NA
ATOM     36  C   UNL     1      13.008   4.045   9.946  1.00  0.00     0.031 C 
ATOM     37  C   UNL     1      10.025   6.638   5.852  1.00  0.00     0.029 A 
ATOM     38  C   UNL     1      10.822   6.424   6.977  1.00  0.00     0.049 A 
ATOM     39  H   UNL     1      10.092   6.636   8.944  1.00  0.00     0.167 HD
ATOM     40  C   UNL     1      12.811   5.544   8.184  1.00  0.00     0.074 A 
ATOM     41  C   UNL     1      12.239   4.998   9.412  1.00  0.00     0.031 C 
ATOM     42  C   UNL     1      12.240   6.195   7.128  1.00  0.00     0.037 A 
BRANCH  29  43
ATOM     43  C   UNL     1       7.561   5.099   9.663  1.00  0.00     0.057 A 
ATOM     44  C   UNL     1       7.211   6.404  10.049  1.00  0.00     0.134 A 
ATOM     45  C   UNL     1       7.690   4.173  10.719  1.00  0.00     0.134 A 
ATOM     46  F   UNL     1       7.079   7.380   9.138  1.00  0.00    -0.206 F 
ATOM     47  C   UNL     1       7.070   6.774  11.392  1.00  0.00     0.040 A 
ATOM     48  C   UNL     1       7.501   4.520  12.058  1.00  0.00     0.040 A 
ATOM     49  F   UNL     1       8.109   2.917  10.524  1.00  0.00    -0.206 F 
ATOM     50  C   UNL     1       7.222   5.832  12.402  1.00  0.00     0.006 A 
ENDBRANCH  29  43
BRANCH  30  51
ATOM     51  C   UNL     1      15.599   1.978   9.585  1.00  0.00     0.057 A 
ATOM     52  C   UNL     1      16.520   2.728  10.326  1.00  0.00     0.134 A 
ATOM     53  C   UNL     1      15.461   0.626   9.958  1.00  0.00     0.134 A 
ATOM     54  F   UNL     1      16.689   4.034  10.075  1.00  0.00    -0.206 F 
ATOM     55  C   UNL     1      17.251   2.172  11.385  1.00  0.00     0.040 A 
ATOM     56  C   UNL     1      16.192   0.057  11.004  1.00  0.00     0.040 A 
ATOM     57  F   UNL     1      14.550  -0.168   9.378  1.00  0.00    -0.206 F 
ATOM     58  C   UNL     1      17.081   0.835  11.732  1.00  0.00     0.006 A 
ENDBRANCH  30  51
BRANCH  42  59
ATOM     59  C   UNL     1      13.096   6.460   5.922  1.00  0.00     0.057 A 
ATOM     60  C   UNL     1      13.632   5.449   5.109  1.00  0.00     0.134 A 
ATOM     61  C   UNL     1      13.248   7.777   5.476  1.00  0.00     0.134 A 
ATOM     62  F   UNL     1      13.441   4.155   5.397  1.00  0.00    -0.206 F 
ATOM     63  C   UNL     1      14.328   5.740   3.932  1.00  0.00     0.040 A 
ATOM     64  C   UNL     1      13.911   8.080   4.285  1.00  0.00     0.040 A 
ATOM     65  F   UNL     1      12.706   8.791   6.169  1.00  0.00    -0.206 F 
ATOM     66  C   UNL     1      14.463   7.061   3.514  1.00  0.00     0.006 A 
ENDBRANCH  42  59
ENDBRANCH  16  17
ENDBRANCH   9  11
ENDBRANCH   8   9
ENDBRANCH   7   8
ENDBRANCH   6   7
ENDBRANCH   5   6
ENDBRANCH   4   5
ENDBRANCH   3   4
ENDBRANCH   2   3
ENDBRANCH   1   2
BRANCH   1  67
ATOM     67  C   UNL     1       4.588  -3.006   0.365  1.00  0.00     0.188 C 
BRANCH  67  68
ATOM     68  O   UNL     1       3.911  -2.845   1.603  1.00  0.00    -0.376 OA
BRANCH  68  69
ATOM     69  C   UNL     1       3.667  -3.943   2.474  1.00  0.00     0.202 C 
BRANCH  69  70
ATOM     70  C   UNL     1       3.163  -5.297   1.963  1.00  0.00     0.261 C 
BRANCH  70  71
ATOM     71  O   UNL     1       3.845  -5.783   0.808  1.00  0.00    -0.459 OA
BRANCH  71  72
ATOM     72  C   UNL     1       3.156  -5.710  -0.364  1.00  0.00     0.370 C 
ATOM     73  O   UNL     1       1.986  -5.347  -0.448  1.00  0.00    -0.245 OA
BRANCH  72  74
ATOM     74  C   UNL     1       4.066  -6.170  -1.544  1.00  0.00     0.329 C 
BRANCH  74  75
ATOM     75  N   UNL     1       3.674  -7.510  -2.058  1.00  0.00    -0.315 N 
ATOM     76  C   UNL     1       3.054  -8.387  -1.030  1.00  0.00     0.292 C 
ATOM     77  C   UNL     1       4.844  -8.244  -2.608  1.00  0.00     0.292 C 
ATOM     78  H   UNL     1       2.985  -7.310  -2.783  1.00  0.00     0.349 HD
ATOM     79  C   UNL     1       4.039  -8.916   0.026  1.00  0.00     0.221 C 
ATOM     80  C   UNL     1       5.778  -8.887  -1.553  1.00  0.00     0.221 C 
ATOM     81  O   UNL     1       5.060  -9.690  -0.608  1.00  0.00    -0.370 OA
ENDBRANCH  74  75
BRANCH  74  82
ATOM     82  C   UNL     1       3.973  -5.116  -2.637  1.00  0.00     0.059 A 
ATOM     83  C   UNL     1       2.772  -4.552  -3.136  1.00  0.00     0.145 A 
ATOM     84  C   UNL     1       4.959  -4.352  -3.254  1.00  0.00     0.119 A 
ATOM     85  N   UNL     1       2.975  -3.470  -3.880  1.00  0.00    -0.181 NA
ATOM     86  N   UNL     1       4.313  -3.385  -3.994  1.00  0.00    -0.268 N 
BRANCH  86  87
ATOM     87  C   UNL     1       4.902  -2.220  -4.663  1.00  0.00     0.179 C 
BRANCH  87  88
ATOM     88  C   UNL     1       4.522  -2.103  -6.124  1.00  0.00    -0.027 A 
ATOM     89  C   UNL     1       5.500  -2.126  -7.128  1.00  0.00     0.005 A 
ATOM     90  C   UNL     1       3.179  -1.942  -6.508  1.00  0.00     0.005 A 
ATOM     91  C   UNL     1       5.135  -2.051  -8.476  1.00  0.00     0.000 A 
ATOM     92  C   UNL     1       2.814  -1.885  -7.852  1.00  0.00     0.000 A 
ATOM     93  C   UNL     1       3.793  -1.948  -8.838  1.00  0.00     0.000 A 
ENDBRANCH  87  88
ENDBRANCH  86  87
ENDBRANCH  74  82
ENDBRANCH  72  74
ENDBRANCH  71  72
ENDBRANCH  70  71
ENDBRANCH  69  70
ENDBRANCH  68  69
ENDBRANCH  67  68
ENDBRANCH   1  67
TORSDOF 24
