REMARK SMILES Cc1cc(OC(F)(F)F)cc2c1O[C@H](C(F)(F)F)C(C(=O)OCCOCCOCCOCCOC(=O)c1ccc(-c3c4nc(c(-c5c(F)cccc5F)c5ccc([nH]5)c(-c5c(F)cccc5F)c5nc(c(-c6c(F)cccc6F)c6ccc3[nH]6)C=C5)C=C4)cc1)=C2
REMARK SMILES IDX 28 1 27 2 26 3 25 4 24 5 23 6 22 7 20 8 21 9 19 10 1 11 2 12
REMARK SMILES IDX 3 13 12 14 4 15 11 16 13 17 10 18 91 19 14 20 5 21 6 22 7 23
REMARK SMILES IDX 8 24 9 25 15 26 16 27 17 28 18 29 29 30 30 31 31 32 32 33
REMARK SMILES IDX 33 34 34 35 35 36 36 37 37 38 38 39 90 40 39 41 89 42 40 43
REMARK SMILES IDX 41 44 42 45 83 46 43 47 88 48 82 49 84 50 44 51 87 52 81 53
REMARK SMILES IDX 80 54 45 56 71 57 54 58 70 59 55 60 58 61 69 62 85 63 56 64
REMARK SMILES IDX 57 65 68 67 86 68 59 69 46 70 47 71 52 72 48 73 49 74 51 75
REMARK SMILES IDX 53 76 50 77 72 78 73 79 78 80 74 81 75 82 77 83 79 84 76 85
REMARK SMILES IDX 60 86 61 87 66 88 62 89 63 90 65 91 67 92 64 93
REMARK H PARENT 84 55 58 66
REMARK Flexibility Score: inf
ROOT
ATOM      1  O   UNL     1      -1.770  -0.054   6.878  1.00  0.00    -0.377 OA
ENDROOT
BRANCH   1   2
ATOM      2  C   UNL     1      -1.234   1.198   6.476  1.00  0.00     0.188 C 
BRANCH   2   3
ATOM      3  C   UNL     1      -2.195   2.376   6.735  1.00  0.00     0.188 C 
BRANCH   3   4
ATOM      4  O   UNL     1      -3.204   2.065   7.683  1.00  0.00    -0.376 OA
BRANCH   4   5
ATOM      5  C   UNL     1      -4.487   1.639   7.256  1.00  0.00     0.202 C 
BRANCH   5   6
ATOM      6  C   UNL     1      -4.692   0.556   6.181  1.00  0.00     0.261 C 
BRANCH   6   7
ATOM      7  O   UNL     1      -3.759   0.527   5.097  1.00  0.00    -0.460 OA
BRANCH   7   8
ATOM      8  C   UNL     1      -3.878   1.462   4.139  1.00  0.00     0.338 C 
ATOM      9  O   UNL     1      -4.727   2.332   4.069  1.00  0.00    -0.246 OA
BRANCH   8  10
ATOM     10  C   UNL     1      -2.688   1.359   3.264  1.00  0.00     0.087 C 
ATOM     11  C   UNL     1       1.010  -0.161   0.028  1.00  0.00     0.048 C 
ATOM     12  C   UNL     1       0.576   1.134   0.661  1.00  0.00    -0.005 A 
ATOM     13  C   UNL     1       1.182   2.329   0.230  1.00  0.00     0.054 A 
ATOM     14  C   UNL     1      -0.470   1.191   1.595  1.00  0.00     0.131 A 
ATOM     15  C   UNL     1       0.781   3.560   0.749  1.00  0.00     0.130 A 
ATOM     16  C   UNL     1      -0.900   2.425   2.087  1.00  0.00     0.021 A 
ATOM     17  O   UNL     1      -1.033   0.006   1.971  1.00  0.00    -0.475 OA
ATOM     18  C   UNL     1      -0.248   3.598   1.692  1.00  0.00     0.058 A 
ATOM     19  C   UNL     1      -2.069   2.502   2.946  1.00  0.00     0.027 C 
ATOM     20  C   UNL     1      -2.189  -0.002   2.852  1.00  0.00     0.316 C 
BRANCH  15  21
ATOM     21  O   UNL     1       1.288   4.784   0.419  1.00  0.00    -0.406 OA
BRANCH  21  22
ATOM     22  C   UNL     1       2.102   4.868  -0.738  1.00  0.00     0.573 C 
ATOM     23  F   UNL     1       3.265   4.205  -0.561  1.00  0.00    -0.132 F 
ATOM     24  F   UNL     1       1.464   4.378  -1.822  1.00  0.00    -0.132 F 
ATOM     25  F   UNL     1       2.391   6.167  -0.971  1.00  0.00    -0.132 F 
ENDBRANCH  21  22
ENDBRANCH  15  21
BRANCH  20  26
ATOM     26  C   UNL     1      -3.283  -0.842   2.180  1.00  0.00     0.430 C 
ATOM     27  F   UNL     1      -2.795  -2.029   1.743  1.00  0.00    -0.167 F 
ATOM     28  F   UNL     1      -4.298  -1.130   3.026  1.00  0.00    -0.167 F 
ATOM     29  F   UNL     1      -3.817  -0.207   1.111  1.00  0.00    -0.167 F 
ENDBRANCH  20  26
ENDBRANCH   8  10
ENDBRANCH   7   8
ENDBRANCH   6   7
ENDBRANCH   5   6
ENDBRANCH   4   5
ENDBRANCH   3   4
ENDBRANCH   2   3
ENDBRANCH   1   2
BRANCH   1  30
ATOM     30  C   UNL     1      -1.702  -0.395   8.264  1.00  0.00     0.188 C 
BRANCH  30  31
ATOM     31  C   UNL     1      -1.492   0.670   9.371  1.00  0.00     0.188 C 
BRANCH  31  32
ATOM     32  O   UNL     1      -0.560   1.688   9.029  1.00  0.00    -0.376 OA
BRANCH  32  33
ATOM     33  C   UNL     1       0.706   1.669   9.665  1.00  0.00     0.202 C 
BRANCH  33  34
ATOM     34  C   UNL     1       1.646   0.531   9.248  1.00  0.00     0.261 C 
BRANCH  34  35
ATOM     35  O   UNL     1       1.128  -0.798   9.407  1.00  0.00    -0.460 OA
BRANCH  35  36
ATOM     36  C   UNL     1       0.858  -1.223  10.659  1.00  0.00     0.338 C 
ATOM     37  O   UNL     1       1.022  -0.614  11.701  1.00  0.00    -0.246 OA
BRANCH  36  38
ATOM     38  C   UNL     1       0.148  -2.511  10.531  1.00  0.00     0.060 A 
ATOM     39  C   UNL     1      -1.194  -2.600  10.924  1.00  0.00     0.016 A 
ATOM     40  C   UNL     1       0.808  -3.620  10.000  1.00  0.00     0.016 A 
ATOM     41  C   UNL     1      -1.876  -3.811  10.803  1.00  0.00     0.010 A 
ATOM     42  C   UNL     1       0.137  -4.842   9.914  1.00  0.00     0.010 A 
ATOM     43  C   UNL     1      -1.197  -4.948  10.345  1.00  0.00    -0.014 A 
BRANCH  43  44
ATOM     44  C   UNL     1      -1.786  -6.286  10.580  1.00  0.00     0.031 A 
ATOM     45  C   UNL     1      -1.477  -6.958  11.890  1.00  0.00     0.074 A 
ATOM     46  C   UNL     1      -2.580  -6.886   9.678  1.00  0.00     0.049 A 
ATOM     47  N   UNL     1      -1.841  -8.133  12.333  1.00  0.00    -0.248 NA
ATOM     48  C   UNL     1      -0.640  -6.192  12.830  1.00  0.00     0.031 C 
ATOM     49  C   UNL     1      -2.992  -6.320   8.396  1.00  0.00     0.029 A 
ATOM     50  N   UNL     1      -3.176  -8.122   9.711  1.00  0.00    -0.354 N 
ATOM     51  C   UNL     1      -1.290  -8.240  13.603  1.00  0.00     0.074 A 
ATOM     52  C   UNL     1      -0.534  -7.032  13.845  1.00  0.00     0.031 C 
ATOM     53  C   UNL     1      -3.766  -7.216   7.756  1.00  0.00     0.029 A 
ATOM     54  C   UNL     1      -3.878  -8.425   8.571  1.00  0.00     0.049 A 
ATOM     55  H   UNL     1      -3.108  -8.733  10.480  1.00  0.00     0.167 HD
ATOM     56  C   UNL     1      -1.409  -9.251  14.496  1.00  0.00     0.037 A 
ATOM     57  C   UNL     1      -4.517  -9.560   8.226  1.00  0.00     0.037 A 
ATOM     58  C   UNL     1      -2.123 -10.471  14.239  1.00  0.00     0.049 A 
ATOM     59  C   UNL     1      -4.530 -10.722   9.189  1.00  0.00     0.074 A 
ATOM     60  C   UNL     1      -2.290 -11.565  15.068  1.00  0.00     0.029 A 
ATOM     61  N   UNL     1      -2.773 -10.765  13.050  1.00  0.00    -0.354 N 
ATOM     62  N   UNL     1      -4.032 -10.807  10.399  1.00  0.00    -0.248 NA
ATOM     63  C   UNL     1      -5.200 -11.949   8.732  1.00  0.00     0.031 C 
ATOM     64  C   UNL     1      -2.994 -12.545  14.359  1.00  0.00     0.029 A 
ATOM     65  C   UNL     1      -3.320 -12.036  13.112  1.00  0.00     0.049 A 
ATOM     66  H   UNL     1      -2.837 -10.159  12.276  1.00  0.00     0.167 HD
ATOM     67  C   UNL     1      -4.361 -12.077  10.861  1.00  0.00     0.074 A 
ATOM     68  C   UNL     1      -5.112 -12.722   9.805  1.00  0.00     0.031 C 
ATOM     69  C   UNL     1      -4.071 -12.660  12.052  1.00  0.00     0.037 A 
BRANCH  56  70
ATOM     70  C   UNL     1      -0.710  -9.079  15.812  1.00  0.00     0.057 A 
ATOM     71  C   UNL     1       0.419  -9.844  16.127  1.00  0.00     0.134 A 
ATOM     72  C   UNL     1      -1.143  -8.144  16.763  1.00  0.00     0.134 A 
ATOM     73  F   UNL     1       0.888 -10.755  15.261  1.00  0.00    -0.206 F 
ATOM     74  C   UNL     1       1.094  -9.685  17.338  1.00  0.00     0.040 A 
ATOM     75  C   UNL     1      -0.459  -7.954  17.965  1.00  0.00     0.040 A 
ATOM     76  F   UNL     1      -2.204  -7.362  16.514  1.00  0.00    -0.206 F 
ATOM     77  C   UNL     1       0.661  -8.730  18.257  1.00  0.00     0.006 A 
ENDBRANCH  56  70
BRANCH  57  78
ATOM     78  C   UNL     1      -5.188  -9.681   6.905  1.00  0.00     0.057 A 
ATOM     79  C   UNL     1      -4.453  -9.736   5.715  1.00  0.00     0.134 A 
ATOM     80  C   UNL     1      -6.579  -9.816   6.809  1.00  0.00     0.134 A 
ATOM     81  F   UNL     1      -3.118  -9.618   5.737  1.00  0.00    -0.206 F 
ATOM     82  C   UNL     1      -5.075  -9.923   4.479  1.00  0.00     0.040 A 
ATOM     83  C   UNL     1      -7.211 -10.032   5.583  1.00  0.00     0.040 A 
ATOM     84  F   UNL     1      -7.336  -9.800   7.915  1.00  0.00    -0.206 F 
ATOM     85  C   UNL     1      -6.457 -10.084   4.412  1.00  0.00     0.006 A 
ENDBRANCH  57  78
BRANCH  69  86
ATOM     86  C   UNL     1      -4.612 -14.041  12.292  1.00  0.00     0.057 A 
ATOM     87  C   UNL     1      -5.624 -14.253  13.238  1.00  0.00     0.134 A 
ATOM     88  C   UNL     1      -4.124 -15.163  11.610  1.00  0.00     0.134 A 
ATOM     89  F   UNL     1      -6.129 -13.225  13.938  1.00  0.00    -0.206 F 
ATOM     90  C   UNL     1      -6.132 -15.527  13.494  1.00  0.00     0.040 A 
ATOM     91  C   UNL     1      -4.647 -16.438  11.833  1.00  0.00     0.040 A 
ATOM     92  F   UNL     1      -3.162 -15.031  10.683  1.00  0.00    -0.206 F 
ATOM     93  C   UNL     1      -5.651 -16.623  12.782  1.00  0.00     0.006 A 
ENDBRANCH  69  86
ENDBRANCH  43  44
ENDBRANCH  36  38
ENDBRANCH  35  36
ENDBRANCH  34  35
ENDBRANCH  33  34
ENDBRANCH  32  33
ENDBRANCH  31  32
ENDBRANCH  30  31
ENDBRANCH   1  30
TORSDOF 23
