REMARK SMILES Cc1cc(C)n([C@H](C)[C@H](C)C(=O)OCCOCCOCCOCCOC(=O)c2ccc(-c3c4nc(c(-c5c(F)cccc5F)c5ccc([nH]5)c(-c5c(F)cccc5F)c5nc(c(-c6c(F)cccc6F)c6ccc3[nH]6)C=C5)C=C4)cc2)n1
REMARK SMILES IDX 19 1 18 2 17 3 16 4 15 5 14 6 13 7 11 8 12 9 9 10 10 11 7 12
REMARK SMILES IDX 8 13 6 14 1 15 2 16 3 17 82 18 4 19 5 20 20 21 21 22 22 23
REMARK SMILES IDX 23 24 24 25 25 26 26 27 27 28 28 29 29 30 81 31 30 32 80 33
REMARK SMILES IDX 31 34 32 35 33 36 74 37 34 38 79 39 73 40 75 41 35 42 78 43
REMARK SMILES IDX 72 44 71 45 36 47 62 48 45 49 61 50 46 51 49 52 60 53 76 54
REMARK SMILES IDX 47 55 48 56 59 58 77 59 50 60 37 61 38 62 43 63 39 64 40 65
REMARK SMILES IDX 42 66 44 67 41 68 63 69 64 70 69 71 65 72 66 73 68 74 70 75
REMARK SMILES IDX 67 76 51 77 52 78 57 79 53 80 54 81 56 82 58 83 55 84
REMARK H PARENT 75 46 49 57
REMARK Flexibility Score: inf
ROOT
ATOM      1  O   UNL     1      -0.027   7.637   2.558  1.00  0.00    -0.377 OA
ENDROOT
BRANCH   1   2
ATOM      2  C   UNL     1      -0.576   6.745   3.503  1.00  0.00     0.188 C 
BRANCH   2   3
ATOM      3  C   UNL     1      -0.143   6.986   4.963  1.00  0.00     0.188 C 
BRANCH   3   4
ATOM      4  O   UNL     1       0.509   8.177   5.379  1.00  0.00    -0.376 OA
BRANCH   4   5
ATOM      5  C   UNL     1       1.506   8.836   4.618  1.00  0.00     0.202 C 
BRANCH   5   6
ATOM      6  C   UNL     1       2.667   8.108   3.929  1.00  0.00     0.261 C 
BRANCH   6   7
ATOM      7  O   UNL     1       2.351   6.857   3.321  1.00  0.00    -0.463 OA
BRANCH   7   8
ATOM      8  C   UNL     1       2.569   5.784   4.106  1.00  0.00     0.310 C 
ATOM      9  O   UNL     1       3.047   5.857   5.231  1.00  0.00    -0.252 OA
BRANCH   8  10
ATOM     10  C   UNL     1       2.170   4.465   3.463  1.00  0.00     0.120 C 
ATOM     11  C   UNL     1       1.673   4.509   2.002  1.00  0.00     0.022 C 
BRANCH  10  12
ATOM     12  C   UNL     1       3.356   3.504   3.620  1.00  0.00     0.118 C 
ATOM     13  C   UNL     1       4.728   4.176   3.361  1.00  0.00     0.034 C 
BRANCH  12  14
ATOM     14  N   UNL     1       3.398   2.645   4.811  1.00  0.00    -0.266 N 
ATOM     15  C   UNL     1       5.039  -0.244   6.048  1.00  0.00     0.069 C 
ATOM     16  C   UNL     1       4.177   0.934   5.827  1.00  0.00     0.060 A 
ATOM     17  C   UNL     1       3.236   1.510   6.688  1.00  0.00     0.048 A 
ATOM     18  N   UNL     1       4.249   1.597   4.677  1.00  0.00    -0.178 NA
ATOM     19  C   UNL     1       2.730   2.611   6.021  1.00  0.00     0.036 A 
ATOM     20  C   UNL     1       1.710   3.545   6.570  1.00  0.00     0.066 C 
ENDBRANCH  12  14
ENDBRANCH  10  12
ENDBRANCH   8  10
ENDBRANCH   7   8
ENDBRANCH   6   7
ENDBRANCH   5   6
ENDBRANCH   4   5
ENDBRANCH   3   4
ENDBRANCH   2   3
ENDBRANCH   1   2
BRANCH   1  21
ATOM     21  C   UNL     1      -0.787   8.794   2.234  1.00  0.00     0.188 C 
BRANCH  21  22
ATOM     22  C   UNL     1      -1.671   9.463   3.318  1.00  0.00     0.188 C 
BRANCH  22  23
ATOM     23  O   UNL     1      -2.326   8.565   4.209  1.00  0.00    -0.376 OA
BRANCH  23  24
ATOM     24  C   UNL     1      -3.715   8.306   4.081  1.00  0.00     0.202 C 
BRANCH  24  25
ATOM     25  C   UNL     1      -4.142   7.448   2.893  1.00  0.00     0.261 C 
BRANCH  25  26
ATOM     26  O   UNL     1      -3.569   7.854   1.664  1.00  0.00    -0.460 OA
BRANCH  26  27
ATOM     27  C   UNL     1      -3.922   9.069   1.232  1.00  0.00     0.338 C 
ATOM     28  O   UNL     1      -4.567   9.926   1.847  1.00  0.00    -0.246 OA
BRANCH  27  29
ATOM     29  C   UNL     1      -3.535   9.193  -0.167  1.00  0.00     0.060 A 
ATOM     30  C   UNL     1      -3.776  10.430  -0.764  1.00  0.00     0.016 A 
ATOM     31  C   UNL     1      -3.361   8.011  -0.904  1.00  0.00     0.016 A 
ATOM     32  C   UNL     1      -4.170  10.424  -2.076  1.00  0.00     0.010 A 
ATOM     33  C   UNL     1      -3.783   8.002  -2.203  1.00  0.00     0.010 A 
ATOM     34  C   UNL     1      -4.286   9.189  -2.723  1.00  0.00    -0.014 A 
BRANCH  34  35
ATOM     35  C   UNL     1      -4.938   9.162  -4.003  1.00  0.00     0.031 A 
ATOM     36  C   UNL     1      -4.061   9.619  -5.090  1.00  0.00     0.074 A 
ATOM     37  C   UNL     1      -6.186   8.691  -4.160  1.00  0.00     0.049 A 
ATOM     38  N   UNL     1      -4.140  10.732  -5.734  1.00  0.00    -0.248 NA
ATOM     39  C   UNL     1      -2.840   8.843  -5.352  1.00  0.00     0.031 C 
ATOM     40  C   UNL     1      -7.031   7.977  -3.200  1.00  0.00     0.029 A 
ATOM     41  N   UNL     1      -6.935   8.687  -5.290  1.00  0.00    -0.354 N 
ATOM     42  C   UNL     1      -3.093  10.699  -6.641  1.00  0.00     0.074 A 
ATOM     43  C   UNL     1      -2.217   9.636  -6.223  1.00  0.00     0.031 C 
ATOM     44  C   UNL     1      -8.076   7.422  -3.858  1.00  0.00     0.029 A 
ATOM     45  C   UNL     1      -8.037   7.847  -5.248  1.00  0.00     0.049 A 
ATOM     46  H   UNL     1      -6.714   9.236  -6.077  1.00  0.00     0.167 HD
ATOM     47  C   UNL     1      -3.177  11.365  -7.821  1.00  0.00     0.037 A 
ATOM     48  C   UNL     1      -8.793   7.490  -6.316  1.00  0.00     0.037 A 
ATOM     49  C   UNL     1      -4.216  12.363  -7.791  1.00  0.00     0.049 A 
ATOM     50  C   UNL     1      -8.541   8.486  -7.392  1.00  0.00     0.074 A 
ATOM     51  C   UNL     1      -4.463  13.480  -7.015  1.00  0.00     0.029 A 
ATOM     52  N   UNL     1      -5.409  12.061  -8.404  1.00  0.00    -0.354 N 
ATOM     53  N   UNL     1      -8.953   9.723  -7.342  1.00  0.00    -0.248 NA
ATOM     54  C   UNL     1      -7.434   8.239  -8.306  1.00  0.00     0.031 C 
ATOM     55  C   UNL     1      -5.878  13.508  -6.839  1.00  0.00     0.029 A 
ATOM     56  C   UNL     1      -6.419  12.441  -7.557  1.00  0.00     0.049 A 
ATOM     57  H   UNL     1      -5.518  11.647  -9.291  1.00  0.00     0.167 HD
ATOM     58  C   UNL     1      -7.905  10.468  -7.864  1.00  0.00     0.074 A 
ATOM     59  C   UNL     1      -7.039   9.497  -8.529  1.00  0.00     0.031 C 
ATOM     60  C   UNL     1      -7.684  11.752  -7.455  1.00  0.00     0.037 A 
BRANCH  47  61
ATOM     61  C   UNL     1      -2.590  10.839  -9.100  1.00  0.00     0.057 A 
ATOM     62  C   UNL     1      -2.546  11.678 -10.224  1.00  0.00     0.134 A 
ATOM     63  C   UNL     1      -2.330   9.475  -9.354  1.00  0.00     0.134 A 
ATOM     64  F   UNL     1      -2.801  12.990 -10.112  1.00  0.00    -0.206 F 
ATOM     65  C   UNL     1      -2.321  11.185 -11.513  1.00  0.00     0.040 A 
ATOM     66  C   UNL     1      -2.047   8.982 -10.627  1.00  0.00     0.040 A 
ATOM     67  F   UNL     1      -2.440   8.531  -8.411  1.00  0.00    -0.206 F 
ATOM     68  C   UNL     1      -2.074   9.832 -11.718  1.00  0.00     0.006 A 
ENDBRANCH  47  61
BRANCH  48  69
ATOM     69  C   UNL     1      -9.494   6.213  -6.573  1.00  0.00     0.057 A 
ATOM     70  C   UNL     1     -10.459   6.109  -7.585  1.00  0.00     0.134 A 
ATOM     71  C   UNL     1      -9.044   4.999  -6.023  1.00  0.00     0.134 A 
ATOM     72  F   UNL     1     -10.923   7.207  -8.199  1.00  0.00    -0.206 F 
ATOM     73  C   UNL     1     -10.928   4.871  -8.044  1.00  0.00     0.040 A 
ATOM     74  C   UNL     1      -9.510   3.757  -6.466  1.00  0.00     0.040 A 
ATOM     75  F   UNL     1      -8.072   4.972  -5.101  1.00  0.00    -0.206 F 
ATOM     76  C   UNL     1     -10.444   3.689  -7.492  1.00  0.00     0.006 A 
ENDBRANCH  48  69
BRANCH  60  77
ATOM     77  C   UNL     1      -8.752  12.406  -6.621  1.00  0.00     0.057 A 
ATOM     78  C   UNL     1      -9.131  11.962  -5.344  1.00  0.00     0.134 A 
ATOM     79  C   UNL     1      -9.321  13.602  -7.067  1.00  0.00     0.134 A 
ATOM     80  F   UNL     1      -8.562  10.886  -4.787  1.00  0.00    -0.206 F 
ATOM     81  C   UNL     1     -10.074  12.648  -4.573  1.00  0.00     0.040 A 
ATOM     82  C   UNL     1     -10.238  14.316  -6.293  1.00  0.00     0.040 A 
ATOM     83  F   UNL     1      -8.961  14.121  -8.252  1.00  0.00    -0.206 F 
ATOM     84  C   UNL     1     -10.628  13.833  -5.047  1.00  0.00     0.006 A 
ENDBRANCH  60  77
ENDBRANCH  34  35
ENDBRANCH  27  29
ENDBRANCH  26  27
ENDBRANCH  25  26
ENDBRANCH  24  25
ENDBRANCH  23  24
ENDBRANCH  22  23
ENDBRANCH  21  22
ENDBRANCH   1  21
TORSDOF 22
