REMARK SMILES CC(C)CCn1cc(C(=O)OCCOCCOCCOCCOC(=O)c2ccc(-c3c4nc(c(-c5c(F)cccc5F)c5ccc([nH]5)c(-c5c(F)cccc5F)c5nc(c(-c6c(F)cccc6F)c6ccc3[nH]6)C=C5)C=C4)cc2)c(-c2ccoc2)n1
REMARK SMILES IDX 16 1 15 2 14 3 13 4 12 5 11 6 9 7 10 8 8 9 6 10 7 11 86 12
REMARK SMILES IDX 80 13 5 14 4 15 2 16 1 17 3 18 81 19 82 20 85 21 83 22 84 23
REMARK SMILES IDX 17 24 18 25 19 26 20 27 21 28 22 29 23 30 24 31 25 32 26 33
REMARK SMILES IDX 27 34 79 35 28 36 78 37 29 38 30 39 31 40 72 41 32 42 77 43
REMARK SMILES IDX 71 44 73 45 33 46 76 47 70 48 69 49 34 51 60 52 43 53 59 54
REMARK SMILES IDX 44 55 47 56 58 57 74 58 45 59 46 60 57 62 75 63 48 64 35 65
REMARK SMILES IDX 36 66 41 67 37 68 38 69 40 70 42 71 39 72 61 73 62 74 67 75
REMARK SMILES IDX 63 76 64 77 66 78 68 79 65 80 49 81 50 82 55 83 51 84 52 85
REMARK SMILES IDX 54 86 56 87 53 88
REMARK H PARENT 73 50 47 61
REMARK Flexibility Score: inf
ROOT
ATOM      1  C   UNL     1       2.157  -5.513   0.602  1.00  0.00     0.188 C 
ENDROOT
BRANCH   1   2
ATOM      2  C   UNL     1       2.027  -6.822  -0.215  1.00  0.00     0.188 C 
BRANCH   2   3
ATOM      3  O   UNL     1       3.191  -7.152  -0.940  1.00  0.00    -0.376 OA
BRANCH   3   4
ATOM      4  C   UNL     1       3.207  -7.113  -2.344  1.00  0.00     0.202 C 
BRANCH   4   5
ATOM      5  C   UNL     1       2.869  -5.795  -3.050  1.00  0.00     0.261 C 
BRANCH   5   6
ATOM      6  O   UNL     1       1.858  -4.978  -2.449  1.00  0.00    -0.460 OA
BRANCH   6   7
ATOM      7  C   UNL     1       0.553  -5.354  -2.612  1.00  0.00     0.342 C 
ATOM      8  O   UNL     1       0.187  -6.303  -3.272  1.00  0.00    -0.246 OA
BRANCH   7   9
ATOM      9  C   UNL     1      -0.314  -4.538  -1.777  1.00  0.00     0.106 A 
ATOM     10  N   UNL     1      -1.183  -2.831  -0.687  1.00  0.00    -0.271 N 
ATOM     11  C   UNL     1      -0.216  -3.170  -1.587  1.00  0.00     0.125 A 
ATOM     12  N   UNL     1      -1.862  -3.890  -0.216  1.00  0.00    -0.172 NA
ATOM     13  C   UNL     1      -1.352  -4.927  -0.892  1.00  0.00     0.110 A 
BRANCH  10  14
ATOM     14  C   UNL     1      -1.581  -1.493  -0.297  1.00  0.00     0.144 C 
BRANCH  14  15
ATOM     15  C   UNL     1      -1.002  -1.008   1.035  1.00  0.00     0.027 C 
BRANCH  15  16
ATOM     16  C   UNL     1       0.532  -0.877   1.093  1.00  0.00    -0.016 C 
ATOM     17  C   UNL     1       1.086   0.076   0.032  1.00  0.00     0.007 C 
ATOM     18  C   UNL     1       0.955  -0.385   2.482  1.00  0.00     0.007 C 
ENDBRANCH  15  16
ENDBRANCH  14  15
ENDBRANCH  10  14
BRANCH  13  19
ATOM     19  C   UNL     1      -1.774  -6.288  -0.602  1.00  0.00     0.041 A 
ATOM     20  C   UNL     1      -2.700  -7.043  -1.356  1.00  0.00     0.052 A 
ATOM     21  C   UNL     1      -1.419  -7.066   0.476  1.00  0.00     0.205 A 
ATOM     22  C   UNL     1      -2.828  -8.246  -0.699  1.00  0.00     0.195 A 
ATOM     23  O   UNL     1      -2.043  -8.273   0.411  1.00  0.00    -0.472 OA
ENDBRANCH  13  19
ENDBRANCH   7   9
ENDBRANCH   6   7
ENDBRANCH   5   6
ENDBRANCH   4   5
ENDBRANCH   3   4
ENDBRANCH   2   3
ENDBRANCH   1   2
BRANCH   1  24
ATOM     24  O   UNL     1       3.411  -4.936   0.957  1.00  0.00    -0.377 OA
BRANCH  24  25
ATOM     25  C   UNL     1       4.622  -5.574   0.591  1.00  0.00     0.188 C 
BRANCH  25  26
ATOM     26  C   UNL     1       4.908  -6.976   1.180  1.00  0.00     0.188 C 
BRANCH  26  27
ATOM     27  O   UNL     1       3.809  -7.722   1.669  1.00  0.00    -0.376 OA
BRANCH  27  28
ATOM     28  C   UNL     1       3.236  -7.611   2.957  1.00  0.00     0.202 C 
BRANCH  28  29
ATOM     29  C   UNL     1       3.362  -6.404   3.873  1.00  0.00     0.261 C 
BRANCH  29  30
ATOM     30  O   UNL     1       4.359  -5.482   3.523  1.00  0.00    -0.460 OA
BRANCH  30  31
ATOM     31  C   UNL     1       5.593  -5.861   3.889  1.00  0.00     0.338 C 
ATOM     32  O   UNL     1       5.973  -6.970   4.214  1.00  0.00    -0.246 OA
BRANCH  31  33
ATOM     33  C   UNL     1       6.388  -4.648   4.017  1.00  0.00     0.060 A 
ATOM     34  C   UNL     1       7.757  -4.833   4.194  1.00  0.00     0.016 A 
ATOM     35  C   UNL     1       5.711  -3.480   4.399  1.00  0.00     0.016 A 
ATOM     36  C   UNL     1       8.410  -3.941   5.003  1.00  0.00     0.010 A 
ATOM     37  C   UNL     1       6.351  -2.619   5.242  1.00  0.00     0.010 A 
ATOM     38  C   UNL     1       7.667  -2.909   5.592  1.00  0.00    -0.014 A 
BRANCH  38  39
ATOM     39  C   UNL     1       8.369  -1.955   6.415  1.00  0.00     0.031 A 
ATOM     40  C   UNL     1       9.194  -1.087   5.552  1.00  0.00     0.074 A 
ATOM     41  C   UNL     1       8.149  -1.851   7.740  1.00  0.00     0.049 A 
ATOM     42  N   UNL     1      10.479  -1.108   5.443  1.00  0.00    -0.248 NA
ATOM     43  C   UNL     1       8.526  -0.308   4.488  1.00  0.00     0.031 C 
ATOM     44  C   UNL     1       7.135  -2.572   8.519  1.00  0.00     0.029 A 
ATOM     45  N   UNL     1       8.690  -0.992   8.655  1.00  0.00    -0.354 N 
ATOM     46  C   UNL     1      10.767  -0.078   4.554  1.00  0.00     0.074 A 
ATOM     47  C   UNL     1       9.572   0.150   3.798  1.00  0.00     0.031 C 
ATOM     48  C   UNL     1       6.969  -1.960   9.712  1.00  0.00     0.029 A 
ATOM     49  C   UNL     1       7.941  -0.890   9.832  1.00  0.00     0.049 A 
ATOM     50  H   UNL     1       9.525  -0.493   8.500  1.00  0.00     0.167 HD
ATOM     51  C   UNL     1      11.762   0.789   4.883  1.00  0.00     0.037 A 
ATOM     52  C   UNL     1       8.084   0.068  10.784  1.00  0.00     0.037 A 
ATOM     53  C   UNL     1      12.632   0.188   5.868  1.00  0.00     0.049 A 
ATOM     54  C   UNL     1       9.442   0.638  10.630  1.00  0.00     0.074 A 
ATOM     55  C   UNL     1      13.559  -0.830   5.912  1.00  0.00     0.029 A 
ATOM     56  N   UNL     1      12.205   0.401   7.150  1.00  0.00    -0.354 N 
ATOM     57  N   UNL     1      10.530  -0.025  10.909  1.00  0.00    -0.248 NA
ATOM     58  C   UNL     1       9.626   1.822   9.797  1.00  0.00     0.031 C 
ATOM     59  C   UNL     1      13.627  -1.255   7.273  1.00  0.00     0.029 A 
ATOM     60  C   UNL     1      12.787  -0.452   8.040  1.00  0.00     0.049 A 
ATOM     61  H   UNL     1      11.550   1.092   7.402  1.00  0.00     0.167 HD
ATOM     62  C   UNL     1      11.423   0.375   9.935  1.00  0.00     0.074 A 
ATOM     63  C   UNL     1      10.889   1.625   9.407  1.00  0.00     0.031 C 
ATOM     64  C   UNL     1      12.303  -0.521   9.399  1.00  0.00     0.037 A 
BRANCH  51  65
ATOM     65  C   UNL     1      11.595   2.303   4.841  1.00  0.00     0.057 A 
ATOM     66  C   UNL     1      12.702   3.096   5.196  1.00  0.00     0.134 A 
ATOM     67  C   UNL     1      10.364   2.996   4.805  1.00  0.00     0.134 A 
ATOM     68  F   UNL     1      13.929   2.561   5.282  1.00  0.00    -0.206 F 
ATOM     69  C   UNL     1      12.578   4.443   5.561  1.00  0.00     0.040 A 
ATOM     70  C   UNL     1      10.237   4.349   5.127  1.00  0.00     0.040 A 
ATOM     71  F   UNL     1       9.193   2.403   4.554  1.00  0.00    -0.206 F 
ATOM     72  C   UNL     1      11.341   5.072   5.537  1.00  0.00     0.006 A 
ENDBRANCH  51  65
BRANCH  52  73
ATOM     73  C   UNL     1       7.069   0.705  11.657  1.00  0.00     0.057 A 
ATOM     74  C   UNL     1       7.452   1.514  12.741  1.00  0.00     0.134 A 
ATOM     75  C   UNL     1       5.717   0.784  11.284  1.00  0.00     0.134 A 
ATOM     76  F   UNL     1       8.726   1.535  13.159  1.00  0.00    -0.206 F 
ATOM     77  C   UNL     1       6.558   2.383  13.381  1.00  0.00     0.040 A 
ATOM     78  C   UNL     1       4.812   1.643  11.919  1.00  0.00     0.040 A 
ATOM     79  F   UNL     1       5.247   0.103  10.229  1.00  0.00    -0.206 F 
ATOM     80  C   UNL     1       5.235   2.461  12.959  1.00  0.00     0.006 A 
ENDBRANCH  52  73
BRANCH  64  81
ATOM     81  C   UNL     1      12.682  -1.703  10.231  1.00  0.00     0.057 A 
ATOM     82  C   UNL     1      11.808  -2.724  10.626  1.00  0.00     0.134 A 
ATOM     83  C   UNL     1      14.026  -1.832  10.599  1.00  0.00     0.134 A 
ATOM     84  F   UNL     1      10.522  -2.723  10.249  1.00  0.00    -0.206 F 
ATOM     85  C   UNL     1      12.252  -3.804  11.397  1.00  0.00     0.040 A 
ATOM     86  C   UNL     1      14.488  -2.921  11.335  1.00  0.00     0.040 A 
ATOM     87  F   UNL     1      14.922  -0.907  10.219  1.00  0.00    -0.206 F 
ATOM     88  C   UNL     1      13.596  -3.905  11.750  1.00  0.00     0.006 A 
ENDBRANCH  64  81
ENDBRANCH  38  39
ENDBRANCH  31  33
ENDBRANCH  30  31
ENDBRANCH  29  30
ENDBRANCH  28  29
ENDBRANCH  27  28
ENDBRANCH  26  27
ENDBRANCH  25  26
ENDBRANCH  24  25
ENDBRANCH   1  24
TORSDOF 24
