REMARK SMILES O=C(OCCOCCOCCOCCOC(=O)[C@@H]1CC2(CC[NH2+]CC2)C[N@@H+]1Cc1cccc2nonc12)c1ccc(-c2c3nc(c(-c4c(F)cccc4F)c4ccc([nH]4)c(-c4c(F)cccc4F)c4nc(c(-c5c(F)cccc5F)c5ccc2[nH]5)C=C4)C=C3)cc1
REMARK SMILES IDX 9 1 8 2 7 3 6 4 5 5 4 6 3 7 2 8 1 9 38 10 39 11 91 12 40 13
REMARK SMILES IDX 90 14 41 15 42 16 43 17 84 18 44 19 89 20 83 21 85 22 45 23
REMARK SMILES IDX 88 24 82 25 81 26 46 28 72 29 55 30 71 31 56 32 59 33 70 34
REMARK SMILES IDX 86 35 57 36 58 37 69 39 87 40 60 41 47 42 48 43 53 44 49 45
REMARK SMILES IDX 50 46 52 47 54 48 51 49 73 50 74 51 79 52 75 53 76 54 78 55
REMARK SMILES IDX 80 56 77 57 61 58 62 59 67 60 63 61 64 62 66 63 68 64 65 65
REMARK SMILES IDX 10 66 11 67 12 68 13 69 14 70 15 71 16 72 17 73 18 74 19 75
REMARK SMILES IDX 27 76 20 77 26 78 21 80 25 81 22 82 24 83 23 84 28 87 29 88
REMARK SMILES IDX 30 89 37 90 31 91 33 92 36 93 32 94 34 95 35 96
REMARK H PARENT 85 27 59 38 27 79 23 85 23 86
REMARK Flexibility Score: inf
ROOT
ATOM      1  O   UNL     1       3.363   2.797   2.048  1.00  0.00    -0.377 OA
ENDROOT
BRANCH   1   2
ATOM      2  C   UNL     1       2.388   1.850   1.608  1.00  0.00     0.188 C 
BRANCH   2   3
ATOM      3  C   UNL     1       2.674   1.119   0.292  1.00  0.00     0.188 C 
BRANCH   3   4
ATOM      4  O   UNL     1       3.815   0.285   0.440  1.00  0.00    -0.376 OA
BRANCH   4   5
ATOM      5  C   UNL     1       4.735   0.277  -0.650  1.00  0.00     0.202 C 
BRANCH   5   6
ATOM      6  C   UNL     1       4.258  -0.610  -1.791  1.00  0.00     0.261 C 
BRANCH   6   7
ATOM      7  O   UNL     1       4.074  -1.932  -1.267  1.00  0.00    -0.460 OA
BRANCH   7   8
ATOM      8  C   UNL     1       2.805  -2.188  -0.857  1.00  0.00     0.338 C 
ATOM      9  O   UNL     1       1.782  -1.857  -1.433  1.00  0.00    -0.246 OA
BRANCH   8  10
ATOM     10  C   UNL     1       2.836  -2.850   0.467  1.00  0.00     0.060 A 
ATOM     11  C   UNL     1       1.740  -3.599   0.900  1.00  0.00     0.016 A 
ATOM     12  C   UNL     1       3.911  -2.640   1.330  1.00  0.00     0.016 A 
ATOM     13  C   UNL     1       1.754  -4.183   2.174  1.00  0.00     0.010 A 
ATOM     14  C   UNL     1       3.901  -3.181   2.606  1.00  0.00     0.010 A 
ATOM     15  C   UNL     1       2.846  -3.992   3.037  1.00  0.00    -0.014 A 
BRANCH  15  16
ATOM     16  C   UNL     1       2.996  -4.793   4.276  1.00  0.00     0.031 A 
ATOM     17  C   UNL     1       4.394  -4.892   4.822  1.00  0.00     0.074 A 
ATOM     18  C   UNL     1       2.001  -5.009   5.157  1.00  0.00     0.049 A 
ATOM     19  N   UNL     1       4.918  -4.014   5.631  1.00  0.00    -0.248 NA
ATOM     20  C   UNL     1       5.369  -5.810   4.230  1.00  0.00     0.031 C 
ATOM     21  C   UNL     1       1.067  -3.971   5.600  1.00  0.00     0.029 A 
ATOM     22  N   UNL     1       1.819  -6.044   6.045  1.00  0.00    -0.354 N 
ATOM     23  C   UNL     1       6.290  -4.213   5.613  1.00  0.00     0.074 A 
ATOM     24  C   UNL     1       6.519  -5.345   4.740  1.00  0.00     0.031 C 
ATOM     25  C   UNL     1       0.539  -4.354   6.782  1.00  0.00     0.029 A 
ATOM     26  C   UNL     1       0.972  -5.715   7.097  1.00  0.00     0.049 A 
ATOM     27  H   UNL     1       2.244  -6.927   5.946  1.00  0.00     0.167 HD
ATOM     28  C   UNL     1       7.179  -3.438   6.290  1.00  0.00     0.037 A 
ATOM     29  C   UNL     1       1.060  -6.240   8.348  1.00  0.00     0.037 A 
ATOM     30  C   UNL     1       6.627  -2.395   7.101  1.00  0.00     0.049 A 
ATOM     31  C   UNL     1       2.277  -5.547   8.887  1.00  0.00     0.074 A 
ATOM     32  C   UNL     1       6.355  -1.046   7.004  1.00  0.00     0.029 A 
ATOM     33  N   UNL     1       6.187  -2.741   8.357  1.00  0.00    -0.354 N 
ATOM     34  N   UNL     1       2.306  -4.368   9.438  1.00  0.00    -0.248 NA
ATOM     35  C   UNL     1       3.591  -6.082   8.518  1.00  0.00     0.031 C 
ATOM     36  C   UNL     1       5.355  -0.782   7.999  1.00  0.00     0.029 A 
ATOM     37  C   UNL     1       5.057  -2.003   8.595  1.00  0.00     0.049 A 
ATOM     38  H   UNL     1       6.603  -3.392   8.967  1.00  0.00     0.167 HD
ATOM     39  C   UNL     1       3.598  -3.893   9.211  1.00  0.00     0.074 A 
ATOM     40  C   UNL     1       4.359  -5.018   8.710  1.00  0.00     0.031 C 
ATOM     41  C   UNL     1       3.904  -2.565   9.241  1.00  0.00     0.037 A 
BRANCH  28  42
ATOM     42  C   UNL     1       8.621  -3.738   6.387  1.00  0.00     0.057 A 
ATOM     43  C   UNL     1       9.560  -3.276   5.466  1.00  0.00     0.134 A 
ATOM     44  C   UNL     1       9.096  -4.354   7.553  1.00  0.00     0.134 A 
ATOM     45  F   UNL     1       9.168  -2.675   4.333  1.00  0.00    -0.206 F 
ATOM     46  C   UNL     1      10.931  -3.389   5.718  1.00  0.00     0.040 A 
ATOM     47  C   UNL     1      10.458  -4.466   7.821  1.00  0.00     0.040 A 
ATOM     48  F   UNL     1       8.230  -4.815   8.472  1.00  0.00    -0.206 F 
ATOM     49  C   UNL     1      11.381  -3.970   6.906  1.00  0.00     0.006 A 
ENDBRANCH  28  42
BRANCH  29  50
ATOM     50  C   UNL     1       0.856  -7.712   8.493  1.00  0.00     0.057 A 
ATOM     51  C   UNL     1       1.669  -8.570   9.243  1.00  0.00     0.134 A 
ATOM     52  C   UNL     1      -0.263  -8.308   7.881  1.00  0.00     0.134 A 
ATOM     53  F   UNL     1       2.692  -8.104   9.972  1.00  0.00    -0.206 F 
ATOM     54  C   UNL     1       1.464  -9.954   9.274  1.00  0.00     0.040 A 
ATOM     55  C   UNL     1      -0.494  -9.685   7.921  1.00  0.00     0.040 A 
ATOM     56  F   UNL     1      -1.168  -7.555   7.234  1.00  0.00    -0.206 F 
ATOM     57  C   UNL     1       0.388 -10.518   8.598  1.00  0.00     0.006 A 
ENDBRANCH  29  50
BRANCH  41  58
ATOM     58  C   UNL     1       2.776  -1.721   9.700  1.00  0.00     0.057 A 
ATOM     59  C   UNL     1       1.809  -1.247   8.806  1.00  0.00     0.134 A 
ATOM     60  C   UNL     1       2.572  -1.512  11.065  1.00  0.00     0.134 A 
ATOM     61  F   UNL     1       1.969  -1.388   7.481  1.00  0.00    -0.206 F 
ATOM     62  C   UNL     1       0.655  -0.610   9.264  1.00  0.00     0.040 A 
ATOM     63  C   UNL     1       1.437  -0.851  11.533  1.00  0.00     0.040 A 
ATOM     64  F   UNL     1       3.464  -1.962  11.962  1.00  0.00    -0.206 F 
ATOM     65  C   UNL     1       0.471  -0.404  10.631  1.00  0.00     0.006 A 
ENDBRANCH  41  58
ENDBRANCH  15  16
ENDBRANCH   8  10
ENDBRANCH   7   8
ENDBRANCH   6   7
ENDBRANCH   5   6
ENDBRANCH   4   5
ENDBRANCH   3   4
ENDBRANCH   2   3
ENDBRANCH   1   2
BRANCH   1  66
ATOM     66  C   UNL     1       4.739   2.462   1.929  1.00  0.00     0.188 C 
BRANCH  66  67
ATOM     67  C   UNL     1       5.405   1.402   2.845  1.00  0.00     0.188 C 
BRANCH  67  68
ATOM     68  O   UNL     1       4.786   0.153   3.041  1.00  0.00    -0.376 OA
BRANCH  68  69
ATOM     69  C   UNL     1       3.788  -0.029   4.038  1.00  0.00     0.202 C 
BRANCH  69  70
ATOM     70  C   UNL     1       3.388   1.033   5.076  1.00  0.00     0.261 C 
BRANCH  70  71
ATOM     71  O   UNL     1       3.612   2.393   4.686  1.00  0.00    -0.459 OA
BRANCH  71  72
ATOM     72  C   UNL     1       4.488   3.102   5.452  1.00  0.00     0.365 C 
ATOM     73  O   UNL     1       4.962   2.668   6.494  1.00  0.00    -0.245 OA
BRANCH  72  74
ATOM     74  C   UNL     1       4.852   4.449   4.793  1.00  0.00     0.296 C 
ATOM     75  C   UNL     1       6.332   4.502   4.402  1.00  0.00     0.091 C 
ATOM     76  N   UNL     1       4.781   5.635   5.656  1.00  0.00    -0.319 N 
ATOM     77  C   UNL     1       7.100   4.990   5.653  1.00  0.00     0.036 C 
ATOM     78  C   UNL     1       6.011   5.771   6.431  1.00  0.00     0.270 C 
ATOM     79  H   UNL     1       4.767   6.457   5.054  1.00  0.00     0.349 HD
ATOM     80  C   UNL     1       8.305   5.865   5.245  1.00  0.00     0.074 C 
ATOM     81  C   UNL     1       7.703   3.854   6.523  1.00  0.00     0.074 C 
ATOM     82  C   UNL     1       9.414   5.040   4.572  1.00  0.00     0.261 C 
ATOM     83  C   UNL     1       8.770   3.048   5.788  1.00  0.00     0.261 C 
ATOM     84  N   UNL     1       9.877   3.912   5.385  1.00  0.00    -0.346 N 
ATOM     85  H   UNL     1      10.336   4.274   6.221  1.00  0.00     0.346 HD
ATOM     86  H   UNL     1      10.525   3.359   4.824  1.00  0.00     0.346 HD
BRANCH  76  87
ATOM     87  C   UNL     1       3.491   5.988   6.246  1.00  0.00     0.302 C 
BRANCH  87  88
ATOM     88  C   UNL     1       2.877   4.936   7.124  1.00  0.00     0.038 A 
ATOM     89  C   UNL     1       3.485   4.554   8.348  1.00  0.00     0.012 A 
ATOM     90  C   UNL     1       1.785   4.109   6.754  1.00  0.00     0.144 A 
ATOM     91  C   UNL     1       3.167   3.370   9.049  1.00  0.00     0.003 A 
ATOM     92  C   UNL     1       1.437   2.906   7.500  1.00  0.00     0.135 A 
ATOM     93  N   UNL     1       0.958   4.196   5.703  1.00  0.00    -0.049 NA
ATOM     94  C   UNL     1       2.153   2.500   8.637  1.00  0.00     0.034 A 
ATOM     95  N   UNL     1       0.407   2.309   6.887  1.00  0.00    -0.050 NA
ATOM     96  O   UNL     1       0.115   3.101   5.790  1.00  0.00    -0.243 OA
ENDBRANCH  87  88
ENDBRANCH  76  87
ENDBRANCH  72  74
ENDBRANCH  71  72
ENDBRANCH  70  71
ENDBRANCH  69  70
ENDBRANCH  68  69
ENDBRANCH  67  68
ENDBRANCH  66  67
ENDBRANCH   1  66
TORSDOF 22
