REMARK SMILES COc1ccc2c(c1)c(CC(=O)OCCOCCOCCOCCOC(=O)c1ccc(-c3c4nc(c(-c5c(F)cccc5F)c5ccc([nH]5)c(-c5c(F)cccc5F)c5nc(c(-c6c(F)cccc6F)c6ccc3[nH]6)C=C5)C=C4)cc1)c(C)n2Cc1ccc(Br)cc1
REMARK SMILES IDX 18 1 17 2 16 3 15 4 14 5 13 6 11 7 12 8 10 9 9 10 3 11 4 12
REMARK SMILES IDX 8 13 5 14 7 15 6 16 84 17 82 18 83 19 2 20 1 21 85 22 86 23
REMARK SMILES IDX 87 24 92 25 88 26 91 27 89 28 90 29 19 30 20 31 21 32 22 33
REMARK SMILES IDX 23 34 24 35 25 36 26 37 27 38 28 39 29 40 81 41 30 42 80 43
REMARK SMILES IDX 31 44 32 45 33 46 74 47 34 48 79 49 73 50 75 51 35 52 78 53
REMARK SMILES IDX 72 54 71 55 36 57 62 58 45 59 61 60 46 61 49 62 60 63 76 64
REMARK SMILES IDX 47 65 48 66 59 68 77 69 50 70 37 71 38 72 43 73 39 74 40 75
REMARK SMILES IDX 42 76 44 77 41 78 63 79 64 80 69 81 65 82 66 83 68 84 70 85
REMARK SMILES IDX 67 86 51 87 52 88 57 89 53 90 54 91 56 92 58 93 55 94
REMARK H PARENT 75 56 49 67
REMARK Flexibility Score: inf
ROOT
ATOM      1  C   UNL     1      -1.058   1.899  -3.908  1.00  0.00     0.188 C 
ENDROOT
BRANCH   1   2
ATOM      2  C   UNL     1      -2.471   1.431  -4.231  1.00  0.00     0.188 C 
BRANCH   2   3
ATOM      3  O   UNL     1      -2.682   1.178  -5.609  1.00  0.00    -0.376 OA
BRANCH   3   4
ATOM      4  C   UNL     1      -3.279   2.196  -6.397  1.00  0.00     0.202 C 
BRANCH   4   5
ATOM      5  C   UNL     1      -2.557   3.547  -6.588  1.00  0.00     0.261 C 
BRANCH   5   6
ATOM      6  O   UNL     1      -1.995   4.177  -5.415  1.00  0.00    -0.463 OA
BRANCH   6   7
ATOM      7  C   UNL     1      -2.792   4.882  -4.581  1.00  0.00     0.310 C 
ATOM      8  O   UNL     1      -3.989   5.055  -4.800  1.00  0.00    -0.252 OA
BRANCH   7   9
ATOM      9  C   UNL     1      -2.130   5.352  -3.276  1.00  0.00     0.160 C 
BRANCH   9  10
ATOM     10  C   UNL     1      -0.616   5.335  -3.139  1.00  0.00    -0.008 A 
ATOM     11  C   UNL     1       0.817   2.652  -0.782  1.00  0.00     0.119 A 
ATOM     12  C   UNL     1       2.146   2.839  -1.135  1.00  0.00     0.048 A 
ATOM     13  C   UNL     1      -0.160   3.508  -1.310  1.00  0.00     0.057 A 
ATOM     14  C   UNL     1       2.517   3.863  -2.024  1.00  0.00     0.031 A 
ATOM     15  C   UNL     1       0.165   4.480  -2.285  1.00  0.00     0.007 A 
ATOM     16  C   UNL     1       1.515   4.682  -2.586  1.00  0.00     0.049 A 
ATOM     17  N   UNL     1       1.577   5.785  -3.434  1.00  0.00    -0.340 N 
ATOM     18  C   UNL     1       0.287   6.263  -3.646  1.00  0.00     0.020 A 
ATOM     19  C   UNL     1      -0.040   7.572  -4.269  1.00  0.00     0.065 C 
BRANCH  11  20
ATOM     20  O   UNL     1       0.316   1.666   0.021  1.00  0.00    -0.497 OA
ATOM     21  C   UNL     1       1.167   0.586   0.384  1.00  0.00     0.278 C 
ENDBRANCH  11  20
BRANCH  17  22
ATOM     22  C   UNL     1       2.834   6.469  -3.783  1.00  0.00     0.157 C 
BRANCH  22  23
ATOM     23  C   UNL     1       3.228   6.405  -5.245  1.00  0.00    -0.028 A 
ATOM     24  C   UNL     1       2.636   7.255  -6.193  1.00  0.00     0.007 A 
ATOM     25  C   UNL     1       4.253   5.551  -5.686  1.00  0.00     0.007 A 
ATOM     26  C   UNL     1       2.995   7.214  -7.541  1.00  0.00     0.016 A 
ATOM     27  C   UNL     1       4.644   5.533  -7.032  1.00  0.00     0.016 A 
ATOM     28  C   UNL     1       3.998   6.350  -7.957  1.00  0.00     0.017 A 
ATOM     29  Br  UNL     1       4.493   6.306  -9.780  1.00  0.00    -0.051 Br
ENDBRANCH  22  23
ENDBRANCH  17  22
ENDBRANCH   9  10
ENDBRANCH   7   9
ENDBRANCH   6   7
ENDBRANCH   5   6
ENDBRANCH   4   5
ENDBRANCH   3   4
ENDBRANCH   2   3
ENDBRANCH   1   2
BRANCH   1  30
ATOM     30  O   UNL     1       0.085   1.271  -4.422  1.00  0.00    -0.377 OA
BRANCH  30  31
ATOM     31  C   UNL     1      -0.052   0.488  -5.571  1.00  0.00     0.188 C 
BRANCH  31  32
ATOM     32  C   UNL     1      -0.426  -0.965  -5.269  1.00  0.00     0.188 C 
BRANCH  32  33
ATOM     33  O   UNL     1      -0.024  -1.617  -4.061  1.00  0.00    -0.376 OA
BRANCH  33  34
ATOM     34  C   UNL     1       0.924  -1.021  -3.187  1.00  0.00     0.202 C 
BRANCH  34  35
ATOM     35  C   UNL     1       2.396  -0.975  -3.641  1.00  0.00     0.261 C 
BRANCH  35  36
ATOM     36  O   UNL     1       2.572  -0.557  -4.997  1.00  0.00    -0.460 OA
BRANCH  36  37
ATOM     37  C   UNL     1       3.180  -1.421  -5.856  1.00  0.00     0.338 C 
ATOM     38  O   UNL     1       3.848  -2.388  -5.590  1.00  0.00    -0.246 OA
BRANCH  37  39
ATOM     39  C   UNL     1       2.583  -1.134  -7.184  1.00  0.00     0.060 A 
ATOM     40  C   UNL     1       2.562   0.165  -7.700  1.00  0.00     0.016 A 
ATOM     41  C   UNL     1       1.747  -2.129  -7.710  1.00  0.00     0.016 A 
ATOM     42  C   UNL     1       1.578   0.498  -8.628  1.00  0.00     0.010 A 
ATOM     43  C   UNL     1       0.759  -1.789  -8.634  1.00  0.00     0.010 A 
ATOM     44  C   UNL     1       0.636  -0.463  -9.053  1.00  0.00    -0.014 A 
BRANCH  44  45
ATOM     45  C   UNL     1      -0.257  -0.087 -10.157  1.00  0.00     0.031 A 
ATOM     46  C   UNL     1       0.516   0.267 -11.377  1.00  0.00     0.074 A 
ATOM     47  C   UNL     1      -1.601  -0.192 -10.246  1.00  0.00     0.049 A 
ATOM     48  N   UNL     1       0.527   1.383 -12.029  1.00  0.00    -0.248 NA
ATOM     49  C   UNL     1       1.507  -0.722 -11.834  1.00  0.00     0.031 C 
ATOM     50  C   UNL     1      -2.533  -0.799  -9.299  1.00  0.00     0.029 A 
ATOM     51  N   UNL     1      -2.412   0.153 -11.300  1.00  0.00    -0.354 N 
ATOM     52  C   UNL     1       1.410   1.177 -13.083  1.00  0.00     0.074 A 
ATOM     53  C   UNL     1       2.098  -0.061 -12.825  1.00  0.00     0.031 C 
ATOM     54  C   UNL     1      -3.736  -0.962  -9.902  1.00  0.00     0.029 A 
ATOM     55  C   UNL     1      -3.691  -0.390 -11.241  1.00  0.00     0.049 A 
ATOM     56  H   UNL     1      -2.113   0.735 -12.036  1.00  0.00     0.167 HD
ATOM     57  C   UNL     1       1.355   1.908 -14.224  1.00  0.00     0.037 A 
ATOM     58  C   UNL     1      -4.618  -0.427 -12.235  1.00  0.00     0.037 A 
ATOM     59  C   UNL     1       0.678   3.162 -14.045  1.00  0.00     0.049 A 
ATOM     60  C   UNL     1      -4.241   0.572 -13.263  1.00  0.00     0.074 A 
ATOM     61  C   UNL     1       0.848   4.253 -13.212  1.00  0.00     0.029 A 
ATOM     62  N   UNL     1      -0.567   3.315 -14.598  1.00  0.00    -0.354 N 
ATOM     63  N   UNL     1      -4.374   1.859 -13.131  1.00  0.00    -0.248 NA
ATOM     64  C   UNL     1      -3.382   0.145 -14.358  1.00  0.00     0.031 C 
ATOM     65  C   UNL     1      -0.469   4.733 -12.949  1.00  0.00     0.029 A 
ATOM     66  C   UNL     1      -1.354   3.915 -13.649  1.00  0.00     0.049 A 
ATOM     67  H   UNL     1      -0.844   3.046 -15.504  1.00  0.00     0.167 HD
ATOM     68  C   UNL     1      -3.296   2.394 -13.817  1.00  0.00     0.074 A 
ATOM     69  C   UNL     1      -2.800   1.309 -14.654  1.00  0.00     0.031 C 
ATOM     70  C   UNL     1      -2.738   3.577 -13.429  1.00  0.00     0.037 A 
BRANCH  57  71
ATOM     71  C   UNL     1       1.596   1.287 -15.573  1.00  0.00     0.057 A 
ATOM     72  C   UNL     1       1.368  -0.079 -15.854  1.00  0.00     0.134 A 
ATOM     73  C   UNL     1       1.788   2.108 -16.693  1.00  0.00     0.134 A 
ATOM     74  F   UNL     1       1.050  -0.964 -14.900  1.00  0.00    -0.206 F 
ATOM     75  C   UNL     1       1.349  -0.593 -17.150  1.00  0.00     0.040 A 
ATOM     76  C   UNL     1       1.711   1.614 -18.000  1.00  0.00     0.040 A 
ATOM     77  F   UNL     1       1.972   3.429 -16.550  1.00  0.00    -0.206 F 
ATOM     78  C   UNL     1       1.492   0.260 -18.232  1.00  0.00     0.006 A 
ENDBRANCH  57  71
BRANCH  58  79
ATOM     79  C   UNL     1      -5.729  -1.381 -12.479  1.00  0.00     0.057 A 
ATOM     80  C   UNL     1      -5.670  -2.712 -12.036  1.00  0.00     0.134 A 
ATOM     81  C   UNL     1      -6.769  -1.085 -13.378  1.00  0.00     0.134 A 
ATOM     82  F   UNL     1      -4.673  -3.135 -11.246  1.00  0.00    -0.206 F 
ATOM     83  C   UNL     1      -6.580  -3.688 -12.457  1.00  0.00     0.040 A 
ATOM     84  C   UNL     1      -7.679  -2.056 -13.820  1.00  0.00     0.040 A 
ATOM     85  F   UNL     1      -6.894   0.143 -13.901  1.00  0.00    -0.206 F 
ATOM     86  C   UNL     1      -7.581  -3.366 -13.364  1.00  0.00     0.006 A 
ENDBRANCH  58  79
BRANCH  70  87
ATOM     87  C   UNL     1      -3.528   4.440 -12.489  1.00  0.00     0.057 A 
ATOM     88  C   UNL     1      -3.824   5.753 -12.870  1.00  0.00     0.134 A 
ATOM     89  C   UNL     1      -3.931   4.044 -11.204  1.00  0.00     0.134 A 
ATOM     90  F   UNL     1      -3.417   6.222 -14.061  1.00  0.00    -0.206 F 
ATOM     91  C   UNL     1      -4.519   6.625 -12.030  1.00  0.00     0.040 A 
ATOM     92  C   UNL     1      -4.664   4.893 -10.371  1.00  0.00     0.040 A 
ATOM     93  F   UNL     1      -3.595   2.845 -10.706  1.00  0.00    -0.206 F 
ATOM     94  C   UNL     1      -4.959   6.189 -10.783  1.00  0.00     0.006 A 
ENDBRANCH  70  87
ENDBRANCH  44  45
ENDBRANCH  37  39
ENDBRANCH  36  37
ENDBRANCH  35  36
ENDBRANCH  34  35
ENDBRANCH  33  34
ENDBRANCH  32  33
ENDBRANCH  31  32
ENDBRANCH  30  31
ENDBRANCH   1  30
TORSDOF 24
