REMARK SMILES C[C@H](CC(=O)OCCOCCOCCOCCOC(=O)c1ccc(-c2c3nc(c(-c4c(F)cccc4F)c4ccc([nH]4)c(-c4c(F)cccc4F)c4nc(c(-c5c(F)cccc5F)c5ccc2[nH]5)C=C4)C=C3)cc1)NC(=O)[C@H]1Cc2ccccc2O1
REMARK SMILES IDX 11 1 10 2 9 3 8 4 7 5 6 6 4 7 5 8 3 9 2 10 1 11 75 12 76 13
REMARK SMILES IDX 77 15 78 16 79 17 86 18 80 19 85 20 81 21 84 22 82 23 83 24
REMARK SMILES IDX 12 25 13 26 14 27 15 28 16 29 17 30 18 31 19 32 20 33 21 34
REMARK SMILES IDX 22 35 74 36 23 37 73 38 24 39 25 40 26 41 67 42 27 43 72 44
REMARK SMILES IDX 66 45 68 46 28 47 71 48 65 49 64 50 29 52 55 53 38 54 54 55
REMARK SMILES IDX 39 56 42 57 53 58 69 59 40 60 41 61 52 63 70 64 43 65 30 66
REMARK SMILES IDX 31 67 36 68 32 69 33 70 35 71 37 72 34 73 56 74 57 75 62 76
REMARK SMILES IDX 58 77 59 78 61 79 63 80 60 81 44 82 45 83 50 84 46 85 47 86
REMARK SMILES IDX 49 87 51 88 48 89
REMARK H PARENT 75 14 68 51 42 62
REMARK Flexibility Score: inf
ROOT
ATOM      1  C   UNL     1      -2.350  -0.962   4.783  1.00  0.00     0.188 C 
ENDROOT
BRANCH   1   2
ATOM      2  C   UNL     1      -3.009  -2.249   5.295  1.00  0.00     0.188 C 
BRANCH   2   3
ATOM      3  O   UNL     1      -2.462  -3.523   4.986  1.00  0.00    -0.376 OA
BRANCH   3   4
ATOM      4  C   UNL     1      -1.847  -3.768   3.730  1.00  0.00     0.202 C 
BRANCH   4   5
ATOM      5  C   UNL     1      -2.573  -3.425   2.413  1.00  0.00     0.261 C 
BRANCH   5   6
ATOM      6  O   UNL     1      -3.046  -2.063   2.260  1.00  0.00    -0.463 OA
BRANCH   6   7
ATOM      7  C   UNL     1      -4.386  -1.902   2.226  1.00  0.00     0.307 C 
ATOM      8  O   UNL     1      -5.185  -2.836   2.253  1.00  0.00    -0.252 OA
BRANCH   7   9
ATOM      9  C   UNL     1      -4.899  -0.468   2.250  1.00  0.00     0.147 C 
BRANCH   9  10
ATOM     10  C   UNL     1      -4.037   0.758   1.858  1.00  0.00     0.090 C 
ATOM     11  C   UNL     1      -4.955   1.796   1.169  1.00  0.00     0.031 C 
BRANCH  10  12
ATOM     12  N   UNL     1      -3.506   1.479   3.028  1.00  0.00    -0.350 N 
ATOM     13  C   UNL     1      -2.390   2.221   3.266  1.00  0.00     0.261 C 
ATOM     14  H   UNL     1      -4.090   1.408   3.817  1.00  0.00     0.163 HD
ATOM     15  O   UNL     1      -2.486   2.986   4.236  1.00  0.00    -0.271 OA
BRANCH  13  16
ATOM     16  C   UNL     1      -1.058   2.026   2.530  1.00  0.00     0.266 C 
ATOM     17  C   UNL     1      -1.011   2.151   1.010  1.00  0.00     0.095 C 
ATOM     18  O   UNL     1      -0.115   3.000   3.082  1.00  0.00    -0.480 OA
ATOM     19  C   UNL     1       0.382   2.656   0.866  1.00  0.00    -0.002 A 
ATOM     20  C   UNL     1       0.786   3.198   2.074  1.00  0.00     0.123 A 
ATOM     21  C   UNL     1       1.228   2.690  -0.229  1.00  0.00     0.008 A 
ATOM     22  C   UNL     1       1.985   3.863   2.225  1.00  0.00     0.047 A 
ATOM     23  C   UNL     1       2.480   3.302  -0.083  1.00  0.00     0.001 A 
ATOM     24  C   UNL     1       2.847   3.908   1.129  1.00  0.00     0.004 A 
ENDBRANCH  13  16
ENDBRANCH  10  12
ENDBRANCH   9  10
ENDBRANCH   7   9
ENDBRANCH   6   7
ENDBRANCH   5   6
ENDBRANCH   4   5
ENDBRANCH   3   4
ENDBRANCH   2   3
ENDBRANCH   1   2
BRANCH   1  25
ATOM     25  O   UNL     1      -1.236  -1.137   3.930  1.00  0.00    -0.377 OA
BRANCH  25  26
ATOM     26  C   UNL     1       0.061  -1.061   4.506  1.00  0.00     0.188 C 
BRANCH  26  27
ATOM     27  C   UNL     1       0.229  -1.537   5.954  1.00  0.00     0.188 C 
BRANCH  27  28
ATOM     28  O   UNL     1      -0.645  -0.867   6.847  1.00  0.00    -0.376 OA
BRANCH  28  29
ATOM     29  C   UNL     1      -0.194   0.298   7.522  1.00  0.00     0.202 C 
BRANCH  29  30
ATOM     30  C   UNL     1       0.344   1.507   6.735  1.00  0.00     0.261 C 
BRANCH  30  31
ATOM     31  O   UNL     1       1.371   1.269   5.760  1.00  0.00    -0.460 OA
BRANCH  31  32
ATOM     32  C   UNL     1       2.569   0.793   6.141  1.00  0.00     0.338 C 
ATOM     33  O   UNL     1       2.938   0.530   7.273  1.00  0.00    -0.246 OA
BRANCH  32  34
ATOM     34  C   UNL     1       3.316   0.486   4.899  1.00  0.00     0.060 A 
ATOM     35  C   UNL     1       3.573  -0.843   4.539  1.00  0.00     0.016 A 
ATOM     36  C   UNL     1       3.730   1.524   4.067  1.00  0.00     0.016 A 
ATOM     37  C   UNL     1       4.245  -1.132   3.344  1.00  0.00     0.010 A 
ATOM     38  C   UNL     1       4.403   1.233   2.876  1.00  0.00     0.010 A 
ATOM     39  C   UNL     1       4.683  -0.095   2.511  1.00  0.00    -0.014 A 
BRANCH  39  40
ATOM     40  C   UNL     1       5.554  -0.366   1.335  1.00  0.00     0.031 A 
ATOM     41  C   UNL     1       7.010   0.014   1.409  1.00  0.00     0.074 A 
ATOM     42  C   UNL     1       5.067  -0.923   0.210  1.00  0.00     0.049 A 
ATOM     43  N   UNL     1       7.937  -0.045   0.487  1.00  0.00    -0.248 NA
ATOM     44  C   UNL     1       7.479   0.549   2.698  1.00  0.00     0.031 C 
ATOM     45  C   UNL     1       3.684  -1.349   0.006  1.00  0.00     0.029 A 
ATOM     46  N   UNL     1       5.687  -1.216  -0.982  1.00  0.00    -0.354 N 
ATOM     47  C   UNL     1       9.090   0.458   1.078  1.00  0.00     0.074 A 
ATOM     48  C   UNL     1       8.736   0.859   2.422  1.00  0.00     0.031 C 
ATOM     49  C   UNL     1       3.561  -1.852  -1.236  1.00  0.00     0.029 A 
ATOM     50  C   UNL     1       4.843  -1.744  -1.930  1.00  0.00     0.049 A 
ATOM     51  H   UNL     1       6.646  -1.061  -1.142  1.00  0.00     0.167 HD
ATOM     52  C   UNL     1      10.336   0.563   0.557  1.00  0.00     0.037 A 
ATOM     53  C   UNL     1       5.073  -2.078  -3.216  1.00  0.00     0.037 A 
ATOM     54  C   UNL     1      10.692   0.154  -0.776  1.00  0.00     0.049 A 
ATOM     55  C   UNL     1       6.452  -1.890  -3.796  1.00  0.00     0.074 A 
ATOM     56  C   UNL     1      11.935   0.185  -1.384  1.00  0.00     0.029 A 
ATOM     57  N   UNL     1       9.802  -0.353  -1.711  1.00  0.00    -0.354 N 
ATOM     58  N   UNL     1       7.544  -1.452  -3.215  1.00  0.00    -0.248 NA
ATOM     59  C   UNL     1       6.631  -2.238  -5.214  1.00  0.00     0.031 C 
ATOM     60  C   UNL     1      11.786  -0.244  -2.706  1.00  0.00     0.029 A 
ATOM     61  C   UNL     1      10.462  -0.603  -2.903  1.00  0.00     0.049 A 
ATOM     62  H   UNL     1       8.844  -0.512  -1.551  1.00  0.00     0.167 HD
ATOM     63  C   UNL     1       8.538  -1.495  -4.186  1.00  0.00     0.074 A 
ATOM     64  C   UNL     1       7.927  -2.022  -5.388  1.00  0.00     0.031 C 
ATOM     65  C   UNL     1       9.840  -1.127  -4.093  1.00  0.00     0.037 A 
BRANCH  52  66
ATOM     66  C   UNL     1      11.402   1.164   1.427  1.00  0.00     0.057 A 
ATOM     67  C   UNL     1      11.902   0.502   2.557  1.00  0.00     0.134 A 
ATOM     68  C   UNL     1      11.956   2.413   1.116  1.00  0.00     0.134 A 
ATOM     69  F   UNL     1      11.408  -0.692   2.920  1.00  0.00    -0.206 F 
ATOM     70  C   UNL     1      12.891   1.072   3.361  1.00  0.00     0.040 A 
ATOM     71  C   UNL     1      12.967   2.979   1.894  1.00  0.00     0.040 A 
ATOM     72  F   UNL     1      11.529   3.100   0.046  1.00  0.00    -0.206 F 
ATOM     73  C   UNL     1      13.431   2.312   3.025  1.00  0.00     0.006 A 
ENDBRANCH  52  66
BRANCH  53  74
ATOM     74  C   UNL     1       3.970  -2.611  -4.062  1.00  0.00     0.057 A 
ATOM     75  C   UNL     1       3.992  -3.927  -4.539  1.00  0.00     0.134 A 
ATOM     76  C   UNL     1       2.887  -1.809  -4.442  1.00  0.00     0.134 A 
ATOM     77  F   UNL     1       5.016  -4.739  -4.234  1.00  0.00    -0.206 F 
ATOM     78  C   UNL     1       2.990  -4.421  -5.377  1.00  0.00     0.040 A 
ATOM     79  C   UNL     1       1.863  -2.298  -5.256  1.00  0.00     0.040 A 
ATOM     80  F   UNL     1       2.803  -0.538  -4.023  1.00  0.00    -0.206 F 
ATOM     81  C   UNL     1       1.917  -3.606  -5.733  1.00  0.00     0.006 A 
ENDBRANCH  53  74
BRANCH  65  82
ATOM     82  C   UNL     1      10.699  -1.300  -5.314  1.00  0.00     0.057 A 
ATOM     83  C   UNL     1      10.550  -0.487  -6.445  1.00  0.00     0.134 A 
ATOM     84  C   UNL     1      11.720  -2.260  -5.341  1.00  0.00     0.134 A 
ATOM     85  F   UNL     1       9.586   0.444  -6.491  1.00  0.00    -0.206 F 
ATOM     86  C   UNL     1      11.369  -0.638  -7.566  1.00  0.00     0.040 A 
ATOM     87  C   UNL     1      12.565  -2.399  -6.443  1.00  0.00     0.040 A 
ATOM     88  F   UNL     1      11.927  -3.065  -4.287  1.00  0.00    -0.206 F 
ATOM     89  C   UNL     1      12.386  -1.591  -7.563  1.00  0.00     0.006 A 
ENDBRANCH  65  82
ENDBRANCH  39  40
ENDBRANCH  32  34
ENDBRANCH  31  32
ENDBRANCH  30  31
ENDBRANCH  29  30
ENDBRANCH  28  29
ENDBRANCH  27  28
ENDBRANCH  26  27
ENDBRANCH  25  26
ENDBRANCH   1  25
TORSDOF 23
