REMARK SMILES O=C(N[C@@H](CS)C(=O)N[C@@H](CO)C(=O)OCCOCCOCCOCCOC(=O)c1ccc(-c2c3nc(c(-c4c(F)cccc4F)c4ccc([nH]4)c(-c4c(F)cccc4F)c4nc(c(-c5c(F)cccc5F)c5ccc2[nH]5)C=C4)C=C3)cc1)c1ccc(F)cc1
REMARK SMILES IDX 20 1 19 2 18 3 17 4 16 5 15 6 13 7 14 8 10 9 9 10 7 11 8 12
REMARK SMILES IDX 4 14 3 15 1 16 2 17 84 19 85 20 90 21 86 22 89 23 87 24
REMARK SMILES IDX 88 25 5 26 6 27 11 29 12 30 21 32 22 33 23 34 24 35 25 36
REMARK SMILES IDX 26 37 27 38 28 39 29 40 30 41 31 42 83 43 32 44 82 45 33 46
REMARK SMILES IDX 34 47 35 48 76 49 36 50 81 51 75 52 77 53 37 54 80 55 74 56
REMARK SMILES IDX 73 57 38 59 64 60 47 61 63 62 48 63 51 64 62 65 78 66 49 67
REMARK SMILES IDX 50 68 61 70 79 71 52 72 39 73 40 74 45 75 41 76 42 77 44 78
REMARK SMILES IDX 46 79 43 80 65 81 66 82 71 83 67 84 68 85 70 86 72 87 69 88
REMARK SMILES IDX 53 89 54 90 59 91 55 92 56 93 58 94 60 95 57 96
REMARK H PARENT 9 13 3 18 6 28 12 31 77 58 51 69
REMARK Flexibility Score: inf
ROOT
ATOM      1  C   UNL     1       6.647   4.518  -1.365  1.00  0.00     0.188 C 
ENDROOT
BRANCH   1   2
ATOM      2  C   UNL     1       6.153   4.602  -2.817  1.00  0.00     0.188 C 
BRANCH   2   3
ATOM      3  O   UNL     1       6.308   5.804  -3.554  1.00  0.00    -0.376 OA
BRANCH   3   4
ATOM      4  C   UNL     1       6.006   7.044  -2.933  1.00  0.00     0.202 C 
BRANCH   4   5
ATOM      5  C   UNL     1       4.729   7.228  -2.085  1.00  0.00     0.261 C 
BRANCH   5   6
ATOM      6  O   UNL     1       4.382   6.154  -1.185  1.00  0.00    -0.462 OA
BRANCH   6   7
ATOM      7  C   UNL     1       3.205   5.516  -1.421  1.00  0.00     0.331 C 
ATOM      8  O   UNL     1       2.423   5.815  -2.319  1.00  0.00    -0.250 OA
BRANCH   7   9
ATOM      9  C   UNL     1       2.883   4.394  -0.404  1.00  0.00     0.218 C 
BRANCH   9  10
ATOM     10  N   UNL     1       3.957   3.869   0.455  1.00  0.00    -0.339 N 
ATOM     11  C   UNL     1       4.537   2.642   0.571  1.00  0.00     0.244 C 
ATOM     12  O   UNL     1       5.508   2.565   1.337  1.00  0.00    -0.273 OA
ATOM     13  H   UNL     1       4.332   4.540   1.071  1.00  0.00     0.164 HD
BRANCH  11  14
ATOM     14  C   UNL     1       4.135   1.390  -0.238  1.00  0.00     0.181 C 
BRANCH  14  15
ATOM     15  N   UNL     1       2.728   1.028  -0.084  1.00  0.00    -0.339 N 
ATOM     16  O   UNL     1       0.940  -0.287   0.215  1.00  0.00    -0.269 OA
ATOM     17  C   UNL     1       2.163  -0.183   0.228  1.00  0.00     0.251 C 
ATOM     18  H   UNL     1       2.089   1.764  -0.225  1.00  0.00     0.164 HD
BRANCH  17  19
ATOM     19  C   UNL     1       2.996  -1.374   0.518  1.00  0.00     0.040 A 
ATOM     20  C   UNL     1       4.026  -1.357   1.468  1.00  0.00     0.017 A 
ATOM     21  C   UNL     1       2.696  -2.561  -0.165  1.00  0.00     0.017 A 
ATOM     22  C   UNL     1       4.817  -2.492   1.656  1.00  0.00     0.040 A 
ATOM     23  C   UNL     1       3.471  -3.703   0.048  1.00  0.00     0.040 A 
ATOM     24  C   UNL     1       4.537  -3.652   0.941  1.00  0.00     0.123 A 
ATOM     25  F   UNL     1       5.298  -4.738   1.122  1.00  0.00    -0.207 F 
ENDBRANCH  17  19
ENDBRANCH  14  15
BRANCH  14  26
ATOM     26  C   UNL     1       4.683   1.302  -1.673  1.00  0.00     0.101 C 
BRANCH  26  27
ATOM     27  S   UNL     1       3.648   1.973  -3.009  1.00  0.00    -0.177 SA
ATOM     28  H   UNL     1       2.498   1.252  -3.098  1.00  0.00     0.102 HD
ENDBRANCH  26  27
ENDBRANCH  14  26
ENDBRANCH  11  14
ENDBRANCH   9  10
BRANCH   9  29
ATOM     29  C   UNL     1       1.751   4.922   0.483  1.00  0.00     0.193 C 
BRANCH  29  30
ATOM     30  O   UNL     1       2.224   5.934   1.375  1.00  0.00    -0.394 OA
ATOM     31  H   UNL     1       2.908   5.562   1.952  1.00  0.00     0.210 HD
ENDBRANCH  29  30
ENDBRANCH   9  29
ENDBRANCH   7   9
ENDBRANCH   6   7
ENDBRANCH   5   6
ENDBRANCH   4   5
ENDBRANCH   3   4
ENDBRANCH   2   3
ENDBRANCH   1   2
BRANCH   1  32
ATOM     32  O   UNL     1       7.076   5.737  -0.799  1.00  0.00    -0.377 OA
BRANCH  32  33
ATOM     33  C   UNL     1       8.477   5.953  -0.808  1.00  0.00     0.188 C 
BRANCH  33  34
ATOM     34  C   UNL     1       9.261   5.452  -2.038  1.00  0.00     0.188 C 
BRANCH  34  35
ATOM     35  O   UNL     1       9.040   4.080  -2.349  1.00  0.00    -0.376 OA
BRANCH  35  36
ATOM     36  C   UNL     1       9.961   3.106  -1.880  1.00  0.00     0.202 C 
BRANCH  36  37
ATOM     37  C   UNL     1      10.034   2.847  -0.364  1.00  0.00     0.261 C 
BRANCH  37  38
ATOM     38  O   UNL     1      10.346   3.976   0.466  1.00  0.00    -0.460 OA
BRANCH  38  39
ATOM     39  C   UNL     1      11.491   4.638   0.216  1.00  0.00     0.338 C 
ATOM     40  O   UNL     1      12.358   4.331  -0.588  1.00  0.00    -0.246 OA
BRANCH  39  41
ATOM     41  C   UNL     1      11.439   5.935   0.922  1.00  0.00     0.060 A 
ATOM     42  C   UNL     1      11.611   7.106   0.172  1.00  0.00     0.016 A 
ATOM     43  C   UNL     1      11.238   6.003   2.304  1.00  0.00     0.016 A 
ATOM     44  C   UNL     1      11.661   8.342   0.808  1.00  0.00     0.010 A 
ATOM     45  C   UNL     1      11.317   7.243   2.947  1.00  0.00     0.010 A 
ATOM     46  C   UNL     1      11.591   8.406   2.205  1.00  0.00    -0.014 A 
BRANCH  46  47
ATOM     47  C   UNL     1      12.110   9.624   2.873  1.00  0.00     0.031 A 
ATOM     48  C   UNL     1      13.546   9.609   3.332  1.00  0.00     0.074 A 
ATOM     49  C   UNL     1      11.374  10.742   2.985  1.00  0.00     0.049 A 
ATOM     50  N   UNL     1      14.250  10.552   3.903  1.00  0.00    -0.248 NA
ATOM     51  C   UNL     1      14.289   8.357   3.110  1.00  0.00     0.031 C 
ATOM     52  C   UNL     1       9.995  10.899   2.529  1.00  0.00     0.029 A 
ATOM     53  N   UNL     1      11.697  11.965   3.516  1.00  0.00    -0.354 N 
ATOM     54  C   UNL     1      15.511  10.005   4.111  1.00  0.00     0.074 A 
ATOM     55  C   UNL     1      15.466   8.638   3.645  1.00  0.00     0.031 C 
ATOM     56  C   UNL     1       9.587  12.151   2.803  1.00  0.00     0.029 A 
ATOM     57  C   UNL     1      10.667  12.873   3.476  1.00  0.00     0.049 A 
ATOM     58  H   UNL     1      12.584  12.173   3.891  1.00  0.00     0.167 HD
ATOM     59  C   UNL     1      16.615  10.591   4.628  1.00  0.00     0.037 A 
ATOM     60  C   UNL     1      10.607  14.136   3.942  1.00  0.00     0.037 A 
ATOM     61  C   UNL     1      16.659  11.951   5.092  1.00  0.00     0.049 A 
ATOM     62  C   UNL     1      11.828  14.744   4.585  1.00  0.00     0.074 A 
ATOM     63  C   UNL     1      17.726  12.643   5.635  1.00  0.00     0.029 A 
ATOM     64  N   UNL     1      15.581  12.824   5.074  1.00  0.00    -0.354 N 
ATOM     65  N   UNL     1      13.019  14.225   4.764  1.00  0.00    -0.248 NA
ATOM     66  C   UNL     1      11.697  16.122   5.081  1.00  0.00     0.031 C 
ATOM     67  C   UNL     1      17.279  13.917   5.999  1.00  0.00     0.029 A 
ATOM     68  C   UNL     1      15.953  14.043   5.615  1.00  0.00     0.049 A 
ATOM     69  H   UNL     1      14.685  12.610   4.726  1.00  0.00     0.167 HD
ATOM     70  C   UNL     1      13.789  15.225   5.349  1.00  0.00     0.074 A 
ATOM     71  C   UNL     1      12.930  16.382   5.489  1.00  0.00     0.031 C 
ATOM     72  C   UNL     1      15.090  15.192   5.731  1.00  0.00     0.037 A 
BRANCH  59  73
ATOM     73  C   UNL     1      17.852   9.748   4.750  1.00  0.00     0.057 A 
ATOM     74  C   UNL     1      18.576   9.321   3.628  1.00  0.00     0.134 A 
ATOM     75  C   UNL     1      18.330   9.367   6.010  1.00  0.00     0.134 A 
ATOM     76  F   UNL     1      18.162   9.632   2.391  1.00  0.00    -0.206 F 
ATOM     77  C   UNL     1      19.715   8.523   3.756  1.00  0.00     0.040 A 
ATOM     78  C   UNL     1      19.485   8.596   6.151  1.00  0.00     0.040 A 
ATOM     79  F   UNL     1      17.685   9.740   7.125  1.00  0.00    -0.206 F 
ATOM     80  C   UNL     1      20.177   8.165   5.021  1.00  0.00     0.006 A 
ENDBRANCH  59  73
BRANCH  60  81
ATOM     81  C   UNL     1       9.348  14.917   3.825  1.00  0.00     0.057 A 
ATOM     82  C   UNL     1       9.264  16.051   3.009  1.00  0.00     0.134 A 
ATOM     83  C   UNL     1       8.207  14.568   4.559  1.00  0.00     0.134 A 
ATOM     84  F   UNL     1      10.329  16.451   2.298  1.00  0.00    -0.206 F 
ATOM     85  C   UNL     1       8.104  16.825   2.946  1.00  0.00     0.040 A 
ATOM     86  C   UNL     1       7.030  15.315   4.484  1.00  0.00     0.040 A 
ATOM     87  F   UNL     1       8.219  13.493   5.360  1.00  0.00    -0.206 F 
ATOM     88  C   UNL     1       6.980  16.454   3.683  1.00  0.00     0.006 A 
ENDBRANCH  60  81
BRANCH  72  89
ATOM     89  C   UNL     1      15.688  16.462   6.270  1.00  0.00     0.057 A 
ATOM     90  C   UNL     1      15.325  16.992   7.514  1.00  0.00     0.134 A 
ATOM     91  C   UNL     1      16.671  17.145   5.540  1.00  0.00     0.134 A 
ATOM     92  F   UNL     1      14.386  16.394   8.262  1.00  0.00    -0.206 F 
ATOM     93  C   UNL     1      15.891  18.175   7.996  1.00  0.00     0.040 A 
ATOM     94  C   UNL     1      17.268  18.308   6.026  1.00  0.00     0.040 A 
ATOM     95  F   UNL     1      17.077  16.684   4.347  1.00  0.00    -0.206 F 
ATOM     96  C   UNL     1      16.871  18.832   7.253  1.00  0.00     0.006 A 
ENDBRANCH  72  89
ENDBRANCH  46  47
ENDBRANCH  39  41
ENDBRANCH  38  39
ENDBRANCH  37  38
ENDBRANCH  36  37
ENDBRANCH  35  36
ENDBRANCH  34  35
ENDBRANCH  33  34
ENDBRANCH  32  33
ENDBRANCH   1  32
TORSDOF 28
