REMARK SMILES Cc1nn([C@H]2CCS(=O)(=O)C2)c(C)c1/C=C(\CC(=O)OCCOCCOCCOCCOC(=O)c1ccc(-c2c3nc(c(-c4c(F)cccc4F)c4ccc([nH]4)c(-c4c(F)cccc4F)c4nc(c(-c5c(F)cccc5F)c5ccc2[nH]5)C=C4)C=C3)cc1)c1nc2ccccc2s1
REMARK SMILES IDX 25 1 24 2 23 3 22 4 21 5 20 6 18 7 19 8 17 9 16 10 15 11
REMARK SMILES IDX 14 12 1 13 2 14 3 15 4 16 12 17 13 18 5 19 6 20 11 21 7 22
REMARK SMILES IDX 8 23 9 24 10 25 89 26 90 27 97 28 91 29 96 30 92 31 95 32
REMARK SMILES IDX 93 33 94 34 26 35 27 36 28 37 29 38 30 39 31 40 32 41 33 42
REMARK SMILES IDX 34 43 35 44 36 45 88 46 37 47 87 48 38 49 39 50 40 51 81 52
REMARK SMILES IDX 41 53 86 54 80 55 82 56 42 57 85 58 79 59 78 60 43 62 69 63
REMARK SMILES IDX 52 64 68 65 53 66 56 67 67 68 83 69 54 70 55 71 66 73 84 74
REMARK SMILES IDX 57 75 44 76 45 77 50 78 46 79 47 80 49 81 51 82 48 83 70 84
REMARK SMILES IDX 71 85 76 86 72 87 73 88 75 89 77 90 74 91 58 92 59 93 64 94
REMARK SMILES IDX 60 95 61 96 63 97 65 98 62 99
REMARK H PARENT 82 61 56 72
REMARK Flexibility Score: inf
ROOT
ATOM      1  C   UNL     1      -0.757 -11.874   2.674  1.00  0.00     0.188 C 
ENDROOT
BRANCH   1   2
ATOM      2  C   UNL     1      -2.271 -11.552   2.724  1.00  0.00     0.188 C 
BRANCH   2   3
ATOM      3  O   UNL     1      -3.093 -11.607   1.560  1.00  0.00    -0.376 OA
BRANCH   3   4
ATOM      4  C   UNL     1      -2.510 -11.808   0.285  1.00  0.00     0.202 C 
BRANCH   4   5
ATOM      5  C   UNL     1      -1.661 -10.655  -0.281  1.00  0.00     0.261 C 
BRANCH   5   6
ATOM      6  O   UNL     1      -0.919  -9.878   0.685  1.00  0.00    -0.463 OA
BRANCH   6   7
ATOM      7  C   UNL     1      -1.669  -8.970   1.352  1.00  0.00     0.310 C 
ATOM      8  O   UNL     1      -2.845  -8.724   1.088  1.00  0.00    -0.252 OA
BRANCH   7   9
ATOM      9  C   UNL     1      -0.915  -8.086   2.334  1.00  0.00     0.161 C 
BRANCH   9  10
ATOM     10  C   UNL     1       0.356  -8.305   3.171  1.00  0.00    -0.000 C 
ATOM     11  C   UNL     1       1.487  -7.582   2.918  1.00  0.00     0.019 C 
BRANCH  11  12
ATOM     12  C   UNL     1       1.706  -6.701   1.810  1.00  0.00     0.019 A 
ATOM     13  C   UNL     1       4.239  -7.082   1.209  1.00  0.00     0.069 C 
ATOM     14  C   UNL     1       2.860  -6.575   0.996  1.00  0.00     0.067 A 
ATOM     15  N   UNL     1       2.576  -5.870  -0.109  1.00  0.00    -0.177 NA
ATOM     16  N   UNL     1       1.276  -5.544   0.043  1.00  0.00    -0.265 N 
ATOM     17  C   UNL     1       0.875  -5.690   1.350  1.00  0.00     0.043 A 
ATOM     18  C   UNL     1      -0.263  -4.962   1.979  1.00  0.00     0.067 C 
BRANCH  16  19
ATOM     19  C   UNL     1       0.487  -5.164  -1.119  1.00  0.00     0.123 C 
ATOM     20  C   UNL     1       1.004  -5.786  -2.437  1.00  0.00     0.044 C 
ATOM     21  C   UNL     1      -0.973  -5.624  -1.065  1.00  0.00     0.164 C 
ATOM     22  C   UNL     1       0.007  -5.406  -3.522  1.00  0.00     0.139 C 
ATOM     23  S   UNL     1      -1.579  -5.380  -2.715  1.00  0.00     0.152 S 
ATOM     24  O   UNL     1      -2.103  -4.021  -2.794  1.00  0.00    -0.229 OA
ATOM     25  O   UNL     1      -2.342  -6.528  -3.116  1.00  0.00    -0.229 OA
ENDBRANCH  16  19
ENDBRANCH  11  12
BRANCH  10  26
ATOM     26  C   UNL     1       0.307  -9.099   4.397  1.00  0.00     0.121 A 
ATOM     27  N   UNL     1      -0.816  -9.453   4.995  1.00  0.00    -0.236 NA
ATOM     28  S   UNL     1       1.721  -9.730   5.200  1.00  0.00    -0.114 S 
ATOM     29  C   UNL     1      -0.585 -10.230   6.122  1.00  0.00     0.082 A 
ATOM     30  C   UNL     1       0.754 -10.498   6.396  1.00  0.00     0.055 A 
ATOM     31  C   UNL     1      -1.572 -10.789   6.963  1.00  0.00     0.030 A 
ATOM     32  C   UNL     1       1.145 -11.301   7.485  1.00  0.00     0.021 A 
ATOM     33  C   UNL     1      -1.198 -11.611   8.034  1.00  0.00     0.002 A 
ATOM     34  C   UNL     1       0.146 -11.863   8.290  1.00  0.00     0.002 A 
ENDBRANCH  10  26
ENDBRANCH   9  10
ENDBRANCH   7   9
ENDBRANCH   6   7
ENDBRANCH   5   6
ENDBRANCH   4   5
ENDBRANCH   3   4
ENDBRANCH   2   3
ENDBRANCH   1   2
BRANCH   1  35
ATOM     35  O   UNL     1      -0.324 -12.679   1.587  1.00  0.00    -0.377 OA
BRANCH  35  36
ATOM     36  C   UNL     1      -0.084 -14.039   1.902  1.00  0.00     0.188 C 
BRANCH  36  37
ATOM     37  C   UNL     1      -1.295 -14.833   2.428  1.00  0.00     0.188 C 
BRANCH  37  38
ATOM     38  O   UNL     1      -2.019 -14.192   3.472  1.00  0.00    -0.376 OA
BRANCH  38  39
ATOM     39  C   UNL     1      -1.909 -14.657   4.809  1.00  0.00     0.202 C 
BRANCH  39  40
ATOM     40  C   UNL     1      -0.683 -14.129   5.545  1.00  0.00     0.261 C 
BRANCH  40  41
ATOM     41  O   UNL     1       0.533 -14.370   4.864  1.00  0.00    -0.460 OA
BRANCH  41  42
ATOM     42  C   UNL     1       0.791 -15.658   4.596  1.00  0.00     0.338 C 
ATOM     43  O   UNL     1       0.092 -16.628   4.857  1.00  0.00    -0.246 OA
BRANCH  42  44
ATOM     44  C   UNL     1       2.143 -15.753   4.042  1.00  0.00     0.060 A 
ATOM     45  C   UNL     1       2.567 -17.067   3.877  1.00  0.00     0.016 A 
ATOM     46  C   UNL     1       3.019 -14.687   4.304  1.00  0.00     0.016 A 
ATOM     47  C   UNL     1       3.784 -17.376   4.409  1.00  0.00     0.010 A 
ATOM     48  C   UNL     1       4.231 -14.998   4.852  1.00  0.00     0.010 A 
ATOM     49  C   UNL     1       4.532 -16.347   4.997  1.00  0.00    -0.014 A 
BRANCH  49  50
ATOM     50  C   UNL     1       5.707 -16.755   5.710  1.00  0.00     0.031 A 
ATOM     51  C   UNL     1       6.810 -17.092   4.801  1.00  0.00     0.074 A 
ATOM     52  C   UNL     1       5.780 -16.784   7.047  1.00  0.00     0.049 A 
ATOM     53  N   UNL     1       7.277 -18.258   4.515  1.00  0.00    -0.248 NA
ATOM     54  C   UNL     1       7.299 -15.999   3.948  1.00  0.00     0.031 C 
ATOM     55  C   UNL     1       4.907 -16.158   8.040  1.00  0.00     0.029 A 
ATOM     56  N   UNL     1       6.765 -17.336   7.791  1.00  0.00    -0.354 N 
ATOM     57  C   UNL     1       8.250 -18.025   3.553  1.00  0.00     0.074 A 
ATOM     58  C   UNL     1       8.076 -16.670   3.103  1.00  0.00     0.031 C 
ATOM     59  C   UNL     1       5.535 -16.181   9.241  1.00  0.00     0.029 A 
ATOM     60  C   UNL     1       6.776 -16.931   9.109  1.00  0.00     0.049 A 
ATOM     61  H   UNL     1       7.419 -17.973   7.423  1.00  0.00     0.167 HD
ATOM     62  C   UNL     1       9.281 -18.883   3.360  1.00  0.00     0.037 A 
ATOM     63  C   UNL     1       7.811 -17.120   9.959  1.00  0.00     0.037 A 
ATOM     64  C   UNL     1       9.015 -20.175   3.932  1.00  0.00     0.049 A 
ATOM     65  C   UNL     1       8.691 -18.173   9.376  1.00  0.00     0.074 A 
ATOM     66  C   UNL     1       8.086 -21.168   3.691  1.00  0.00     0.029 A 
ATOM     67  N   UNL     1       9.550 -20.447   5.167  1.00  0.00    -0.354 N 
ATOM     68  N   UNL     1       8.360 -19.430   9.257  1.00  0.00    -0.248 NA
ATOM     69  C   UNL     1       9.793 -17.745   8.522  1.00  0.00     0.031 C 
ATOM     70  C   UNL     1       7.802 -21.735   4.967  1.00  0.00     0.029 A 
ATOM     71  C   UNL     1       8.579 -21.064   5.913  1.00  0.00     0.049 A 
ATOM     72  H   UNL     1      10.466 -20.238   5.463  1.00  0.00     0.167 HD
ATOM     73  C   UNL     1       8.940 -19.853   8.066  1.00  0.00     0.074 A 
ATOM     74  C   UNL     1       9.887 -18.803   7.711  1.00  0.00     0.031 C 
ATOM     75  C   UNL     1       8.402 -20.876   7.337  1.00  0.00     0.037 A 
BRANCH  62  76
ATOM     76  C   UNL     1      10.652 -18.432   2.944  1.00  0.00     0.057 A 
ATOM     77  C   UNL     1      11.599 -19.387   2.549  1.00  0.00     0.134 A 
ATOM     78  C   UNL     1      11.157 -17.130   3.151  1.00  0.00     0.134 A 
ATOM     79  F   UNL     1      11.247 -20.667   2.355  1.00  0.00    -0.206 F 
ATOM     80  C   UNL     1      12.956 -19.077   2.410  1.00  0.00     0.040 A 
ATOM     81  C   UNL     1      12.496 -16.795   2.953  1.00  0.00     0.040 A 
ATOM     82  F   UNL     1      10.411 -16.136   3.651  1.00  0.00    -0.206 F 
ATOM     83  C   UNL     1      13.408 -17.777   2.609  1.00  0.00     0.006 A 
ENDBRANCH  62  76
BRANCH  63  84
ATOM     84  C   UNL     1       8.251 -16.212  11.038  1.00  0.00     0.057 A 
ATOM     85  C   UNL     1       9.088 -16.664  12.065  1.00  0.00     0.134 A 
ATOM     86  C   UNL     1       8.059 -14.820  10.960  1.00  0.00     0.134 A 
ATOM     87  F   UNL     1       9.369 -17.969  12.186  1.00  0.00    -0.206 F 
ATOM     88  C   UNL     1       9.702 -15.781  12.962  1.00  0.00     0.040 A 
ATOM     89  C   UNL     1       8.655 -13.930  11.856  1.00  0.00     0.040 A 
ATOM     90  F   UNL     1       7.352 -14.270   9.962  1.00  0.00    -0.206 F 
ATOM     91  C   UNL     1       9.490 -14.409  12.856  1.00  0.00     0.006 A 
ENDBRANCH  63  84
BRANCH  75  92
ATOM     92  C   UNL     1       7.330 -21.703   7.987  1.00  0.00     0.057 A 
ATOM     93  C   UNL     1       6.059 -21.201   8.305  1.00  0.00     0.134 A 
ATOM     94  C   UNL     1       7.524 -23.081   8.132  1.00  0.00     0.134 A 
ATOM     95  F   UNL     1       5.754 -19.913   8.099  1.00  0.00    -0.206 F 
ATOM     96  C   UNL     1       5.039 -22.030   8.782  1.00  0.00     0.040 A 
ATOM     97  C   UNL     1       6.504 -23.924   8.577  1.00  0.00     0.040 A 
ATOM     98  F   UNL     1       8.696 -23.638   7.786  1.00  0.00    -0.206 F 
ATOM     99  C   UNL     1       5.258 -23.398   8.911  1.00  0.00     0.006 A 
ENDBRANCH  75  92
ENDBRANCH  49  50
ENDBRANCH  42  44
ENDBRANCH  41  42
ENDBRANCH  40  41
ENDBRANCH  39  40
ENDBRANCH  38  39
ENDBRANCH  37  38
ENDBRANCH  36  37
ENDBRANCH  35  36
ENDBRANCH   1  35
TORSDOF 24
