REMARK SMILES CCOc1c(CNC(=O)[C@H]2CCCC[C@@H]2C(=O)OCCOCCOCCOCCOC(=O)c2ccc(-c3c4nc(c(-c5c(F)cccc5F)c5ccc([nH]5)c(-c5c(F)cccc5F)c5nc(c(-c6c(F)cccc6F)c6ccc3[nH]6)C=C5)C=C4)cc2)cccc1OC
REMARK SMILES IDX 22 1 21 2 20 3 19 4 18 5 16 6 17 7 15 8 10 9 11 10 12 11
REMARK SMILES IDX 14 12 13 13 8 14 7 15 9 17 6 18 5 19 4 20 90 21 87 22 89 23
REMARK SMILES IDX 88 24 3 25 2 26 1 27 91 28 92 29 23 30 24 31 25 32 26 33
REMARK SMILES IDX 27 34 28 35 29 36 30 37 31 38 32 39 33 40 34 41 86 42 35 43
REMARK SMILES IDX 85 44 36 45 37 46 38 47 79 48 39 49 84 50 78 51 80 52 40 53
REMARK SMILES IDX 83 54 77 55 76 56 41 58 67 59 50 60 66 61 51 62 54 63 65 64
REMARK SMILES IDX 81 65 52 66 53 67 64 69 82 70 55 71 42 72 43 73 48 74 44 75
REMARK SMILES IDX 45 76 47 77 49 78 46 79 68 80 69 81 74 82 70 83 71 84 73 85
REMARK SMILES IDX 75 86 72 87 56 88 57 89 62 90 58 91 59 92 61 93 63 94 60 95
REMARK H PARENT 7 16 80 57 54 68
REMARK Flexibility Score: inf
ROOT
ATOM      1  C   UNL     1       2.718 -10.179  -5.937  1.00  0.00     0.188 C 
ENDROOT
BRANCH   1   2
ATOM      2  O   UNL     1       3.942 -10.446  -6.578  1.00  0.00    -0.376 OA
BRANCH   2   3
ATOM      3  C   UNL     1       5.117  -9.723  -6.266  1.00  0.00     0.202 C 
BRANCH   3   4
ATOM      4  C   UNL     1       5.363  -8.935  -4.967  1.00  0.00     0.261 C 
BRANCH   4   5
ATOM      5  O   UNL     1       4.526  -9.205  -3.842  1.00  0.00    -0.463 OA
BRANCH   5   6
ATOM      6  C   UNL     1       3.599  -8.260  -3.563  1.00  0.00     0.309 C 
ATOM      7  O   UNL     1       3.393  -7.279  -4.273  1.00  0.00    -0.252 OA
BRANCH   6   8
ATOM      8  C   UNL     1       2.874  -8.454  -2.239  1.00  0.00     0.111 C 
ATOM      9  C   UNL     1       3.394  -7.359  -1.304  1.00  0.00     0.092 C 
ATOM     10  C   UNL     1       4.787  -7.702  -0.761  1.00  0.00     0.014 C 
ATOM     11  C   UNL     1       5.126  -9.164  -0.433  1.00  0.00     0.001 C 
ATOM     12  C   UNL     1       2.890  -9.787  -1.491  1.00  0.00     0.016 C 
ATOM     13  C   UNL     1       4.270 -10.248  -1.072  1.00  0.00     0.001 C 
BRANCH   9  14
ATOM     14  C   UNL     1       2.211  -6.889  -0.459  1.00  0.00     0.224 C 
ATOM     15  N   UNL     1       2.014  -7.171   0.841  1.00  0.00    -0.352 N 
ATOM     16  H   UNL     1       1.123  -6.911   1.171  1.00  0.00     0.163 HD
ATOM     17  O   UNL     1       1.298  -6.256  -1.005  1.00  0.00    -0.275 OA
BRANCH  15  18
ATOM     18  C   UNL     1       2.849  -7.778   1.849  1.00  0.00     0.155 C 
BRANCH  18  19
ATOM     19  C   UNL     1       3.723  -6.798   2.604  1.00  0.00     0.017 A 
ATOM     20  C   UNL     1       4.492  -7.180   3.733  1.00  0.00     0.166 A 
ATOM     21  C   UNL     1       5.407  -6.259   4.293  1.00  0.00     0.161 A 
ATOM     22  C   UNL     1       3.868  -5.480   2.108  1.00  0.00     0.010 A 
ATOM     23  C   UNL     1       5.522  -4.969   3.759  1.00  0.00     0.050 A 
ATOM     24  C   UNL     1       4.756  -4.576   2.675  1.00  0.00     0.004 A 
BRANCH  20  25
ATOM     25  O   UNL     1       4.521  -8.473   4.195  1.00  0.00    -0.490 OA
BRANCH  25  26
ATOM     26  C   UNL     1       3.278  -9.038   4.625  1.00  0.00     0.226 C 
ATOM     27  C   UNL     1       3.403  -9.568   6.044  1.00  0.00     0.049 C 
ENDBRANCH  25  26
ENDBRANCH  20  25
BRANCH  21  28
ATOM     28  O   UNL     1       6.313  -6.455   5.304  1.00  0.00    -0.493 OA
ATOM     29  C   UNL     1       6.059  -7.476   6.248  1.00  0.00     0.278 C 
ENDBRANCH  21  28
ENDBRANCH  18  19
ENDBRANCH  15  18
ENDBRANCH   9  14
ENDBRANCH   6   8
ENDBRANCH   5   6
ENDBRANCH   4   5
ENDBRANCH   3   4
ENDBRANCH   2   3
ENDBRANCH   1   2
BRANCH   1  30
ATOM     30  C   UNL     1       2.395 -11.082  -4.736  1.00  0.00     0.188 C 
BRANCH  30  31
ATOM     31  O   UNL     1       3.454 -11.699  -4.018  1.00  0.00    -0.377 OA
BRANCH  31  32
ATOM     32  C   UNL     1       4.381 -12.551  -4.685  1.00  0.00     0.188 C 
BRANCH  32  33
ATOM     33  C   UNL     1       4.004 -13.235  -6.014  1.00  0.00     0.188 C 
BRANCH  33  34
ATOM     34  O   UNL     1       2.617 -13.266  -6.291  1.00  0.00    -0.376 OA
BRANCH  34  35
ATOM     35  C   UNL     1       1.892 -14.432  -5.931  1.00  0.00     0.202 C 
BRANCH  35  36
ATOM     36  C   UNL     1       1.926 -14.878  -4.460  1.00  0.00     0.261 C 
BRANCH  36  37
ATOM     37  O   UNL     1       3.219 -15.202  -3.919  1.00  0.00    -0.460 OA
BRANCH  37  38
ATOM     38  C   UNL     1       3.934 -16.169  -4.535  1.00  0.00     0.338 C 
ATOM     39  O   UNL     1       3.601 -16.850  -5.480  1.00  0.00    -0.246 OA
BRANCH  38  40
ATOM     40  C   UNL     1       5.297 -16.147  -3.963  1.00  0.00     0.060 A 
ATOM     41  C   UNL     1       6.378 -15.819  -4.792  1.00  0.00     0.016 A 
ATOM     42  C   UNL     1       5.505 -16.480  -2.623  1.00  0.00     0.016 A 
ATOM     43  C   UNL     1       7.678 -15.866  -4.292  1.00  0.00     0.010 A 
ATOM     44  C   UNL     1       6.810 -16.546  -2.129  1.00  0.00     0.010 A 
ATOM     45  C   UNL     1       7.904 -16.279  -2.973  1.00  0.00    -0.014 A 
BRANCH  45  46
ATOM     46  C   UNL     1       9.280 -16.628  -2.543  1.00  0.00     0.031 A 
ATOM     47  C   UNL     1       9.683 -18.078  -2.547  1.00  0.00     0.074 A 
ATOM     48  C   UNL     1      10.166 -15.681  -2.189  1.00  0.00     0.049 A 
ATOM     49  N   UNL     1      10.811 -18.631  -2.183  1.00  0.00    -0.248 NA
ATOM     50  C   UNL     1       8.671 -19.035  -3.026  1.00  0.00     0.031 C 
ATOM     51  C   UNL     1       9.914 -14.242  -2.190  1.00  0.00     0.029 A 
ATOM     52  N   UNL     1      11.463 -15.797  -1.754  1.00  0.00    -0.354 N 
ATOM     53  C   UNL     1      10.642 -19.996  -2.378  1.00  0.00     0.074 A 
ATOM     54  C   UNL     1       9.294 -20.192  -2.863  1.00  0.00     0.031 C 
ATOM     55  C   UNL     1      11.021 -13.607  -1.766  1.00  0.00     0.029 A 
ATOM     56  C   UNL     1      12.044 -14.595  -1.431  1.00  0.00     0.049 A 
ATOM     57  H   UNL     1      11.932 -16.660  -1.681  1.00  0.00     0.167 HD
ATOM     58  C   UNL     1      11.533 -20.996  -2.178  1.00  0.00     0.037 A 
ATOM     59  C   UNL     1      13.256 -14.331  -0.904  1.00  0.00     0.037 A 
ATOM     60  C   UNL     1      12.874 -20.797  -1.697  1.00  0.00     0.049 A 
ATOM     61  C   UNL     1      14.201 -15.470  -0.614  1.00  0.00     0.074 A 
ATOM     62  C   UNL     1      13.861 -21.743  -1.483  1.00  0.00     0.029 A 
ATOM     63  N   UNL     1      13.413 -19.569  -1.344  1.00  0.00    -0.354 N 
ATOM     64  N   UNL     1      14.044 -16.755  -0.829  1.00  0.00    -0.248 NA
ATOM     65  C   UNL     1      15.495 -15.120  -0.009  1.00  0.00     0.031 C 
ATOM     66  C   UNL     1      14.975 -21.096  -0.939  1.00  0.00     0.029 A 
ATOM     67  C   UNL     1      14.708 -19.738  -0.881  1.00  0.00     0.049 A 
ATOM     68  H   UNL     1      12.945 -18.706  -1.412  1.00  0.00     0.167 HD
ATOM     69  C   UNL     1      15.229 -17.358  -0.423  1.00  0.00     0.074 A 
ATOM     70  C   UNL     1      16.099 -16.298   0.039  1.00  0.00     0.031 C 
ATOM     71  C   UNL     1      15.568 -18.672  -0.432  1.00  0.00     0.037 A 
BRANCH  58  72
ATOM     72  C   UNL     1      11.071 -22.400  -2.444  1.00  0.00     0.057 A 
ATOM     73  C   UNL     1      10.821 -22.871  -3.740  1.00  0.00     0.134 A 
ATOM     74  C   UNL     1      10.906 -23.304  -1.387  1.00  0.00     0.134 A 
ATOM     75  F   UNL     1      10.945 -22.054  -4.797  1.00  0.00    -0.206 F 
ATOM     76  C   UNL     1      10.401 -24.182  -3.972  1.00  0.00     0.040 A 
ATOM     77  C   UNL     1      10.517 -24.626  -1.609  1.00  0.00     0.040 A 
ATOM     78  F   UNL     1      11.131 -22.921  -0.121  1.00  0.00    -0.206 F 
ATOM     79  C   UNL     1      10.256 -25.066  -2.904  1.00  0.00     0.006 A 
ENDBRANCH  58  72
BRANCH  59  80
ATOM     80  C   UNL     1      13.650 -12.931  -0.595  1.00  0.00     0.057 A 
ATOM     81  C   UNL     1      14.695 -12.301  -1.282  1.00  0.00     0.134 A 
ATOM     82  C   UNL     1      13.022 -12.205   0.424  1.00  0.00     0.134 A 
ATOM     83  F   UNL     1      15.355 -12.952  -2.251  1.00  0.00    -0.206 F 
ATOM     84  C   UNL     1      15.117 -11.012  -0.951  1.00  0.00     0.040 A 
ATOM     85  C   UNL     1      13.413 -10.904   0.745  1.00  0.00     0.040 A 
ATOM     86  F   UNL     1      12.015 -12.749   1.123  1.00  0.00    -0.206 F 
ATOM     87  C   UNL     1      14.472 -10.308   0.063  1.00  0.00     0.006 A 
ENDBRANCH  59  80
BRANCH  71  88
ATOM     88  C   UNL     1      16.954 -19.033   0.023  1.00  0.00     0.057 A 
ATOM     89  C   UNL     1      17.351 -18.930   1.363  1.00  0.00     0.134 A 
ATOM     90  C   UNL     1      17.896 -19.527  -0.891  1.00  0.00     0.134 A 
ATOM     91  F   UNL     1      16.503 -18.456   2.288  1.00  0.00    -0.206 F 
ATOM     92  C   UNL     1      18.641 -19.274   1.771  1.00  0.00     0.040 A 
ATOM     93  C   UNL     1      19.177 -19.905  -0.489  1.00  0.00     0.040 A 
ATOM     94  F   UNL     1      17.580 -19.665  -2.187  1.00  0.00    -0.206 F 
ATOM     95  C   UNL     1      19.556 -19.770   0.845  1.00  0.00     0.006 A 
ENDBRANCH  71  88
ENDBRANCH  45  46
ENDBRANCH  38  40
ENDBRANCH  37  38
ENDBRANCH  36  37
ENDBRANCH  35  36
ENDBRANCH  34  35
ENDBRANCH  33  34
ENDBRANCH  32  33
ENDBRANCH  31  32
ENDBRANCH  30  31
ENDBRANCH   1  30
TORSDOF 26
