REMARK SMILES [NH3+][C@@H](CCC1=c2ccccc2=[NH+]C1)C(=O)OCCOCCOCCOCCOC(=O)c1ccc(-c2c3nc(c(-c4c(F)cccc4F)c4ccc([nH]4)c(-c4c(F)cccc4F)c4nc(c(-c5c(F)cccc5F)c5ccc2[nH]5)C=C4)C=C3)cc1
REMARK SMILES IDX 21 1 20 2 19 3 18 4 17 5 16 6 14 7 15 8 2 9 1 10 3 14 4 15
REMARK SMILES IDX 5 16 6 17 13 18 7 19 11 20 12 21 8 22 10 23 9 25 22 26 23 27
REMARK SMILES IDX 24 28 25 29 26 30 27 31 28 32 29 33 30 34 31 35 32 36 84 37
REMARK SMILES IDX 33 38 83 39 34 40 35 41 36 42 77 43 37 44 82 45 76 46 78 47
REMARK SMILES IDX 38 48 81 49 75 50 74 51 39 53 65 54 48 55 64 56 49 57 52 58
REMARK SMILES IDX 63 59 79 60 50 61 51 62 62 64 80 65 53 66 40 67 41 68 46 69
REMARK SMILES IDX 42 70 43 71 45 72 47 73 44 74 66 75 67 76 72 77 68 78 69 79
REMARK SMILES IDX 71 80 73 81 70 82 54 83 55 84 60 85 56 86 57 87 59 88 61 89
REMARK SMILES IDX 58 90
REMARK H PARENT 1 11 1 12 1 13 12 24 78 52 52 63
REMARK Flexibility Score: inf
ROOT
ATOM      1  C   UNL     1      -1.267   1.007  -1.189  1.00  0.00     0.188 C 
ENDROOT
BRANCH   1   2
ATOM      2  C   UNL     1      -1.786   0.149  -2.356  1.00  0.00     0.188 C 
BRANCH   2   3
ATOM      3  O   UNL     1      -3.146  -0.273  -2.371  1.00  0.00    -0.376 OA
BRANCH   3   4
ATOM      4  C   UNL     1      -3.662  -0.996  -1.258  1.00  0.00     0.202 C 
BRANCH   4   5
ATOM      5  C   UNL     1      -2.874  -2.180  -0.693  1.00  0.00     0.261 C 
BRANCH   5   6
ATOM      6  O   UNL     1      -1.545  -1.848  -0.251  1.00  0.00    -0.459 OA
BRANCH   6   7
ATOM      7  C   UNL     1      -0.532  -2.583  -0.780  1.00  0.00     0.364 C 
ATOM      8  O   UNL     1      -0.682  -3.494  -1.589  1.00  0.00    -0.245 OA
BRANCH   7   9
ATOM      9  C   UNL     1       0.855  -2.217  -0.221  1.00  0.00     0.292 C 
BRANCH   9  10
ATOM     10  N   UNL     1       0.978  -0.842   0.287  1.00  0.00    -0.346 N 
ATOM     11  H   UNL     1       1.925  -0.691   0.634  1.00  0.00     0.345 HD
ATOM     12  H   UNL     1       0.310  -0.698   1.045  1.00  0.00     0.345 HD
ATOM     13  H   UNL     1       0.783  -0.182  -0.467  1.00  0.00     0.345 HD
ENDBRANCH   9  10
BRANCH   9  14
ATOM     14  C   UNL     1       1.346  -3.273   0.778  1.00  0.00     0.082 C 
BRANCH  14  15
ATOM     15  C   UNL     1       0.885  -3.125   2.236  1.00  0.00     0.045 C 
BRANCH  15  16
ATOM     16  C   UNL     1      -0.590  -3.172   2.457  1.00  0.00     0.008 C 
ATOM     17  C   UNL     1      -1.374  -2.212   2.939  1.00  0.00     0.051 A 
ATOM     18  C   UNL     1      -1.400  -4.391   2.123  1.00  0.00     0.381 C 
ATOM     19  C   UNL     1      -1.176  -0.876   3.394  1.00  0.00     0.015 A 
ATOM     20  C   UNL     1      -2.713  -2.816   2.863  1.00  0.00     0.206 A 
ATOM     21  N   UNL     1      -2.804  -4.042   2.447  1.00  0.00    -0.237 N 
ATOM     22  C   UNL     1      -2.256  -0.134   3.683  1.00  0.00     0.001 A 
ATOM     23  C   UNL     1      -3.851  -1.947   3.218  1.00  0.00     0.079 A 
ATOM     24  H   UNL     1      -3.609  -4.603   2.366  1.00  0.00     0.446 HD
ATOM     25  C   UNL     1      -3.601  -0.674   3.558  1.00  0.00     0.007 A 
ENDBRANCH  15  16
ENDBRANCH  14  15
ENDBRANCH   9  14
ENDBRANCH   7   9
ENDBRANCH   6   7
ENDBRANCH   5   6
ENDBRANCH   4   5
ENDBRANCH   3   4
ENDBRANCH   2   3
ENDBRANCH   1   2
BRANCH   1  26
ATOM     26  O   UNL     1      -1.991   0.850   0.022  1.00  0.00    -0.377 OA
BRANCH  26  27
ATOM     27  C   UNL     1      -2.851   1.932   0.372  1.00  0.00     0.188 C 
BRANCH  27  28
ATOM     28  C   UNL     1      -3.754   2.518  -0.735  1.00  0.00     0.188 C 
BRANCH  28  29
ATOM     29  O   UNL     1      -3.038   2.959  -1.883  1.00  0.00    -0.376 OA
BRANCH  29  30
ATOM     30  C   UNL     1      -2.761   4.348  -2.004  1.00  0.00     0.202 C 
BRANCH  30  31
ATOM     31  C   UNL     1      -1.744   4.935  -1.012  1.00  0.00     0.261 C 
BRANCH  31  32
ATOM     32  O   UNL     1      -2.098   4.875   0.380  1.00  0.00    -0.460 OA
BRANCH  32  33
ATOM     33  C   UNL     1      -3.270   5.417   0.771  1.00  0.00     0.338 C 
ATOM     34  O   UNL     1      -4.069   6.025   0.083  1.00  0.00    -0.246 OA
BRANCH  33  35
ATOM     35  C   UNL     1      -3.522   4.986   2.164  1.00  0.00     0.060 A 
ATOM     36  C   UNL     1      -2.558   5.190   3.155  1.00  0.00     0.016 A 
ATOM     37  C   UNL     1      -4.742   4.376   2.482  1.00  0.00     0.016 A 
ATOM     38  C   UNL     1      -2.837   4.829   4.475  1.00  0.00     0.010 A 
ATOM     39  C   UNL     1      -5.018   4.011   3.804  1.00  0.00     0.010 A 
ATOM     40  C   UNL     1      -4.080   4.265   4.816  1.00  0.00    -0.014 A 
BRANCH  40  41
ATOM     41  C   UNL     1      -4.451   4.120   6.248  1.00  0.00     0.031 A 
ATOM     42  C   UNL     1      -4.431   2.806   6.964  1.00  0.00     0.074 A 
ATOM     43  C   UNL     1      -4.831   5.225   6.910  1.00  0.00     0.049 A 
ATOM     44  N   UNL     1      -4.613   2.525   8.229  1.00  0.00    -0.248 NA
ATOM     45  C   UNL     1      -4.175   1.638   6.128  1.00  0.00     0.031 C 
ATOM     46  C   UNL     1      -4.946   6.559   6.321  1.00  0.00     0.029 A 
ATOM     47  N   UNL     1      -5.184   5.398   8.219  1.00  0.00    -0.354 N 
ATOM     48  C   UNL     1      -4.466   1.145   8.339  1.00  0.00     0.074 A 
ATOM     49  C   UNL     1      -4.221   0.644   7.004  1.00  0.00     0.031 C 
ATOM     50  C   UNL     1      -5.322   7.422   7.275  1.00  0.00     0.029 A 
ATOM     51  C   UNL     1      -5.492   6.696   8.530  1.00  0.00     0.049 A 
ATOM     52  H   UNL     1      -5.214   4.663   8.874  1.00  0.00     0.167 HD
ATOM     53  C   UNL     1      -4.525   0.372   9.451  1.00  0.00     0.037 A 
ATOM     54  C   UNL     1      -5.863   7.239   9.702  1.00  0.00     0.037 A 
ATOM     55  C   UNL     1      -4.817   0.882  10.767  1.00  0.00     0.049 A 
ATOM     56  C   UNL     1      -5.942   6.368  10.922  1.00  0.00     0.074 A 
ATOM     57  C   UNL     1      -4.862   0.201  11.972  1.00  0.00     0.029 A 
ATOM     58  N   UNL     1      -5.141   2.202  11.043  1.00  0.00    -0.354 N 
ATOM     59  N   UNL     1      -5.700   5.085  11.042  1.00  0.00    -0.248 NA
ATOM     60  C   UNL     1      -6.333   7.029  12.173  1.00  0.00     0.031 C 
ATOM     61  C   UNL     1      -5.266   1.100  12.966  1.00  0.00     0.029 A 
ATOM     62  C   UNL     1      -5.418   2.351  12.391  1.00  0.00     0.049 A 
ATOM     63  H   UNL     1      -5.170   2.926  10.377  1.00  0.00     0.167 HD
ATOM     64  C   UNL     1      -5.891   4.787  12.385  1.00  0.00     0.074 A 
ATOM     65  C   UNL     1      -6.245   6.031  13.040  1.00  0.00     0.031 C 
ATOM     66  C   UNL     1      -5.785   3.594  13.021  1.00  0.00     0.037 A 
BRANCH  53  67
ATOM     67  C   UNL     1      -4.282  -1.104   9.295  1.00  0.00     0.057 A 
ATOM     68  C   UNL     1      -5.312  -2.031   9.506  1.00  0.00     0.134 A 
ATOM     69  C   UNL     1      -3.013  -1.615   8.991  1.00  0.00     0.134 A 
ATOM     70  F   UNL     1      -6.551  -1.615   9.809  1.00  0.00    -0.206 F 
ATOM     71  C   UNL     1      -5.088  -3.408   9.423  1.00  0.00     0.040 A 
ATOM     72  C   UNL     1      -2.782  -2.989   8.880  1.00  0.00     0.040 A 
ATOM     73  F   UNL     1      -1.981  -0.786   8.771  1.00  0.00    -0.206 F 
ATOM     74  C   UNL     1      -3.821  -3.890   9.104  1.00  0.00     0.006 A 
ENDBRANCH  53  67
BRANCH  54  75
ATOM     75  C   UNL     1      -6.152   8.690   9.768  1.00  0.00     0.057 A 
ATOM     76  C   UNL     1      -7.284   9.234   9.149  1.00  0.00     0.134 A 
ATOM     77  C   UNL     1      -5.289   9.569  10.430  1.00  0.00     0.134 A 
ATOM     78  F   UNL     1      -8.138   8.442   8.483  1.00  0.00    -0.206 F 
ATOM     79  C   UNL     1      -7.543  10.603   9.178  1.00  0.00     0.040 A 
ATOM     80  C   UNL     1      -5.549  10.937  10.490  1.00  0.00     0.040 A 
ATOM     81  F   UNL     1      -4.193   9.102  11.046  1.00  0.00    -0.206 F 
ATOM     82  C   UNL     1      -6.677  11.458   9.857  1.00  0.00     0.006 A 
ENDBRANCH  54  75
BRANCH  66  83
ATOM     83  C   UNL     1      -6.045   3.587  14.500  1.00  0.00     0.057 A 
ATOM     84  C   UNL     1      -5.000   3.383  15.409  1.00  0.00     0.134 A 
ATOM     85  C   UNL     1      -7.331   3.773  15.024  1.00  0.00     0.134 A 
ATOM     86  F   UNL     1      -3.746   3.189  14.973  1.00  0.00    -0.206 F 
ATOM     87  C   UNL     1      -5.223   3.368  16.786  1.00  0.00     0.040 A 
ATOM     88  C   UNL     1      -7.562   3.791  16.400  1.00  0.00     0.040 A 
ATOM     89  F   UNL     1      -8.374   3.987  14.207  1.00  0.00    -0.206 F 
ATOM     90  C   UNL     1      -6.506   3.583  17.285  1.00  0.00     0.006 A 
ENDBRANCH  66  83
ENDBRANCH  40  41
ENDBRANCH  33  35
ENDBRANCH  32  33
ENDBRANCH  31  32
ENDBRANCH  30  31
ENDBRANCH  29  30
ENDBRANCH  28  29
ENDBRANCH  27  28
ENDBRANCH  26  27
ENDBRANCH   1  26
TORSDOF 24
