REMARK SMILES COc1ncccc1C[C@H](C(=O)OCCOCCOCCOCCOC(=O)c1ccc(-c2c3nc(c(-c4c(F)cccc4F)c4ccc([nH]4)c(-c4c(F)cccc4F)c4nc(c(-c5c(F)cccc5F)c5ccc2[nH]5)C=C4)C=C3)cc1)c1ccc(F)cc1
REMARK SMILES IDX 18 1 17 2 16 3 15 4 14 5 13 6 11 7 12 8 10 9 9 10 8 11 3 12
REMARK SMILES IDX 4 13 5 14 7 15 6 16 2 17 1 18 82 19 83 20 88 21 84 22 87 23
REMARK SMILES IDX 85 24 86 25 19 26 20 27 21 28 22 29 23 30 24 31 25 32 26 33
REMARK SMILES IDX 27 34 28 35 29 36 81 37 30 38 80 39 31 40 32 41 33 42 74 43
REMARK SMILES IDX 34 44 79 45 73 46 75 47 35 48 78 49 72 50 71 51 36 53 62 54
REMARK SMILES IDX 45 55 61 56 46 57 49 58 60 59 76 60 47 61 48 62 59 64 77 65
REMARK SMILES IDX 50 66 37 67 38 68 43 69 39 70 40 71 42 72 44 73 41 74 63 75
REMARK SMILES IDX 64 76 69 77 65 78 66 79 68 80 70 81 67 82 51 83 52 84 57 85
REMARK SMILES IDX 53 86 54 87 56 88 58 89 55 90
REMARK H PARENT 75 52 49 63
REMARK Flexibility Score: inf
ROOT
ATOM      1  C   UNL     1       2.940   0.815   3.107  1.00  0.00     0.188 C 
ENDROOT
BRANCH   1   2
ATOM      2  C   UNL     1       4.284   1.433   2.660  1.00  0.00     0.188 C 
BRANCH   2   3
ATOM      3  O   UNL     1       4.364   2.845   2.811  1.00  0.00    -0.376 OA
BRANCH   3   4
ATOM      4  C   UNL     1       4.187   3.647   1.651  1.00  0.00     0.202 C 
BRANCH   4   5
ATOM      5  C   UNL     1       2.842   3.521   0.923  1.00  0.00     0.261 C 
BRANCH   5   6
ATOM      6  O   UNL     1       2.563   2.164   0.543  1.00  0.00    -0.463 OA
BRANCH   6   7
ATOM      7  C   UNL     1       3.142   1.706  -0.600  1.00  0.00     0.313 C 
ATOM      8  O   UNL     1       3.652   2.435  -1.438  1.00  0.00    -0.252 OA
BRANCH   7   9
ATOM      9  C   UNL     1       3.115   0.162  -0.597  1.00  0.00     0.134 C 
BRANCH   9  10
ATOM     10  C   UNL     1       1.645  -0.293  -0.808  1.00  0.00     0.061 C 
BRANCH  10  11
ATOM     11  C   UNL     1       0.973  -1.265   0.163  1.00  0.00     0.015 A 
ATOM     12  C   UNL     1       1.486  -2.487   0.595  1.00  0.00     0.216 A 
ATOM     13  N   UNL     1       0.771  -3.446   1.234  1.00  0.00    -0.222 NA
ATOM     14  C   UNL     1      -0.511  -3.170   1.527  1.00  0.00     0.115 A 
ATOM     15  C   UNL     1      -0.346  -0.996   0.573  1.00  0.00     0.011 A 
ATOM     16  C   UNL     1      -1.097  -1.952   1.258  1.00  0.00     0.021 A 
BRANCH  12  17
ATOM     17  O   UNL     1       2.772  -2.837   0.302  1.00  0.00    -0.481 OA
ATOM     18  C   UNL     1       3.527  -3.047   1.491  1.00  0.00     0.280 C 
ENDBRANCH  12  17
ENDBRANCH  10  11
ENDBRANCH   9  10
BRANCH   9  19
ATOM     19  C   UNL     1       4.236  -0.474  -1.442  1.00  0.00    -0.033 A 
ATOM     20  C   UNL     1       4.127  -1.782  -1.939  1.00  0.00     0.007 A 
ATOM     21  C   UNL     1       5.497   0.152  -1.563  1.00  0.00     0.007 A 
ATOM     22  C   UNL     1       5.243  -2.478  -2.413  1.00  0.00     0.039 A 
ATOM     23  C   UNL     1       6.598  -0.516  -2.110  1.00  0.00     0.039 A 
ATOM     24  C   UNL     1       6.470  -1.840  -2.492  1.00  0.00     0.123 A 
ATOM     25  F   UNL     1       7.543  -2.514  -2.924  1.00  0.00    -0.207 F 
ENDBRANCH   9  19
ENDBRANCH   7   9
ENDBRANCH   6   7
ENDBRANCH   5   6
ENDBRANCH   4   5
ENDBRANCH   3   4
ENDBRANCH   2   3
ENDBRANCH   1   2
BRANCH   1  26
ATOM     26  O   UNL     1       1.865   1.698   3.382  1.00  0.00    -0.377 OA
BRANCH  26  27
ATOM     27  C   UNL     1       2.032   2.741   4.338  1.00  0.00     0.188 C 
BRANCH  27  28
ATOM     28  C   UNL     1       3.210   2.767   5.339  1.00  0.00     0.188 C 
BRANCH  28  29
ATOM     29  O   UNL     1       3.884   1.530   5.487  1.00  0.00    -0.376 OA
BRANCH  29  30
ATOM     30  C   UNL     1       3.689   0.818   6.694  1.00  0.00     0.202 C 
BRANCH  30  31
ATOM     31  C   UNL     1       2.274   0.285   6.958  1.00  0.00     0.261 C 
BRANCH  31  32
ATOM     32  O   UNL     1       1.207   1.244   6.865  1.00  0.00    -0.460 OA
BRANCH  32  33
ATOM     33  C   UNL     1       1.170   2.226   7.790  1.00  0.00     0.338 C 
ATOM     34  O   UNL     1       1.943   2.391   8.721  1.00  0.00    -0.246 OA
BRANCH  33  35
ATOM     35  C   UNL     1       0.141   3.203   7.371  1.00  0.00     0.060 A 
ATOM     36  C   UNL     1       0.521   4.528   7.118  1.00  0.00     0.016 A 
ATOM     37  C   UNL     1      -1.188   2.807   7.204  1.00  0.00     0.016 A 
ATOM     38  C   UNL     1      -0.435   5.469   6.732  1.00  0.00     0.010 A 
ATOM     39  C   UNL     1      -2.149   3.755   6.841  1.00  0.00     0.010 A 
ATOM     40  C   UNL     1      -1.782   5.098   6.638  1.00  0.00    -0.014 A 
BRANCH  40  41
ATOM     41  C   UNL     1      -2.826   6.148   6.537  1.00  0.00     0.031 A 
ATOM     42  C   UNL     1      -3.521   6.584   7.799  1.00  0.00     0.074 A 
ATOM     43  C   UNL     1      -3.133   6.728   5.364  1.00  0.00     0.049 A 
ATOM     44  N   UNL     1      -4.479   7.459   7.964  1.00  0.00    -0.248 NA
ATOM     45  C   UNL     1      -3.073   5.939   9.045  1.00  0.00     0.031 C 
ATOM     46  C   UNL     1      -2.505   6.428   4.079  1.00  0.00     0.029 A 
ATOM     47  N   UNL     1      -4.063   7.695   5.067  1.00  0.00    -0.354 N 
ATOM     48  C   UNL     1      -4.752   7.465   9.326  1.00  0.00     0.074 A 
ATOM     49  C   UNL     1      -3.885   6.483   9.939  1.00  0.00     0.031 C 
ATOM     50  C   UNL     1      -3.072   7.193   3.129  1.00  0.00     0.029 A 
ATOM     51  C   UNL     1      -4.124   8.010   3.732  1.00  0.00     0.049 A 
ATOM     52  H   UNL     1      -4.632   8.121   5.748  1.00  0.00     0.167 HD
ATOM     53  C   UNL     1      -5.641   8.225  10.009  1.00  0.00     0.037 A 
ATOM     54  C   UNL     1      -4.950   8.848   3.073  1.00  0.00     0.037 A 
ATOM     55  C   UNL     1      -6.505   9.201   9.399  1.00  0.00     0.049 A 
ATOM     56  C   UNL     1      -5.987   9.624   3.846  1.00  0.00     0.074 A 
ATOM     57  C   UNL     1      -7.423  10.038  10.008  1.00  0.00     0.029 A 
ATOM     58  N   UNL     1      -6.566   9.461   8.038  1.00  0.00    -0.354 N 
ATOM     59  N   UNL     1      -6.216   9.648   5.137  1.00  0.00    -0.248 NA
ATOM     60  C   UNL     1      -6.880  10.495   3.066  1.00  0.00     0.031 C 
ATOM     61  C   UNL     1      -8.085  10.759   9.009  1.00  0.00     0.029 A 
ATOM     62  C   UNL     1      -7.532  10.422   7.785  1.00  0.00     0.049 A 
ATOM     63  H   UNL     1      -6.007   9.027   7.354  1.00  0.00     0.167 HD
ATOM     64  C   UNL     1      -7.250  10.558   5.326  1.00  0.00     0.074 A 
ATOM     65  C   UNL     1      -7.594  11.076   4.019  1.00  0.00     0.031 C 
ATOM     66  C   UNL     1      -7.860  10.934   6.478  1.00  0.00     0.037 A 
BRANCH  53  67
ATOM     67  C   UNL     1      -5.747   8.006  11.490  1.00  0.00     0.057 A 
ATOM     68  C   UNL     1      -4.728   8.385  12.375  1.00  0.00     0.134 A 
ATOM     69  C   UNL     1      -6.900   7.433  12.042  1.00  0.00     0.134 A 
ATOM     70  F   UNL     1      -3.590   8.923  11.912  1.00  0.00    -0.206 F 
ATOM     71  C   UNL     1      -4.843   8.180  13.752  1.00  0.00     0.040 A 
ATOM     72  C   UNL     1      -7.039   7.252  13.419  1.00  0.00     0.040 A 
ATOM     73  F   UNL     1      -7.915   7.049  11.253  1.00  0.00    -0.206 F 
ATOM     74  C   UNL     1      -6.006   7.620  14.277  1.00  0.00     0.006 A 
ENDBRANCH  53  67
BRANCH  54  75
ATOM     75  C   UNL     1      -4.847   8.998   1.598  1.00  0.00     0.057 A 
ATOM     76  C   UNL     1      -4.445  10.206   1.016  1.00  0.00     0.134 A 
ATOM     77  C   UNL     1      -5.191   7.952   0.732  1.00  0.00     0.134 A 
ATOM     78  F   UNL     1      -4.128  11.255   1.790  1.00  0.00    -0.206 F 
ATOM     79  C   UNL     1      -4.410  10.377  -0.369  1.00  0.00     0.040 A 
ATOM     80  C   UNL     1      -5.133   8.099  -0.655  1.00  0.00     0.040 A 
ATOM     81  F   UNL     1      -5.587   6.768   1.223  1.00  0.00    -0.206 F 
ATOM     82  C   UNL     1      -4.751   9.319  -1.209  1.00  0.00     0.006 A 
ENDBRANCH  54  75
BRANCH  66  83
ATOM     83  C   UNL     1      -8.928  11.988   6.385  1.00  0.00     0.057 A 
ATOM     84  C   UNL     1     -10.173  11.738   5.793  1.00  0.00     0.134 A 
ATOM     85  C   UNL     1      -8.718  13.264   6.927  1.00  0.00     0.134 A 
ATOM     86  F   UNL     1     -10.438  10.542   5.246  1.00  0.00    -0.206 F 
ATOM     87  C   UNL     1     -11.157  12.726   5.715  1.00  0.00     0.040 A 
ATOM     88  C   UNL     1      -9.705  14.249   6.884  1.00  0.00     0.040 A 
ATOM     89  F   UNL     1      -7.554  13.569   7.520  1.00  0.00    -0.206 F 
ATOM     90  C   UNL     1     -10.926  13.984   6.268  1.00  0.00     0.006 A 
ENDBRANCH  66  83
ENDBRANCH  40  41
ENDBRANCH  33  35
ENDBRANCH  32  33
ENDBRANCH  31  32
ENDBRANCH  30  31
ENDBRANCH  29  30
ENDBRANCH  28  29
ENDBRANCH  27  28
ENDBRANCH  26  27
ENDBRANCH   1  26
TORSDOF 24
