REMARK SMILES Cn1ncc(C(=O)OCCOCCOCCOCCOC(=O)c2ccc(-c3c4nc(c(-c5c(F)cccc5F)c5ccc([nH]5)c(-c5c(F)cccc5F)c5nc(c(-c6c(F)cccc6F)c6ccc3[nH]6)C=C5)C=C4)cc2)c1C(=O)Nc1nccc(-c2ccc(OC(F)F)cc2)n1
REMARK SMILES IDX 12 1 11 2 10 3 9 4 8 5 6 6 7 7 5 8 1 9 2 10 3 11 77 12 4 13
REMARK SMILES IDX 78 14 79 15 80 16 81 18 82 19 96 20 83 21 85 22 84 23 86 24
REMARK SMILES IDX 87 25 95 26 88 27 94 28 89 29 90 30 91 31 92 32 93 33 13 34
REMARK SMILES IDX 14 35 15 36 16 37 17 38 18 39 19 40 20 41 21 42 22 43 23 44
REMARK SMILES IDX 24 45 76 46 25 47 75 48 26 49 27 50 28 51 69 52 29 53 74 54
REMARK SMILES IDX 68 55 70 56 30 57 73 58 67 59 66 60 31 62 57 63 40 64 56 65
REMARK SMILES IDX 41 66 44 67 55 68 71 69 42 70 43 71 54 73 72 74 45 75 32 76
REMARK SMILES IDX 33 77 38 78 34 79 35 80 37 81 39 82 36 83 58 84 59 85 64 86
REMARK SMILES IDX 60 87 61 88 63 89 65 90 62 91 46 92 47 93 52 94 48 95 49 96
REMARK SMILES IDX 51 97 53 98 50 99
REMARK H PARENT 80 17 70 61 44 72
REMARK Flexibility Score: inf
ROOT
ATOM      1  C   UNL     1       4.236  -1.216  -1.372  1.00  0.00     0.188 C 
ENDROOT
BRANCH   1   2
ATOM      2  O   UNL     1       5.001  -2.378  -1.061  1.00  0.00    -0.376 OA
BRANCH   2   3
ATOM      3  C   UNL     1       5.056  -2.741   0.313  1.00  0.00     0.202 C 
BRANCH   3   4
ATOM      4  C   UNL     1       3.828  -3.540   0.757  1.00  0.00     0.261 C 
BRANCH   4   5
ATOM      5  O   UNL     1       2.623  -2.772   0.647  1.00  0.00    -0.460 OA
BRANCH   5   6
ATOM      6  C   UNL     1       2.499  -1.767   1.548  1.00  0.00     0.342 C 
ATOM      7  O   UNL     1       3.288  -1.559   2.465  1.00  0.00    -0.246 OA
BRANCH   6   8
ATOM      8  C   UNL     1       1.462  -0.821   1.204  1.00  0.00     0.111 A 
ATOM      9  C   UNL     1      -1.647   0.733   1.538  1.00  0.00     0.174 C 
ATOM     10  N   UNL     1      -0.401   0.261   0.982  1.00  0.00    -0.262 N 
ATOM     11  N   UNL     1       0.546   1.214   0.826  1.00  0.00    -0.180 NA
ATOM     12  C   UNL     1       0.098  -1.028   0.946  1.00  0.00     0.140 A 
ATOM     13  C   UNL     1       1.673   0.564   1.079  1.00  0.00     0.151 A 
BRANCH  12  14
ATOM     14  C   UNL     1      -0.570  -2.317   0.922  1.00  0.00     0.277 C 
ATOM     15  O   UNL     1       0.028  -3.333   1.297  1.00  0.00    -0.267 OA
ATOM     16  N   UNL     1      -1.879  -2.546   0.627  1.00  0.00    -0.289 N 
ATOM     17  H   UNL     1      -2.144  -3.469   0.846  1.00  0.00     0.173 HD
BRANCH  16  18
ATOM     18  C   UNL     1      -2.929  -1.830   0.105  1.00  0.00     0.230 A 
ATOM     19  N   UNL     1      -4.115  -2.280   0.545  1.00  0.00    -0.221 NA
ATOM     20  N   UNL     1      -2.774  -0.755  -0.669  1.00  0.00    -0.213 NA
ATOM     21  C   UNL     1      -5.196  -1.533   0.273  1.00  0.00     0.117 A 
ATOM     22  C   UNL     1      -3.900  -0.062  -0.980  1.00  0.00     0.076 A 
ATOM     23  C   UNL     1      -5.145  -0.396  -0.486  1.00  0.00     0.049 A 
BRANCH  22  24
ATOM     24  C   UNL     1      -3.716   1.127  -1.817  1.00  0.00     0.001 A 
ATOM     25  C   UNL     1      -3.428   1.012  -3.182  1.00  0.00     0.014 A 
ATOM     26  C   UNL     1      -3.826   2.416  -1.271  1.00  0.00     0.014 A 
ATOM     27  C   UNL     1      -3.240   2.154  -3.969  1.00  0.00     0.047 A 
ATOM     28  C   UNL     1      -3.617   3.557  -2.054  1.00  0.00     0.047 A 
ATOM     29  C   UNL     1      -3.314   3.432  -3.408  1.00  0.00     0.126 A 
BRANCH  29  30
ATOM     30  O   UNL     1      -3.074   4.455  -4.279  1.00  0.00    -0.435 OA
BRANCH  30  31
ATOM     31  C   UNL     1      -2.966   5.772  -3.753  1.00  0.00     0.542 C 
ATOM     32  F   UNL     1      -4.148   6.149  -3.208  1.00  0.00    -0.167 F 
ATOM     33  F   UNL     1      -2.018   5.817  -2.786  1.00  0.00    -0.167 F 
ENDBRANCH  30  31
ENDBRANCH  29  30
ENDBRANCH  22  24
ENDBRANCH  16  18
ENDBRANCH  12  14
ENDBRANCH   6   8
ENDBRANCH   5   6
ENDBRANCH   4   5
ENDBRANCH   3   4
ENDBRANCH   2   3
ENDBRANCH   1   2
BRANCH   1  34
ATOM     34  C   UNL     1       2.912  -1.459  -2.123  1.00  0.00     0.188 C 
BRANCH  34  35
ATOM     35  O   UNL     1       2.583  -2.746  -2.619  1.00  0.00    -0.377 OA
BRANCH  35  36
ATOM     36  C   UNL     1       3.602  -3.596  -3.119  1.00  0.00     0.188 C 
BRANCH  36  37
ATOM     37  C   UNL     1       4.761  -2.998  -3.935  1.00  0.00     0.188 C 
BRANCH  37  38
ATOM     38  O   UNL     1       4.544  -1.665  -4.382  1.00  0.00    -0.376 OA
BRANCH  38  39
ATOM     39  C   UNL     1       4.279  -1.519  -5.772  1.00  0.00     0.202 C 
BRANCH  39  40
ATOM     40  C   UNL     1       2.851  -1.909  -6.167  1.00  0.00     0.261 C 
BRANCH  40  41
ATOM     41  O   UNL     1       2.545  -3.305  -6.015  1.00  0.00    -0.460 OA
BRANCH  41  42
ATOM     42  C   UNL     1       3.279  -4.182  -6.732  1.00  0.00     0.338 C 
ATOM     43  O   UNL     1       4.154  -3.937  -7.541  1.00  0.00    -0.246 OA
BRANCH  42  44
ATOM     44  C   UNL     1       2.952  -5.534  -6.245  1.00  0.00     0.060 A 
ATOM     45  C   UNL     1       3.984  -6.346  -5.759  1.00  0.00     0.016 A 
ATOM     46  C   UNL     1       1.632  -5.990  -6.263  1.00  0.00     0.016 A 
ATOM     47  C   UNL     1       3.697  -7.637  -5.314  1.00  0.00     0.010 A 
ATOM     48  C   UNL     1       1.349  -7.287  -5.838  1.00  0.00     0.010 A 
ATOM     49  C   UNL     1       2.385  -8.125  -5.391  1.00  0.00    -0.014 A 
BRANCH  49  50
ATOM     50  C   UNL     1       2.123  -9.570  -5.204  1.00  0.00     0.031 A 
ATOM     51  C   UNL     1       2.155 -10.457  -6.416  1.00  0.00     0.074 A 
ATOM     52  C   UNL     1       1.851 -10.083  -3.992  1.00  0.00     0.049 A 
ATOM     53  N   UNL     1       1.919 -11.739  -6.514  1.00  0.00    -0.248 NA
ATOM     54  C   UNL     1       2.499  -9.806  -7.692  1.00  0.00     0.031 C 
ATOM     55  C   UNL     1       1.811  -9.330  -2.740  1.00  0.00     0.029 A 
ATOM     56  N   UNL     1       1.544 -11.369  -3.625  1.00  0.00    -0.354 N 
ATOM     57  C   UNL     1       2.091 -12.049  -7.856  1.00  0.00     0.074 A 
ATOM     58  C   UNL     1       2.422 -10.819  -8.541  1.00  0.00     0.031 C 
ATOM     59  C   UNL     1       1.482 -10.169  -1.741  1.00  0.00     0.029 A 
ATOM     60  C   UNL     1       1.268 -11.508  -2.288  1.00  0.00     0.049 A 
ATOM     61  H   UNL     1       1.525 -12.121  -4.260  1.00  0.00     0.167 HD
ATOM     62  C   UNL     1       1.991 -13.253  -8.465  1.00  0.00     0.037 A 
ATOM     63  C   UNL     1       0.869 -12.592  -1.594  1.00  0.00     0.037 A 
ATOM     64  C   UNL     1       1.646 -14.475  -7.792  1.00  0.00     0.049 A 
ATOM     65  C   UNL     1       0.691 -13.906  -2.308  1.00  0.00     0.074 A 
ATOM     66  C   UNL     1       1.531 -15.748  -8.320  1.00  0.00     0.029 A 
ATOM     67  N   UNL     1       1.347 -14.569  -6.442  1.00  0.00    -0.354 N 
ATOM     68  N   UNL     1       0.893 -14.198  -3.570  1.00  0.00    -0.248 NA
ATOM     69  C   UNL     1       0.226 -15.043  -1.498  1.00  0.00     0.031 C 
ATOM     70  C   UNL     1       1.124 -16.609  -7.295  1.00  0.00     0.029 A 
ATOM     71  C   UNL     1       1.025 -15.877  -6.122  1.00  0.00     0.049 A 
ATOM     72  H   UNL     1       1.363 -13.819  -5.805  1.00  0.00     0.167 HD
ATOM     73  C   UNL     1       0.606 -15.552  -3.700  1.00  0.00     0.074 A 
ATOM     74  C   UNL     1       0.224 -16.027  -2.387  1.00  0.00     0.031 C 
ATOM     75  C   UNL     1       0.654 -16.332  -4.808  1.00  0.00     0.037 A 
BRANCH  62  76
ATOM     76  C   UNL     1       2.242 -13.295  -9.941  1.00  0.00     0.057 A 
ATOM     77  C   UNL     1       3.535 -13.186 -10.468  1.00  0.00     0.134 A 
ATOM     78  C   UNL     1       1.184 -13.457 -10.842  1.00  0.00     0.134 A 
ATOM     79  F   UNL     1       4.588 -13.008  -9.656  1.00  0.00    -0.206 F 
ATOM     80  C   UNL     1       3.765 -13.220 -11.844  1.00  0.00     0.040 A 
ATOM     81  C   UNL     1       1.403 -13.513 -12.219  1.00  0.00     0.040 A 
ATOM     82  F   UNL     1      -0.078 -13.564 -10.399  1.00  0.00    -0.206 F 
ATOM     83  C   UNL     1       2.697 -13.390 -12.723  1.00  0.00     0.006 A 
ENDBRANCH  62  76
BRANCH  63  84
ATOM     84  C   UNL     1       0.594 -12.488  -0.139  1.00  0.00     0.057 A 
ATOM     85  C   UNL     1       1.434 -13.095   0.801  1.00  0.00     0.134 A 
ATOM     86  C   UNL     1      -0.534 -11.813   0.342  1.00  0.00     0.134 A 
ATOM     87  F   UNL     1       2.515 -13.780   0.398  1.00  0.00    -0.206 F 
ATOM     88  C   UNL     1       1.153 -13.050   2.168  1.00  0.00     0.040 A 
ATOM     89  C   UNL     1      -0.815 -11.742   1.707  1.00  0.00     0.040 A 
ATOM     90  F   UNL     1      -1.381 -11.217  -0.510  1.00  0.00    -0.206 F 
ATOM     91  C   UNL     1       0.026 -12.368   2.624  1.00  0.00     0.006 A 
ENDBRANCH  63  84
BRANCH  75  92
ATOM     92  C   UNL     1       0.314 -17.783  -4.644  1.00  0.00     0.057 A 
ATOM     93  C   UNL     1      -1.007 -18.216  -4.479  1.00  0.00     0.134 A 
ATOM     94  C   UNL     1       1.315 -18.761  -4.705  1.00  0.00     0.134 A 
ATOM     95  F   UNL     1      -2.009 -17.328  -4.403  1.00  0.00    -0.206 F 
ATOM     96  C   UNL     1      -1.320 -19.572  -4.365  1.00  0.00     0.040 A 
ATOM     97  C   UNL     1       1.012 -20.120  -4.614  1.00  0.00     0.040 A 
ATOM     98  F   UNL     1       2.600 -18.412  -4.870  1.00  0.00    -0.206 F 
ATOM     99  C   UNL     1      -0.308 -20.528  -4.440  1.00  0.00     0.006 A 
ENDBRANCH  75  92
ENDBRANCH  49  50
ENDBRANCH  42  44
ENDBRANCH  41  42
ENDBRANCH  40  41
ENDBRANCH  39  40
ENDBRANCH  38  39
ENDBRANCH  37  38
ENDBRANCH  36  37
ENDBRANCH  35  36
ENDBRANCH  34  35
ENDBRANCH   1  34
TORSDOF 25
