REMARK SMILES Cc1cc(-c2cc(C(=O)OCCOCCOCCOCCOC(=O)c3ccc(-c4c5nc(c(-c6c(F)cccc6F)c6ccc([nH]6)c(-c6c(F)cccc6F)c6nc(c(-c7c(F)cccc7F)c7ccc4[nH]7)C=C6)C=C5)cc3)c[nH]c2=O)ccc1Cl
REMARK SMILES IDX 17 1 16 2 15 3 14 4 13 5 12 6 11 7 10 8 8 9 9 10 7 11 5 12
REMARK SMILES IDX 6 13 81 14 80 15 82 16 79 17 4 19 1 20 2 21 3 22 85 23 84 24
REMARK SMILES IDX 86 25 83 26 18 27 19 28 20 29 21 30 22 31 23 32 24 33 25 34
REMARK SMILES IDX 26 35 78 36 27 37 77 38 28 39 29 40 30 41 71 42 31 43 76 44
REMARK SMILES IDX 70 45 72 46 32 47 75 48 69 49 68 50 33 52 59 53 42 54 58 55
REMARK SMILES IDX 43 56 46 57 57 58 73 59 44 60 45 61 56 63 74 64 47 65 34 66
REMARK SMILES IDX 35 67 40 68 36 69 37 70 39 71 41 72 38 73 60 74 61 75 66 76
REMARK SMILES IDX 62 77 63 78 65 79 67 80 64 81 48 82 49 83 54 84 50 85 51 86
REMARK SMILES IDX 53 87 55 88 52 89
REMARK H PARENT 80 18 72 51 46 62
REMARK Flexibility Score: inf
ROOT
ATOM      1  C   UNL     1      -6.629   0.348   5.577  1.00  0.00     0.188 C 
ENDROOT
BRANCH   1   2
ATOM      2  O   UNL     1      -6.162   0.167   4.239  1.00  0.00    -0.377 OA
BRANCH   2   3
ATOM      3  C   UNL     1      -6.872   0.775   3.171  1.00  0.00     0.188 C 
BRANCH   3   4
ATOM      4  C   UNL     1      -8.246   0.145   2.868  1.00  0.00     0.188 C 
BRANCH   4   5
ATOM      5  O   UNL     1      -8.726  -0.671   3.922  1.00  0.00    -0.376 OA
BRANCH   5   6
ATOM      6  C   UNL     1      -8.566  -2.077   3.874  1.00  0.00     0.202 C 
BRANCH   6   7
ATOM      7  C   UNL     1      -7.233  -2.745   3.493  1.00  0.00     0.261 C 
BRANCH   7   8
ATOM      8  O   UNL     1      -6.440  -2.106   2.490  1.00  0.00    -0.460 OA
BRANCH   8   9
ATOM      9  C   UNL     1      -6.834  -2.217   1.202  1.00  0.00     0.339 C 
ATOM     10  O   UNL     1      -7.791  -2.850   0.791  1.00  0.00    -0.246 OA
BRANCH   9  11
ATOM     11  C   UNL     1      -6.016  -1.272   0.391  1.00  0.00     0.077 A 
ATOM     12  C   UNL     1      -3.859  -0.238  -0.149  1.00  0.00     0.048 A 
ATOM     13  C   UNL     1      -4.586  -1.113   0.578  1.00  0.00     0.031 A 
ATOM     14  C   UNL     1      -4.603   0.664  -1.106  1.00  0.00     0.255 A 
ATOM     15  N   UNL     1      -5.964   0.466  -1.193  1.00  0.00    -0.328 N 
ATOM     16  O   UNL     1      -4.054   1.531  -1.777  1.00  0.00    -0.269 OA
ATOM     17  C   UNL     1      -6.657  -0.483  -0.484  1.00  0.00     0.101 A 
ATOM     18  H   UNL     1      -6.474   1.043  -1.806  1.00  0.00     0.169 HD
BRANCH  12  19
ATOM     19  C   UNL     1      -2.383  -0.214  -0.035  1.00  0.00    -0.012 A 
ATOM     20  C   UNL     1       0.501   2.293   0.025  1.00  0.00     0.046 C 
ATOM     21  C   UNL     1      -0.243   0.987   0.033  1.00  0.00    -0.032 A 
ATOM     22  C   UNL     1      -1.653   0.985  -0.006  1.00  0.00     0.014 A 
ATOM     23  C   UNL     1       0.434  -0.241   0.052  1.00  0.00     0.044 A 
ATOM     24  C   UNL     1      -0.278  -1.440   0.030  1.00  0.00     0.021 A 
ATOM     25  Cl  UNL     1       2.158  -0.331   0.085  1.00  0.00    -0.084 Cl
ATOM     26  C   UNL     1      -1.671  -1.425  -0.020  1.00  0.00     0.010 A 
ENDBRANCH  12  19
ENDBRANCH   9  11
ENDBRANCH   8   9
ENDBRANCH   7   8
ENDBRANCH   6   7
ENDBRANCH   5   6
ENDBRANCH   4   5
ENDBRANCH   3   4
ENDBRANCH   2   3
ENDBRANCH   1   2
BRANCH   1  27
ATOM     27  C   UNL     1      -7.958   1.068   5.922  1.00  0.00     0.188 C 
BRANCH  27  28
ATOM     28  O   UNL     1      -8.375   2.041   4.978  1.00  0.00    -0.376 OA
BRANCH  28  29
ATOM     29  C   UNL     1      -8.267   3.409   5.329  1.00  0.00     0.202 C 
BRANCH  29  30
ATOM     30  C   UNL     1      -6.840   3.955   5.469  1.00  0.00     0.261 C 
BRANCH  30  31
ATOM     31  O   UNL     1      -6.000   3.258   6.402  1.00  0.00    -0.460 OA
BRANCH  31  32
ATOM     32  C   UNL     1      -6.357   3.313   7.702  1.00  0.00     0.338 C 
ATOM     33  O   UNL     1      -7.308   3.913   8.182  1.00  0.00    -0.246 OA
BRANCH  32  34
ATOM     34  C   UNL     1      -5.511   2.362   8.448  1.00  0.00     0.060 A 
ATOM     35  C   UNL     1      -6.125   1.317   9.149  1.00  0.00     0.016 A 
ATOM     36  C   UNL     1      -4.120   2.500   8.454  1.00  0.00     0.016 A 
ATOM     37  C   UNL     1      -5.350   0.432   9.896  1.00  0.00     0.010 A 
ATOM     38  C   UNL     1      -3.347   1.622   9.218  1.00  0.00     0.010 A 
ATOM     39  C   UNL     1      -3.962   0.607   9.972  1.00  0.00    -0.014 A 
BRANCH  39  40
ATOM     40  C   UNL     1      -3.188  -0.158  10.980  1.00  0.00     0.031 A 
ATOM     41  C   UNL     1      -2.842   0.512  12.283  1.00  0.00     0.074 A 
ATOM     42  C   UNL     1      -2.841  -1.439  10.768  1.00  0.00     0.049 A 
ATOM     43  N   UNL     1      -2.197   0.038  13.318  1.00  0.00    -0.248 NA
ATOM     44  C   UNL     1      -3.284   1.907  12.437  1.00  0.00     0.031 C 
ATOM     45  C   UNL     1      -3.148  -2.210   9.565  1.00  0.00     0.029 A 
ATOM     46  N   UNL     1      -2.155  -2.318  11.567  1.00  0.00    -0.354 N 
ATOM     47  C   UNL     1      -2.151   1.076  14.241  1.00  0.00     0.074 A 
ATOM     48  C   UNL     1      -2.802   2.214  13.631  1.00  0.00     0.031 C 
ATOM     49  C   UNL     1      -2.654  -3.452   9.707  1.00  0.00     0.029 A 
ATOM     50  C   UNL     1      -1.972  -3.554  10.996  1.00  0.00     0.049 A 
ATOM     51  H   UNL     1      -1.825  -2.086  12.465  1.00  0.00     0.167 HD
ATOM     52  C   UNL     1      -1.621   1.078  15.487  1.00  0.00     0.037 A 
ATOM     53  C   UNL     1      -1.317  -4.636  11.460  1.00  0.00     0.037 A 
ATOM     54  C   UNL     1      -0.972  -0.056  16.092  1.00  0.00     0.049 A 
ATOM     55  C   UNL     1      -0.676  -4.585  12.822  1.00  0.00     0.074 A 
ATOM     56  C   UNL     1      -0.429  -0.164  17.360  1.00  0.00     0.029 A 
ATOM     57  N   UNL     1      -0.762  -1.275  15.464  1.00  0.00    -0.354 N 
ATOM     58  N   UNL     1      -0.674  -3.614  13.704  1.00  0.00    -0.248 NA
ATOM     59  C   UNL     1       0.049  -5.788  13.255  1.00  0.00     0.031 C 
ATOM     60  C   UNL     1       0.166  -1.425  17.476  1.00  0.00     0.029 A 
ATOM     61  C   UNL     1      -0.067  -2.129  16.306  1.00  0.00     0.049 A 
ATOM     62  H   UNL     1      -1.064  -1.501  14.554  1.00  0.00     0.167 HD
ATOM     63  C   UNL     1       0.022  -4.100  14.806  1.00  0.00     0.074 A 
ATOM     64  C   UNL     1       0.407  -5.459  14.488  1.00  0.00     0.031 C 
ATOM     65  C   UNL     1       0.314  -3.479  15.977  1.00  0.00     0.037 A 
BRANCH  52  66
ATOM     66  C   UNL     1      -1.690   2.361  16.266  1.00  0.00     0.057 A 
ATOM     67  C   UNL     1      -2.898   2.873  16.758  1.00  0.00     0.134 A 
ATOM     68  C   UNL     1      -0.523   3.083  16.545  1.00  0.00     0.134 A 
ATOM     69  F   UNL     1      -4.056   2.240  16.514  1.00  0.00    -0.206 F 
ATOM     70  C   UNL     1      -2.945   4.070  17.476  1.00  0.00     0.040 A 
ATOM     71  C   UNL     1      -0.554   4.265  17.288  1.00  0.00     0.040 A 
ATOM     72  F   UNL     1       0.669   2.650  16.107  1.00  0.00    -0.206 F 
ATOM     73  C   UNL     1      -1.769   4.765  17.749  1.00  0.00     0.006 A 
ENDBRANCH  52  66
BRANCH  53  74
ATOM     74  C   UNL     1      -1.229  -5.869  10.633  1.00  0.00     0.057 A 
ATOM     75  C   UNL     1      -1.863  -7.054  11.027  1.00  0.00     0.134 A 
ATOM     76  C   UNL     1      -0.478  -5.903   9.452  1.00  0.00     0.134 A 
ATOM     77  F   UNL     1      -2.575  -7.093  12.162  1.00  0.00    -0.206 F 
ATOM     78  C   UNL     1      -1.736  -8.232  10.289  1.00  0.00     0.040 A 
ATOM     79  C   UNL     1      -0.367  -7.066   8.688  1.00  0.00     0.040 A 
ATOM     80  F   UNL     1       0.155  -4.803   9.019  1.00  0.00    -0.206 F 
ATOM     81  C   UNL     1      -0.989  -8.238   9.112  1.00  0.00     0.006 A 
ENDBRANCH  53  74
BRANCH  65  82
ATOM     82  C   UNL     1       1.054  -4.281  17.013  1.00  0.00     0.057 A 
ATOM     83  C   UNL     1       2.388  -4.674  16.840  1.00  0.00     0.134 A 
ATOM     84  C   UNL     1       0.422  -4.660  18.205  1.00  0.00     0.134 A 
ATOM     85  F   UNL     1       3.052  -4.354  15.719  1.00  0.00    -0.206 F 
ATOM     86  C   UNL     1       3.051  -5.449  17.794  1.00  0.00     0.040 A 
ATOM     87  C   UNL     1       1.086  -5.405  19.181  1.00  0.00     0.040 A 
ATOM     88  F   UNL     1      -0.850  -4.307  18.446  1.00  0.00    -0.206 F 
ATOM     89  C   UNL     1       2.401  -5.813  18.971  1.00  0.00     0.006 A 
ENDBRANCH  65  82
ENDBRANCH  39  40
ENDBRANCH  32  34
ENDBRANCH  31  32
ENDBRANCH  30  31
ENDBRANCH  29  30
ENDBRANCH  28  29
ENDBRANCH  27  28
ENDBRANCH   1  27
TORSDOF 21
