REMARK SMILES O=C(Cc1c(C(=O)c2cc3c(cn2)CCCC3)[nH]c2cc(Cl)ccc12)OCCOCCOCCOCCOC(=O)c1ccc(-c2c3nc(c(-c4c(F)cccc4F)c4ccc([nH]4)c(-c4c(F)cccc4F)c4nc(c(-c5c(F)cccc5F)c5ccc2[nH]5)C=C4)C=C3)cc1
REMARK SMILES IDX 31 1 30 2 29 3 28 4 27 5 26 6 2 7 1 8 3 9 4 10 5 11 25 12
REMARK SMILES IDX 18 13 19 14 24 15 20 17 23 18 21 19 22 20 6 21 7 22 8 23
REMARK SMILES IDX 9 24 13 25 10 26 12 27 11 28 17 29 14 30 16 31 15 32 32 33
REMARK SMILES IDX 33 34 34 35 35 36 36 37 37 38 38 39 39 40 40 41 41 42 42 43
REMARK SMILES IDX 94 44 43 45 93 46 44 47 45 48 46 49 87 50 47 51 92 52 86 53
REMARK SMILES IDX 88 54 48 55 91 56 85 57 84 58 49 60 75 61 58 62 74 63 59 64
REMARK SMILES IDX 62 65 73 66 89 67 60 68 61 69 72 71 90 72 63 73 50 74 51 75
REMARK SMILES IDX 56 76 52 77 53 78 55 79 57 80 54 81 76 82 77 83 82 84 78 85
REMARK SMILES IDX 79 86 81 87 83 88 80 89 64 90 65 91 70 92 66 93 67 94 69 95
REMARK SMILES IDX 71 96 68 97
REMARK H PARENT 18 16 88 59 62 70
REMARK Flexibility Score: inf
ROOT
ATOM      1  C   UNL     1       2.228   2.913  -0.182  1.00  0.00     0.188 C 
ENDROOT
BRANCH   1   2
ATOM      2  C   UNL     1       2.541   1.526   0.375  1.00  0.00     0.188 C 
BRANCH   2   3
ATOM      3  O   UNL     1       3.661   0.876  -0.218  1.00  0.00    -0.376 OA
BRANCH   3   4
ATOM      4  C   UNL     1       3.522   0.516  -1.581  1.00  0.00     0.202 C 
BRANCH   4   5
ATOM      5  C   UNL     1       3.404  -0.995  -1.685  1.00  0.00     0.261 C 
BRANCH   5   6
ATOM      6  O   UNL     1       2.180  -1.471  -1.096  1.00  0.00    -0.463 OA
BRANCH   6   7
ATOM      7  C   UNL     1       1.975  -1.720   0.220  1.00  0.00     0.310 C 
ATOM      8  O   UNL     1       0.822  -1.924   0.606  1.00  0.00    -0.252 OA
BRANCH   7   9
ATOM      9  C   UNL     1       3.128  -1.745   1.208  1.00  0.00     0.161 C 
BRANCH   9  10
ATOM     10  C   UNL     1       4.120  -2.834   0.959  1.00  0.00     0.000 A 
ATOM     11  C   UNL     1       5.493  -2.712   0.735  1.00  0.00     0.093 A 
ATOM     12  C   UNL     1       3.793  -4.220   0.961  1.00  0.00     0.004 A 
ATOM     13  N   UNL     1       5.968  -3.993   0.538  1.00  0.00    -0.351 N 
ATOM     14  C   UNL     1       4.959  -4.921   0.674  1.00  0.00     0.048 A 
ATOM     15  C   UNL     1       2.599  -4.933   1.196  1.00  0.00     0.012 A 
ATOM     16  H   UNL     1       6.903  -4.215   0.327  1.00  0.00     0.167 HD
ATOM     17  C   UNL     1       4.986  -6.319   0.593  1.00  0.00     0.047 A 
ATOM     18  C   UNL     1       2.609  -6.327   1.134  1.00  0.00     0.021 A 
ATOM     19  C   UNL     1       3.787  -7.002   0.832  1.00  0.00     0.043 A 
ATOM     20  Cl  UNL     1       3.771  -8.723   0.759  1.00  0.00    -0.084 Cl
BRANCH  11  21
ATOM     21  C   UNL     1       6.313  -1.498   0.766  1.00  0.00     0.227 C 
ATOM     22  O   UNL     1       6.028  -0.543   1.485  1.00  0.00    -0.285 OA
BRANCH  21  23
ATOM     23  C   UNL     1       7.535  -1.390  -0.101  1.00  0.00     0.113 A 
ATOM     24  C   UNL     1       7.569  -1.915  -1.391  1.00  0.00     0.036 A 
ATOM     25  N   UNL     1       8.580  -0.720   0.446  1.00  0.00    -0.252 NA
ATOM     26  C   UNL     1       8.744  -1.782  -2.147  1.00  0.00    -0.041 A 
ATOM     27  C   UNL     1       9.698  -0.598  -0.299  1.00  0.00     0.115 A 
ATOM     28  C   UNL     1       9.848  -1.134  -1.573  1.00  0.00    -0.026 A 
ATOM     29  C   UNL     1       8.820  -2.388  -3.528  1.00  0.00     0.036 C 
ATOM     30  C   UNL     1      11.151  -0.973  -2.307  1.00  0.00     0.037 C 
ATOM     31  C   UNL     1      10.077  -2.003  -4.313  1.00  0.00     0.005 C 
ATOM     32  C   UNL     1      11.310  -2.010  -3.418  1.00  0.00     0.005 C 
ENDBRANCH  21  23
ENDBRANCH  11  21
ENDBRANCH   9  10
ENDBRANCH   7   9
ENDBRANCH   6   7
ENDBRANCH   5   6
ENDBRANCH   4   5
ENDBRANCH   3   4
ENDBRANCH   2   3
ENDBRANCH   1   2
BRANCH   1  33
ATOM     33  O   UNL     1       3.288   3.682  -0.739  1.00  0.00    -0.377 OA
BRANCH  33  34
ATOM     34  C   UNL     1       4.611   3.483  -0.265  1.00  0.00     0.188 C 
BRANCH  34  35
ATOM     35  C   UNL     1       4.909   3.541   1.238  1.00  0.00     0.188 C 
BRANCH  35  36
ATOM     36  O   UNL     1       3.777   3.799   2.063  1.00  0.00    -0.376 OA
BRANCH  36  37
ATOM     37  C   UNL     1       3.816   5.050   2.744  1.00  0.00     0.202 C 
BRANCH  37  38
ATOM     38  C   UNL     1       2.977   6.111   2.029  1.00  0.00     0.261 C 
BRANCH  38  39
ATOM     39  O   UNL     1       3.357   6.366   0.668  1.00  0.00    -0.460 OA
BRANCH  39  40
ATOM     40  C   UNL     1       4.591   6.875   0.435  1.00  0.00     0.338 C 
ATOM     41  O   UNL     1       5.422   7.181   1.258  1.00  0.00    -0.246 OA
BRANCH  40  42
ATOM     42  C   UNL     1       4.819   6.848  -1.036  1.00  0.00     0.060 A 
ATOM     43  C   UNL     1       3.773   7.077  -1.935  1.00  0.00     0.016 A 
ATOM     44  C   UNL     1       6.088   6.490  -1.513  1.00  0.00     0.016 A 
ATOM     45  C   UNL     1       3.989   6.936  -3.308  1.00  0.00     0.010 A 
ATOM     46  C   UNL     1       6.295   6.316  -2.885  1.00  0.00     0.010 A 
ATOM     47  C   UNL     1       5.249   6.552  -3.791  1.00  0.00    -0.014 A 
BRANCH  47  48
ATOM     48  C   UNL     1       5.521   6.618  -5.246  1.00  0.00     0.031 A 
ATOM     49  C   UNL     1       5.340   5.448  -6.163  1.00  0.00     0.074 A 
ATOM     50  C   UNL     1       5.930   7.803  -5.733  1.00  0.00     0.049 A 
ATOM     51  N   UNL     1       5.461   5.406  -7.467  1.00  0.00    -0.248 NA
ATOM     52  C   UNL     1       4.984   4.163  -5.547  1.00  0.00     0.031 C 
ATOM     53  C   UNL     1       6.143   9.008  -4.929  1.00  0.00     0.029 A 
ATOM     54  N   UNL     1       6.236   8.191  -7.010  1.00  0.00    -0.354 N 
ATOM     55  C   UNL     1       5.172   4.100  -7.838  1.00  0.00     0.074 A 
ATOM     56  C   UNL     1       4.910   3.370  -6.612  1.00  0.00     0.031 C 
ATOM     57  C   UNL     1       6.545  10.003  -5.732  1.00  0.00     0.029 A 
ATOM     58  C   UNL     1       6.625   9.503  -7.100  1.00  0.00     0.049 A 
ATOM     59  H   UNL     1       6.182   7.588  -7.786  1.00  0.00     0.167 HD
ATOM     60  C   UNL     1       5.119   3.571  -9.086  1.00  0.00     0.037 A 
ATOM     61  C   UNL     1       7.003  10.228  -8.166  1.00  0.00     0.037 A 
ATOM     62  C   UNL     1       5.401   4.302 -10.300  1.00  0.00     0.049 A 
ATOM     63  C   UNL     1       6.990   9.598  -9.526  1.00  0.00     0.074 A 
ATOM     64  C   UNL     1       5.319   3.863 -11.613  1.00  0.00     0.029 A 
ATOM     65  N   UNL     1       5.838   5.618 -10.353  1.00  0.00    -0.354 N 
ATOM     66  N   UNL     1       6.633   8.386  -9.872  1.00  0.00    -0.248 NA
ATOM     67  C   UNL     1       7.421  10.444 -10.646  1.00  0.00     0.031 C 
ATOM     68  C   UNL     1       5.755   4.895 -12.453  1.00  0.00     0.029 A 
ATOM     69  C   UNL     1       6.065   5.993 -11.670  1.00  0.00     0.049 A 
ATOM     70  H   UNL     1       5.968   6.201  -9.570  1.00  0.00     0.167 HD
ATOM     71  C   UNL     1       6.772   8.330 -11.251  1.00  0.00     0.074 A 
ATOM     72  C   UNL     1       7.232   9.636 -11.679  1.00  0.00     0.031 C 
ATOM     73  C   UNL     1       6.538   7.289 -12.087  1.00  0.00     0.037 A 
BRANCH  60  74
ATOM     74  C   UNL     1       4.739   2.123  -9.218  1.00  0.00     0.057 A 
ATOM     75  C   UNL     1       5.673   1.168  -9.639  1.00  0.00     0.134 A 
ATOM     76  C   UNL     1       3.423   1.688  -9.009  1.00  0.00     0.134 A 
ATOM     77  F   UNL     1       6.948   1.518  -9.871  1.00  0.00    -0.206 F 
ATOM     78  C   UNL     1       5.313  -0.164  -9.852  1.00  0.00     0.040 A 
ATOM     79  C   UNL     1       3.055   0.354  -9.198  1.00  0.00     0.040 A 
ATOM     80  F   UNL     1       2.478   2.551  -8.607  1.00  0.00    -0.206 F 
ATOM     81  C   UNL     1       4.001  -0.575  -9.629  1.00  0.00     0.006 A 
ENDBRANCH  60  74
BRANCH  61  82
ATOM     82  C   UNL     1       7.401  11.642  -7.984  1.00  0.00     0.057 A 
ATOM     83  C   UNL     1       8.602  11.982  -7.350  1.00  0.00     0.134 A 
ATOM     84  C   UNL     1       6.584  12.684  -8.431  1.00  0.00     0.134 A 
ATOM     85  F   UNL     1       9.420  11.024  -6.890  1.00  0.00    -0.206 F 
ATOM     86  C   UNL     1       8.974  13.312  -7.163  1.00  0.00     0.040 A 
ATOM     87  C   UNL     1       6.955  14.019  -8.271  1.00  0.00     0.040 A 
ATOM     88  F   UNL     1       5.428  12.415  -9.056  1.00  0.00    -0.206 F 
ATOM     89  C   UNL     1       8.152  14.335  -7.631  1.00  0.00     0.006 A 
ENDBRANCH  61  82
BRANCH  73  90
ATOM     90  C   UNL     1       6.766   7.535 -13.550  1.00  0.00     0.057 A 
ATOM     91  C   UNL     1       5.686   7.650 -14.435  1.00  0.00     0.134 A 
ATOM     92  C   UNL     1       8.055   7.668 -14.083  1.00  0.00     0.134 A 
ATOM     93  F   UNL     1       4.426   7.531 -13.991  1.00  0.00    -0.206 F 
ATOM     94  C   UNL     1       5.880   7.891 -15.796  1.00  0.00     0.040 A 
ATOM     95  C   UNL     1       8.261   7.935 -15.438  1.00  0.00     0.040 A 
ATOM     96  F   UNL     1       9.131   7.589 -13.285  1.00  0.00    -0.206 F 
ATOM     97  C   UNL     1       7.171   8.043 -16.299  1.00  0.00     0.006 A 
ENDBRANCH  73  90
ENDBRANCH  47  48
ENDBRANCH  40  42
ENDBRANCH  39  40
ENDBRANCH  38  39
ENDBRANCH  37  38
ENDBRANCH  36  37
ENDBRANCH  35  36
ENDBRANCH  34  35
ENDBRANCH  33  34
ENDBRANCH   1  33
TORSDOF 23
