REMARK SMILES CC[C@]1(C(=O)OCCOCCOCCOCCOC(=O)c2ccc(-c3c4nc(c(-c5c(F)cccc5F)c5ccc([nH]5)c(-c5c(F)cccc5F)c5nc(c(-c6c(F)cccc6F)c6ccc3[nH]6)C=C5)C=C4)cc2)CCC[N@@H+](Cc2cc(OC)ccc2F)C1
REMARK SMILES IDX 11 1 10 2 9 3 8 4 7 5 6 6 4 7 5 8 3 9 75 10 89 11 76 12
REMARK SMILES IDX 78 13 77 14 2 16 1 17 79 18 80 19 81 20 87 21 82 22 86 23
REMARK SMILES IDX 88 24 85 25 83 26 84 27 12 28 13 29 14 30 15 31 16 32 17 33
REMARK SMILES IDX 18 34 19 35 20 36 21 37 22 38 74 39 23 40 73 41 24 42 25 43
REMARK SMILES IDX 26 44 67 45 27 46 72 47 66 48 68 49 28 50 71 51 65 52 64 53
REMARK SMILES IDX 29 55 55 56 38 57 54 58 39 59 42 60 53 61 69 62 40 63 41 64
REMARK SMILES IDX 52 66 70 67 43 68 30 69 31 70 36 71 32 72 33 73 35 74 37 75
REMARK SMILES IDX 34 76 56 77 57 78 62 79 58 80 59 81 61 82 63 83 60 84 44 85
REMARK SMILES IDX 45 86 50 87 46 88 47 89 49 90 51 91 48 92
REMARK H PARENT 78 15 68 54 42 65
REMARK Flexibility Score: inf
ROOT
ATOM      1  C   UNL     1      -0.996  -1.547  -2.852  1.00  0.00     0.188 C 
ENDROOT
BRANCH   1   2
ATOM      2  C   UNL     1      -2.215  -0.620  -2.787  1.00  0.00     0.188 C 
BRANCH   2   3
ATOM      3  O   UNL     1      -2.906  -0.256  -3.966  1.00  0.00    -0.376 OA
BRANCH   3   4
ATOM      4  C   UNL     1      -2.252   0.260  -5.112  1.00  0.00     0.202 C 
BRANCH   4   5
ATOM      5  C   UNL     1      -0.962   1.104  -5.107  1.00  0.00     0.261 C 
BRANCH   5   6
ATOM      6  O   UNL     1       0.087   0.737  -4.199  1.00  0.00    -0.463 OA
BRANCH   6   7
ATOM      7  C   UNL     1       0.122   1.456  -3.054  1.00  0.00     0.317 C 
ATOM      8  O   UNL     1      -0.679   2.357  -2.811  1.00  0.00    -0.251 OA
BRANCH   7   9
ATOM      9  C   UNL     1       1.315   1.132  -2.114  1.00  0.00     0.117 C 
ATOM     10  C   UNL     1       2.150  -0.147  -2.390  1.00  0.00     0.030 C 
ATOM     11  C   UNL     1       2.215   2.311  -2.522  1.00  0.00     0.281 C 
ATOM     12  C   UNL     1       3.547  -0.092  -1.757  1.00  0.00     0.063 C 
ATOM     13  N   UNL     1       3.553   2.385  -1.933  1.00  0.00    -0.330 N 
ATOM     14  C   UNL     1       4.319   1.156  -2.170  1.00  0.00     0.262 C 
ATOM     15  H   UNL     1       3.470   2.468  -0.920  1.00  0.00     0.348 HD
BRANCH   9  16
ATOM     16  C   UNL     1       0.763   1.263  -0.654  1.00  0.00     0.021 C 
ATOM     17  C   UNL     1       0.905   0.094   0.313  1.00  0.00     0.005 C 
ENDBRANCH   9  16
BRANCH  13  18
ATOM     18  C   UNL     1       4.247   3.598  -2.447  1.00  0.00     0.302 C 
BRANCH  18  19
ATOM     19  C   UNL     1       4.623   3.579  -3.918  1.00  0.00     0.046 A 
ATOM     20  C   UNL     1       5.939   3.288  -4.301  1.00  0.00     0.059 A 
ATOM     21  C   UNL     1       3.673   3.756  -4.933  1.00  0.00     0.132 A 
ATOM     22  C   UNL     1       6.269   3.119  -5.647  1.00  0.00     0.119 A 
ATOM     23  C   UNL     1       3.970   3.483  -6.264  1.00  0.00     0.043 A 
ATOM     24  F   UNL     1       2.422   4.140  -4.638  1.00  0.00    -0.206 F 
ATOM     25  C   UNL     1       5.270   3.144  -6.621  1.00  0.00     0.049 A 
BRANCH  22  26
ATOM     26  O   UNL     1       7.594   2.905  -5.909  1.00  0.00    -0.497 OA
ATOM     27  C   UNL     1       8.026   3.392  -7.177  1.00  0.00     0.278 C 
ENDBRANCH  22  26
ENDBRANCH  18  19
ENDBRANCH  13  18
ENDBRANCH   7   9
ENDBRANCH   6   7
ENDBRANCH   5   6
ENDBRANCH   4   5
ENDBRANCH   3   4
ENDBRANCH   2   3
ENDBRANCH   1   2
BRANCH   1  28
ATOM     28  O   UNL     1      -0.442  -1.771  -4.131  1.00  0.00    -0.377 OA
BRANCH  28  29
ATOM     29  C   UNL     1      -0.994  -2.799  -4.938  1.00  0.00     0.188 C 
BRANCH  29  30
ATOM     30  C   UNL     1      -2.394  -3.349  -4.610  1.00  0.00     0.188 C 
BRANCH  30  31
ATOM     31  O   UNL     1      -2.638  -3.566  -3.230  1.00  0.00    -0.376 OA
BRANCH  31  32
ATOM     32  C   UNL     1      -2.374  -4.839  -2.662  1.00  0.00     0.202 C 
BRANCH  32  33
ATOM     33  C   UNL     1      -0.940  -5.394  -2.719  1.00  0.00     0.261 C 
BRANCH  33  34
ATOM     34  O   UNL     1      -0.365  -5.577  -4.022  1.00  0.00    -0.460 OA
BRANCH  34  35
ATOM     35  C   UNL     1      -1.034  -6.320  -4.924  1.00  0.00     0.338 C 
ATOM     36  O   UNL     1      -2.067  -6.945  -4.749  1.00  0.00    -0.246 OA
BRANCH  35  37
ATOM     37  C   UNL     1      -0.409  -6.088  -6.242  1.00  0.00     0.060 A 
ATOM     38  C   UNL     1      -1.181  -5.538  -7.275  1.00  0.00     0.016 A 
ATOM     39  C   UNL     1       0.935  -6.403  -6.454  1.00  0.00     0.016 A 
ATOM     40  C   UNL     1      -0.619  -5.334  -8.535  1.00  0.00     0.010 A 
ATOM     41  C   UNL     1       1.489  -6.223  -7.724  1.00  0.00     0.010 A 
ATOM     42  C   UNL     1       0.705  -5.720  -8.778  1.00  0.00    -0.014 A 
BRANCH  42  43
ATOM     43  C   UNL     1       1.204  -5.800 -10.171  1.00  0.00     0.031 A 
ATOM     44  C   UNL     1       1.179  -7.138 -10.857  1.00  0.00     0.074 A 
ATOM     45  C   UNL     1       1.652  -4.713 -10.822  1.00  0.00     0.049 A 
ATOM     46  N   UNL     1       1.628  -7.478 -12.037  1.00  0.00    -0.248 NA
ATOM     47  C   UNL     1       0.564  -8.244 -10.104  1.00  0.00     0.031 C 
ATOM     48  C   UNL     1       1.673  -3.353 -10.288  1.00  0.00     0.029 A 
ATOM     49  N   UNL     1       2.188  -4.591 -12.081  1.00  0.00    -0.354 N 
ATOM     50  C   UNL     1       1.358  -8.835 -12.165  1.00  0.00     0.074 A 
ATOM     51  C   UNL     1       0.736  -9.263 -10.931  1.00  0.00     0.031 C 
ATOM     52  C   UNL     1       2.209  -2.533 -11.209  1.00  0.00     0.029 A 
ATOM     53  C   UNL     1       2.604  -3.317 -12.379  1.00  0.00     0.049 A 
ATOM     54  H   UNL     1       2.266  -5.345 -12.709  1.00  0.00     0.167 HD
ATOM     55  C   UNL     1       1.599  -9.649 -13.219  1.00  0.00     0.037 A 
ATOM     56  C   UNL     1       3.254  -2.848 -13.463  1.00  0.00     0.037 A 
ATOM     57  C   UNL     1       2.225  -9.221 -14.441  1.00  0.00     0.049 A 
ATOM     58  C   UNL     1       3.603  -3.796 -14.583  1.00  0.00     0.074 A 
ATOM     59  C   UNL     1       2.510  -9.967 -15.570  1.00  0.00     0.029 A 
ATOM     60  N   UNL     1       2.672  -7.931 -14.689  1.00  0.00    -0.354 N 
ATOM     61  N   UNL     1       3.334  -5.074 -14.703  1.00  0.00    -0.248 NA
ATOM     62  C   UNL     1       4.348  -3.234 -15.720  1.00  0.00     0.031 C 
ATOM     63  C   UNL     1       3.184  -9.144 -16.478  1.00  0.00     0.029 A 
ATOM     64  C   UNL     1       3.258  -7.868 -15.942  1.00  0.00     0.049 A 
ATOM     65  H   UNL     1       2.585  -7.174 -14.066  1.00  0.00     0.167 HD
ATOM     66  C   UNL     1       3.843  -5.459 -15.938  1.00  0.00     0.074 A 
ATOM     67  C   UNL     1       4.428  -4.276 -16.535  1.00  0.00     0.031 C 
ATOM     68  C   UNL     1       3.826  -6.680 -16.528  1.00  0.00     0.037 A 
BRANCH  55  69
ATOM     69  C   UNL     1       1.213 -11.093 -13.079  1.00  0.00     0.057 A 
ATOM     70  C   UNL     1      -0.126 -11.506 -13.050  1.00  0.00     0.134 A 
ATOM     71  C   UNL     1       2.196 -12.088 -12.999  1.00  0.00     0.134 A 
ATOM     72  F   UNL     1      -1.117 -10.603 -13.104  1.00  0.00    -0.206 F 
ATOM     73  C   UNL     1      -0.472 -12.852 -12.921  1.00  0.00     0.040 A 
ATOM     74  C   UNL     1       1.863 -13.439 -12.901  1.00  0.00     0.040 A 
ATOM     75  F   UNL     1       3.498 -11.763 -13.024  1.00  0.00    -0.206 F 
ATOM     76  C   UNL     1       0.524 -13.824 -12.855  1.00  0.00     0.006 A 
ENDBRANCH  55  69
BRANCH  56  77
ATOM     77  C   UNL     1       3.641  -1.415 -13.542  1.00  0.00     0.057 A 
ATOM     78  C   UNL     1       3.067  -0.561 -14.491  1.00  0.00     0.134 A 
ATOM     79  C   UNL     1       4.617  -0.873 -12.697  1.00  0.00     0.134 A 
ATOM     80  F   UNL     1       2.146  -1.025 -15.348  1.00  0.00    -0.206 F 
ATOM     81  C   UNL     1       3.464   0.773 -14.611  1.00  0.00     0.040 A 
ATOM     82  C   UNL     1       5.002   0.466 -12.786  1.00  0.00     0.040 A 
ATOM     83  F   UNL     1       5.208  -1.637 -11.766  1.00  0.00    -0.206 F 
ATOM     84  C   UNL     1       4.431   1.291 -13.752  1.00  0.00     0.006 A 
ENDBRANCH  56  77
BRANCH  68  85
ATOM     85  C   UNL     1       4.412  -6.795 -17.907  1.00  0.00     0.057 A 
ATOM     86  C   UNL     1       5.790  -6.712 -18.140  1.00  0.00     0.134 A 
ATOM     87  C   UNL     1       3.585  -7.045 -19.011  1.00  0.00     0.134 A 
ATOM     88  F   UNL     1       6.637  -6.464 -17.130  1.00  0.00    -0.206 F 
ATOM     89  C   UNL     1       6.323  -6.851 -19.424  1.00  0.00     0.040 A 
ATOM     90  C   UNL     1       4.108  -7.217 -20.293  1.00  0.00     0.040 A 
ATOM     91  F   UNL     1       2.256  -7.149 -18.858  1.00  0.00    -0.206 F 
ATOM     92  C   UNL     1       5.481  -7.113 -20.503  1.00  0.00     0.006 A 
ENDBRANCH  68  85
ENDBRANCH  42  43
ENDBRANCH  35  37
ENDBRANCH  34  35
ENDBRANCH  33  34
ENDBRANCH  32  33
ENDBRANCH  31  32
ENDBRANCH  30  31
ENDBRANCH  29  30
ENDBRANCH  28  29
ENDBRANCH   1  28
TORSDOF 24
