REMARK SMILES CC(C)[C@H](NC(=O)OCc1ccccc1)C(=O)NCC(=O)OCCOCCOCCOCCOC(=O)c1ccc(-c2c3nc(c(-c4c(F)cccc4F)c4ccc([nH]4)c(-c4c(F)cccc4F)c4nc(c(-c5c(F)cccc5F)c5ccc2[nH]5)C=C4)C=C3)cc1
REMARK SMILES IDX 26 1 25 2 24 3 23 4 22 5 20 6 21 7 19 8 18 9 16 10 17 11
REMARK SMILES IDX 4 13 2 14 1 15 3 16 5 17 6 18 7 20 8 21 9 22 10 23 11 24
REMARK SMILES IDX 15 25 12 26 14 27 13 28 27 29 28 30 29 31 30 32 31 33 32 34
REMARK SMILES IDX 33 35 34 36 35 37 36 38 37 39 38 40 90 41 39 42 89 43 40 44
REMARK SMILES IDX 41 45 42 46 83 47 43 48 88 49 82 50 84 51 44 52 87 53 81 54
REMARK SMILES IDX 80 55 45 57 71 58 54 59 70 60 55 61 58 62 69 63 85 64 56 65
REMARK SMILES IDX 57 66 68 68 86 69 59 70 46 71 47 72 52 73 48 74 49 75 51 76
REMARK SMILES IDX 53 77 50 78 72 79 73 80 78 81 74 82 75 83 77 84 79 85 76 86
REMARK SMILES IDX 60 87 61 88 66 89 62 90 63 91 65 92 67 93 64 94
REMARK H PARENT 18 12 5 19 84 56 58 67
REMARK Flexibility Score: inf
ROOT
ATOM      1  C   UNL     1       1.002   6.141   3.360  1.00  0.00     0.188 C 
ENDROOT
BRANCH   1   2
ATOM      2  O   UNL     1       2.338   6.579   3.221  1.00  0.00    -0.376 OA
BRANCH   2   3
ATOM      3  C   UNL     1       3.308   5.926   2.412  1.00  0.00     0.202 C 
BRANCH   3   4
ATOM      4  C   UNL     1       3.267   4.456   1.966  1.00  0.00     0.261 C 
BRANCH   4   5
ATOM      5  O   UNL     1       1.983   3.969   1.583  1.00  0.00    -0.462 OA
BRANCH   5   6
ATOM      6  C   UNL     1       1.417   3.111   2.467  1.00  0.00     0.325 C 
ATOM      7  O   UNL     1       1.962   2.671   3.474  1.00  0.00    -0.250 OA
BRANCH   6   8
ATOM      8  C   UNL     1      -0.065   2.897   2.201  1.00  0.00     0.238 C 
BRANCH   8   9
ATOM      9  N   UNL     1      -0.674   3.344   0.936  1.00  0.00    -0.343 N 
ATOM     10  C   UNL     1      -1.451   2.606   0.071  1.00  0.00     0.243 C 
ATOM     11  O   UNL     1      -2.264   3.168  -0.660  1.00  0.00    -0.273 OA
ATOM     12  H   UNL     1      -0.505   4.280   0.680  1.00  0.00     0.164 HD
BRANCH  10  13
ATOM     13  C   UNL     1      -1.268   1.077   0.084  1.00  0.00     0.177 C 
BRANCH  13  14
ATOM     14  C   UNL     1      -2.018   0.349   1.239  1.00  0.00     0.015 C 
ATOM     15  C   UNL     1      -2.972   1.212   2.083  1.00  0.00     0.010 C 
ATOM     16  C   UNL     1      -2.840  -0.812   0.667  1.00  0.00     0.010 C 
ENDBRANCH  13  14
BRANCH  13  17
ATOM     17  N   UNL     1       0.204   1.007   0.126  1.00  0.00    -0.309 N 
ATOM     18  C   UNL     1       1.038   0.041   0.531  1.00  0.00     0.408 C 
ATOM     19  H   UNL     1       0.655   1.818  -0.203  1.00  0.00     0.167 HD
ATOM     20  O   UNL     1       2.183   0.340   0.873  1.00  0.00    -0.225 OA
BRANCH  18  21
ATOM     21  O   UNL     1       0.510  -1.191   0.485  1.00  0.00    -0.445 OA
BRANCH  21  22
ATOM     22  C   UNL     1       1.421  -2.227   0.861  1.00  0.00     0.270 C 
BRANCH  22  23
ATOM     23  C   UNL     1       2.254  -2.728  -0.299  1.00  0.00    -0.011 A 
ATOM     24  C   UNL     1       2.420  -4.106  -0.479  1.00  0.00     0.007 A 
ATOM     25  C   UNL     1       2.946  -1.860  -1.162  1.00  0.00     0.007 A 
ATOM     26  C   UNL     1       3.244  -4.598  -1.492  1.00  0.00     0.000 A 
ATOM     27  C   UNL     1       3.769  -2.351  -2.175  1.00  0.00     0.000 A 
ATOM     28  C   UNL     1       3.920  -3.721  -2.338  1.00  0.00     0.000 A 
ENDBRANCH  22  23
ENDBRANCH  21  22
ENDBRANCH  18  21
ENDBRANCH  13  17
ENDBRANCH  10  13
ENDBRANCH   8   9
ENDBRANCH   6   8
ENDBRANCH   5   6
ENDBRANCH   4   5
ENDBRANCH   3   4
ENDBRANCH   2   3
ENDBRANCH   1   2
BRANCH   1  29
ATOM     29  C   UNL     1       0.011   6.269   2.194  1.00  0.00     0.188 C 
BRANCH  29  30
ATOM     30  O   UNL     1       0.541   6.075   0.898  1.00  0.00    -0.377 OA
BRANCH  30  31
ATOM     31  C   UNL     1       1.164   7.185   0.248  1.00  0.00     0.188 C 
BRANCH  31  32
ATOM     32  C   UNL     1       1.413   8.515   0.999  1.00  0.00     0.188 C 
BRANCH  32  33
ATOM     33  O   UNL     1       0.404   8.893   1.917  1.00  0.00    -0.376 OA
BRANCH  33  34
ATOM     34  C   UNL     1      -0.652   9.739   1.490  1.00  0.00     0.202 C 
BRANCH  34  35
ATOM     35  C   UNL     1      -1.495   9.315   0.276  1.00  0.00     0.261 C 
BRANCH  35  36
ATOM     36  O   UNL     1      -0.788   9.121  -0.959  1.00  0.00    -0.460 OA
BRANCH  36  37
ATOM     37  C   UNL     1      -0.053  10.146  -1.439  1.00  0.00     0.338 C 
ATOM     38  O   UNL     1       0.040  11.268  -0.980  1.00  0.00    -0.246 OA
BRANCH  37  39
ATOM     39  C   UNL     1       0.795   9.613  -2.526  1.00  0.00     0.060 A 
ATOM     40  C   UNL     1       2.188   9.687  -2.398  1.00  0.00     0.016 A 
ATOM     41  C   UNL     1       0.217   9.056  -3.668  1.00  0.00     0.016 A 
ATOM     42  C   UNL     1       3.010   9.239  -3.433  1.00  0.00     0.010 A 
ATOM     43  C   UNL     1       1.040   8.631  -4.714  1.00  0.00     0.010 A 
ATOM     44  C   UNL     1       2.438   8.755  -4.616  1.00  0.00    -0.014 A 
BRANCH  44  45
ATOM     45  C   UNL     1       3.283   8.584  -5.823  1.00  0.00     0.031 A 
ATOM     46  C   UNL     1       3.291   9.686  -6.847  1.00  0.00     0.074 A 
ATOM     47  C   UNL     1       4.050   7.494  -5.997  1.00  0.00     0.049 A 
ATOM     48  N   UNL     1       3.890   9.741  -8.008  1.00  0.00    -0.248 NA
ATOM     49  C   UNL     1       2.513  10.892  -6.513  1.00  0.00     0.031 C 
ATOM     50  C   UNL     1       4.175   6.385  -5.053  1.00  0.00     0.029 A 
ATOM     51  N   UNL     1       4.865   7.141  -7.043  1.00  0.00    -0.354 N 
ATOM     52  C   UNL     1       3.562  10.981  -8.542  1.00  0.00     0.074 A 
ATOM     53  C   UNL     1       2.679  11.631  -7.599  1.00  0.00     0.031 C 
ATOM     54  C   UNL     1       5.008   5.465  -5.572  1.00  0.00     0.029 A 
ATOM     55  C   UNL     1       5.443   5.903  -6.897  1.00  0.00     0.049 A 
ATOM     56  H   UNL     1       5.020   7.719  -7.825  1.00  0.00     0.167 HD
ATOM     57  C   UNL     1       3.970  11.536  -9.708  1.00  0.00     0.037 A 
ATOM     58  C   UNL     1       6.211   5.198  -7.751  1.00  0.00     0.037 A 
ATOM     59  C   UNL     1       4.838  10.883 -10.652  1.00  0.00     0.049 A 
ATOM     60  C   UNL     1       6.560   5.791  -9.094  1.00  0.00     0.074 A 
ATOM     61  C   UNL     1       5.301  11.354 -11.867  1.00  0.00     0.029 A 
ATOM     62  N   UNL     1       5.368   9.612 -10.487  1.00  0.00    -0.354 N 
ATOM     63  N   UNL     1       6.256   6.968  -9.586  1.00  0.00    -0.248 NA
ATOM     64  C   UNL     1       7.362   4.955  -9.999  1.00  0.00     0.031 C 
ATOM     65  C   UNL     1       6.067  10.348 -12.463  1.00  0.00     0.029 A 
ATOM     66  C   UNL     1       6.135   9.275 -11.589  1.00  0.00     0.049 A 
ATOM     67  H   UNL     1       5.221   9.036  -9.702  1.00  0.00     0.167 HD
ATOM     68  C   UNL     1       6.862   7.028 -10.837  1.00  0.00     0.074 A 
ATOM     69  C   UNL     1       7.561   5.775 -11.022  1.00  0.00     0.031 C 
ATOM     70  C   UNL     1       6.843   8.030 -11.750  1.00  0.00     0.037 A 
BRANCH  57  71
ATOM     71  C   UNL     1       3.459  12.909 -10.037  1.00  0.00     0.057 A 
ATOM     72  C   UNL     1       3.881  14.044  -9.330  1.00  0.00     0.134 A 
ATOM     73  C   UNL     1       2.558  13.104 -11.091  1.00  0.00     0.134 A 
ATOM     74  F   UNL     1       4.731  13.925  -8.298  1.00  0.00    -0.206 F 
ATOM     75  C   UNL     1       3.408  15.318  -9.646  1.00  0.00     0.040 A 
ATOM     76  C   UNL     1       2.101  14.377 -11.435  1.00  0.00     0.040 A 
ATOM     77  F   UNL     1       2.116  12.062 -11.811  1.00  0.00    -0.206 F 
ATOM     78  C   UNL     1       2.521  15.488 -10.707  1.00  0.00     0.006 A 
ENDBRANCH  57  71
BRANCH  58  79
ATOM     79  C   UNL     1       6.690   3.837  -7.388  1.00  0.00     0.057 A 
ATOM     80  C   UNL     1       8.054   3.567  -7.223  1.00  0.00     0.134 A 
ATOM     81  C   UNL     1       5.803   2.761  -7.257  1.00  0.00     0.134 A 
ATOM     82  F   UNL     1       8.957   4.549  -7.361  1.00  0.00    -0.206 F 
ATOM     83  C   UNL     1       8.521   2.276  -6.972  1.00  0.00     0.040 A 
ATOM     84  C   UNL     1       6.253   1.470  -6.975  1.00  0.00     0.040 A 
ATOM     85  F   UNL     1       4.483   2.949  -7.404  1.00  0.00    -0.206 F 
ATOM     86  C   UNL     1       7.617   1.223  -6.844  1.00  0.00     0.006 A 
ENDBRANCH  58  79
BRANCH  70  87
ATOM     87  C   UNL     1       7.648   7.841 -13.006  1.00  0.00     0.057 A 
ATOM     88  C   UNL     1       7.276   6.928 -14.001  1.00  0.00     0.134 A 
ATOM     89  C   UNL     1       8.790   8.618 -13.240  1.00  0.00     0.134 A 
ATOM     90  F   UNL     1       6.199   6.144 -13.837  1.00  0.00    -0.206 F 
ATOM     91  C   UNL     1       8.026   6.774 -15.168  1.00  0.00     0.040 A 
ATOM     92  C   UNL     1       9.530   8.497 -14.417  1.00  0.00     0.040 A 
ATOM     93  F   UNL     1       9.197   9.522 -12.335  1.00  0.00    -0.206 F 
ATOM     94  C   UNL     1       9.152   7.567 -15.382  1.00  0.00     0.006 A 
ENDBRANCH  70  87
ENDBRANCH  44  45
ENDBRANCH  37  39
ENDBRANCH  36  37
ENDBRANCH  35  36
ENDBRANCH  34  35
ENDBRANCH  33  34
ENDBRANCH  32  33
ENDBRANCH  31  32
ENDBRANCH  30  31
ENDBRANCH  29  30
ENDBRANCH   1  29
TORSDOF 27
